
Note: Compatibility modes selected: hs

Warning: m=xx on .subckt line will override multiplier m hierarchy!


Circuit: ***************************

Doing analysis at TEMP = 25.000000 and TNOM = 25.000000


No. of Data Rows : 133
                          ***************************
                          DC transfer characteristic  Mon Jan  9 13:58:05  2023
--------------------------------------------------------------------------------
Index   v-sweep         rds             
--------------------------------------------------------------------------------
0	0.000000e+00	8.871066e+03	
1	5.000000e-02	1.036358e+04	
2	1.000000e-01	1.241627e+04	
3	1.500000e-01	1.540668e+04	
4	2.000000e-01	2.010912e+04	
5	2.500000e-01	2.812791e+04	
6	3.000000e-01	4.106459e+04	
7	3.500000e-01	5.476492e+04	
8	4.000000e-01	6.566449e+04	
9	4.500000e-01	7.491610e+04	
10	5.000000e-01	8.314796e+04	
11	5.500000e-01	9.056703e+04	
12	6.000000e-01	9.728574e+04	
13	6.500000e-01	1.033891e+05	
14	7.000000e-01	1.089482e+05	
15	7.500000e-01	1.140246e+05	
16	8.000000e-01	1.186714e+05	
17	8.500000e-01	1.229350e+05	
18	9.000000e-01	1.268559e+05	
19	9.500000e-01	1.304692e+05	
20	1.000000e+00	1.338061e+05	
21	1.050000e+00	1.368937e+05	
22	1.100000e+00	1.397560e+05	
23	1.150000e+00	1.424140e+05	
24	1.200000e+00	1.448866e+05	
25	1.250000e+00	1.471904e+05	
26	1.300000e+00	1.493402e+05	
27	1.350000e+00	1.513491e+05	
28	1.400000e+00	1.532291e+05	
29	1.450000e+00	1.549906e+05	
30	1.500000e+00	1.566433e+05	
31	1.550000e+00	1.581957e+05	
32	1.600000e+00	1.596555e+05	
33	1.650000e+00	1.610298e+05	
34	1.700000e+00	1.623249e+05	
35	1.750000e+00	1.635465e+05	
36	1.800000e+00	1.647000e+05	
37	1.850000e+00	1.657901e+05	
38	1.900000e+00	1.668212e+05	
39	1.950000e+00	1.677973e+05	
40	2.000000e+00	1.687220e+05	
41	2.050000e+00	1.695987e+05	
42	2.100000e+00	1.704305e+05	
43	2.150000e+00	1.712202e+05	
44	2.200000e+00	1.719705e+05	
45	2.250000e+00	1.726838e+05	
46	2.300000e+00	1.733623e+05	
47	2.350000e+00	1.740080e+05	
48	2.400000e+00	1.746230e+05	
49	2.450000e+00	1.752089e+05	
50	2.500000e+00	1.757675e+05	
51	2.550000e+00	1.763002e+05	
52	2.600000e+00	1.768085e+05	
53	2.650000e+00	1.772938e+05	
54	2.700000e+00	1.777572e+05	

Index   v-sweep         rds             
--------------------------------------------------------------------------------
55	2.750000e+00	1.781999e+05	
56	2.800000e+00	1.786231e+05	
57	2.850000e+00	1.790276e+05	
58	2.900000e+00	1.794146e+05	
59	2.950000e+00	1.797848e+05	
60	3.000000e+00	1.801391e+05	
61	3.050000e+00	1.804784e+05	
62	3.100000e+00	1.808032e+05	
63	3.150000e+00	1.811143e+05	
64	3.200000e+00	1.814125e+05	
65	3.250000e+00	1.816982e+05	
66	3.300000e+00	1.819720e+05	
67	3.350000e+00	1.822346e+05	
68	3.400000e+00	1.824864e+05	
69	3.450000e+00	1.827278e+05	
70	3.500000e+00	1.829595e+05	
71	3.550000e+00	1.831818e+05	
72	3.600000e+00	1.833950e+05	
73	3.650000e+00	1.835997e+05	
74	3.700000e+00	1.837962e+05	
75	3.750000e+00	1.839847e+05	
76	3.800000e+00	1.841657e+05	
77	3.850000e+00	1.843395e+05	
78	3.900000e+00	1.845064e+05	
79	3.950000e+00	1.846666e+05	
80	4.000000e+00	1.848204e+05	
81	4.050000e+00	1.849682e+05	
82	4.100000e+00	1.851100e+05	
83	4.150000e+00	1.852462e+05	
84	4.200000e+00	1.853770e+05	
85	4.250000e+00	1.855026e+05	
86	4.300000e+00	1.856231e+05	
87	4.350000e+00	1.857389e+05	
88	4.400000e+00	1.858500e+05	
89	4.450000e+00	1.859567e+05	
90	4.500000e+00	1.860590e+05	
91	4.550000e+00	1.861573e+05	
92	4.600000e+00	1.862516e+05	
93	4.650000e+00	1.863420e+05	
94	4.700000e+00	1.864288e+05	
95	4.750000e+00	1.865120e+05	
96	4.800000e+00	1.865917e+05	
97	4.850000e+00	1.866682e+05	
98	4.900000e+00	1.867415e+05	
99	4.950000e+00	1.868117e+05	
100	5.000000e+00	1.868790e+05	
101	5.050000e+00	1.869434e+05	
102	5.100000e+00	1.870050e+05	
103	5.150000e+00	1.870640e+05	
104	5.200000e+00	1.871204e+05	
105	5.250000e+00	1.871743e+05	
106	5.300000e+00	1.872258e+05	
107	5.350000e+00	1.872750e+05	
108	5.400000e+00	1.873220e+05	
109	5.450000e+00	1.873668e+05	
110	5.500000e+00	1.874095e+05	
111	5.550000e+00	1.874502e+05	
112	5.600000e+00	1.874889e+05	

Index   v-sweep         rds             
--------------------------------------------------------------------------------
113	5.650000e+00	1.875257e+05	
114	5.700000e+00	1.875607e+05	
115	5.750000e+00	1.875940e+05	
116	5.800000e+00	1.876255e+05	
117	5.850000e+00	1.876554e+05	
118	5.900000e+00	1.876837e+05	
119	5.950000e+00	1.877104e+05	
120	6.000000e+00	1.877357e+05	
121	6.050000e+00	1.877595e+05	
122	6.100000e+00	1.877819e+05	
123	6.150000e+00	1.878029e+05	
124	6.200000e+00	1.878226e+05	
125	6.250000e+00	1.878411e+05	
126	6.300000e+00	1.878583e+05	
127	6.350000e+00	1.878744e+05	
128	6.400000e+00	1.878892e+05	
129	6.450000e+00	1.879030e+05	
130	6.500000e+00	1.879157e+05	
131	6.550000e+00	1.879274e+05	
132	6.600000e+00	1.879380e+05	
Reset re-loads circuit ***************************

Circuit: ***************************

Doing analysis at TEMP = 25.000000 and TNOM = 25.000000


No. of Data Rows : 133
                          ***************************
                          DC transfer characteristic  Mon Jan  9 13:58:05  2023
--------------------------------------------------------------------------------
Index   v-sweep         rds             
--------------------------------------------------------------------------------
0	0.000000e+00	2.631609e+03	
1	5.000000e-02	2.755490e+03	
2	1.000000e-01	2.889031e+03	
3	1.500000e-01	3.033400e+03	
4	2.000000e-01	3.189956e+03	
5	2.500000e-01	3.360297e+03	
6	3.000000e-01	3.546313e+03	
7	3.500000e-01	3.750253e+03	
8	4.000000e-01	3.974819e+03	
9	4.500000e-01	4.223285e+03	
10	5.000000e-01	4.499667e+03	
11	5.500000e-01	4.808974e+03	
12	6.000000e-01	5.157625e+03	
13	6.500000e-01	5.554294e+03	
14	7.000000e-01	6.012041e+03	
15	7.500000e-01	6.554665e+03	
16	8.000000e-01	7.235039e+03	
17	8.500000e-01	8.164503e+03	
18	9.000000e-01	9.468564e+03	
19	9.500000e-01	1.112471e+04	
20	1.000000e+00	1.298106e+04	
21	1.050000e+00	1.491003e+04	
22	1.100000e+00	1.684405e+04	
23	1.150000e+00	1.875171e+04	
24	1.200000e+00	2.061874e+04	
25	1.250000e+00	2.243880e+04	
26	1.300000e+00	2.420934e+04	
27	1.350000e+00	2.592978e+04	
28	1.400000e+00	2.760052e+04	
29	1.450000e+00	2.922252e+04	
30	1.500000e+00	3.079703e+04	
31	1.550000e+00	3.232548e+04	
32	1.600000e+00	3.380934e+04	
33	1.650000e+00	3.525014e+04	
34	1.700000e+00	3.664937e+04	
35	1.750000e+00	3.800852e+04	
36	1.800000e+00	3.932903e+04	
37	1.850000e+00	4.061231e+04	
38	1.900000e+00	4.185971e+04	
39	1.950000e+00	4.307254e+04	
40	2.000000e+00	4.425205e+04	
41	2.050000e+00	4.539945e+04	
42	2.100000e+00	4.651590e+04	
43	2.150000e+00	4.760251e+04	
44	2.200000e+00	4.866036e+04	
45	2.250000e+00	4.969045e+04	
46	2.300000e+00	5.069376e+04	
47	2.350000e+00	5.167125e+04	
48	2.400000e+00	5.262379e+04	
49	2.450000e+00	5.355226e+04	
50	2.500000e+00	5.445748e+04	
51	2.550000e+00	5.534023e+04	
52	2.600000e+00	5.620128e+04	
53	2.650000e+00	5.704135e+04	
54	2.700000e+00	5.786114e+04	

Index   v-sweep         rds             
--------------------------------------------------------------------------------
55	2.750000e+00	5.866131e+04	
56	2.800000e+00	5.944251e+04	
57	2.850000e+00	6.020534e+04	
58	2.900000e+00	6.095041e+04	
59	2.950000e+00	6.167827e+04	
60	3.000000e+00	6.238947e+04	
61	3.050000e+00	6.308453e+04	
62	3.100000e+00	6.376395e+04	
63	3.150000e+00	6.442821e+04	
64	3.200000e+00	6.507779e+04	
65	3.250000e+00	6.571312e+04	
66	3.300000e+00	6.633463e+04	
67	3.350000e+00	6.694273e+04	
68	3.400000e+00	6.753783e+04	
69	3.450000e+00	6.812030e+04	
70	3.500000e+00	6.869051e+04	
71	3.550000e+00	6.924882e+04	
72	3.600000e+00	6.979557e+04	
73	3.650000e+00	7.033108e+04	
74	3.700000e+00	7.085568e+04	
75	3.750000e+00	7.136967e+04	
76	3.800000e+00	7.187335e+04	
77	3.850000e+00	7.236699e+04	
78	3.900000e+00	7.285088e+04	
79	3.950000e+00	7.332529e+04	
80	4.000000e+00	7.379045e+04	
81	4.050000e+00	7.424664e+04	
82	4.100000e+00	7.469407e+04	
83	4.150000e+00	7.513299e+04	
84	4.200000e+00	7.556362e+04	
85	4.250000e+00	7.598617e+04	
86	4.300000e+00	7.640084e+04	
87	4.350000e+00	7.680786e+04	
88	4.400000e+00	7.720740e+04	
89	4.450000e+00	7.759966e+04	
90	4.500000e+00	7.798482e+04	
91	4.550000e+00	7.836305e+04	
92	4.600000e+00	7.873453e+04	
93	4.650000e+00	7.909943e+04	
94	4.700000e+00	7.945790e+04	
95	4.750000e+00	7.981011e+04	
96	4.800000e+00	8.015619e+04	
97	4.850000e+00	8.049631e+04	
98	4.900000e+00	8.083059e+04	
99	4.950000e+00	8.115919e+04	
100	5.000000e+00	8.148222e+04	
101	5.050000e+00	8.179983e+04	
102	5.100000e+00	8.211213e+04	
103	5.150000e+00	8.241925e+04	
104	5.200000e+00	8.272131e+04	
105	5.250000e+00	8.301842e+04	
106	5.300000e+00	8.331069e+04	
107	5.350000e+00	8.359823e+04	
108	5.400000e+00	8.388116e+04	
109	5.450000e+00	8.415956e+04	
110	5.500000e+00	8.443354e+04	
111	5.550000e+00	8.470320e+04	
112	5.600000e+00	8.496863e+04	

Index   v-sweep         rds             
--------------------------------------------------------------------------------
113	5.650000e+00	8.522992e+04	
114	5.700000e+00	8.548716e+04	
115	5.750000e+00	8.574044e+04	
116	5.800000e+00	8.598984e+04	
117	5.850000e+00	8.623544e+04	
118	5.900000e+00	8.647732e+04	
119	5.950000e+00	8.671557e+04	
120	6.000000e+00	8.695025e+04	
121	6.050000e+00	8.718144e+04	
122	6.100000e+00	8.740921e+04	
123	6.150000e+00	8.763363e+04	
124	6.200000e+00	8.785476e+04	
125	6.250000e+00	8.807269e+04	
126	6.300000e+00	8.828746e+04	
127	6.350000e+00	8.849914e+04	
128	6.400000e+00	8.870780e+04	
129	6.450000e+00	8.891349e+04	
130	6.500000e+00	8.911627e+04	
131	6.550000e+00	8.931620e+04	
132	6.600000e+00	8.951333e+04	
Reset re-loads circuit ***************************

Circuit: ***************************

Doing analysis at TEMP = 25.000000 and TNOM = 25.000000


No. of Data Rows : 133
                          ***************************
                          DC transfer characteristic  Mon Jan  9 13:58:05  2023
--------------------------------------------------------------------------------
Index   v-sweep         rds             
--------------------------------------------------------------------------------
0	0.000000e+00	1.765322e+03	
1	5.000000e-02	1.819775e+03	
2	1.000000e-01	1.876650e+03	
3	1.500000e-01	1.936109e+03	
4	2.000000e-01	1.998329e+03	
5	2.500000e-01	2.063504e+03	
6	3.000000e-01	2.131846e+03	
7	3.500000e-01	2.203588e+03	
8	4.000000e-01	2.278988e+03	
9	4.500000e-01	2.358329e+03	
10	5.000000e-01	2.441927e+03	
11	5.500000e-01	2.530133e+03	
12	6.000000e-01	2.623338e+03	
13	6.500000e-01	2.721983e+03	
14	7.000000e-01	2.826568e+03	
15	7.500000e-01	2.937665e+03	
16	8.000000e-01	3.055946e+03	
17	8.500000e-01	3.182224e+03	
18	9.000000e-01	3.317538e+03	
19	9.500000e-01	3.463336e+03	
20	1.000000e+00	3.621899e+03	
21	1.050000e+00	3.797403e+03	
22	1.100000e+00	3.998604e+03	
23	1.150000e+00	4.245276e+03	
24	1.200000e+00	4.579654e+03	
25	1.250000e+00	5.069432e+03	
26	1.300000e+00	5.767228e+03	
27	1.350000e+00	6.655791e+03	
28	1.400000e+00	7.669754e+03	
29	1.450000e+00	8.749321e+03	
30	1.500000e+00	9.857091e+03	
31	1.550000e+00	1.097245e+04	
32	1.600000e+00	1.208427e+04	
33	1.650000e+00	1.318646e+04	
34	1.700000e+00	1.427561e+04	
35	1.750000e+00	1.534981e+04	
36	1.800000e+00	1.640796e+04	
37	1.850000e+00	1.744951e+04	
38	1.900000e+00	1.847420e+04	
39	1.950000e+00	1.948195e+04	
40	2.000000e+00	2.047285e+04	
41	2.050000e+00	2.144703e+04	
42	2.100000e+00	2.240470e+04	
43	2.150000e+00	2.334610e+04	
44	2.200000e+00	2.427151e+04	
45	2.250000e+00	2.518121e+04	
46	2.300000e+00	2.607549e+04	
47	2.350000e+00	2.695466e+04	
48	2.400000e+00	2.781901e+04	
49	2.450000e+00	2.866884e+04	
50	2.500000e+00	2.950446e+04	
51	2.550000e+00	3.032617e+04	
52	2.600000e+00	3.113426e+04	
53	2.650000e+00	3.192901e+04	
54	2.700000e+00	3.271072e+04	

Index   v-sweep         rds             
--------------------------------------------------------------------------------
55	2.750000e+00	3.347966e+04	
56	2.800000e+00	3.423610e+04	
57	2.850000e+00	3.498032e+04	
58	2.900000e+00	3.571257e+04	
59	2.950000e+00	3.643311e+04	
60	3.000000e+00	3.714219e+04	
61	3.050000e+00	3.784006e+04	
62	3.100000e+00	3.852695e+04	
63	3.150000e+00	3.920310e+04	
64	3.200000e+00	3.986873e+04	
65	3.250000e+00	4.052406e+04	
66	3.300000e+00	4.116932e+04	
67	3.350000e+00	4.180471e+04	
68	3.400000e+00	4.243044e+04	
69	3.450000e+00	4.304671e+04	
70	3.500000e+00	4.365371e+04	
71	3.550000e+00	4.425164e+04	
72	3.600000e+00	4.484068e+04	
73	3.650000e+00	4.542101e+04	
74	3.700000e+00	4.599281e+04	
75	3.750000e+00	4.655626e+04	
76	3.800000e+00	4.711151e+04	
77	3.850000e+00	4.765874e+04	
78	3.900000e+00	4.819811e+04	
79	3.950000e+00	4.872977e+04	
80	4.000000e+00	4.925387e+04	
81	4.050000e+00	4.977057e+04	
82	4.100000e+00	5.028000e+04	
83	4.150000e+00	5.078231e+04	
84	4.200000e+00	5.127764e+04	
85	4.250000e+00	5.176612e+04	
86	4.300000e+00	5.224789e+04	
87	4.350000e+00	5.272307e+04	
88	4.400000e+00	5.319178e+04	
89	4.450000e+00	5.365416e+04	
90	4.500000e+00	5.411031e+04	
91	4.550000e+00	5.456036e+04	
92	4.600000e+00	5.500442e+04	
93	4.650000e+00	5.544259e+04	
94	4.700000e+00	5.587500e+04	
95	4.750000e+00	5.630175e+04	
96	4.800000e+00	5.672293e+04	
97	4.850000e+00	5.713865e+04	
98	4.900000e+00	5.754901e+04	
99	4.950000e+00	5.795411e+04	
100	5.000000e+00	5.835404e+04	
101	5.050000e+00	5.874889e+04	
102	5.100000e+00	5.913875e+04	
103	5.150000e+00	5.952371e+04	
104	5.200000e+00	5.990386e+04	
105	5.250000e+00	6.027929e+04	
106	5.300000e+00	6.065006e+04	
107	5.350000e+00	6.101627e+04	
108	5.400000e+00	6.137800e+04	
109	5.450000e+00	6.173531e+04	
110	5.500000e+00	6.208829e+04	
111	5.550000e+00	6.243701e+04	
112	5.600000e+00	6.278154e+04	

Index   v-sweep         rds             
--------------------------------------------------------------------------------
113	5.650000e+00	6.312195e+04	
114	5.700000e+00	6.345832e+04	
115	5.750000e+00	6.379070e+04	
116	5.800000e+00	6.411917e+04	
117	5.850000e+00	6.444379e+04	
118	5.900000e+00	6.476463e+04	
119	5.950000e+00	6.508174e+04	
120	6.000000e+00	6.539518e+04	
121	6.050000e+00	6.570502e+04	
122	6.100000e+00	6.601132e+04	
123	6.150000e+00	6.631413e+04	
124	6.200000e+00	6.661351e+04	
125	6.250000e+00	6.690950e+04	
126	6.300000e+00	6.720218e+04	
127	6.350000e+00	6.749158e+04	
128	6.400000e+00	6.777776e+04	
129	6.450000e+00	6.806078e+04	
130	6.500000e+00	6.834067e+04	
131	6.550000e+00	6.861749e+04	
132	6.600000e+00	6.889129e+04	
Reset re-loads circuit ***************************

Circuit: ***************************

Doing analysis at TEMP = 25.000000 and TNOM = 25.000000


No. of Data Rows : 133
                          ***************************
                          DC transfer characteristic  Mon Jan  9 13:58:05  2023
--------------------------------------------------------------------------------
Index   v-sweep         rds             
--------------------------------------------------------------------------------
0	0.000000e+00	1.429224e+03	
1	5.000000e-02	1.463056e+03	
2	1.000000e-01	1.497942e+03	
3	1.500000e-01	1.533933e+03	
4	2.000000e-01	1.571079e+03	
5	2.500000e-01	1.609436e+03	
6	3.000000e-01	1.649062e+03	
7	3.500000e-01	1.690020e+03	
8	4.000000e-01	1.732377e+03	
9	4.500000e-01	1.776203e+03	
10	5.000000e-01	1.821576e+03	
11	5.500000e-01	1.868579e+03	
12	6.000000e-01	1.917298e+03	
13	6.500000e-01	1.967830e+03	
14	7.000000e-01	2.020277e+03	
15	7.500000e-01	2.074751e+03	
16	8.000000e-01	2.131372e+03	
17	8.500000e-01	2.190274e+03	
18	9.000000e-01	2.251600e+03	
19	9.500000e-01	2.315514e+03	
20	1.000000e+00	2.382197e+03	
21	1.050000e+00	2.451863e+03	
22	1.100000e+00	2.524766e+03	
23	1.150000e+00	2.601229e+03	
24	1.200000e+00	2.681692e+03	
25	1.250000e+00	2.766811e+03	
26	1.300000e+00	2.857671e+03	
27	1.350000e+00	2.956256e+03	
28	1.400000e+00	3.066504e+03	
29	1.450000e+00	3.196646e+03	
30	1.500000e+00	3.363686e+03	
31	1.550000e+00	3.598729e+03	
32	1.600000e+00	3.943195e+03	
33	1.650000e+00	4.423824e+03	
34	1.700000e+00	5.029350e+03	
35	1.750000e+00	5.723272e+03	
36	1.800000e+00	6.469873e+03	
37	1.850000e+00	7.244538e+03	
38	1.900000e+00	8.032406e+03	
39	1.950000e+00	8.824818e+03	
40	2.000000e+00	9.616693e+03	
41	2.050000e+00	1.040499e+04	
42	2.100000e+00	1.118783e+04	
43	2.150000e+00	1.196406e+04	
44	2.200000e+00	1.273293e+04	
45	2.250000e+00	1.349397e+04	
46	2.300000e+00	1.424689e+04	
47	2.350000e+00	1.499152e+04	
48	2.400000e+00	1.572777e+04	
49	2.450000e+00	1.645559e+04	
50	2.500000e+00	1.717499e+04	
51	2.550000e+00	1.788601e+04	
52	2.600000e+00	1.858870e+04	
53	2.650000e+00	1.928312e+04	
54	2.700000e+00	1.996936e+04	

Index   v-sweep         rds             
--------------------------------------------------------------------------------
55	2.750000e+00	2.064750e+04	
56	2.800000e+00	2.131763e+04	
57	2.850000e+00	2.197986e+04	
58	2.900000e+00	2.263429e+04	
59	2.950000e+00	2.328102e+04	
60	3.000000e+00	2.392015e+04	
61	3.050000e+00	2.455180e+04	
62	3.100000e+00	2.517606e+04	
63	3.150000e+00	2.579304e+04	
64	3.200000e+00	2.640285e+04	
65	3.250000e+00	2.700559e+04	
66	3.300000e+00	2.760137e+04	
67	3.350000e+00	2.819028e+04	
68	3.400000e+00	2.877244e+04	
69	3.450000e+00	2.934794e+04	
70	3.500000e+00	2.991687e+04	
71	3.550000e+00	3.047935e+04	
72	3.600000e+00	3.103546e+04	
73	3.650000e+00	3.158531e+04	
74	3.700000e+00	3.212898e+04	
75	3.750000e+00	3.266657e+04	
76	3.800000e+00	3.319816e+04	
77	3.850000e+00	3.372386e+04	
78	3.900000e+00	3.424374e+04	
79	3.950000e+00	3.475789e+04	
80	4.000000e+00	3.526640e+04	
81	4.050000e+00	3.576936e+04	
82	4.100000e+00	3.626684e+04	
83	4.150000e+00	3.675892e+04	
84	4.200000e+00	3.724570e+04	
85	4.250000e+00	3.772724e+04	
86	4.300000e+00	3.820361e+04	
87	4.350000e+00	3.867491e+04	
88	4.400000e+00	3.914120e+04	
89	4.450000e+00	3.960255e+04	
90	4.500000e+00	4.005904e+04	
91	4.550000e+00	4.051074e+04	
92	4.600000e+00	4.095771e+04	
93	4.650000e+00	4.140003e+04	
94	4.700000e+00	4.183776e+04	
95	4.750000e+00	4.227097e+04	
96	4.800000e+00	4.269972e+04	
97	4.850000e+00	4.312408e+04	
98	4.900000e+00	4.354411e+04	
99	4.950000e+00	4.395986e+04	
100	5.000000e+00	4.437141e+04	
101	5.050000e+00	4.477881e+04	
102	5.100000e+00	4.518211e+04	
103	5.150000e+00	4.558138e+04	
104	5.200000e+00	4.597667e+04	
105	5.250000e+00	4.636804e+04	
106	5.300000e+00	4.675554e+04	
107	5.350000e+00	4.713922e+04	
108	5.400000e+00	4.751914e+04	
109	5.450000e+00	4.789535e+04	
110	5.500000e+00	4.826790e+04	
111	5.550000e+00	4.863683e+04	
112	5.600000e+00	4.900221e+04	

Index   v-sweep         rds             
--------------------------------------------------------------------------------
113	5.650000e+00	4.936407e+04	
114	5.700000e+00	4.972247e+04	
115	5.750000e+00	5.007744e+04	
116	5.800000e+00	5.042905e+04	
117	5.850000e+00	5.077732e+04	
118	5.900000e+00	5.112231e+04	
119	5.950000e+00	5.146405e+04	
120	6.000000e+00	5.180260e+04	
121	6.050000e+00	5.213800e+04	
122	6.100000e+00	5.247028e+04	
123	6.150000e+00	5.279948e+04	
124	6.200000e+00	5.312565e+04	
125	6.250000e+00	5.344883e+04	
126	6.300000e+00	5.376905e+04	
127	6.350000e+00	5.408635e+04	
128	6.400000e+00	5.440077e+04	
129	6.450000e+00	5.471235e+04	
130	6.500000e+00	5.502112e+04	
131	6.550000e+00	5.532712e+04	
132	6.600000e+00	5.563039e+04	
Reset re-loads circuit ***************************

Circuit: ***************************

Doing analysis at TEMP = 25.000000 and TNOM = 25.000000


No. of Data Rows : 133
                          ***************************
                          DC transfer characteristic  Mon Jan  9 13:58:05  2023
--------------------------------------------------------------------------------
Index   v-sweep         rds             
--------------------------------------------------------------------------------
0	0.000000e+00	1.260758e+03	
1	5.000000e-02	1.285093e+03	
2	1.000000e-01	1.310011e+03	
3	1.500000e-01	1.335530e+03	
4	2.000000e-01	1.361672e+03	
5	2.500000e-01	1.388459e+03	
6	3.000000e-01	1.415914e+03	
7	3.500000e-01	1.444063e+03	
8	4.000000e-01	1.472930e+03	
9	4.500000e-01	1.502542e+03	
10	5.000000e-01	1.532929e+03	
11	5.500000e-01	1.564119e+03	
12	6.000000e-01	1.596146e+03	
13	6.500000e-01	1.629041e+03	
14	7.000000e-01	1.662842e+03	
15	7.500000e-01	1.697584e+03	
16	8.000000e-01	1.733309e+03	
17	8.500000e-01	1.770057e+03	
18	9.000000e-01	1.807874e+03	
19	9.500000e-01	1.846807e+03	
20	1.000000e+00	1.886908e+03	
21	1.050000e+00	1.928232e+03	
22	1.100000e+00	1.970838e+03	
23	1.150000e+00	2.014791e+03	
24	1.200000e+00	2.060161e+03	
25	1.250000e+00	2.107031e+03	
26	1.300000e+00	2.155492e+03	
27	1.350000e+00	2.205655e+03	
28	1.400000e+00	2.257657e+03	
29	1.450000e+00	2.311683e+03	
30	1.500000e+00	2.367990e+03	
31	1.550000e+00	2.426975e+03	
32	1.600000e+00	2.489292e+03	
33	1.650000e+00	2.556100e+03	
34	1.700000e+00	2.629575e+03	
35	1.750000e+00	2.713966e+03	
36	1.800000e+00	2.817611e+03	
37	1.850000e+00	2.955972e+03	
38	1.900000e+00	3.153296e+03	
39	1.950000e+00	3.436121e+03	
40	2.000000e+00	3.816837e+03	
41	2.050000e+00	4.284525e+03	
42	2.100000e+00	4.815090e+03	
43	2.150000e+00	5.385385e+03	
44	2.200000e+00	5.978810e+03	
45	2.250000e+00	6.584796e+03	
46	2.300000e+00	7.196867e+03	
47	2.350000e+00	7.811050e+03	
48	2.400000e+00	8.424865e+03	
49	2.450000e+00	9.036732e+03	
50	2.500000e+00	9.645620e+03	
51	2.550000e+00	1.025084e+04	
52	2.600000e+00	1.085194e+04	
53	2.650000e+00	1.144860e+04	
54	2.700000e+00	1.204060e+04	

Index   v-sweep         rds             
--------------------------------------------------------------------------------
55	2.750000e+00	1.262781e+04	
56	2.800000e+00	1.321013e+04	
57	2.850000e+00	1.378750e+04	
58	2.900000e+00	1.435989e+04	
59	2.950000e+00	1.492729e+04	
60	3.000000e+00	1.548969e+04	
61	3.050000e+00	1.604711e+04	
62	3.100000e+00	1.659957e+04	
63	3.150000e+00	1.714709e+04	
64	3.200000e+00	1.768972e+04	
65	3.250000e+00	1.822748e+04	
66	3.300000e+00	1.876041e+04	
67	3.350000e+00	1.928857e+04	
68	3.400000e+00	1.981198e+04	
69	3.450000e+00	2.033070e+04	
70	3.500000e+00	2.084477e+04	
71	3.550000e+00	2.135423e+04	
72	3.600000e+00	2.185915e+04	
73	3.650000e+00	2.235955e+04	
74	3.700000e+00	2.285550e+04	
75	3.750000e+00	2.334704e+04	
76	3.800000e+00	2.383422e+04	
77	3.850000e+00	2.431708e+04	
78	3.900000e+00	2.479568e+04	
79	3.950000e+00	2.527005e+04	
80	4.000000e+00	2.574026e+04	
81	4.050000e+00	2.620634e+04	
82	4.100000e+00	2.666834e+04	
83	4.150000e+00	2.712631e+04	
84	4.200000e+00	2.758030e+04	
85	4.250000e+00	2.803035e+04	
86	4.300000e+00	2.847650e+04	
87	4.350000e+00	2.891880e+04	
88	4.400000e+00	2.935729e+04	
89	4.450000e+00	2.979202e+04	
90	4.500000e+00	3.022303e+04	
91	4.550000e+00	3.065036e+04	
92	4.600000e+00	3.107406e+04	
93	4.650000e+00	3.149416e+04	
94	4.700000e+00	3.191071e+04	
95	4.750000e+00	3.232375e+04	
96	4.800000e+00	3.273332e+04	
97	4.850000e+00	3.313945e+04	
98	4.900000e+00	3.354219e+04	
99	4.950000e+00	3.394158e+04	
100	5.000000e+00	3.433765e+04	
101	5.050000e+00	3.473044e+04	
102	5.100000e+00	3.511999e+04	
103	5.150000e+00	3.550633e+04	
104	5.200000e+00	3.588950e+04	
105	5.250000e+00	3.626954e+04	
106	5.300000e+00	3.664649e+04	
107	5.350000e+00	3.702037e+04	
108	5.400000e+00	3.739122e+04	
109	5.450000e+00	3.775907e+04	
110	5.500000e+00	3.812396e+04	
111	5.550000e+00	3.848593e+04	
112	5.600000e+00	3.884499e+04	

Index   v-sweep         rds             
--------------------------------------------------------------------------------
113	5.650000e+00	3.920120e+04	
114	5.700000e+00	3.955457e+04	
115	5.750000e+00	3.990514e+04	
116	5.800000e+00	4.025294e+04	
117	5.850000e+00	4.059800e+04	
118	5.900000e+00	4.094035e+04	
119	5.950000e+00	4.128001e+04	
120	6.000000e+00	4.161703e+04	
121	6.050000e+00	4.195143e+04	
122	6.100000e+00	4.228323e+04	
123	6.150000e+00	4.261246e+04	
124	6.200000e+00	4.293916e+04	
125	6.250000e+00	4.326335e+04	
126	6.300000e+00	4.358505e+04	
127	6.350000e+00	4.390430e+04	
128	6.400000e+00	4.422111e+04	
129	6.450000e+00	4.453552e+04	
130	6.500000e+00	4.484756e+04	
131	6.550000e+00	4.515723e+04	
132	6.600000e+00	4.546458e+04	
Reset re-loads circuit ***************************

Circuit: ***************************

Doing analysis at TEMP = 25.000000 and TNOM = 25.000000


No. of Data Rows : 133
                          ***************************
                          DC transfer characteristic  Mon Jan  9 13:58:05  2023
--------------------------------------------------------------------------------
Index   v-sweep         rds             
--------------------------------------------------------------------------------
0	0.000000e+00	1.167039e+03	
1	5.000000e-02	1.185991e+03	
2	1.000000e-01	1.205306e+03	
3	1.500000e-01	1.224996e+03	
4	2.000000e-01	1.245070e+03	
5	2.500000e-01	1.265540e+03	
6	3.000000e-01	1.286417e+03	
7	3.500000e-01	1.307711e+03	
8	4.000000e-01	1.329436e+03	
9	4.500000e-01	1.351604e+03	
10	5.000000e-01	1.374228e+03	
11	5.500000e-01	1.397322e+03	
12	6.000000e-01	1.420901e+03	
13	6.500000e-01	1.444978e+03	
14	7.000000e-01	1.469571e+03	
15	7.500000e-01	1.494695e+03	
16	8.000000e-01	1.520367e+03	
17	8.500000e-01	1.546606e+03	
18	9.000000e-01	1.573429e+03	
19	9.500000e-01	1.600858e+03	
20	1.000000e+00	1.628912e+03	
21	1.050000e+00	1.657612e+03	
22	1.100000e+00	1.686983e+03	
23	1.150000e+00	1.717048e+03	
24	1.200000e+00	1.747832e+03	
25	1.250000e+00	1.779363e+03	
26	1.300000e+00	1.811669e+03	
27	1.350000e+00	1.844781e+03	
28	1.400000e+00	1.878733e+03	
29	1.450000e+00	1.913562e+03	
30	1.500000e+00	1.949307e+03	
31	1.550000e+00	1.986017e+03	
32	1.600000e+00	2.023744e+03	
33	1.650000e+00	2.062556e+03	
34	1.700000e+00	2.102537e+03	
35	1.750000e+00	2.143799e+03	
36	1.800000e+00	2.186502e+03	
37	1.850000e+00	2.230889e+03	
38	1.900000e+00	2.277345e+03	
39	1.950000e+00	2.326521e+03	
40	2.000000e+00	2.379571e+03	
41	2.050000e+00	2.438606e+03	
42	2.100000e+00	2.507572e+03	
43	2.150000e+00	2.593735e+03	
44	2.200000e+00	2.709527e+03	
45	2.250000e+00	2.872833e+03	
46	2.300000e+00	3.101836e+03	
47	2.350000e+00	3.404718e+03	
48	2.400000e+00	3.774403e+03	
49	2.450000e+00	4.194529e+03	
50	2.500000e+00	4.648389e+03	
51	2.550000e+00	5.123234e+03	
52	2.600000e+00	5.610505e+03	
53	2.650000e+00	6.104734e+03	
54	2.700000e+00	6.602453e+03	

Index   v-sweep         rds             
--------------------------------------------------------------------------------
55	2.750000e+00	7.101445e+03	
56	2.800000e+00	7.600263e+03	
57	2.850000e+00	8.097943e+03	
58	2.900000e+00	8.593832e+03	
59	2.950000e+00	9.087479e+03	
60	3.000000e+00	9.578566e+03	
61	3.050000e+00	1.006687e+04	
62	3.100000e+00	1.055223e+04	
63	3.150000e+00	1.103453e+04	
64	3.200000e+00	1.151370e+04	
65	3.250000e+00	1.198966e+04	
66	3.300000e+00	1.246240e+04	
67	3.350000e+00	1.293187e+04	
68	3.400000e+00	1.339808e+04	
69	3.450000e+00	1.386101e+04	
70	3.500000e+00	1.432066e+04	
71	3.550000e+00	1.477704e+04	
72	3.600000e+00	1.523016e+04	
73	3.650000e+00	1.568003e+04	
74	3.700000e+00	1.612667e+04	
75	3.750000e+00	1.657010e+04	
76	3.800000e+00	1.701033e+04	
77	3.850000e+00	1.744739e+04	
78	3.900000e+00	1.788129e+04	
79	3.950000e+00	1.831207e+04	
80	4.000000e+00	1.873974e+04	
81	4.050000e+00	1.916432e+04	
82	4.100000e+00	1.958585e+04	
83	4.150000e+00	2.000435e+04	
84	4.200000e+00	2.041984e+04	
85	4.250000e+00	2.083235e+04	
86	4.300000e+00	2.124189e+04	
87	4.350000e+00	2.164851e+04	
88	4.400000e+00	2.205222e+04	
89	4.450000e+00	2.245305e+04	
90	4.500000e+00	2.285103e+04	
91	4.550000e+00	2.324618e+04	
92	4.600000e+00	2.363852e+04	
93	4.650000e+00	2.402808e+04	
94	4.700000e+00	2.441489e+04	
95	4.750000e+00	2.479897e+04	
96	4.800000e+00	2.518034e+04	
97	4.850000e+00	2.555904e+04	
98	4.900000e+00	2.593508e+04	
99	4.950000e+00	2.630849e+04	
100	5.000000e+00	2.667929e+04	
101	5.050000e+00	2.704751e+04	
102	5.100000e+00	2.741317e+04	
103	5.150000e+00	2.777630e+04	
104	5.200000e+00	2.813691e+04	
105	5.250000e+00	2.849504e+04	
106	5.300000e+00	2.885070e+04	
107	5.350000e+00	2.920392e+04	
108	5.400000e+00	2.955471e+04	
109	5.450000e+00	2.990311e+04	
110	5.500000e+00	3.024913e+04	
111	5.550000e+00	3.059280e+04	
112	5.600000e+00	3.093413e+04	

Index   v-sweep         rds             
--------------------------------------------------------------------------------
113	5.650000e+00	3.127315e+04	
114	5.700000e+00	3.160989e+04	
115	5.750000e+00	3.194435e+04	
116	5.800000e+00	3.227657e+04	
117	5.850000e+00	3.260656e+04	
118	5.900000e+00	3.293434e+04	
119	5.950000e+00	3.325993e+04	
120	6.000000e+00	3.358336e+04	
121	6.050000e+00	3.390464e+04	
122	6.100000e+00	3.422379e+04	
123	6.150000e+00	3.454084e+04	
124	6.200000e+00	3.485580e+04	
125	6.250000e+00	3.516868e+04	
126	6.300000e+00	3.547952e+04	
127	6.350000e+00	3.578832e+04	
128	6.400000e+00	3.609510e+04	
129	6.450000e+00	3.639990e+04	
130	6.500000e+00	3.670271e+04	
131	6.550000e+00	3.700356e+04	
132	6.600000e+00	3.730247e+04	
Reset re-loads circuit ***************************

Circuit: ***************************

Note: No ".plot", ".print", or ".fourier" lines; no simulations run
