
Note: Compatibility modes selected: hs

Warning: m=xx on .subckt line will override multiplier m hierarchy!


Circuit: ***************************

Doing analysis at TEMP = -40.000000 and TNOM = -40.000000


No. of Data Rows : 133
                          ***************************
                          DC transfer characteristic  Mon Jan  9 13:58:06  2023
--------------------------------------------------------------------------------
Index   v-sweep         rds             
--------------------------------------------------------------------------------
0	0.000000e+00	1.157786e+05	
1	5.000000e-02	1.458017e+05	
2	1.000000e-01	1.963584e+05	
3	1.500000e-01	2.978520e+05	
4	2.000000e-01	5.693196e+05	
5	2.500000e-01	1.402655e+06	
6	3.000000e-01	2.631751e+06	
7	3.500000e-01	3.564615e+06	
8	4.000000e-01	4.306750e+06	
9	4.500000e-01	4.979787e+06	
10	5.000000e-01	5.625618e+06	
11	5.500000e-01	6.259044e+06	
12	6.000000e-01	6.886046e+06	
13	6.500000e-01	7.509363e+06	
14	7.000000e-01	8.130381e+06	
15	7.500000e-01	8.749858e+06	
16	8.000000e-01	9.368239e+06	
17	8.500000e-01	9.985796e+06	
18	9.000000e-01	1.060271e+07	
19	9.500000e-01	1.121909e+07	
20	1.000000e+00	1.183502e+07	
21	1.050000e+00	1.245056e+07	
22	1.100000e+00	1.306575e+07	
23	1.150000e+00	1.368061e+07	
24	1.200000e+00	1.429519e+07	
25	1.250000e+00	1.490948e+07	
26	1.300000e+00	1.552351e+07	
27	1.350000e+00	1.613728e+07	
28	1.400000e+00	1.675080e+07	
29	1.450000e+00	1.736409e+07	
30	1.500000e+00	1.797714e+07	
31	1.550000e+00	1.858996e+07	
32	1.600000e+00	1.920255e+07	
33	1.650000e+00	1.981493e+07	
34	1.700000e+00	2.042707e+07	
35	1.750000e+00	2.103900e+07	
36	1.800000e+00	2.165072e+07	
37	1.850000e+00	2.226221e+07	
38	1.900000e+00	2.287349e+07	
39	1.950000e+00	2.348456e+07	
40	2.000000e+00	2.409541e+07	
41	2.050000e+00	2.470605e+07	
42	2.100000e+00	2.531648e+07	
43	2.150000e+00	2.592670e+07	
44	2.200000e+00	2.653671e+07	
45	2.250000e+00	2.714651e+07	
46	2.300000e+00	2.775610e+07	
47	2.350000e+00	2.836547e+07	
48	2.400000e+00	2.897464e+07	
49	2.450000e+00	2.958360e+07	
50	2.500000e+00	3.019235e+07	
51	2.550000e+00	3.080089e+07	
52	2.600000e+00	3.140922e+07	
53	2.650000e+00	3.201735e+07	
54	2.700000e+00	3.262526e+07	

Index   v-sweep         rds             
--------------------------------------------------------------------------------
55	2.750000e+00	3.323297e+07	
56	2.800000e+00	3.384046e+07	
57	2.850000e+00	3.444775e+07	
58	2.900000e+00	3.505483e+07	
59	2.950000e+00	3.566170e+07	
60	3.000000e+00	3.626837e+07	
61	3.050000e+00	3.687482e+07	
62	3.100000e+00	3.748107e+07	
63	3.150000e+00	3.808710e+07	
64	3.200000e+00	3.869293e+07	
65	3.250000e+00	3.929855e+07	
66	3.300000e+00	3.990396e+07	
67	3.350000e+00	4.050917e+07	
68	3.400000e+00	4.111416e+07	
69	3.450000e+00	4.171895e+07	
70	3.500000e+00	4.232353e+07	
71	3.550000e+00	4.292790e+07	
72	3.600000e+00	4.353206e+07	
73	3.650000e+00	4.413601e+07	
74	3.700000e+00	4.473975e+07	
75	3.750000e+00	4.534329e+07	
76	3.800000e+00	4.594662e+07	
77	3.850000e+00	4.654973e+07	
78	3.900000e+00	4.715264e+07	
79	3.950000e+00	4.775534e+07	
80	4.000000e+00	4.835783e+07	
81	4.050000e+00	4.896012e+07	
82	4.100000e+00	4.956219e+07	
83	4.150000e+00	5.016406e+07	
84	4.200000e+00	5.076571e+07	
85	4.250000e+00	5.136716e+07	
86	4.300000e+00	5.196840e+07	
87	4.350000e+00	5.256943e+07	
88	4.400000e+00	5.317025e+07	
89	4.450000e+00	5.377087e+07	
90	4.500000e+00	5.437127e+07	
91	4.550000e+00	5.497146e+07	
92	4.600000e+00	5.557145e+07	
93	4.650000e+00	5.617123e+07	
94	4.700000e+00	5.677080e+07	
95	4.750000e+00	5.737016e+07	
96	4.800000e+00	5.796931e+07	
97	4.850000e+00	5.856825e+07	
98	4.900000e+00	5.916698e+07	
99	4.950000e+00	5.976551e+07	
100	5.000000e+00	6.036382e+07	
101	5.050000e+00	6.096193e+07	
102	5.100000e+00	6.155983e+07	
103	5.150000e+00	6.215752e+07	
104	5.200000e+00	6.275500e+07	
105	5.250000e+00	6.335227e+07	
106	5.300000e+00	6.394933e+07	
107	5.350000e+00	6.454618e+07	
108	5.400000e+00	6.514283e+07	
109	5.450000e+00	6.573926e+07	
110	5.500000e+00	6.633549e+07	
111	5.550000e+00	6.693151e+07	
112	5.600000e+00	6.752732e+07	

Index   v-sweep         rds             
--------------------------------------------------------------------------------
113	5.650000e+00	6.812292e+07	
114	5.700000e+00	6.871831e+07	
115	5.750000e+00	6.931350e+07	
116	5.800000e+00	6.990847e+07	
117	5.850000e+00	7.050324e+07	
118	5.900000e+00	7.109779e+07	
119	5.950000e+00	7.169214e+07	
120	6.000000e+00	7.228628e+07	
121	6.050000e+00	7.288021e+07	
122	6.100000e+00	7.347393e+07	
123	6.150000e+00	7.406745e+07	
124	6.200000e+00	7.466075e+07	
125	6.250000e+00	7.525385e+07	
126	6.300000e+00	7.584674e+07	
127	6.350000e+00	7.643942e+07	
128	6.400000e+00	7.703189e+07	
129	6.450000e+00	7.762415e+07	
130	6.500000e+00	7.821621e+07	
131	6.550000e+00	7.880805e+07	
132	6.600000e+00	7.939969e+07	
Reset re-loads circuit ***************************

Circuit: ***************************

Doing analysis at TEMP = -40.000000 and TNOM = -40.000000


No. of Data Rows : 133
                          ***************************
                          DC transfer characteristic  Mon Jan  9 13:58:06  2023
--------------------------------------------------------------------------------
Index   v-sweep         rds             
--------------------------------------------------------------------------------
0	0.000000e+00	2.349887e+04	
1	5.000000e-02	2.450534e+04	
2	1.000000e-01	2.559459e+04	
3	1.500000e-01	2.677728e+04	
4	2.000000e-01	2.806596e+04	
5	2.500000e-01	2.947552e+04	
6	3.000000e-01	3.102381e+04	
7	3.500000e-01	3.273233e+04	
8	4.000000e-01	3.462729e+04	
9	4.500000e-01	3.674094e+04	
10	5.000000e-01	3.911340e+04	
11	5.500000e-01	4.179526e+04	
12	6.000000e-01	4.485114e+04	
13	6.500000e-01	4.836503e+04	
14	7.000000e-01	5.244794e+04	
15	7.500000e-01	5.724981e+04	
16	8.000000e-01	6.297790e+04	
17	8.500000e-01	6.992657e+04	
18	9.000000e-01	7.852650e+04	
19	9.500000e-01	8.942589e+04	
20	1.000000e+00	1.036096e+05	
21	1.050000e+00	1.224702e+05	
22	1.100000e+00	1.474003e+05	
23	1.150000e+00	1.785218e+05	
24	1.200000e+00	2.141875e+05	
25	1.250000e+00	2.524247e+05	
26	1.300000e+00	2.919700e+05	
27	1.350000e+00	3.321858e+05	
28	1.400000e+00	3.727649e+05	
29	1.450000e+00	4.135541e+05	
30	1.500000e+00	4.544723e+05	
31	1.550000e+00	4.954738e+05	
32	1.600000e+00	5.365314e+05	
33	1.650000e+00	5.776281e+05	
34	1.700000e+00	6.187528e+05	
35	1.750000e+00	6.598979e+05	
36	1.800000e+00	7.010583e+05	
37	1.850000e+00	7.422300e+05	
38	1.900000e+00	7.834104e+05	
39	1.950000e+00	8.245972e+05	
40	2.000000e+00	8.657888e+05	
41	2.050000e+00	9.069840e+05	
42	2.100000e+00	9.481818e+05	
43	2.150000e+00	9.893814e+05	
44	2.200000e+00	1.030582e+06	
45	2.250000e+00	1.071783e+06	
46	2.300000e+00	1.112984e+06	
47	2.350000e+00	1.154185e+06	
48	2.400000e+00	1.195386e+06	
49	2.450000e+00	1.236585e+06	
50	2.500000e+00	1.277784e+06	
51	2.550000e+00	1.318981e+06	
52	2.600000e+00	1.360176e+06	
53	2.650000e+00	1.401370e+06	
54	2.700000e+00	1.442562e+06	

Index   v-sweep         rds             
--------------------------------------------------------------------------------
55	2.750000e+00	1.483752e+06	
56	2.800000e+00	1.524940e+06	
57	2.850000e+00	1.566126e+06	
58	2.900000e+00	1.607310e+06	
59	2.950000e+00	1.648491e+06	
60	3.000000e+00	1.689670e+06	
61	3.050000e+00	1.730846e+06	
62	3.100000e+00	1.772020e+06	
63	3.150000e+00	1.813192e+06	
64	3.200000e+00	1.854361e+06	
65	3.250000e+00	1.895527e+06	
66	3.300000e+00	1.936690e+06	
67	3.350000e+00	1.977851e+06	
68	3.400000e+00	2.019009e+06	
69	3.450000e+00	2.060164e+06	
70	3.500000e+00	2.101316e+06	
71	3.550000e+00	2.142466e+06	
72	3.600000e+00	2.183612e+06	
73	3.650000e+00	2.224756e+06	
74	3.700000e+00	2.265897e+06	
75	3.750000e+00	2.307034e+06	
76	3.800000e+00	2.348169e+06	
77	3.850000e+00	2.389301e+06	
78	3.900000e+00	2.430430e+06	
79	3.950000e+00	2.471555e+06	
80	4.000000e+00	2.512678e+06	
81	4.050000e+00	2.553797e+06	
82	4.100000e+00	2.594914e+06	
83	4.150000e+00	2.636027e+06	
84	4.200000e+00	2.677137e+06	
85	4.250000e+00	2.718244e+06	
86	4.300000e+00	2.759348e+06	
87	4.350000e+00	2.800449e+06	
88	4.400000e+00	2.841547e+06	
89	4.450000e+00	2.882641e+06	
90	4.500000e+00	2.923732e+06	
91	4.550000e+00	2.964820e+06	
92	4.600000e+00	3.005905e+06	
93	4.650000e+00	3.046987e+06	
94	4.700000e+00	3.088065e+06	
95	4.750000e+00	3.129140e+06	
96	4.800000e+00	3.170212e+06	
97	4.850000e+00	3.211281e+06	
98	4.900000e+00	3.252347e+06	
99	4.950000e+00	3.293409e+06	
100	5.000000e+00	3.334468e+06	
101	5.050000e+00	3.375523e+06	
102	5.100000e+00	3.416576e+06	
103	5.150000e+00	3.457625e+06	
104	5.200000e+00	3.498671e+06	
105	5.250000e+00	3.539713e+06	
106	5.300000e+00	3.580753e+06	
107	5.350000e+00	3.621788e+06	
108	5.400000e+00	3.662821e+06	
109	5.450000e+00	3.703850e+06	
110	5.500000e+00	3.744876e+06	
111	5.550000e+00	3.785899e+06	
112	5.600000e+00	3.826918e+06	

Index   v-sweep         rds             
--------------------------------------------------------------------------------
113	5.650000e+00	3.867934e+06	
114	5.700000e+00	3.908947e+06	
115	5.750000e+00	3.949956e+06	
116	5.800000e+00	3.990962e+06	
117	5.850000e+00	4.031965e+06	
118	5.900000e+00	4.072964e+06	
119	5.950000e+00	4.113960e+06	
120	6.000000e+00	4.154953e+06	
121	6.050000e+00	4.195942e+06	
122	6.100000e+00	4.236928e+06	
123	6.150000e+00	4.277910e+06	
124	6.200000e+00	4.318889e+06	
125	6.250000e+00	4.359865e+06	
126	6.300000e+00	4.400837e+06	
127	6.350000e+00	4.441806e+06	
128	6.400000e+00	4.482772e+06	
129	6.450000e+00	4.523734e+06	
130	6.500000e+00	4.564693e+06	
131	6.550000e+00	4.605648e+06	
132	6.600000e+00	4.646601e+06	
Reset re-loads circuit ***************************

Circuit: ***************************

Doing analysis at TEMP = -40.000000 and TNOM = -40.000000


No. of Data Rows : 133
                          ***************************
                          DC transfer characteristic  Mon Jan  9 13:58:06  2023
--------------------------------------------------------------------------------
Index   v-sweep         rds             
--------------------------------------------------------------------------------
0	0.000000e+00	1.482869e+04	
1	5.000000e-02	1.519062e+04	
2	1.000000e-01	1.556804e+04	
3	1.500000e-01	1.596196e+04	
4	2.000000e-01	1.637347e+04	
5	2.500000e-01	1.680379e+04	
6	3.000000e-01	1.725422e+04	
7	3.500000e-01	1.772622e+04	
8	4.000000e-01	1.822135e+04	
9	4.500000e-01	1.874136e+04	
10	5.000000e-01	1.928818e+04	
11	5.500000e-01	1.986392e+04	
12	6.000000e-01	2.047094e+04	
13	6.500000e-01	2.111186e+04	
14	7.000000e-01	2.178958e+04	
15	7.500000e-01	2.250739e+04	
16	8.000000e-01	2.326893e+04	
17	8.500000e-01	2.407833e+04	
18	9.000000e-01	2.494025e+04	
19	9.500000e-01	2.585998e+04	
20	1.000000e+00	2.684355e+04	
21	1.050000e+00	2.789786e+04	
22	1.100000e+00	2.903086e+04	
23	1.150000e+00	3.025177e+04	
24	1.200000e+00	3.157134e+04	
25	1.250000e+00	3.300221e+04	
26	1.300000e+00	3.455939e+04	
27	1.350000e+00	3.626094e+04	
28	1.400000e+00	3.812895e+04	
29	1.450000e+00	4.019103e+04	
30	1.500000e+00	4.248284e+04	
31	1.550000e+00	4.505266e+04	
32	1.600000e+00	4.797001e+04	
33	1.650000e+00	5.134322e+04	
34	1.700000e+00	5.535368e+04	
35	1.750000e+00	6.031202e+04	
36	1.800000e+00	6.670150e+04	
37	1.850000e+00	7.507433e+04	
38	1.900000e+00	8.571391e+04	
39	1.950000e+00	9.839701e+04	
40	2.000000e+00	1.125905e+05	
41	2.050000e+00	1.277763e+05	
42	2.100000e+00	1.435857e+05	
43	2.150000e+00	1.597871e+05	
44	2.200000e+00	1.762405e+05	
45	2.250000e+00	1.928608e+05	
46	2.300000e+00	2.095954e+05	
47	2.350000e+00	2.264104e+05	
48	2.400000e+00	2.432837e+05	
49	2.450000e+00	2.602002e+05	
50	2.500000e+00	2.771495e+05	
51	2.550000e+00	2.941241e+05	
52	2.600000e+00	3.111186e+05	
53	2.650000e+00	3.281288e+05	
54	2.700000e+00	3.451519e+05	

Index   v-sweep         rds             
--------------------------------------------------------------------------------
55	2.750000e+00	3.621853e+05	
56	2.800000e+00	3.792273e+05	
57	2.850000e+00	3.962764e+05	
58	2.900000e+00	4.133315e+05	
59	2.950000e+00	4.303915e+05	
60	3.000000e+00	4.474557e+05	
61	3.050000e+00	4.645236e+05	
62	3.100000e+00	4.815944e+05	
63	3.150000e+00	4.986679e+05	
64	3.200000e+00	5.157436e+05	
65	3.250000e+00	5.328212e+05	
66	3.300000e+00	5.499004e+05	
67	3.350000e+00	5.669810e+05	
68	3.400000e+00	5.840628e+05	
69	3.450000e+00	6.011456e+05	
70	3.500000e+00	6.182292e+05	
71	3.550000e+00	6.353135e+05	
72	3.600000e+00	6.523984e+05	
73	3.650000e+00	6.694838e+05	
74	3.700000e+00	6.865695e+05	
75	3.750000e+00	7.036555e+05	
76	3.800000e+00	7.207418e+05	
77	3.850000e+00	7.378281e+05	
78	3.900000e+00	7.549146e+05	
79	3.950000e+00	7.720010e+05	
80	4.000000e+00	7.890875e+05	
81	4.050000e+00	8.061738e+05	
82	4.100000e+00	8.232600e+05	
83	4.150000e+00	8.403461e+05	
84	4.200000e+00	8.574319e+05	
85	4.250000e+00	8.745175e+05	
86	4.300000e+00	8.916029e+05	
87	4.350000e+00	9.086880e+05	
88	4.400000e+00	9.257727e+05	
89	4.450000e+00	9.428571e+05	
90	4.500000e+00	9.599411e+05	
91	4.550000e+00	9.770247e+05	
92	4.600000e+00	9.941080e+05	
93	4.650000e+00	1.011191e+06	
94	4.700000e+00	1.028273e+06	
95	4.750000e+00	1.045355e+06	
96	4.800000e+00	1.062436e+06	
97	4.850000e+00	1.079517e+06	
98	4.900000e+00	1.096598e+06	
99	4.950000e+00	1.113678e+06	
100	5.000000e+00	1.130757e+06	
101	5.050000e+00	1.147836e+06	
102	5.100000e+00	1.164914e+06	
103	5.150000e+00	1.181992e+06	
104	5.200000e+00	1.199069e+06	
105	5.250000e+00	1.216146e+06	
106	5.300000e+00	1.233222e+06	
107	5.350000e+00	1.250298e+06	
108	5.400000e+00	1.267372e+06	
109	5.450000e+00	1.284447e+06	
110	5.500000e+00	1.301520e+06	
111	5.550000e+00	1.318593e+06	
112	5.600000e+00	1.335666e+06	

Index   v-sweep         rds             
--------------------------------------------------------------------------------
113	5.650000e+00	1.352738e+06	
114	5.700000e+00	1.369809e+06	
115	5.750000e+00	1.386879e+06	
116	5.800000e+00	1.403949e+06	
117	5.850000e+00	1.421018e+06	
118	5.900000e+00	1.438087e+06	
119	5.950000e+00	1.455155e+06	
120	6.000000e+00	1.472222e+06	
121	6.050000e+00	1.489289e+06	
122	6.100000e+00	1.506355e+06	
123	6.150000e+00	1.523420e+06	
124	6.200000e+00	1.540484e+06	
125	6.250000e+00	1.557548e+06	
126	6.300000e+00	1.574612e+06	
127	6.350000e+00	1.591674e+06	
128	6.400000e+00	1.608736e+06	
129	6.450000e+00	1.625797e+06	
130	6.500000e+00	1.642857e+06	
131	6.550000e+00	1.659917e+06	
132	6.600000e+00	1.676976e+06	
Reset re-loads circuit ***************************

Circuit: ***************************

Doing analysis at TEMP = -40.000000 and TNOM = -40.000000


No. of Data Rows : 133
                          ***************************
                          DC transfer characteristic  Mon Jan  9 13:58:06  2023
--------------------------------------------------------------------------------
Index   v-sweep         rds             
--------------------------------------------------------------------------------
0	0.000000e+00	1.161515e+04	
1	5.000000e-02	1.181586e+04	
2	1.000000e-01	1.202226e+04	
3	1.500000e-01	1.223459e+04	
4	2.000000e-01	1.245311e+04	
5	2.500000e-01	1.267809e+04	
6	3.000000e-01	1.290982e+04	
7	3.500000e-01	1.314860e+04	
8	4.000000e-01	1.339477e+04	
9	4.500000e-01	1.364867e+04	
10	5.000000e-01	1.391066e+04	
11	5.500000e-01	1.418114e+04	
12	6.000000e-01	1.446053e+04	
13	6.500000e-01	1.474927e+04	
14	7.000000e-01	1.504784e+04	
15	7.500000e-01	1.535674e+04	
16	8.000000e-01	1.567652e+04	
17	8.500000e-01	1.600777e+04	
18	9.000000e-01	1.635111e+04	
19	9.500000e-01	1.670721e+04	
20	1.000000e+00	1.707680e+04	
21	1.050000e+00	1.746066e+04	
22	1.100000e+00	1.785962e+04	
23	1.150000e+00	1.827460e+04	
24	1.200000e+00	1.870658e+04	
25	1.250000e+00	1.915662e+04	
26	1.300000e+00	1.962589e+04	
27	1.350000e+00	2.011565e+04	
28	1.400000e+00	2.062728e+04	
29	1.450000e+00	2.116227e+04	
30	1.500000e+00	2.172228e+04	
31	1.550000e+00	2.230913e+04	
32	1.600000e+00	2.292480e+04	
33	1.650000e+00	2.357152e+04	
34	1.700000e+00	2.425175e+04	
35	1.750000e+00	2.496825e+04	
36	1.800000e+00	2.572412e+04	
37	1.850000e+00	2.652288e+04	
38	1.900000e+00	2.736859e+04	
39	1.950000e+00	2.826599e+04	
40	2.000000e+00	2.922073e+04	
41	2.050000e+00	3.023975e+04	
42	2.100000e+00	3.133191e+04	
43	2.150000e+00	3.250909e+04	
44	2.200000e+00	3.378822e+04	
45	2.250000e+00	3.519504e+04	
46	2.300000e+00	3.677121e+04	
47	2.350000e+00	3.858721e+04	
48	2.400000e+00	4.076332e+04	
49	2.450000e+00	4.349401e+04	
50	2.500000e+00	4.704911e+04	
51	2.550000e+00	5.170277e+04	
52	2.600000e+00	5.759373e+04	
53	2.650000e+00	6.464284e+04	
54	2.700000e+00	7.261935e+04	

Index   v-sweep         rds             
--------------------------------------------------------------------------------
55	2.750000e+00	8.126582e+04	
56	2.800000e+00	9.037195e+04	
57	2.850000e+00	9.978875e+04	
58	2.900000e+00	1.094169e+05	
59	2.950000e+00	1.191912e+05	
60	3.000000e+00	1.290688e+05	
61	3.050000e+00	1.390211e+05	
62	3.100000e+00	1.490286e+05	
63	3.150000e+00	1.590777e+05	
64	3.200000e+00	1.691587e+05	
65	3.250000e+00	1.792647e+05	
66	3.300000e+00	1.893904e+05	
67	3.350000e+00	1.995320e+05	
68	3.400000e+00	2.096866e+05	
69	3.450000e+00	2.198518e+05	
70	3.500000e+00	2.300258e+05	
71	3.550000e+00	2.402073e+05	
72	3.600000e+00	2.503950e+05	
73	3.650000e+00	2.605880e+05	
74	3.700000e+00	2.707856e+05	
75	3.750000e+00	2.809871e+05	
76	3.800000e+00	2.911920e+05	
77	3.850000e+00	3.013998e+05	
78	3.900000e+00	3.116103e+05	
79	3.950000e+00	3.218230e+05	
80	4.000000e+00	3.320377e+05	
81	4.050000e+00	3.422542e+05	
82	4.100000e+00	3.524722e+05	
83	4.150000e+00	3.626916e+05	
84	4.200000e+00	3.729122e+05	
85	4.250000e+00	3.831339e+05	
86	4.300000e+00	3.933566e+05	
87	4.350000e+00	4.035801e+05	
88	4.400000e+00	4.138044e+05	
89	4.450000e+00	4.240294e+05	
90	4.500000e+00	4.342549e+05	
91	4.550000e+00	4.444811e+05	
92	4.600000e+00	4.547077e+05	
93	4.650000e+00	4.649347e+05	
94	4.700000e+00	4.751621e+05	
95	4.750000e+00	4.853898e+05	
96	4.800000e+00	4.956178e+05	
97	4.850000e+00	5.058461e+05	
98	4.900000e+00	5.160746e+05	
99	4.950000e+00	5.263032e+05	
100	5.000000e+00	5.365320e+05	
101	5.050000e+00	5.467610e+05	
102	5.100000e+00	5.569900e+05	
103	5.150000e+00	5.672191e+05	
104	5.200000e+00	5.774483e+05	
105	5.250000e+00	5.876775e+05	
106	5.300000e+00	5.979067e+05	
107	5.350000e+00	6.081360e+05	
108	5.400000e+00	6.183652e+05	
109	5.450000e+00	6.285944e+05	
110	5.500000e+00	6.388236e+05	
111	5.550000e+00	6.490527e+05	
112	5.600000e+00	6.592817e+05	

Index   v-sweep         rds             
--------------------------------------------------------------------------------
113	5.650000e+00	6.695107e+05	
114	5.700000e+00	6.797396e+05	
115	5.750000e+00	6.899684e+05	
116	5.800000e+00	7.001971e+05	
117	5.850000e+00	7.104256e+05	
118	5.900000e+00	7.206541e+05	
119	5.950000e+00	7.308824e+05	
120	6.000000e+00	7.411106e+05	
121	6.050000e+00	7.513386e+05	
122	6.100000e+00	7.615665e+05	
123	6.150000e+00	7.717942e+05	
124	6.200000e+00	7.820218e+05	
125	6.250000e+00	7.922492e+05	
126	6.300000e+00	8.024764e+05	
127	6.350000e+00	8.127034e+05	
128	6.400000e+00	8.229303e+05	
129	6.450000e+00	8.331570e+05	
130	6.500000e+00	8.433834e+05	
131	6.550000e+00	8.536097e+05	
132	6.600000e+00	8.638358e+05	
Reset re-loads circuit ***************************

Circuit: ***************************

Doing analysis at TEMP = -40.000000 and TNOM = -40.000000


No. of Data Rows : 133
                          ***************************
                          DC transfer characteristic  Mon Jan  9 13:58:06  2023
--------------------------------------------------------------------------------
Index   v-sweep         rds             
--------------------------------------------------------------------------------
0	0.000000e+00	9.991684e+03	
1	5.000000e-02	1.012514e+04	
2	1.000000e-01	1.026137e+04	
3	1.500000e-01	1.040045e+04	
4	2.000000e-01	1.054249e+04	
5	2.500000e-01	1.068756e+04	
6	3.000000e-01	1.083578e+04	
7	3.500000e-01	1.098723e+04	
8	4.000000e-01	1.114203e+04	
9	4.500000e-01	1.130030e+04	
10	5.000000e-01	1.146213e+04	
11	5.500000e-01	1.162767e+04	
12	6.000000e-01	1.179703e+04	
13	6.500000e-01	1.197035e+04	
14	7.000000e-01	1.214776e+04	
15	7.500000e-01	1.232942e+04	
16	8.000000e-01	1.251548e+04	
17	8.500000e-01	1.270609e+04	
18	9.000000e-01	1.290142e+04	
19	9.500000e-01	1.310166e+04	
20	1.000000e+00	1.330699e+04	
21	1.050000e+00	1.351760e+04	
22	1.100000e+00	1.373370e+04	
23	1.150000e+00	1.395551e+04	
24	1.200000e+00	1.418325e+04	
25	1.250000e+00	1.441716e+04	
26	1.300000e+00	1.465751e+04	
27	1.350000e+00	1.490455e+04	
28	1.400000e+00	1.515857e+04	
29	1.450000e+00	1.541987e+04	
30	1.500000e+00	1.568876e+04	
31	1.550000e+00	1.596559e+04	
32	1.600000e+00	1.625071e+04	
33	1.650000e+00	1.654449e+04	
34	1.700000e+00	1.684733e+04	
35	1.750000e+00	1.715967e+04	
36	1.800000e+00	1.748197e+04	
37	1.850000e+00	1.781469e+04	
38	1.900000e+00	1.815838e+04	
39	1.950000e+00	1.851357e+04	
40	2.000000e+00	1.888086e+04	
41	2.050000e+00	1.926091e+04	
42	2.100000e+00	1.965438e+04	
43	2.150000e+00	2.006204e+04	
44	2.200000e+00	2.048468e+04	
45	2.250000e+00	2.092319e+04	
46	2.300000e+00	2.137854e+04	
47	2.350000e+00	2.185177e+04	
48	2.400000e+00	2.234409e+04	
49	2.450000e+00	2.285682e+04	
50	2.500000e+00	2.339148e+04	
51	2.550000e+00	2.394986e+04	
52	2.600000e+00	2.453408e+04	
53	2.650000e+00	2.514674e+04	
54	2.700000e+00	2.579121e+04	

Index   v-sweep         rds             
--------------------------------------------------------------------------------
55	2.750000e+00	2.647195e+04	
56	2.800000e+00	2.719524e+04	
57	2.850000e+00	2.797031e+04	
58	2.900000e+00	2.881143e+04	
59	2.950000e+00	2.974146e+04	
60	3.000000e+00	3.079791e+04	
61	3.050000e+00	3.204244e+04	
62	3.100000e+00	3.357264e+04	
63	3.150000e+00	3.552911e+04	
64	3.200000e+00	3.808061e+04	
65	3.250000e+00	4.137260e+04	
66	3.300000e+00	4.546100e+04	
67	3.350000e+00	5.028826e+04	
68	3.400000e+00	5.572210e+04	
69	3.450000e+00	6.161408e+04	
70	3.500000e+00	6.783653e+04	
71	3.550000e+00	7.429312e+04	
72	3.600000e+00	8.091560e+04	
73	3.650000e+00	8.765681e+04	
74	3.700000e+00	9.448430e+04	
75	3.750000e+00	1.013756e+05	
76	3.800000e+00	1.083148e+05	
77	3.850000e+00	1.152907e+05	
78	3.900000e+00	1.222952e+05	
79	3.950000e+00	1.293222e+05	
80	4.000000e+00	1.363672e+05	
81	4.050000e+00	1.434267e+05	
82	4.100000e+00	1.504982e+05	
83	4.150000e+00	1.575796e+05	
84	4.200000e+00	1.646693e+05	
85	4.250000e+00	1.717659e+05	
86	4.300000e+00	1.788684e+05	
87	4.350000e+00	1.859759e+05	
88	4.400000e+00	1.930879e+05	
89	4.450000e+00	2.002035e+05	
90	4.500000e+00	2.073225e+05	
91	4.550000e+00	2.144443e+05	
92	4.600000e+00	2.215686e+05	
93	4.650000e+00	2.286952e+05	
94	4.700000e+00	2.358237e+05	
95	4.750000e+00	2.429540e+05	
96	4.800000e+00	2.500859e+05	
97	4.850000e+00	2.572192e+05	
98	4.900000e+00	2.643537e+05	
99	4.950000e+00	2.714893e+05	
100	5.000000e+00	2.786260e+05	
101	5.050000e+00	2.857636e+05	
102	5.100000e+00	2.929020e+05	
103	5.150000e+00	3.000411e+05	
104	5.200000e+00	3.071810e+05	
105	5.250000e+00	3.143214e+05	
106	5.300000e+00	3.214625e+05	
107	5.350000e+00	3.286040e+05	
108	5.400000e+00	3.357460e+05	
109	5.450000e+00	3.428884e+05	
110	5.500000e+00	3.500312e+05	
111	5.550000e+00	3.571744e+05	
112	5.600000e+00	3.643179e+05	

Index   v-sweep         rds             
--------------------------------------------------------------------------------
113	5.650000e+00	3.714616e+05	
114	5.700000e+00	3.786057e+05	
115	5.750000e+00	3.857500e+05	
116	5.800000e+00	3.928944e+05	
117	5.850000e+00	4.000391e+05	
118	5.900000e+00	4.071840e+05	
119	5.950000e+00	4.143290e+05	
120	6.000000e+00	4.214742e+05	
121	6.050000e+00	4.286194e+05	
122	6.100000e+00	4.357648e+05	
123	6.150000e+00	4.429103e+05	
124	6.200000e+00	4.500559e+05	
125	6.250000e+00	4.572016e+05	
126	6.300000e+00	4.643473e+05	
127	6.350000e+00	4.714930e+05	
128	6.400000e+00	4.786389e+05	
129	6.450000e+00	4.857847e+05	
130	6.500000e+00	4.929306e+05	
131	6.550000e+00	5.000765e+05	
132	6.600000e+00	5.072224e+05	
Reset re-loads circuit ***************************

Circuit: ***************************

Doing analysis at TEMP = -40.000000 and TNOM = -40.000000


No. of Data Rows : 133
                          ***************************
                          DC transfer characteristic  Mon Jan  9 13:58:06  2023
--------------------------------------------------------------------------------
Index   v-sweep         rds             
--------------------------------------------------------------------------------
0	0.000000e+00	9.049062e+03	
1	5.000000e-02	9.146892e+03	
2	1.000000e-01	9.246294e+03	
3	1.500000e-01	9.347307e+03	
4	2.000000e-01	9.449970e+03	
5	2.500000e-01	9.554322e+03	
6	3.000000e-01	9.660405e+03	
7	3.500000e-01	9.768262e+03	
8	4.000000e-01	9.877938e+03	
9	4.500000e-01	9.989477e+03	
10	5.000000e-01	1.010293e+04	
11	5.500000e-01	1.021834e+04	
12	6.000000e-01	1.033576e+04	
13	6.500000e-01	1.045525e+04	
14	7.000000e-01	1.057685e+04	
15	7.500000e-01	1.070063e+04	
16	8.000000e-01	1.082665e+04	
17	8.500000e-01	1.095495e+04	
18	9.000000e-01	1.108561e+04	
19	9.500000e-01	1.121869e+04	
20	1.000000e+00	1.135426e+04	
21	1.050000e+00	1.149238e+04	
22	1.100000e+00	1.163314e+04	
23	1.150000e+00	1.177660e+04	
24	1.200000e+00	1.192285e+04	
25	1.250000e+00	1.207196e+04	
26	1.300000e+00	1.222401e+04	
27	1.350000e+00	1.237911e+04	
28	1.400000e+00	1.253733e+04	
29	1.450000e+00	1.269878e+04	
30	1.500000e+00	1.286355e+04	
31	1.550000e+00	1.303175e+04	
32	1.600000e+00	1.320348e+04	
33	1.650000e+00	1.337885e+04	
34	1.700000e+00	1.355799e+04	
35	1.750000e+00	1.374101e+04	
36	1.800000e+00	1.392804e+04	
37	1.850000e+00	1.411922e+04	
38	1.900000e+00	1.431468e+04	
39	1.950000e+00	1.451457e+04	
40	2.000000e+00	1.471904e+04	
41	2.050000e+00	1.492825e+04	
42	2.100000e+00	1.514236e+04	
43	2.150000e+00	1.536156e+04	
44	2.200000e+00	1.558603e+04	
45	2.250000e+00	1.581595e+04	
46	2.300000e+00	1.605153e+04	
47	2.350000e+00	1.629299e+04	
48	2.400000e+00	1.654055e+04	
49	2.450000e+00	1.679445e+04	
50	2.500000e+00	1.705493e+04	
51	2.550000e+00	1.732227e+04	
52	2.600000e+00	1.759674e+04	
53	2.650000e+00	1.787865e+04	
54	2.700000e+00	1.816831e+04	

Index   v-sweep         rds             
--------------------------------------------------------------------------------
55	2.750000e+00	1.846607e+04	
56	2.800000e+00	1.877229e+04	
57	2.850000e+00	1.908737e+04	
58	2.900000e+00	1.941175e+04	
59	2.950000e+00	1.974590e+04	
60	3.000000e+00	2.009034e+04	
61	3.050000e+00	2.044566e+04	
62	3.100000e+00	2.081255e+04	
63	3.150000e+00	2.119177e+04	
64	3.200000e+00	2.158427e+04	
65	3.250000e+00	2.199118e+04	
66	3.300000e+00	2.241396e+04	
67	3.350000e+00	2.285448e+04	
68	3.400000e+00	2.331531e+04	
69	3.450000e+00	2.380005e+04	
70	3.500000e+00	2.431398e+04	
71	3.550000e+00	2.486502e+04	
72	3.600000e+00	2.546548e+04	
73	3.650000e+00	2.613475e+04	
74	3.700000e+00	2.690358e+04	
75	3.750000e+00	2.781996e+04	
76	3.800000e+00	2.895522e+04	
77	3.850000e+00	3.040570e+04	
78	3.900000e+00	3.228124e+04	
79	3.950000e+00	3.467543e+04	
80	4.000000e+00	3.762970e+04	
81	4.050000e+00	4.111801e+04	
82	4.100000e+00	4.506374e+04	
83	4.150000e+00	4.937163e+04	
84	4.200000e+00	5.395255e+04	
85	4.250000e+00	5.873431e+04	
86	4.300000e+00	6.366275e+04	
87	4.350000e+00	6.869868e+04	
88	4.400000e+00	7.381413e+04	
89	4.450000e+00	7.898920e+04	
90	4.500000e+00	8.420959e+04	
91	4.550000e+00	8.946493e+04	
92	4.600000e+00	9.474761e+04	
93	4.650000e+00	1.000520e+05	
94	4.700000e+00	1.053737e+05	
95	4.750000e+00	1.107096e+05	
96	4.800000e+00	1.160571e+05	
97	4.850000e+00	1.214142e+05	
98	4.900000e+00	1.267793e+05	
99	4.950000e+00	1.321512e+05	
100	5.000000e+00	1.375289e+05	
101	5.050000e+00	1.429115e+05	
102	5.100000e+00	1.482984e+05	
103	5.150000e+00	1.536889e+05	
104	5.200000e+00	1.590827e+05	
105	5.250000e+00	1.644793e+05	
106	5.300000e+00	1.698784e+05	
107	5.350000e+00	1.752796e+05	
108	5.400000e+00	1.806829e+05	
109	5.450000e+00	1.860878e+05	
110	5.500000e+00	1.914943e+05	
111	5.550000e+00	1.969022e+05	
112	5.600000e+00	2.023114e+05	

Index   v-sweep         rds             
--------------------------------------------------------------------------------
113	5.650000e+00	2.077217e+05	
114	5.700000e+00	2.131330e+05	
115	5.750000e+00	2.185453e+05	
116	5.800000e+00	2.239584e+05	
117	5.850000e+00	2.293722e+05	
118	5.900000e+00	2.347868e+05	
119	5.950000e+00	2.402020e+05	
120	6.000000e+00	2.456178e+05	
121	6.050000e+00	2.510342e+05	
122	6.100000e+00	2.564510e+05	
123	6.150000e+00	2.618683e+05	
124	6.200000e+00	2.672860e+05	
125	6.250000e+00	2.727041e+05	
126	6.300000e+00	2.781226e+05	
127	6.350000e+00	2.835413e+05	
128	6.400000e+00	2.889604e+05	
129	6.450000e+00	2.943798e+05	
130	6.500000e+00	2.997994e+05	
131	6.550000e+00	3.052193e+05	
132	6.600000e+00	3.106393e+05	
Reset re-loads circuit ***************************

Circuit: ***************************

Note: No ".plot", ".print", or ".fourier" lines; no simulations run
