
Note: Compatibility modes selected: hs

Warning: m=xx on .subckt line will override multiplier m hierarchy!


Circuit: ***************************

Doing analysis at TEMP = -40.000000 and TNOM = -40.000000


No. of Data Rows : 133
                          ***************************
                          DC transfer characteristic  Mon Jan  9 13:58:06  2023
--------------------------------------------------------------------------------
Index   v-sweep         rds             
--------------------------------------------------------------------------------
0	0.000000e+00	3.232329e+04	
1	5.000000e-02	4.079365e+04	
2	1.000000e-01	5.512491e+04	
3	1.500000e-01	8.413134e+04	
4	2.000000e-01	1.626699e+05	
5	2.500000e-01	4.014776e+05	
6	3.000000e-01	7.400327e+05	
7	3.500000e-01	9.945191e+05	
8	4.000000e-01	1.198551e+06	
9	4.500000e-01	1.384436e+06	
10	5.000000e-01	1.563153e+06	
11	5.500000e-01	1.738586e+06	
12	6.000000e-01	1.912311e+06	
13	6.500000e-01	2.085052e+06	
14	7.000000e-01	2.257176e+06	
15	7.500000e-01	2.428885e+06	
16	8.000000e-01	2.600297e+06	
17	8.500000e-01	2.771485e+06	
18	9.000000e-01	2.942496e+06	
19	9.500000e-01	3.113362e+06	
20	1.000000e+00	3.284103e+06	
21	1.050000e+00	3.454736e+06	
22	1.100000e+00	3.625272e+06	
23	1.150000e+00	3.795718e+06	
24	1.200000e+00	3.966081e+06	
25	1.250000e+00	4.136366e+06	
26	1.300000e+00	4.306576e+06	
27	1.350000e+00	4.476713e+06	
28	1.400000e+00	4.646782e+06	
29	1.450000e+00	4.816782e+06	
30	1.500000e+00	4.986716e+06	
31	1.550000e+00	5.156584e+06	
32	1.600000e+00	5.326388e+06	
33	1.650000e+00	5.496129e+06	
34	1.700000e+00	5.665807e+06	
35	1.750000e+00	5.835423e+06	
36	1.800000e+00	6.004976e+06	
37	1.850000e+00	6.174468e+06	
38	1.900000e+00	6.343899e+06	
39	1.950000e+00	6.513269e+06	
40	2.000000e+00	6.682579e+06	
41	2.050000e+00	6.851828e+06	
42	2.100000e+00	7.021016e+06	
43	2.150000e+00	7.190145e+06	
44	2.200000e+00	7.359213e+06	
45	2.250000e+00	7.528221e+06	
46	2.300000e+00	7.697170e+06	
47	2.350000e+00	7.866059e+06	
48	2.400000e+00	8.034887e+06	
49	2.450000e+00	8.203657e+06	
50	2.500000e+00	8.372366e+06	
51	2.550000e+00	8.541016e+06	
52	2.600000e+00	8.709607e+06	
53	2.650000e+00	8.878138e+06	
54	2.700000e+00	9.046609e+06	

Index   v-sweep         rds             
--------------------------------------------------------------------------------
55	2.750000e+00	9.215021e+06	
56	2.800000e+00	9.383373e+06	
57	2.850000e+00	9.551666e+06	
58	2.900000e+00	9.719899e+06	
59	2.950000e+00	9.888073e+06	
60	3.000000e+00	1.005619e+07	
61	3.050000e+00	1.022424e+07	
62	3.100000e+00	1.039224e+07	
63	3.150000e+00	1.056017e+07	
64	3.200000e+00	1.072805e+07	
65	3.250000e+00	1.089587e+07	
66	3.300000e+00	1.106362e+07	
67	3.350000e+00	1.123132e+07	
68	3.400000e+00	1.139896e+07	
69	3.450000e+00	1.156654e+07	
70	3.500000e+00	1.173406e+07	
71	3.550000e+00	1.190152e+07	
72	3.600000e+00	1.206892e+07	
73	3.650000e+00	1.223626e+07	
74	3.700000e+00	1.240354e+07	
75	3.750000e+00	1.257076e+07	
76	3.800000e+00	1.273792e+07	
77	3.850000e+00	1.290503e+07	
78	3.900000e+00	1.307207e+07	
79	3.950000e+00	1.323905e+07	
80	4.000000e+00	1.340598e+07	
81	4.050000e+00	1.357284e+07	
82	4.100000e+00	1.373965e+07	
83	4.150000e+00	1.390639e+07	
84	4.200000e+00	1.407308e+07	
85	4.250000e+00	1.423971e+07	
86	4.300000e+00	1.440627e+07	
87	4.350000e+00	1.457278e+07	
88	4.400000e+00	1.473923e+07	
89	4.450000e+00	1.490561e+07	
90	4.500000e+00	1.507194e+07	
91	4.550000e+00	1.523821e+07	
92	4.600000e+00	1.540442e+07	
93	4.650000e+00	1.557057e+07	
94	4.700000e+00	1.573666e+07	
95	4.750000e+00	1.590269e+07	
96	4.800000e+00	1.606866e+07	
97	4.850000e+00	1.623457e+07	
98	4.900000e+00	1.640042e+07	
99	4.950000e+00	1.656622e+07	
100	5.000000e+00	1.673195e+07	
101	5.050000e+00	1.689762e+07	
102	5.100000e+00	1.706324e+07	
103	5.150000e+00	1.722879e+07	
104	5.200000e+00	1.739428e+07	
105	5.250000e+00	1.755972e+07	
106	5.300000e+00	1.772509e+07	
107	5.350000e+00	1.789041e+07	
108	5.400000e+00	1.805566e+07	
109	5.450000e+00	1.822086e+07	
110	5.500000e+00	1.838600e+07	
111	5.550000e+00	1.855107e+07	
112	5.600000e+00	1.871609e+07	

Index   v-sweep         rds             
--------------------------------------------------------------------------------
113	5.650000e+00	1.888105e+07	
114	5.700000e+00	1.904595e+07	
115	5.750000e+00	1.921079e+07	
116	5.800000e+00	1.937557e+07	
117	5.850000e+00	1.954029e+07	
118	5.900000e+00	1.970495e+07	
119	5.950000e+00	1.986955e+07	
120	6.000000e+00	2.003409e+07	
121	6.050000e+00	2.019857e+07	
122	6.100000e+00	2.036299e+07	
123	6.150000e+00	2.052736e+07	
124	6.200000e+00	2.069166e+07	
125	6.250000e+00	2.085590e+07	
126	6.300000e+00	2.102009e+07	
127	6.350000e+00	2.118421e+07	
128	6.400000e+00	2.134828e+07	
129	6.450000e+00	2.151228e+07	
130	6.500000e+00	2.167623e+07	
131	6.550000e+00	2.184012e+07	
132	6.600000e+00	2.200394e+07	
Reset re-loads circuit ***************************

Circuit: ***************************

Doing analysis at TEMP = -40.000000 and TNOM = -40.000000


No. of Data Rows : 133
                          ***************************
                          DC transfer characteristic  Mon Jan  9 13:58:06  2023
--------------------------------------------------------------------------------
Index   v-sweep         rds             
--------------------------------------------------------------------------------
0	0.000000e+00	6.312833e+03	
1	5.000000e-02	6.579970e+03	
2	1.000000e-01	6.868654e+03	
3	1.500000e-01	7.181597e+03	
4	2.000000e-01	7.521988e+03	
5	2.500000e-01	7.893600e+03	
6	3.000000e-01	8.300931e+03	
7	3.500000e-01	8.749384e+03	
8	4.000000e-01	9.245513e+03	
9	4.500000e-01	9.797339e+03	
10	5.000000e-01	1.041479e+04	
11	5.500000e-01	1.111029e+04	
12	6.000000e-01	1.189963e+04	
13	6.500000e-01	1.280314e+04	
14	7.000000e-01	1.384750e+04	
15	7.500000e-01	1.506834e+04	
16	8.000000e-01	1.651443e+04	
17	8.500000e-01	1.825426e+04	
18	9.000000e-01	2.038695e+04	
19	9.500000e-01	2.306074e+04	
20	1.000000e+00	2.650289e+04	
21	1.050000e+00	3.105179e+04	
22	1.100000e+00	3.710957e+04	
23	1.150000e+00	4.485594e+04	
24	1.200000e+00	5.397834e+04	
25	1.250000e+00	6.394103e+04	
26	1.300000e+00	7.434713e+04	
27	1.350000e+00	8.498298e+04	
28	1.400000e+00	9.574315e+04	
29	1.450000e+00	1.065748e+05	
30	1.500000e+00	1.174501e+05	
31	1.550000e+00	1.283534e+05	
32	1.600000e+00	1.392755e+05	
33	1.650000e+00	1.502106e+05	
34	1.700000e+00	1.611551e+05	
35	1.750000e+00	1.721063e+05	
36	1.800000e+00	1.830626e+05	
37	1.850000e+00	1.940228e+05	
38	1.900000e+00	2.049858e+05	
39	1.950000e+00	2.159511e+05	
40	2.000000e+00	2.269180e+05	
41	2.050000e+00	2.378863e+05	
42	2.100000e+00	2.488554e+05	
43	2.150000e+00	2.598253e+05	
44	2.200000e+00	2.707957e+05	
45	2.250000e+00	2.817663e+05	
46	2.300000e+00	2.927371e+05	
47	2.350000e+00	3.037080e+05	
48	2.400000e+00	3.146788e+05	
49	2.450000e+00	3.256494e+05	
50	2.500000e+00	3.366198e+05	
51	2.550000e+00	3.475900e+05	
52	2.600000e+00	3.585598e+05	
53	2.650000e+00	3.695292e+05	
54	2.700000e+00	3.804982e+05	

Index   v-sweep         rds             
--------------------------------------------------------------------------------
55	2.750000e+00	3.914667e+05	
56	2.800000e+00	4.024347e+05	
57	2.850000e+00	4.134021e+05	
58	2.900000e+00	4.243690e+05	
59	2.950000e+00	4.353354e+05	
60	3.000000e+00	4.463011e+05	
61	3.050000e+00	4.572662e+05	
62	3.100000e+00	4.682306e+05	
63	3.150000e+00	4.791944e+05	
64	3.200000e+00	4.901575e+05	
65	3.250000e+00	5.011199e+05	
66	3.300000e+00	5.120816e+05	
67	3.350000e+00	5.230425e+05	
68	3.400000e+00	5.340028e+05	
69	3.450000e+00	5.449623e+05	
70	3.500000e+00	5.559211e+05	
71	3.550000e+00	5.668791e+05	
72	3.600000e+00	5.778364e+05	
73	3.650000e+00	5.887928e+05	
74	3.700000e+00	5.997486e+05	
75	3.750000e+00	6.107035e+05	
76	3.800000e+00	6.216576e+05	
77	3.850000e+00	6.326110e+05	
78	3.900000e+00	6.435635e+05	
79	3.950000e+00	6.545152e+05	
80	4.000000e+00	6.654661e+05	
81	4.050000e+00	6.764163e+05	
82	4.100000e+00	6.873655e+05	
83	4.150000e+00	6.983140e+05	
84	4.200000e+00	7.092616e+05	
85	4.250000e+00	7.202084e+05	
86	4.300000e+00	7.311544e+05	
87	4.350000e+00	7.420995e+05	
88	4.400000e+00	7.530438e+05	
89	4.450000e+00	7.639873e+05	
90	4.500000e+00	7.749299e+05	
91	4.550000e+00	7.858716e+05	
92	4.600000e+00	7.968125e+05	
93	4.650000e+00	8.077525e+05	
94	4.700000e+00	8.186917e+05	
95	4.750000e+00	8.296300e+05	
96	4.800000e+00	8.405675e+05	
97	4.850000e+00	8.515041e+05	
98	4.900000e+00	8.624398e+05	
99	4.950000e+00	8.733747e+05	
100	5.000000e+00	8.843087e+05	
101	5.050000e+00	8.952418e+05	
102	5.100000e+00	9.061740e+05	
103	5.150000e+00	9.171054e+05	
104	5.200000e+00	9.280359e+05	
105	5.250000e+00	9.389655e+05	
106	5.300000e+00	9.498942e+05	
107	5.350000e+00	9.608221e+05	
108	5.400000e+00	9.717490e+05	
109	5.450000e+00	9.826751e+05	
110	5.500000e+00	9.936003e+05	
111	5.550000e+00	1.004525e+06	
112	5.600000e+00	1.015448e+06	

Index   v-sweep         rds             
--------------------------------------------------------------------------------
113	5.650000e+00	1.026371e+06	
114	5.700000e+00	1.037292e+06	
115	5.750000e+00	1.048213e+06	
116	5.800000e+00	1.059133e+06	
117	5.850000e+00	1.070052e+06	
118	5.900000e+00	1.080970e+06	
119	5.950000e+00	1.091887e+06	
120	6.000000e+00	1.102803e+06	
121	6.050000e+00	1.113719e+06	
122	6.100000e+00	1.124633e+06	
123	6.150000e+00	1.135547e+06	
124	6.200000e+00	1.146459e+06	
125	6.250000e+00	1.157371e+06	
126	6.300000e+00	1.168282e+06	
127	6.350000e+00	1.179192e+06	
128	6.400000e+00	1.190101e+06	
129	6.450000e+00	1.201009e+06	
130	6.500000e+00	1.211916e+06	
131	6.550000e+00	1.222823e+06	
132	6.600000e+00	1.233728e+06	
Reset re-loads circuit ***************************

Circuit: ***************************

Doing analysis at TEMP = -40.000000 and TNOM = -40.000000


No. of Data Rows : 133
                          ***************************
                          DC transfer characteristic  Mon Jan  9 13:58:06  2023
--------------------------------------------------------------------------------
Index   v-sweep         rds             
--------------------------------------------------------------------------------
0	0.000000e+00	3.969510e+03	
1	5.000000e-02	4.065836e+03	
2	1.000000e-01	4.166221e+03	
3	1.500000e-01	4.270924e+03	
4	2.000000e-01	4.380229e+03	
5	2.500000e-01	4.494447e+03	
6	3.000000e-01	4.613914e+03	
7	3.500000e-01	4.739001e+03	
8	4.000000e-01	4.870112e+03	
9	4.500000e-01	5.007692e+03	
10	5.000000e-01	5.152231e+03	
11	5.500000e-01	5.304270e+03	
12	6.000000e-01	5.464407e+03	
13	6.500000e-01	5.633306e+03	
14	7.000000e-01	5.811704e+03	
15	7.500000e-01	6.000427e+03	
16	8.000000e-01	6.200397e+03	
17	8.500000e-01	6.412649e+03	
18	9.000000e-01	6.638351e+03	
19	9.500000e-01	6.878827e+03	
20	1.000000e+00	7.135579e+03	
21	1.050000e+00	7.410323e+03	
22	1.100000e+00	7.705028e+03	
23	1.150000e+00	8.021972e+03	
24	1.200000e+00	8.363800e+03	
25	1.250000e+00	8.733612e+03	
26	1.300000e+00	9.135083e+03	
27	1.350000e+00	9.572616e+03	
28	1.400000e+00	1.005159e+04	
29	1.450000e+00	1.057871e+04	
30	1.500000e+00	1.116266e+04	
31	1.550000e+00	1.181523e+04	
32	1.600000e+00	1.255351e+04	
33	1.650000e+00	1.340437e+04	
34	1.700000e+00	1.441336e+04	
35	1.750000e+00	1.565980e+04	
36	1.800000e+00	1.727068e+04	
37	1.850000e+00	1.939931e+04	
38	1.900000e+00	2.213837e+04	
39	1.950000e+00	2.544471e+04	
40	2.000000e+00	2.918019e+04	
41	2.050000e+00	3.320169e+04	
42	2.100000e+00	3.740427e+04	
43	2.150000e+00	4.172106e+04	
44	2.200000e+00	4.611135e+04	
45	2.250000e+00	5.055036e+04	
46	2.300000e+00	5.502267e+04	
47	2.350000e+00	5.951844e+04	
48	2.400000e+00	6.403119e+04	
49	2.450000e+00	6.855654e+04	
50	2.500000e+00	7.309142e+04	
51	2.550000e+00	7.763368e+04	
52	2.600000e+00	8.218172e+04	
53	2.650000e+00	8.673437e+04	
54	2.700000e+00	9.129073e+04	

Index   v-sweep         rds             
--------------------------------------------------------------------------------
55	2.750000e+00	9.585013e+04	
56	2.800000e+00	1.004120e+05	
57	2.850000e+00	1.049760e+05	
58	2.900000e+00	1.095417e+05	
59	2.950000e+00	1.141088e+05	
60	3.000000e+00	1.186772e+05	
61	3.050000e+00	1.232467e+05	
62	3.100000e+00	1.278170e+05	
63	3.150000e+00	1.323881e+05	
64	3.200000e+00	1.369599e+05	
65	3.250000e+00	1.415322e+05	
66	3.300000e+00	1.461051e+05	
67	3.350000e+00	1.506783e+05	
68	3.400000e+00	1.552519e+05	
69	3.450000e+00	1.598258e+05	
70	3.500000e+00	1.643999e+05	
71	3.550000e+00	1.689743e+05	
72	3.600000e+00	1.735488e+05	
73	3.650000e+00	1.781235e+05	
74	3.700000e+00	1.826983e+05	
75	3.750000e+00	1.872732e+05	
76	3.800000e+00	1.918482e+05	
77	3.850000e+00	1.964233e+05	
78	3.900000e+00	2.009984e+05	
79	3.950000e+00	2.055735e+05	
80	4.000000e+00	2.101486e+05	
81	4.050000e+00	2.147236e+05	
82	4.100000e+00	2.192987e+05	
83	4.150000e+00	2.238738e+05	
84	4.200000e+00	2.284488e+05	
85	4.250000e+00	2.330237e+05	
86	4.300000e+00	2.375986e+05	
87	4.350000e+00	2.421734e+05	
88	4.400000e+00	2.467481e+05	
89	4.450000e+00	2.513228e+05	
90	4.500000e+00	2.558973e+05	
91	4.550000e+00	2.604718e+05	
92	4.600000e+00	2.650462e+05	
93	4.650000e+00	2.696204e+05	
94	4.700000e+00	2.741946e+05	
95	4.750000e+00	2.787686e+05	
96	4.800000e+00	2.833425e+05	
97	4.850000e+00	2.879163e+05	
98	4.900000e+00	2.924899e+05	
99	4.950000e+00	2.970634e+05	
100	5.000000e+00	3.016368e+05	
101	5.050000e+00	3.062101e+05	
102	5.100000e+00	3.107831e+05	
103	5.150000e+00	3.153561e+05	
104	5.200000e+00	3.199289e+05	
105	5.250000e+00	3.245016e+05	
106	5.300000e+00	3.290741e+05	
107	5.350000e+00	3.336464e+05	
108	5.400000e+00	3.382186e+05	
109	5.450000e+00	3.427906e+05	
110	5.500000e+00	3.473625e+05	
111	5.550000e+00	3.519342e+05	
112	5.600000e+00	3.565058e+05	

Index   v-sweep         rds             
--------------------------------------------------------------------------------
113	5.650000e+00	3.610772e+05	
114	5.700000e+00	3.656484e+05	
115	5.750000e+00	3.702194e+05	
116	5.800000e+00	3.747903e+05	
117	5.850000e+00	3.793610e+05	
118	5.900000e+00	3.839315e+05	
119	5.950000e+00	3.885019e+05	
120	6.000000e+00	3.930721e+05	
121	6.050000e+00	3.976421e+05	
122	6.100000e+00	4.022119e+05	
123	6.150000e+00	4.067815e+05	
124	6.200000e+00	4.113510e+05	
125	6.250000e+00	4.159203e+05	
126	6.300000e+00	4.204894e+05	
127	6.350000e+00	4.250583e+05	
128	6.400000e+00	4.296271e+05	
129	6.450000e+00	4.341956e+05	
130	6.500000e+00	4.387640e+05	
131	6.550000e+00	4.433322e+05	
132	6.600000e+00	4.479002e+05	
Reset re-loads circuit ***************************

Circuit: ***************************

Doing analysis at TEMP = -40.000000 and TNOM = -40.000000


No. of Data Rows : 133
                          ***************************
                          DC transfer characteristic  Mon Jan  9 13:58:06  2023
--------------------------------------------------------------------------------
Index   v-sweep         rds             
--------------------------------------------------------------------------------
0	0.000000e+00	3.104986e+03	
1	5.000000e-02	3.158673e+03	
2	1.000000e-01	3.213867e+03	
3	1.500000e-01	3.270631e+03	
4	2.000000e-01	3.329033e+03	
5	2.500000e-01	3.389145e+03	
6	3.000000e-01	3.451042e+03	
7	3.500000e-01	3.514804e+03	
8	4.000000e-01	3.580516e+03	
9	4.500000e-01	3.648270e+03	
10	5.000000e-01	3.718160e+03	
11	5.500000e-01	3.790290e+03	
12	6.000000e-01	3.864768e+03	
13	6.500000e-01	3.941710e+03	
14	7.000000e-01	4.021241e+03	
15	7.500000e-01	4.103491e+03	
16	8.000000e-01	4.188604e+03	
17	8.500000e-01	4.276730e+03	
18	9.000000e-01	4.368032e+03	
19	9.500000e-01	4.462684e+03	
20	1.000000e+00	4.560874e+03	
21	1.050000e+00	4.662804e+03	
22	1.100000e+00	4.768690e+03	
23	1.150000e+00	4.878768e+03	
24	1.200000e+00	4.993292e+03	
25	1.250000e+00	5.112537e+03	
26	1.300000e+00	5.236801e+03	
27	1.350000e+00	5.366408e+03	
28	1.400000e+00	5.501713e+03	
29	1.450000e+00	5.643102e+03	
30	1.500000e+00	5.790998e+03	
31	1.550000e+00	5.945866e+03	
32	1.600000e+00	6.108218e+03	
33	1.650000e+00	6.278621e+03	
34	1.700000e+00	6.457707e+03	
35	1.750000e+00	6.646182e+03	
36	1.800000e+00	6.844841e+03	
37	1.850000e+00	7.054593e+03	
38	1.900000e+00	7.276485e+03	
39	1.950000e+00	7.511748e+03	
40	2.000000e+00	7.761865e+03	
41	2.050000e+00	8.028683e+03	
42	2.100000e+00	8.314600e+03	
43	2.150000e+00	8.622907e+03	
44	2.200000e+00	8.958409e+03	
45	2.250000e+00	9.328598e+03	
46	2.300000e+00	9.745861e+03	
47	2.350000e+00	1.023144e+04	
48	2.400000e+00	1.082159e+04	
49	2.450000e+00	1.157392e+04	
50	2.500000e+00	1.256485e+04	
51	2.550000e+00	1.386536e+04	
52	2.600000e+00	1.550244e+04	
53	2.650000e+00	1.744423e+04	
54	2.700000e+00	1.962439e+04	

Index   v-sweep         rds             
--------------------------------------------------------------------------------
55	2.750000e+00	2.197467e+04	
56	2.800000e+00	2.444134e+04	
57	2.850000e+00	2.698685e+04	
58	2.900000e+00	2.958627e+04	
59	2.950000e+00	3.222324e+04	
60	3.000000e+00	3.488692e+04	
61	3.050000e+00	3.757004e+04	
62	3.100000e+00	4.026760e+04	
63	3.150000e+00	4.297610e+04	
64	3.200000e+00	4.569306e+04	
65	3.250000e+00	4.841666e+04	
66	3.300000e+00	5.114553e+04	
67	3.350000e+00	5.387866e+04	
68	3.400000e+00	5.661526e+04	
69	3.450000e+00	5.935474e+04	
70	3.500000e+00	6.209661e+04	
71	3.550000e+00	6.484049e+04	
72	3.600000e+00	6.758608e+04	
73	3.650000e+00	7.033311e+04	
74	3.700000e+00	7.308139e+04	
75	3.750000e+00	7.583075e+04	
76	3.800000e+00	7.858104e+04	
77	3.850000e+00	8.133215e+04	
78	3.900000e+00	8.408397e+04	
79	3.950000e+00	8.683641e+04	
80	4.000000e+00	8.958941e+04	
81	4.050000e+00	9.234289e+04	
82	4.100000e+00	9.509680e+04	
83	4.150000e+00	9.785110e+04	
84	4.200000e+00	1.006057e+05	
85	4.250000e+00	1.033607e+05	
86	4.300000e+00	1.061159e+05	
87	4.350000e+00	1.088713e+05	
88	4.400000e+00	1.116270e+05	
89	4.450000e+00	1.143829e+05	
90	4.500000e+00	1.171389e+05	
91	4.550000e+00	1.198951e+05	
92	4.600000e+00	1.226514e+05	
93	4.650000e+00	1.254079e+05	
94	4.700000e+00	1.281644e+05	
95	4.750000e+00	1.309211e+05	
96	4.800000e+00	1.336778e+05	
97	4.850000e+00	1.364346e+05	
98	4.900000e+00	1.391914e+05	
99	4.950000e+00	1.419483e+05	
100	5.000000e+00	1.447053e+05	
101	5.050000e+00	1.474623e+05	
102	5.100000e+00	1.502193e+05	
103	5.150000e+00	1.529764e+05	
104	5.200000e+00	1.557335e+05	
105	5.250000e+00	1.584906e+05	
106	5.300000e+00	1.612477e+05	
107	5.350000e+00	1.640048e+05	
108	5.400000e+00	1.667619e+05	
109	5.450000e+00	1.695190e+05	
110	5.500000e+00	1.722761e+05	
111	5.550000e+00	1.750331e+05	
112	5.600000e+00	1.777902e+05	

Index   v-sweep         rds             
--------------------------------------------------------------------------------
113	5.650000e+00	1.805473e+05	
114	5.700000e+00	1.833043e+05	
115	5.750000e+00	1.860613e+05	
116	5.800000e+00	1.888183e+05	
117	5.850000e+00	1.915752e+05	
118	5.900000e+00	1.943321e+05	
119	5.950000e+00	1.970890e+05	
120	6.000000e+00	1.998459e+05	
121	6.050000e+00	2.026027e+05	
122	6.100000e+00	2.053595e+05	
123	6.150000e+00	2.081162e+05	
124	6.200000e+00	2.108729e+05	
125	6.250000e+00	2.136295e+05	
126	6.300000e+00	2.163861e+05	
127	6.350000e+00	2.191427e+05	
128	6.400000e+00	2.218992e+05	
129	6.450000e+00	2.246557e+05	
130	6.500000e+00	2.274121e+05	
131	6.550000e+00	2.301684e+05	
132	6.600000e+00	2.329247e+05	
Reset re-loads circuit ***************************

Circuit: ***************************

Doing analysis at TEMP = -40.000000 and TNOM = -40.000000


No. of Data Rows : 133
                          ***************************
                          DC transfer characteristic  Mon Jan  9 13:58:06  2023
--------------------------------------------------------------------------------
Index   v-sweep         rds             
--------------------------------------------------------------------------------
0	0.000000e+00	2.668981e+03	
1	5.000000e-02	2.704865e+03	
2	1.000000e-01	2.741493e+03	
3	1.500000e-01	2.778886e+03	
4	2.000000e-01	2.817070e+03	
5	2.500000e-01	2.856068e+03	
6	3.000000e-01	2.895908e+03	
7	3.500000e-01	2.936615e+03	
8	4.000000e-01	2.978220e+03	
9	4.500000e-01	3.020751e+03	
10	5.000000e-01	3.064240e+03	
11	5.500000e-01	3.108718e+03	
12	6.000000e-01	3.154221e+03	
13	6.500000e-01	3.200783e+03	
14	7.000000e-01	3.248441e+03	
15	7.500000e-01	3.297235e+03	
16	8.000000e-01	3.347205e+03	
17	8.500000e-01	3.398394e+03	
18	9.000000e-01	3.450847e+03	
19	9.500000e-01	3.504611e+03	
20	1.000000e+00	3.559735e+03	
21	1.050000e+00	3.616272e+03	
22	1.100000e+00	3.674276e+03	
23	1.150000e+00	3.733805e+03	
24	1.200000e+00	3.794920e+03	
25	1.250000e+00	3.857684e+03	
26	1.300000e+00	3.922165e+03	
27	1.350000e+00	3.988434e+03	
28	1.400000e+00	4.056567e+03	
29	1.450000e+00	4.126643e+03	
30	1.500000e+00	4.198746e+03	
31	1.550000e+00	4.272965e+03	
32	1.600000e+00	4.349395e+03	
33	1.650000e+00	4.428137e+03	
34	1.700000e+00	4.509296e+03	
35	1.750000e+00	4.592987e+03	
36	1.800000e+00	4.679331e+03	
37	1.850000e+00	4.768456e+03	
38	1.900000e+00	4.860500e+03	
39	1.950000e+00	4.955611e+03	
40	2.000000e+00	5.053947e+03	
41	2.050000e+00	5.155679e+03	
42	2.100000e+00	5.260991e+03	
43	2.150000e+00	5.370081e+03	
44	2.200000e+00	5.483166e+03	
45	2.250000e+00	5.600482e+03	
46	2.300000e+00	5.722290e+03	
47	2.350000e+00	5.848879e+03	
48	2.400000e+00	5.980573e+03	
49	2.450000e+00	6.117742e+03	
50	2.500000e+00	6.260816e+03	
51	2.550000e+00	6.410303e+03	
52	2.600000e+00	6.566827e+03	
53	2.650000e+00	6.731183e+03	
54	2.700000e+00	6.904418e+03	

Index   v-sweep         rds             
--------------------------------------------------------------------------------
55	2.750000e+00	7.087991e+03	
56	2.800000e+00	7.284026e+03	
57	2.850000e+00	7.495773e+03	
58	2.900000e+00	7.728407e+03	
59	2.950000e+00	7.990411e+03	
60	3.000000e+00	8.295834e+03	
61	3.050000e+00	8.667420e+03	
62	3.100000e+00	9.139475e+03	
63	3.150000e+00	9.756667e+03	
64	3.200000e+00	1.056355e+04	
65	3.250000e+00	1.158615e+04	
66	3.300000e+00	1.281952e+04	
67	3.350000e+00	1.423293e+04	
68	3.400000e+00	1.578579e+04	
69	3.450000e+00	1.744057e+04	
70	3.500000e+00	1.916789e+04	
71	3.550000e+00	2.094658e+04	
72	3.600000e+00	2.276192e+04	
73	3.650000e+00	2.460378e+04	
74	3.700000e+00	2.646514e+04	
75	3.750000e+00	2.834110e+04	
76	3.800000e+00	3.022818e+04	
77	3.850000e+00	3.212387e+04	
78	3.900000e+00	3.402633e+04	
79	3.950000e+00	3.593418e+04	
80	4.000000e+00	3.784639e+04	
81	4.050000e+00	3.976215e+04	
82	4.100000e+00	4.168084e+04	
83	4.150000e+00	4.360198e+04	
84	4.200000e+00	4.552517e+04	
85	4.250000e+00	4.745011e+04	
86	4.300000e+00	4.937653e+04	
87	4.350000e+00	5.130424e+04	
88	4.400000e+00	5.323305e+04	
89	4.450000e+00	5.516282e+04	
90	4.500000e+00	5.709344e+04	
91	4.550000e+00	5.902479e+04	
92	4.600000e+00	6.095679e+04	
93	4.650000e+00	6.288938e+04	
94	4.700000e+00	6.482247e+04	
95	4.750000e+00	6.675603e+04	
96	4.800000e+00	6.868999e+04	
97	4.850000e+00	7.062432e+04	
98	4.900000e+00	7.255898e+04	
99	4.950000e+00	7.449393e+04	
100	5.000000e+00	7.642916e+04	
101	5.050000e+00	7.836463e+04	
102	5.100000e+00	8.030031e+04	
103	5.150000e+00	8.223620e+04	
104	5.200000e+00	8.417227e+04	
105	5.250000e+00	8.610851e+04	
106	5.300000e+00	8.804489e+04	
107	5.350000e+00	8.998141e+04	
108	5.400000e+00	9.191806e+04	
109	5.450000e+00	9.385482e+04	
110	5.500000e+00	9.579168e+04	
111	5.550000e+00	9.772864e+04	
112	5.600000e+00	9.966568e+04	

Index   v-sweep         rds             
--------------------------------------------------------------------------------
113	5.650000e+00	1.016028e+05	
114	5.700000e+00	1.035400e+05	
115	5.750000e+00	1.054773e+05	
116	5.800000e+00	1.074146e+05	
117	5.850000e+00	1.093519e+05	
118	5.900000e+00	1.112893e+05	
119	5.950000e+00	1.132268e+05	
120	6.000000e+00	1.151643e+05	
121	6.050000e+00	1.171018e+05	
122	6.100000e+00	1.190394e+05	
123	6.150000e+00	1.209770e+05	
124	6.200000e+00	1.229146e+05	
125	6.250000e+00	1.248522e+05	
126	6.300000e+00	1.267899e+05	
127	6.350000e+00	1.287275e+05	
128	6.400000e+00	1.306652e+05	
129	6.450000e+00	1.326029e+05	
130	6.500000e+00	1.345406e+05	
131	6.550000e+00	1.364783e+05	
132	6.600000e+00	1.384160e+05	
Reset re-loads circuit ***************************

Circuit: ***************************

Doing analysis at TEMP = -40.000000 and TNOM = -40.000000


No. of Data Rows : 133
                          ***************************
                          DC transfer characteristic  Mon Jan  9 13:58:06  2023
--------------------------------------------------------------------------------
Index   v-sweep         rds             
--------------------------------------------------------------------------------
0	0.000000e+00	2.416009e+03	
1	5.000000e-02	2.442453e+03	
2	1.000000e-01	2.469324e+03	
3	1.500000e-01	2.496631e+03	
4	2.000000e-01	2.524387e+03	
5	2.500000e-01	2.552601e+03	
6	3.000000e-01	2.581285e+03	
7	3.500000e-01	2.610451e+03	
8	4.000000e-01	2.640110e+03	
9	4.500000e-01	2.670276e+03	
10	5.000000e-01	2.700960e+03	
11	5.500000e-01	2.732177e+03	
12	6.000000e-01	2.763941e+03	
13	6.500000e-01	2.796264e+03	
14	7.000000e-01	2.829164e+03	
15	7.500000e-01	2.862653e+03	
16	8.000000e-01	2.896749e+03	
17	8.500000e-01	2.931469e+03	
18	9.000000e-01	2.966828e+03	
19	9.500000e-01	3.002845e+03	
20	1.000000e+00	3.039538e+03	
21	1.050000e+00	3.076927e+03	
22	1.100000e+00	3.115030e+03	
23	1.150000e+00	3.153869e+03	
24	1.200000e+00	3.193465e+03	
25	1.250000e+00	3.233840e+03	
26	1.300000e+00	3.275016e+03	
27	1.350000e+00	3.317019e+03	
28	1.400000e+00	3.359873e+03	
29	1.450000e+00	3.403604e+03	
30	1.500000e+00	3.448239e+03	
31	1.550000e+00	3.493807e+03	
32	1.600000e+00	3.540335e+03	
33	1.650000e+00	3.587857e+03	
34	1.700000e+00	3.636402e+03	
35	1.750000e+00	3.686005e+03	
36	1.800000e+00	3.736700e+03	
37	1.850000e+00	3.788524e+03	
38	1.900000e+00	3.841515e+03	
39	1.950000e+00	3.895712e+03	
40	2.000000e+00	3.951158e+03	
41	2.050000e+00	4.007896e+03	
42	2.100000e+00	4.065971e+03	
43	2.150000e+00	4.125433e+03	
44	2.200000e+00	4.186330e+03	
45	2.250000e+00	4.248717e+03	
46	2.300000e+00	4.312649e+03	
47	2.350000e+00	4.378185e+03	
48	2.400000e+00	4.445387e+03	
49	2.450000e+00	4.514321e+03	
50	2.500000e+00	4.585055e+03	
51	2.550000e+00	4.657665e+03	
52	2.600000e+00	4.732227e+03	
53	2.650000e+00	4.808826e+03	
54	2.700000e+00	4.887551e+03	

Index   v-sweep         rds             
--------------------------------------------------------------------------------
55	2.750000e+00	4.968499e+03	
56	2.800000e+00	5.051774e+03	
57	2.850000e+00	5.137490e+03	
58	2.900000e+00	5.225773e+03	
59	2.950000e+00	5.316761e+03	
60	3.000000e+00	5.410611e+03	
61	3.050000e+00	5.507505e+03	
62	3.100000e+00	5.607653e+03	
63	3.150000e+00	5.711308e+03	
64	3.200000e+00	5.818785e+03	
65	3.250000e+00	5.930483e+03	
66	3.300000e+00	6.046932e+03	
67	3.350000e+00	6.168859e+03	
68	3.400000e+00	6.297299e+03	
69	3.450000e+00	6.433780e+03	
70	3.500000e+00	6.580629e+03	
71	3.550000e+00	6.741480e+03	
72	3.600000e+00	6.922104e+03	
73	3.650000e+00	7.131676e+03	
74	3.700000e+00	7.384482e+03	
75	3.750000e+00	7.701556e+03	
76	3.800000e+00	8.110668e+03	
77	3.850000e+00	8.642177e+03	
78	3.900000e+00	9.319915e+03	
79	3.950000e+00	1.015169e+04	
80	4.000000e+00	1.112684e+04	
81	4.050000e+00	1.222242e+04	
82	4.100000e+00	1.341209e+04	
83	4.150000e+00	1.467214e+04	
84	4.200000e+00	1.598382e+04	
85	4.250000e+00	1.733320e+04	
86	4.300000e+00	1.871025e+04	
87	4.350000e+00	2.010784e+04	
88	4.400000e+00	2.152088e+04	
89	4.450000e+00	2.294571e+04	
90	4.500000e+00	2.437966e+04	
91	4.550000e+00	2.582079e+04	
92	4.600000e+00	2.726761e+04	
93	4.650000e+00	2.871902e+04	
94	4.700000e+00	3.017418e+04	
95	4.750000e+00	3.163241e+04	
96	4.800000e+00	3.309320e+04	
97	4.850000e+00	3.455613e+04	
98	4.900000e+00	3.602089e+04	
99	4.950000e+00	3.748719e+04	
100	5.000000e+00	3.895481e+04	
101	5.050000e+00	4.042358e+04	
102	5.100000e+00	4.189335e+04	
103	5.150000e+00	4.336399e+04	
104	5.200000e+00	4.483538e+04	
105	5.250000e+00	4.630746e+04	
106	5.300000e+00	4.778012e+04	
107	5.350000e+00	4.925332e+04	
108	5.400000e+00	5.072699e+04	
109	5.450000e+00	5.220108e+04	
110	5.500000e+00	5.367556e+04	
111	5.550000e+00	5.515038e+04	
112	5.600000e+00	5.662550e+04	

Index   v-sweep         rds             
--------------------------------------------------------------------------------
113	5.650000e+00	5.810091e+04	
114	5.700000e+00	5.957657e+04	
115	5.750000e+00	6.105247e+04	
116	5.800000e+00	6.252857e+04	
117	5.850000e+00	6.400487e+04	
118	5.900000e+00	6.548135e+04	
119	5.950000e+00	6.695798e+04	
120	6.000000e+00	6.843477e+04	
121	6.050000e+00	6.991169e+04	
122	6.100000e+00	7.138874e+04	
123	6.150000e+00	7.286590e+04	
124	6.200000e+00	7.434317e+04	
125	6.250000e+00	7.582054e+04	
126	6.300000e+00	7.729799e+04	
127	6.350000e+00	7.877554e+04	
128	6.400000e+00	8.025315e+04	
129	6.450000e+00	8.173084e+04	
130	6.500000e+00	8.320860e+04	
131	6.550000e+00	8.468642e+04	
132	6.600000e+00	8.616429e+04	
Reset re-loads circuit ***************************

Circuit: ***************************

Note: No ".plot", ".print", or ".fourier" lines; no simulations run
