
Note: Compatibility modes selected: hs

Warning: m=xx on .subckt line will override multiplier m hierarchy!


Circuit: ***************************

Doing analysis at TEMP = 25.000000 and TNOM = 25.000000


No. of Data Rows : 133
                          ***************************
                          DC transfer characteristic  Mon Jan  9 13:58:05  2023
--------------------------------------------------------------------------------
Index   v-sweep         rds             
--------------------------------------------------------------------------------
0	0.000000e+00	1.778602e+04	
1	5.000000e-02	2.087795e+04	
2	1.000000e-01	2.522058e+04	
3	1.500000e-01	3.175196e+04	
4	2.000000e-01	4.260345e+04	
5	2.500000e-01	6.340893e+04	
6	3.000000e-01	1.085091e+05	
7	3.500000e-01	1.833582e+05	
8	4.000000e-01	2.521723e+05	
9	4.500000e-01	3.075666e+05	
10	5.000000e-01	3.572571e+05	
11	5.500000e-01	4.045450e+05	
12	6.000000e-01	4.505393e+05	
13	6.500000e-01	4.956545e+05	
14	7.000000e-01	5.400684e+05	
15	7.500000e-01	5.838679e+05	
16	8.000000e-01	6.271007e+05	
17	8.500000e-01	6.697956e+05	
18	9.000000e-01	7.119723e+05	
19	9.500000e-01	7.536452e+05	
20	1.000000e+00	7.948256e+05	
21	1.050000e+00	8.355232e+05	
22	1.100000e+00	8.757466e+05	
23	1.150000e+00	9.155036e+05	
24	1.200000e+00	9.548015e+05	
25	1.250000e+00	9.936472e+05	
26	1.300000e+00	1.032047e+06	
27	1.350000e+00	1.070009e+06	
28	1.400000e+00	1.107537e+06	
29	1.450000e+00	1.144640e+06	
30	1.500000e+00	1.181322e+06	
31	1.550000e+00	1.217590e+06	
32	1.600000e+00	1.253449e+06	
33	1.650000e+00	1.288906e+06	
34	1.700000e+00	1.323966e+06	
35	1.750000e+00	1.358635e+06	
36	1.800000e+00	1.392918e+06	
37	1.850000e+00	1.426820e+06	
38	1.900000e+00	1.460348e+06	
39	1.950000e+00	1.493507e+06	
40	2.000000e+00	1.526301e+06	
41	2.050000e+00	1.558736e+06	
42	2.100000e+00	1.590818e+06	
43	2.150000e+00	1.622550e+06	
44	2.200000e+00	1.653938e+06	
45	2.250000e+00	1.684987e+06	
46	2.300000e+00	1.715701e+06	
47	2.350000e+00	1.746086e+06	
48	2.400000e+00	1.776145e+06	
49	2.450000e+00	1.805884e+06	
50	2.500000e+00	1.835307e+06	
51	2.550000e+00	1.864418e+06	
52	2.600000e+00	1.893222e+06	
53	2.650000e+00	1.921724e+06	
54	2.700000e+00	1.949926e+06	

Index   v-sweep         rds             
--------------------------------------------------------------------------------
55	2.750000e+00	1.977834e+06	
56	2.800000e+00	2.005451e+06	
57	2.850000e+00	2.032781e+06	
58	2.900000e+00	2.059829e+06	
59	2.950000e+00	2.086599e+06	
60	3.000000e+00	2.113094e+06	
61	3.050000e+00	2.139317e+06	
62	3.100000e+00	2.165273e+06	
63	3.150000e+00	2.190966e+06	
64	3.200000e+00	2.216398e+06	
65	3.250000e+00	2.241574e+06	
66	3.300000e+00	2.266496e+06	
67	3.350000e+00	2.291169e+06	
68	3.400000e+00	2.315596e+06	
69	3.450000e+00	2.339780e+06	
70	3.500000e+00	2.363723e+06	
71	3.550000e+00	2.387431e+06	
72	3.600000e+00	2.410904e+06	
73	3.650000e+00	2.434148e+06	
74	3.700000e+00	2.457164e+06	
75	3.750000e+00	2.479956e+06	
76	3.800000e+00	2.502527e+06	
77	3.850000e+00	2.524879e+06	
78	3.900000e+00	2.547016e+06	
79	3.950000e+00	2.568940e+06	
80	4.000000e+00	2.590655e+06	
81	4.050000e+00	2.612162e+06	
82	4.100000e+00	2.633464e+06	
83	4.150000e+00	2.654565e+06	
84	4.200000e+00	2.675466e+06	
85	4.250000e+00	2.696170e+06	
86	4.300000e+00	2.716681e+06	
87	4.350000e+00	2.736999e+06	
88	4.400000e+00	2.757129e+06	
89	4.450000e+00	2.777071e+06	
90	4.500000e+00	2.796829e+06	
91	4.550000e+00	2.816405e+06	
92	4.600000e+00	2.835800e+06	
93	4.650000e+00	2.855018e+06	
94	4.700000e+00	2.874061e+06	
95	4.750000e+00	2.892931e+06	
96	4.800000e+00	2.911629e+06	
97	4.850000e+00	2.930158e+06	
98	4.900000e+00	2.948521e+06	
99	4.950000e+00	2.966718e+06	
100	5.000000e+00	2.984753e+06	
101	5.050000e+00	3.002627e+06	
102	5.100000e+00	3.020342e+06	
103	5.150000e+00	3.037901e+06	
104	5.200000e+00	3.055304e+06	
105	5.250000e+00	3.072554e+06	
106	5.300000e+00	3.089653e+06	
107	5.350000e+00	3.106602e+06	
108	5.400000e+00	3.123403e+06	
109	5.450000e+00	3.140059e+06	
110	5.500000e+00	3.156570e+06	
111	5.550000e+00	3.172939e+06	
112	5.600000e+00	3.189167e+06	

Index   v-sweep         rds             
--------------------------------------------------------------------------------
113	5.650000e+00	3.205256e+06	
114	5.700000e+00	3.221207e+06	
115	5.750000e+00	3.237023e+06	
116	5.800000e+00	3.252704e+06	
117	5.850000e+00	3.268253e+06	
118	5.900000e+00	3.283670e+06	
119	5.950000e+00	3.298957e+06	
120	6.000000e+00	3.314117e+06	
121	6.050000e+00	3.329149e+06	
122	6.100000e+00	3.344057e+06	
123	6.150000e+00	3.358840e+06	
124	6.200000e+00	3.373501e+06	
125	6.250000e+00	3.388042e+06	
126	6.300000e+00	3.402462e+06	
127	6.350000e+00	3.416764e+06	
128	6.400000e+00	3.430949e+06	
129	6.450000e+00	3.445019e+06	
130	6.500000e+00	3.458974e+06	
131	6.550000e+00	3.472816e+06	
132	6.600000e+00	3.486546e+06	
Reset re-loads circuit ***************************

Circuit: ***************************

Doing analysis at TEMP = 25.000000 and TNOM = 25.000000


No. of Data Rows : 133
                          ***************************
                          DC transfer characteristic  Mon Jan  9 13:58:05  2023
--------------------------------------------------------------------------------
Index   v-sweep         rds             
--------------------------------------------------------------------------------
0	0.000000e+00	4.793111e+03	
1	5.000000e-02	4.994224e+03	
2	1.000000e-01	5.210589e+03	
3	1.500000e-01	5.444002e+03	
4	2.000000e-01	5.696558e+03	
5	2.500000e-01	5.970705e+03	
6	3.000000e-01	6.269330e+03	
7	3.500000e-01	6.595856e+03	
8	4.000000e-01	6.954378e+03	
9	4.500000e-01	7.349831e+03	
10	5.000000e-01	7.788221e+03	
11	5.500000e-01	8.276932e+03	
12	6.000000e-01	8.825145e+03	
13	6.500000e-01	9.444427e+03	
14	7.000000e-01	1.014957e+04	
15	7.500000e-01	1.095982e+04	
16	8.000000e-01	1.190080e+04	
17	8.500000e-01	1.300765e+04	
18	9.000000e-01	1.433053e+04	
19	9.500000e-01	1.594552e+04	
20	1.000000e+00	1.797455e+04	
21	1.050000e+00	2.060257e+04	
22	1.100000e+00	2.400704e+04	
23	1.150000e+00	2.816313e+04	
24	1.200000e+00	3.283485e+04	
25	1.250000e+00	3.778699e+04	
26	1.300000e+00	4.287783e+04	
27	1.350000e+00	4.803522e+04	
28	1.400000e+00	5.322301e+04	
29	1.450000e+00	5.842235e+04	
30	1.500000e+00	6.362287e+04	
31	1.550000e+00	6.881852e+04	
32	1.600000e+00	7.400560e+04	
33	1.650000e+00	7.918175e+04	
34	1.700000e+00	8.434543e+04	
35	1.750000e+00	8.949554e+04	
36	1.800000e+00	9.463137e+04	
37	1.850000e+00	9.975236e+04	
38	1.900000e+00	1.048581e+05	
39	1.950000e+00	1.099484e+05	
40	2.000000e+00	1.150230e+05	
41	2.050000e+00	1.200817e+05	
42	2.100000e+00	1.251245e+05	
43	2.150000e+00	1.301512e+05	
44	2.200000e+00	1.351618e+05	
45	2.250000e+00	1.401562e+05	
46	2.300000e+00	1.451345e+05	
47	2.350000e+00	1.500966e+05	
48	2.400000e+00	1.550425e+05	
49	2.450000e+00	1.599723e+05	
50	2.500000e+00	1.648859e+05	
51	2.550000e+00	1.697834e+05	
52	2.600000e+00	1.746648e+05	
53	2.650000e+00	1.795301e+05	
54	2.700000e+00	1.843794e+05	

Index   v-sweep         rds             
--------------------------------------------------------------------------------
55	2.750000e+00	1.892127e+05	
56	2.800000e+00	1.940300e+05	
57	2.850000e+00	1.988314e+05	
58	2.900000e+00	2.036170e+05	
59	2.950000e+00	2.083867e+05	
60	3.000000e+00	2.131406e+05	
61	3.050000e+00	2.178788e+05	
62	3.100000e+00	2.226013e+05	
63	3.150000e+00	2.273082e+05	
64	3.200000e+00	2.319995e+05	
65	3.250000e+00	2.366752e+05	
66	3.300000e+00	2.413355e+05	
67	3.350000e+00	2.459804e+05	
68	3.400000e+00	2.506099e+05	
69	3.450000e+00	2.552241e+05	
70	3.500000e+00	2.598230e+05	
71	3.550000e+00	2.644067e+05	
72	3.600000e+00	2.689753e+05	
73	3.650000e+00	2.735287e+05	
74	3.700000e+00	2.780672e+05	
75	3.750000e+00	2.825906e+05	
76	3.800000e+00	2.870992e+05	
77	3.850000e+00	2.915929e+05	
78	3.900000e+00	2.960717e+05	
79	3.950000e+00	3.005358e+05	
80	4.000000e+00	3.049853e+05	
81	4.050000e+00	3.094200e+05	
82	4.100000e+00	3.138402e+05	
83	4.150000e+00	3.182459e+05	
84	4.200000e+00	3.226371e+05	
85	4.250000e+00	3.270139e+05	
86	4.300000e+00	3.313764e+05	
87	4.350000e+00	3.357246e+05	
88	4.400000e+00	3.400585e+05	
89	4.450000e+00	3.443783e+05	
90	4.500000e+00	3.486839e+05	
91	4.550000e+00	3.529755e+05	
92	4.600000e+00	3.572530e+05	
93	4.650000e+00	3.615166e+05	
94	4.700000e+00	3.657663e+05	
95	4.750000e+00	3.700022e+05	
96	4.800000e+00	3.742243e+05	
97	4.850000e+00	3.784327e+05	
98	4.900000e+00	3.826274e+05	
99	4.950000e+00	3.868084e+05	
100	5.000000e+00	3.909760e+05	
101	5.050000e+00	3.951300e+05	
102	5.100000e+00	3.992706e+05	
103	5.150000e+00	4.033978e+05	
104	5.200000e+00	4.075116e+05	
105	5.250000e+00	4.116122e+05	
106	5.300000e+00	4.156995e+05	
107	5.350000e+00	4.197737e+05	
108	5.400000e+00	4.238348e+05	
109	5.450000e+00	4.278828e+05	
110	5.500000e+00	4.319178e+05	
111	5.550000e+00	4.359398e+05	
112	5.600000e+00	4.399490e+05	

Index   v-sweep         rds             
--------------------------------------------------------------------------------
113	5.650000e+00	4.439453e+05	
114	5.700000e+00	4.479288e+05	
115	5.750000e+00	4.518995e+05	
116	5.800000e+00	4.558576e+05	
117	5.850000e+00	4.598031e+05	
118	5.900000e+00	4.637359e+05	
119	5.950000e+00	4.676563e+05	
120	6.000000e+00	4.715641e+05	
121	6.050000e+00	4.754596e+05	
122	6.100000e+00	4.793426e+05	
123	6.150000e+00	4.832134e+05	
124	6.200000e+00	4.870718e+05	
125	6.250000e+00	4.909181e+05	
126	6.300000e+00	4.947522e+05	
127	6.350000e+00	4.985741e+05	
128	6.400000e+00	5.023840e+05	
129	6.450000e+00	5.061819e+05	
130	6.500000e+00	5.099679e+05	
131	6.550000e+00	5.137419e+05	
132	6.600000e+00	5.175040e+05	
Reset re-loads circuit ***************************

Circuit: ***************************

Doing analysis at TEMP = 25.000000 and TNOM = 25.000000


No. of Data Rows : 133
                          ***************************
                          DC transfer characteristic  Mon Jan  9 13:58:05  2023
--------------------------------------------------------------------------------
Index   v-sweep         rds             
--------------------------------------------------------------------------------
0	0.000000e+00	3.151407e+03	
1	5.000000e-02	3.232297e+03	
2	1.000000e-01	3.316561e+03	
3	1.500000e-01	3.404411e+03	
4	2.000000e-01	3.496080e+03	
5	2.500000e-01	3.591820e+03	
6	3.000000e-01	3.691908e+03	
7	3.500000e-01	3.796645e+03	
8	4.000000e-01	3.906360e+03	
9	4.500000e-01	4.021416e+03	
10	5.000000e-01	4.142210e+03	
11	5.500000e-01	4.269181e+03	
12	6.000000e-01	4.402813e+03	
13	6.500000e-01	4.543642e+03	
14	7.000000e-01	4.692267e+03	
15	7.500000e-01	4.849349e+03	
16	8.000000e-01	5.015634e+03	
17	8.500000e-01	5.191953e+03	
18	9.000000e-01	5.379247e+03	
19	9.500000e-01	5.578578e+03	
20	1.000000e+00	5.791156e+03	
21	1.050000e+00	6.018367e+03	
22	1.100000e+00	6.261810e+03	
23	1.150000e+00	6.523354e+03	
24	1.200000e+00	6.805212e+03	
25	1.250000e+00	7.110069e+03	
26	1.300000e+00	7.441285e+03	
27	1.350000e+00	7.803281e+03	
28	1.400000e+00	8.202313e+03	
29	1.450000e+00	8.648110e+03	
30	1.500000e+00	9.157431e+03	
31	1.550000e+00	9.761418e+03	
32	1.600000e+00	1.051742e+04	
33	1.650000e+00	1.151483e+04	
34	1.700000e+00	1.284359e+04	
35	1.750000e+00	1.452559e+04	
36	1.800000e+00	1.649629e+04	
37	1.850000e+00	1.866148e+04	
38	1.900000e+00	2.094531e+04	
39	1.950000e+00	2.329928e+04	
40	2.000000e+00	2.569476e+04	
41	2.050000e+00	2.811502e+04	
42	2.100000e+00	3.055010e+04	
43	2.150000e+00	3.299388e+04	
44	2.200000e+00	3.544247e+04	
45	2.250000e+00	3.789330e+04	
46	2.300000e+00	4.034466e+04	
47	2.350000e+00	4.279533e+04	
48	2.400000e+00	4.524446e+04	
49	2.450000e+00	4.769142e+04	
50	2.500000e+00	5.013574e+04	
51	2.550000e+00	5.257707e+04	
52	2.600000e+00	5.501513e+04	
53	2.650000e+00	5.744972e+04	
54	2.700000e+00	5.988067e+04	

Index   v-sweep         rds             
--------------------------------------------------------------------------------
55	2.750000e+00	6.230785e+04	
56	2.800000e+00	6.473114e+04	
57	2.850000e+00	6.715046e+04	
58	2.900000e+00	6.956575e+04	
59	2.950000e+00	7.197693e+04	
60	3.000000e+00	7.438397e+04	
61	3.050000e+00	7.678683e+04	
62	3.100000e+00	7.918547e+04	
63	3.150000e+00	8.157986e+04	
64	3.200000e+00	8.396998e+04	
65	3.250000e+00	8.635582e+04	
66	3.300000e+00	8.873736e+04	
67	3.350000e+00	9.111459e+04	
68	3.400000e+00	9.348749e+04	
69	3.450000e+00	9.585605e+04	
70	3.500000e+00	9.822029e+04	
71	3.550000e+00	1.005802e+05	
72	3.600000e+00	1.029357e+05	
73	3.650000e+00	1.052869e+05	
74	3.700000e+00	1.076338e+05	
75	3.750000e+00	1.099763e+05	
76	3.800000e+00	1.123144e+05	
77	3.850000e+00	1.146482e+05	
78	3.900000e+00	1.169777e+05	
79	3.950000e+00	1.193028e+05	
80	4.000000e+00	1.216236e+05	
81	4.050000e+00	1.239400e+05	
82	4.100000e+00	1.262521e+05	
83	4.150000e+00	1.285599e+05	
84	4.200000e+00	1.308634e+05	
85	4.250000e+00	1.331625e+05	
86	4.300000e+00	1.354573e+05	
87	4.350000e+00	1.377479e+05	
88	4.400000e+00	1.400341e+05	
89	4.450000e+00	1.423161e+05	
90	4.500000e+00	1.445937e+05	
91	4.550000e+00	1.468671e+05	
92	4.600000e+00	1.491362e+05	
93	4.650000e+00	1.514010e+05	
94	4.700000e+00	1.536616e+05	
95	4.750000e+00	1.559179e+05	
96	4.800000e+00	1.581700e+05	
97	4.850000e+00	1.604179e+05	
98	4.900000e+00	1.626615e+05	
99	4.950000e+00	1.649009e+05	
100	5.000000e+00	1.671361e+05	
101	5.050000e+00	1.693670e+05	
102	5.100000e+00	1.715938e+05	
103	5.150000e+00	1.738164e+05	
104	5.200000e+00	1.760348e+05	
105	5.250000e+00	1.782491e+05	
106	5.300000e+00	1.804591e+05	
107	5.350000e+00	1.826651e+05	
108	5.400000e+00	1.848668e+05	
109	5.450000e+00	1.870645e+05	
110	5.500000e+00	1.892580e+05	
111	5.550000e+00	1.914473e+05	
112	5.600000e+00	1.936326e+05	

Index   v-sweep         rds             
--------------------------------------------------------------------------------
113	5.650000e+00	1.958137e+05	
114	5.700000e+00	1.979908e+05	
115	5.750000e+00	2.001638e+05	
116	5.800000e+00	2.023327e+05	
117	5.850000e+00	2.044975e+05	
118	5.900000e+00	2.066582e+05	
119	5.950000e+00	2.088149e+05	
120	6.000000e+00	2.109676e+05	
121	6.050000e+00	2.131162e+05	
122	6.100000e+00	2.152608e+05	
123	6.150000e+00	2.174014e+05	
124	6.200000e+00	2.195379e+05	
125	6.250000e+00	2.216705e+05	
126	6.300000e+00	2.237991e+05	
127	6.350000e+00	2.259237e+05	
128	6.400000e+00	2.280443e+05	
129	6.450000e+00	2.301609e+05	
130	6.500000e+00	2.322736e+05	
131	6.550000e+00	2.343824e+05	
132	6.600000e+00	2.364872e+05	
Reset re-loads circuit ***************************

Circuit: ***************************

Doing analysis at TEMP = 25.000000 and TNOM = 25.000000


No. of Data Rows : 133
                          ***************************
                          DC transfer characteristic  Mon Jan  9 13:58:05  2023
--------------------------------------------------------------------------------
Index   v-sweep         rds             
--------------------------------------------------------------------------------
0	0.000000e+00	2.521686e+03	
1	5.000000e-02	2.569310e+03	
2	1.000000e-01	2.618290e+03	
3	1.500000e-01	2.668685e+03	
4	2.000000e-01	2.720556e+03	
5	2.500000e-01	2.773968e+03	
6	3.000000e-01	2.828990e+03	
7	3.500000e-01	2.885694e+03	
8	4.000000e-01	2.944160e+03	
9	4.500000e-01	3.004468e+03	
10	5.000000e-01	3.066706e+03	
11	5.500000e-01	3.130969e+03	
12	6.000000e-01	3.197356e+03	
13	6.500000e-01	3.265972e+03	
14	7.000000e-01	3.336931e+03	
15	7.500000e-01	3.410355e+03	
16	8.000000e-01	3.486373e+03	
17	8.500000e-01	3.565124e+03	
18	9.000000e-01	3.646759e+03	
19	9.500000e-01	3.731437e+03	
20	1.000000e+00	3.819332e+03	
21	1.050000e+00	3.910630e+03	
22	1.100000e+00	4.005533e+03	
23	1.150000e+00	4.104258e+03	
24	1.200000e+00	4.207043e+03	
25	1.250000e+00	4.314144e+03	
26	1.300000e+00	4.425843e+03	
27	1.350000e+00	4.542448e+03	
28	1.400000e+00	4.664297e+03	
29	1.450000e+00	4.791763e+03	
30	1.500000e+00	4.925267e+03	
31	1.550000e+00	5.065276e+03	
32	1.600000e+00	5.212332e+03	
33	1.650000e+00	5.367060e+03	
34	1.700000e+00	5.530215e+03	
35	1.750000e+00	5.702735e+03	
36	1.800000e+00	5.885857e+03	
37	1.850000e+00	6.081308e+03	
38	1.900000e+00	6.291702e+03	
39	1.950000e+00	6.521293e+03	
40	2.000000e+00	6.777493e+03	
41	2.050000e+00	7.073728e+03	
42	2.100000e+00	7.434150e+03	
43	2.150000e+00	7.898561e+03	
44	2.200000e+00	8.519762e+03	
45	2.250000e+00	9.342574e+03	
46	2.300000e+00	1.037491e+04	
47	2.350000e+00	1.158422e+04	
48	2.400000e+00	1.292171e+04	
49	2.450000e+00	1.434435e+04	
50	2.500000e+00	1.582162e+04	
51	2.550000e+00	1.733380e+04	
52	2.600000e+00	1.886849e+04	
53	2.650000e+00	2.041788e+04	
54	2.700000e+00	2.197697e+04	

Index   v-sweep         rds             
--------------------------------------------------------------------------------
55	2.750000e+00	2.354246e+04	
56	2.800000e+00	2.511214e+04	
57	2.850000e+00	2.668448e+04	
58	2.900000e+00	2.825840e+04	
59	2.950000e+00	2.983311e+04	
60	3.000000e+00	3.140805e+04	
61	3.050000e+00	3.298278e+04	
62	3.100000e+00	3.455698e+04	
63	3.150000e+00	3.613038e+04	
64	3.200000e+00	3.770278e+04	
65	3.250000e+00	3.927404e+04	
66	3.300000e+00	4.084401e+04	
67	3.350000e+00	4.241260e+04	
68	3.400000e+00	4.397973e+04	
69	3.450000e+00	4.554531e+04	
70	3.500000e+00	4.710930e+04	
71	3.550000e+00	4.867165e+04	
72	3.600000e+00	5.023231e+04	
73	3.650000e+00	5.179126e+04	
74	3.700000e+00	5.334845e+04	
75	3.750000e+00	5.490386e+04	
76	3.800000e+00	5.645748e+04	
77	3.850000e+00	5.800929e+04	
78	3.900000e+00	5.955926e+04	
79	3.950000e+00	6.110739e+04	
80	4.000000e+00	6.265365e+04	
81	4.050000e+00	6.419805e+04	
82	4.100000e+00	6.574057e+04	
83	4.150000e+00	6.728121e+04	
84	4.200000e+00	6.881995e+04	
85	4.250000e+00	7.035680e+04	
86	4.300000e+00	7.189174e+04	
87	4.350000e+00	7.342477e+04	
88	4.400000e+00	7.495589e+04	
89	4.450000e+00	7.648509e+04	
90	4.500000e+00	7.801238e+04	
91	4.550000e+00	7.953774e+04	
92	4.600000e+00	8.106118e+04	
93	4.650000e+00	8.258270e+04	
94	4.700000e+00	8.410229e+04	
95	4.750000e+00	8.561996e+04	
96	4.800000e+00	8.713569e+04	
97	4.850000e+00	8.864950e+04	
98	4.900000e+00	9.016138e+04	
99	4.950000e+00	9.167134e+04	
100	5.000000e+00	9.317936e+04	
101	5.050000e+00	9.468546e+04	
102	5.100000e+00	9.618963e+04	
103	5.150000e+00	9.769187e+04	
104	5.200000e+00	9.919219e+04	
105	5.250000e+00	1.006906e+05	
106	5.300000e+00	1.021871e+05	
107	5.350000e+00	1.036816e+05	
108	5.400000e+00	1.051742e+05	
109	5.450000e+00	1.066649e+05	
110	5.500000e+00	1.081537e+05	
111	5.550000e+00	1.096406e+05	
112	5.600000e+00	1.111255e+05	

Index   v-sweep         rds             
--------------------------------------------------------------------------------
113	5.650000e+00	1.126086e+05	
114	5.700000e+00	1.140897e+05	
115	5.750000e+00	1.155689e+05	
116	5.800000e+00	1.170462e+05	
117	5.850000e+00	1.185216e+05	
118	5.900000e+00	1.199951e+05	
119	5.950000e+00	1.214667e+05	
120	6.000000e+00	1.229364e+05	
121	6.050000e+00	1.244042e+05	
122	6.100000e+00	1.258700e+05	
123	6.150000e+00	1.273340e+05	
124	6.200000e+00	1.287961e+05	
125	6.250000e+00	1.302563e+05	
126	6.300000e+00	1.317147e+05	
127	6.350000e+00	1.331711e+05	
128	6.400000e+00	1.346256e+05	
129	6.450000e+00	1.360783e+05	
130	6.500000e+00	1.375291e+05	
131	6.550000e+00	1.389780e+05	
132	6.600000e+00	1.404250e+05	
Reset re-loads circuit ***************************

Circuit: ***************************

Doing analysis at TEMP = 25.000000 and TNOM = 25.000000


No. of Data Rows : 133
                          ***************************
                          DC transfer characteristic  Mon Jan  9 13:58:05  2023
--------------------------------------------------------------------------------
Index   v-sweep         rds             
--------------------------------------------------------------------------------
0	0.000000e+00	2.201781e+03	
1	5.000000e-02	2.234767e+03	
2	1.000000e-01	2.268457e+03	
3	1.500000e-01	2.302875e+03	
4	2.000000e-01	2.338044e+03	
5	2.500000e-01	2.373989e+03	
6	3.000000e-01	2.410734e+03	
7	3.500000e-01	2.448306e+03	
8	4.000000e-01	2.486733e+03	
9	4.500000e-01	2.526045e+03	
10	5.000000e-01	2.566271e+03	
11	5.500000e-01	2.607444e+03	
12	6.000000e-01	2.649596e+03	
13	6.500000e-01	2.692763e+03	
14	7.000000e-01	2.736981e+03	
15	7.500000e-01	2.782290e+03	
16	8.000000e-01	2.828728e+03	
17	8.500000e-01	2.876338e+03	
18	9.000000e-01	2.925166e+03	
19	9.500000e-01	2.975257e+03	
20	1.000000e+00	3.026661e+03	
21	1.050000e+00	3.079430e+03	
22	1.100000e+00	3.133619e+03	
23	1.150000e+00	3.189285e+03	
24	1.200000e+00	3.246489e+03	
25	1.250000e+00	3.305295e+03	
26	1.300000e+00	3.365773e+03	
27	1.350000e+00	3.427992e+03	
28	1.400000e+00	3.492031e+03	
29	1.450000e+00	3.557970e+03	
30	1.500000e+00	3.625895e+03	
31	1.550000e+00	3.695898e+03	
32	1.600000e+00	3.768077e+03	
33	1.650000e+00	3.842537e+03	
34	1.700000e+00	3.919390e+03	
35	1.750000e+00	3.998757e+03	
36	1.800000e+00	4.080769e+03	
37	1.850000e+00	4.165568e+03	
38	1.900000e+00	4.253311e+03	
39	1.950000e+00	4.344169e+03	
40	2.000000e+00	4.438338e+03	
41	2.050000e+00	4.536039e+03	
42	2.100000e+00	4.637532e+03	
43	2.150000e+00	4.743131e+03	
44	2.200000e+00	4.853228e+03	
45	2.250000e+00	4.968342e+03	
46	2.300000e+00	5.089189e+03	
47	2.350000e+00	5.216821e+03	
48	2.400000e+00	5.352873e+03	
49	2.450000e+00	5.500013e+03	
50	2.500000e+00	5.662779e+03	
51	2.550000e+00	5.849046e+03	
52	2.600000e+00	6.072353e+03	
53	2.650000e+00	6.354600e+03	
54	2.700000e+00	6.726515e+03	

Index   v-sweep         rds             
--------------------------------------------------------------------------------
55	2.750000e+00	7.220856e+03	
56	2.800000e+00	7.857516e+03	
57	2.850000e+00	8.632250e+03	
58	2.900000e+00	9.521077e+03	
59	2.950000e+00	1.049400e+04	
60	3.000000e+00	1.152503e+04	
61	3.050000e+00	1.259513e+04	
62	3.100000e+00	1.369140e+04	
63	3.150000e+00	1.480533e+04	
64	3.200000e+00	1.593133e+04	
65	3.250000e+00	1.706568e+04	
66	3.300000e+00	1.820585e+04	
67	3.350000e+00	1.935010e+04	
68	3.400000e+00	2.049721e+04	
69	3.450000e+00	2.164628e+04	
70	3.500000e+00	2.279668e+04	
71	3.550000e+00	2.394790e+04	
72	3.600000e+00	2.509960e+04	
73	3.650000e+00	2.625149e+04	
74	3.700000e+00	2.740335e+04	
75	3.750000e+00	2.855500e+04	
76	3.800000e+00	2.970631e+04	
77	3.850000e+00	3.085716e+04	
78	3.900000e+00	3.200746e+04	
79	3.950000e+00	3.315714e+04	
80	4.000000e+00	3.430614e+04	
81	4.050000e+00	3.545439e+04	
82	4.100000e+00	3.660187e+04	
83	4.150000e+00	3.774853e+04	
84	4.200000e+00	3.889434e+04	
85	4.250000e+00	4.003927e+04	
86	4.300000e+00	4.118330e+04	
87	4.350000e+00	4.232641e+04	
88	4.400000e+00	4.346859e+04	
89	4.450000e+00	4.460981e+04	
90	4.500000e+00	4.575006e+04	
91	4.550000e+00	4.688933e+04	
92	4.600000e+00	4.802762e+04	
93	4.650000e+00	4.916490e+04	
94	4.700000e+00	5.030118e+04	
95	4.750000e+00	5.143645e+04	
96	4.800000e+00	5.257069e+04	
97	4.850000e+00	5.370391e+04	
98	4.900000e+00	5.483610e+04	
99	4.950000e+00	5.596726e+04	
100	5.000000e+00	5.709737e+04	
101	5.050000e+00	5.822644e+04	
102	5.100000e+00	5.935447e+04	
103	5.150000e+00	6.048144e+04	
104	5.200000e+00	6.160736e+04	
105	5.250000e+00	6.273223e+04	
106	5.300000e+00	6.385605e+04	
107	5.350000e+00	6.497880e+04	
108	5.400000e+00	6.610049e+04	
109	5.450000e+00	6.722113e+04	
110	5.500000e+00	6.834070e+04	
111	5.550000e+00	6.945921e+04	
112	5.600000e+00	7.057665e+04	

Index   v-sweep         rds             
--------------------------------------------------------------------------------
113	5.650000e+00	7.169303e+04	
114	5.700000e+00	7.280834e+04	
115	5.750000e+00	7.392259e+04	
116	5.800000e+00	7.503577e+04	
117	5.850000e+00	7.614788e+04	
118	5.900000e+00	7.725892e+04	
119	5.950000e+00	7.836890e+04	
120	6.000000e+00	7.947780e+04	
121	6.050000e+00	8.058564e+04	
122	6.100000e+00	8.169241e+04	
123	6.150000e+00	8.279812e+04	
124	6.200000e+00	8.390275e+04	
125	6.250000e+00	8.500632e+04	
126	6.300000e+00	8.610882e+04	
127	6.350000e+00	8.721025e+04	
128	6.400000e+00	8.831062e+04	
129	6.450000e+00	8.940992e+04	
130	6.500000e+00	9.050815e+04	
131	6.550000e+00	9.160531e+04	
132	6.600000e+00	9.270142e+04	
Reset re-loads circuit ***************************

Circuit: ***************************

Doing analysis at TEMP = 25.000000 and TNOM = 25.000000


No. of Data Rows : 133
                          ***************************
                          DC transfer characteristic  Mon Jan  9 13:58:05  2023
--------------------------------------------------------------------------------
Index   v-sweep         rds             
--------------------------------------------------------------------------------
0	0.000000e+00	2.017604e+03	
1	5.000000e-02	2.042556e+03	
2	1.000000e-01	2.067930e+03	
3	1.500000e-01	2.093735e+03	
4	2.000000e-01	2.119983e+03	
5	2.500000e-01	2.146686e+03	
6	3.000000e-01	2.173853e+03	
7	3.500000e-01	2.201499e+03	
8	4.000000e-01	2.229634e+03	
9	4.500000e-01	2.258273e+03	
10	5.000000e-01	2.287428e+03	
11	5.500000e-01	2.317113e+03	
12	6.000000e-01	2.347342e+03	
13	6.500000e-01	2.378130e+03	
14	7.000000e-01	2.409493e+03	
15	7.500000e-01	2.441447e+03	
16	8.000000e-01	2.474008e+03	
17	8.500000e-01	2.507192e+03	
18	9.000000e-01	2.541020e+03	
19	9.500000e-01	2.575507e+03	
20	1.000000e+00	2.610675e+03	
21	1.050000e+00	2.646543e+03	
22	1.100000e+00	2.683131e+03	
23	1.150000e+00	2.720462e+03	
24	1.200000e+00	2.758559e+03	
25	1.250000e+00	2.797443e+03	
26	1.300000e+00	2.837141e+03	
27	1.350000e+00	2.877678e+03	
28	1.400000e+00	2.919079e+03	
29	1.450000e+00	2.961374e+03	
30	1.500000e+00	3.004591e+03	
31	1.550000e+00	3.048760e+03	
32	1.600000e+00	3.093914e+03	
33	1.650000e+00	3.140084e+03	
34	1.700000e+00	3.187307e+03	
35	1.750000e+00	3.235617e+03	
36	1.800000e+00	3.285055e+03	
37	1.850000e+00	3.335659e+03	
38	1.900000e+00	3.387471e+03	
39	1.950000e+00	3.440537e+03	
40	2.000000e+00	3.494903e+03	
41	2.050000e+00	3.550619e+03	
42	2.100000e+00	3.607737e+03	
43	2.150000e+00	3.666314e+03	
44	2.200000e+00	3.726409e+03	
45	2.250000e+00	3.788086e+03	
46	2.300000e+00	3.851416e+03	
47	2.350000e+00	3.916475e+03	
48	2.400000e+00	3.983348e+03	
49	2.450000e+00	4.052128e+03	
50	2.500000e+00	4.122924e+03	
51	2.550000e+00	4.195863e+03	
52	2.600000e+00	4.271098e+03	
53	2.650000e+00	4.348818e+03	
54	2.700000e+00	4.429270e+03	

Index   v-sweep         rds             
--------------------------------------------------------------------------------
55	2.750000e+00	4.512787e+03	
56	2.800000e+00	4.599836e+03	
57	2.850000e+00	4.691110e+03	
58	2.900000e+00	4.787669e+03	
59	2.950000e+00	4.891200e+03	
60	3.000000e+00	5.004465e+03	
61	3.050000e+00	5.132060e+03	
62	3.100000e+00	5.281602e+03	
63	3.150000e+00	5.465286e+03	
64	3.200000e+00	5.701029e+03	
65	3.250000e+00	6.011143e+03	
66	3.300000e+00	6.416264e+03	
67	3.350000e+00	6.926322e+03	
68	3.400000e+00	7.535849e+03	
69	3.450000e+00	8.227992e+03	
70	3.500000e+00	8.982559e+03	
71	3.550000e+00	9.781727e+03	
72	3.600000e+00	1.061196e+04	
73	3.650000e+00	1.146369e+04	
74	3.700000e+00	1.233039e+04	
75	3.750000e+00	1.320762e+04	
76	3.800000e+00	1.409233e+04	
77	3.850000e+00	1.498243e+04	
78	3.900000e+00	1.587642e+04	
79	3.950000e+00	1.677326e+04	
80	4.000000e+00	1.767217e+04	
81	4.050000e+00	1.857258e+04	
82	4.100000e+00	1.947407e+04	
83	4.150000e+00	2.037630e+04	
84	4.200000e+00	2.127901e+04	
85	4.250000e+00	2.218202e+04	
86	4.300000e+00	2.308517e+04	
87	4.350000e+00	2.398832e+04	
88	4.400000e+00	2.489138e+04	
89	4.450000e+00	2.579426e+04	
90	4.500000e+00	2.669689e+04	
91	4.550000e+00	2.759922e+04	
92	4.600000e+00	2.850120e+04	
93	4.650000e+00	2.940279e+04	
94	4.700000e+00	3.030395e+04	
95	4.750000e+00	3.120465e+04	
96	4.800000e+00	3.210488e+04	
97	4.850000e+00	3.300460e+04	
98	4.900000e+00	3.390380e+04	
99	4.950000e+00	3.480247e+04	
100	5.000000e+00	3.570058e+04	
101	5.050000e+00	3.659813e+04	
102	5.100000e+00	3.749510e+04	
103	5.150000e+00	3.839149e+04	
104	5.200000e+00	3.928728e+04	
105	5.250000e+00	4.018248e+04	
106	5.300000e+00	4.107706e+04	
107	5.350000e+00	4.197103e+04	
108	5.400000e+00	4.286438e+04	
109	5.450000e+00	4.375710e+04	
110	5.500000e+00	4.464920e+04	
111	5.550000e+00	4.554066e+04	
112	5.600000e+00	4.643148e+04	

Index   v-sweep         rds             
--------------------------------------------------------------------------------
113	5.650000e+00	4.732166e+04	
114	5.700000e+00	4.821120e+04	
115	5.750000e+00	4.910010e+04	
116	5.800000e+00	4.998834e+04	
117	5.850000e+00	5.087593e+04	
118	5.900000e+00	5.176287e+04	
119	5.950000e+00	5.264915e+04	
120	6.000000e+00	5.353478e+04	
121	6.050000e+00	5.441975e+04	
122	6.100000e+00	5.530406e+04	
123	6.150000e+00	5.618770e+04	
124	6.200000e+00	5.707069e+04	
125	6.250000e+00	5.795301e+04	
126	6.300000e+00	5.883467e+04	
127	6.350000e+00	5.971566e+04	
128	6.400000e+00	6.059599e+04	
129	6.450000e+00	6.147565e+04	
130	6.500000e+00	6.235465e+04	
131	6.550000e+00	6.323297e+04	
132	6.600000e+00	6.411063e+04	
Reset re-loads circuit ***************************

Circuit: ***************************

Note: No ".plot", ".print", or ".fourier" lines; no simulations run
