
Note: Compatibility modes selected: hs

Warning: m=xx on .subckt line will override multiplier m hierarchy!


Circuit: ***************************

Doing analysis at TEMP = -40.000000 and TNOM = -40.000000


No. of Data Rows : 402
                          ***************************
                          DC transfer characteristic  Mon Jan  9 13:57:17  2023
--------------------------------------------------------------------------------
Index   v-sweep         -i(vds)         
--------------------------------------------------------------------------------
0	0.000000e+00	-0.000000e+00	
1	5.000000e-02	1.447982e-06	
2	1.000000e-01	2.260711e-06	
3	1.500000e-01	2.648978e-06	
4	2.000000e-01	2.848044e-06	
5	2.500000e-01	2.981677e-06	
6	3.000000e-01	3.090309e-06	
7	3.500000e-01	3.187284e-06	
8	4.000000e-01	3.277944e-06	
9	4.500000e-01	3.364843e-06	
10	5.000000e-01	3.449376e-06	
11	5.500000e-01	3.532378e-06	
12	6.000000e-01	3.614388e-06	
13	6.500000e-01	3.695770e-06	
14	7.000000e-01	3.776784e-06	
15	7.500000e-01	3.857621e-06	
16	8.000000e-01	3.938424e-06	
17	8.500000e-01	4.019303e-06	
18	9.000000e-01	4.100345e-06	
19	9.500000e-01	4.181619e-06	
20	1.000000e+00	4.263182e-06	
21	1.050000e+00	4.345079e-06	
22	1.100000e+00	4.427348e-06	
23	1.150000e+00	4.510021e-06	
24	1.200000e+00	4.593125e-06	
25	1.250000e+00	4.676683e-06	
26	1.300000e+00	4.760714e-06	
27	1.350000e+00	4.845234e-06	
28	1.400000e+00	4.930258e-06	
29	1.450000e+00	5.015799e-06	
30	1.500000e+00	5.101868e-06	
31	1.550000e+00	5.188476e-06	
32	1.600000e+00	5.275632e-06	
33	1.650000e+00	5.363346e-06	
34	1.700000e+00	5.451626e-06	
35	1.750000e+00	5.540484e-06	
36	1.800000e+00	5.629930e-06	
37	1.850000e+00	5.719975e-06	
38	1.900000e+00	5.810634e-06	
39	1.950000e+00	5.901923e-06	
40	2.000000e+00	5.993859e-06	
41	2.050000e+00	6.086466e-06	
42	2.100000e+00	6.179767e-06	
43	2.150000e+00	6.273795e-06	
44	2.200000e+00	6.368583e-06	
45	2.250000e+00	6.464172e-06	
46	2.300000e+00	6.560610e-06	
47	2.350000e+00	6.657951e-06	
48	2.400000e+00	6.756257e-06	
49	2.450000e+00	6.855600e-06	
50	2.500000e+00	6.956059e-06	
51	2.550000e+00	7.057725e-06	
52	2.600000e+00	7.160702e-06	
53	2.650000e+00	7.265103e-06	
54	2.700000e+00	7.371055e-06	

Index   v-sweep         -i(vds)         
--------------------------------------------------------------------------------
55	2.750000e+00	7.478701e-06	
56	2.800000e+00	7.588198e-06	
57	2.850000e+00	7.699718e-06	
58	2.900000e+00	7.813453e-06	
59	2.950000e+00	7.929610e-06	
60	3.000000e+00	8.048418e-06	
61	3.050000e+00	8.170126e-06	
62	3.100000e+00	8.295004e-06	
63	3.150000e+00	8.423344e-06	
64	3.200000e+00	8.555464e-06	
65	3.250000e+00	8.691705e-06	
66	3.300000e+00	8.832435e-06	
67	0.000000e+00	-0.000000e+00	
68	5.000000e-02	7.954703e-06	
69	1.000000e-01	1.482556e-05	
70	1.500000e-01	2.070288e-05	
71	2.000000e-01	2.566694e-05	
72	2.500000e-01	2.978919e-05	
73	3.000000e-01	3.313424e-05	
74	3.500000e-01	3.576543e-05	
75	4.000000e-01	3.776028e-05	
76	4.500000e-01	3.923123e-05	
77	5.000000e-01	4.031916e-05	
78	5.500000e-01	4.115290e-05	
79	6.000000e-01	4.182355e-05	
80	6.500000e-01	4.238783e-05	
81	7.000000e-01	4.288007e-05	
82	7.500000e-01	4.332146e-05	
83	8.000000e-01	4.372559e-05	
84	8.500000e-01	4.410150e-05	
85	9.000000e-01	4.445544e-05	
86	9.500000e-01	4.479189e-05	
87	1.000000e+00	4.511413e-05	
88	1.050000e+00	4.542464e-05	
89	1.100000e+00	4.572532e-05	
90	1.150000e+00	4.601768e-05	
91	1.200000e+00	4.630289e-05	
92	1.250000e+00	4.658192e-05	
93	1.300000e+00	4.685558e-05	
94	1.350000e+00	4.712450e-05	
95	1.400000e+00	4.738925e-05	
96	1.450000e+00	4.765028e-05	
97	1.500000e+00	4.790799e-05	
98	1.550000e+00	4.816273e-05	
99	1.600000e+00	4.841478e-05	
100	1.650000e+00	4.866440e-05	
101	1.700000e+00	4.891183e-05	
102	1.750000e+00	4.915726e-05	
103	1.800000e+00	4.940087e-05	
104	1.850000e+00	4.964284e-05	
105	1.900000e+00	4.988332e-05	
106	1.950000e+00	5.012246e-05	
107	2.000000e+00	5.036040e-05	
108	2.050000e+00	5.059729e-05	
109	2.100000e+00	5.083327e-05	
110	2.150000e+00	5.106850e-05	
111	2.200000e+00	5.130316e-05	
112	2.250000e+00	5.153741e-05	

Index   v-sweep         -i(vds)         
--------------------------------------------------------------------------------
113	2.300000e+00	5.177147e-05	
114	2.350000e+00	5.200554e-05	
115	2.400000e+00	5.223989e-05	
116	2.450000e+00	5.247478e-05	
117	2.500000e+00	5.271053e-05	
118	2.550000e+00	5.294748e-05	
119	2.600000e+00	5.318603e-05	
120	2.650000e+00	5.342661e-05	
121	2.700000e+00	5.366971e-05	
122	2.750000e+00	5.391586e-05	
123	2.800000e+00	5.416565e-05	
124	2.850000e+00	5.441975e-05	
125	2.900000e+00	5.467887e-05	
126	2.950000e+00	5.494381e-05	
127	3.000000e+00	5.521542e-05	
128	3.050000e+00	5.549466e-05	
129	3.100000e+00	5.578253e-05	
130	3.150000e+00	5.608015e-05	
131	3.200000e+00	5.638871e-05	
132	3.250000e+00	5.670951e-05	
133	3.300000e+00	5.704392e-05	
134	0.000000e+00	-0.000000e+00	
135	5.000000e-02	1.243516e-05	
136	1.000000e-01	2.373798e-05	
137	1.500000e-01	3.398650e-05	
138	2.000000e-01	4.325135e-05	
139	2.500000e-01	5.159635e-05	
140	3.000000e-01	5.907881e-05	
141	3.500000e-01	6.574955e-05	
142	4.000000e-01	7.165244e-05	
143	4.500000e-01	7.682342e-05	
144	5.000000e-01	8.128964e-05	
145	5.500000e-01	8.507109e-05	
146	6.000000e-01	8.819091e-05	
147	6.500000e-01	9.069693e-05	
148	7.000000e-01	9.267747e-05	
149	7.500000e-01	9.424726e-05	
150	8.000000e-01	9.551604e-05	
151	8.500000e-01	9.656984e-05	
152	9.000000e-01	9.746958e-05	
153	9.500000e-01	9.825688e-05	
154	1.000000e+00	9.896015e-05	
155	1.050000e+00	9.959907e-05	
156	1.100000e+00	1.001876e-04	
157	1.150000e+00	1.007358e-04	
158	1.200000e+00	1.012513e-04	
159	1.250000e+00	1.017396e-04	
160	1.300000e+00	1.022052e-04	
161	1.350000e+00	1.026516e-04	
162	1.400000e+00	1.030814e-04	
163	1.450000e+00	1.034968e-04	
164	1.500000e+00	1.038998e-04	
165	1.550000e+00	1.042918e-04	
166	1.600000e+00	1.046740e-04	
167	1.650000e+00	1.050475e-04	
168	1.700000e+00	1.054133e-04	
169	1.750000e+00	1.057720e-04	
170	1.800000e+00	1.061244e-04	

Index   v-sweep         -i(vds)         
--------------------------------------------------------------------------------
171	1.850000e+00	1.064710e-04	
172	1.900000e+00	1.068124e-04	
173	1.950000e+00	1.071490e-04	
174	2.000000e+00	1.074812e-04	
175	2.050000e+00	1.078094e-04	
176	2.100000e+00	1.081340e-04	
177	2.150000e+00	1.084552e-04	
178	2.200000e+00	1.087733e-04	
179	2.250000e+00	1.090888e-04	
180	2.300000e+00	1.094019e-04	
181	2.350000e+00	1.097130e-04	
182	2.400000e+00	1.100223e-04	
183	2.450000e+00	1.103303e-04	
184	2.500000e+00	1.106374e-04	
185	2.550000e+00	1.109441e-04	
186	2.600000e+00	1.112509e-04	
187	2.650000e+00	1.115583e-04	
188	2.700000e+00	1.118669e-04	
189	2.750000e+00	1.121776e-04	
190	2.800000e+00	1.124911e-04	
191	2.850000e+00	1.128082e-04	
192	2.900000e+00	1.131299e-04	
193	2.950000e+00	1.134574e-04	
194	3.000000e+00	1.137918e-04	
195	3.050000e+00	1.141345e-04	
196	3.100000e+00	1.144869e-04	
197	3.150000e+00	1.148505e-04	
198	3.200000e+00	1.152271e-04	
199	3.250000e+00	1.156186e-04	
200	3.300000e+00	1.160270e-04	
201	0.000000e+00	-0.000000e+00	
202	5.000000e-02	1.555197e-05	
203	1.000000e-01	3.000513e-05	
204	1.500000e-01	4.342431e-05	
205	2.000000e-01	5.586916e-05	
206	2.500000e-01	6.739454e-05	
207	3.000000e-01	7.805088e-05	
208	3.500000e-01	8.788433e-05	
209	4.000000e-01	9.693690e-05	
210	4.500000e-01	1.052463e-04	
211	5.000000e-01	1.128455e-04	
212	5.500000e-01	1.197619e-04	
213	6.000000e-01	1.260161e-04	
214	6.500000e-01	1.316198e-04	
215	7.000000e-01	1.365752e-04	
216	7.500000e-01	1.408781e-04	
217	8.000000e-01	1.445300e-04	
218	8.500000e-01	1.475597e-04	
219	9.000000e-01	1.500361e-04	
220	9.500000e-01	1.520573e-04	
221	1.000000e+00	1.537252e-04	
222	1.050000e+00	1.551270e-04	
223	1.100000e+00	1.563295e-04	
224	1.150000e+00	1.573814e-04	
225	1.200000e+00	1.583179e-04	
226	1.250000e+00	1.591642e-04	
227	1.300000e+00	1.599390e-04	
228	1.350000e+00	1.606558e-04	

Index   v-sweep         -i(vds)         
--------------------------------------------------------------------------------
229	1.400000e+00	1.613252e-04	
230	1.450000e+00	1.619549e-04	
231	1.500000e+00	1.625514e-04	
232	1.550000e+00	1.631195e-04	
233	1.600000e+00	1.636631e-04	
234	1.650000e+00	1.641854e-04	
235	1.700000e+00	1.646892e-04	
236	1.750000e+00	1.651766e-04	
237	1.800000e+00	1.656495e-04	
238	1.850000e+00	1.661093e-04	
239	1.900000e+00	1.665575e-04	
240	1.950000e+00	1.669951e-04	
241	2.000000e+00	1.674233e-04	
242	2.050000e+00	1.678427e-04	
243	2.100000e+00	1.682543e-04	
244	2.150000e+00	1.686586e-04	
245	2.200000e+00	1.690564e-04	
246	2.250000e+00	1.694480e-04	
247	2.300000e+00	1.698342e-04	
248	2.350000e+00	1.702153e-04	
249	2.400000e+00	1.705918e-04	
250	2.450000e+00	1.709643e-04	
251	2.500000e+00	1.713332e-04	
252	2.550000e+00	1.716991e-04	
253	2.600000e+00	1.720625e-04	
254	2.650000e+00	1.724239e-04	
255	2.700000e+00	1.727841e-04	
256	2.750000e+00	1.731438e-04	
257	2.800000e+00	1.735038e-04	
258	2.850000e+00	1.738649e-04	
259	2.900000e+00	1.742283e-04	
260	2.950000e+00	1.745949e-04	
261	3.000000e+00	1.749662e-04	
262	3.050000e+00	1.753433e-04	
263	3.100000e+00	1.757280e-04	
264	3.150000e+00	1.761219e-04	
265	3.200000e+00	1.765268e-04	
266	3.250000e+00	1.769449e-04	
267	3.300000e+00	1.773784e-04	
268	0.000000e+00	-0.000000e+00	
269	5.000000e-02	1.780556e-05	
270	1.000000e-01	3.457246e-05	
271	1.500000e-01	5.035418e-05	
272	2.000000e-01	6.520051e-05	
273	2.500000e-01	7.915782e-05	
274	3.000000e-01	9.226925e-05	
275	3.500000e-01	1.045750e-04	
276	4.000000e-01	1.161123e-04	
277	4.500000e-01	1.269157e-04	
278	5.000000e-01	1.370170e-04	
279	5.500000e-01	1.464449e-04	
280	6.000000e-01	1.552250e-04	
281	6.500000e-01	1.633793e-04	
282	7.000000e-01	1.709248e-04	
283	7.500000e-01	1.778728e-04	
284	8.000000e-01	1.842265e-04	
285	8.500000e-01	1.899801e-04	
286	9.000000e-01	1.951187e-04	

Index   v-sweep         -i(vds)         
--------------------------------------------------------------------------------
287	9.500000e-01	1.996256e-04	
288	1.000000e+00	2.034971e-04	
289	1.050000e+00	2.067609e-04	
290	1.100000e+00	2.094821e-04	
291	1.150000e+00	2.117496e-04	
292	1.200000e+00	2.136555e-04	
293	1.250000e+00	2.152803e-04	
294	1.300000e+00	2.166880e-04	
295	1.350000e+00	2.179273e-04	
296	1.400000e+00	2.190345e-04	
297	1.450000e+00	2.200366e-04	
298	1.500000e+00	2.209539e-04	
299	1.550000e+00	2.218017e-04	
300	1.600000e+00	2.225920e-04	
301	1.650000e+00	2.233340e-04	
302	1.700000e+00	2.240349e-04	
303	1.750000e+00	2.247007e-04	
304	1.800000e+00	2.253360e-04	
305	1.850000e+00	2.259448e-04	
306	1.900000e+00	2.265302e-04	
307	1.950000e+00	2.270950e-04	
308	2.000000e+00	2.276414e-04	
309	2.050000e+00	2.281714e-04	
310	2.100000e+00	2.286866e-04	
311	2.150000e+00	2.291884e-04	
312	2.200000e+00	2.296780e-04	
313	2.250000e+00	2.301566e-04	
314	2.300000e+00	2.306251e-04	
315	2.350000e+00	2.310844e-04	
316	2.400000e+00	2.315352e-04	
317	2.450000e+00	2.319783e-04	
318	2.500000e+00	2.324143e-04	
319	2.550000e+00	2.328439e-04	
320	2.600000e+00	2.332678e-04	
321	2.650000e+00	2.336865e-04	
322	2.700000e+00	2.341008e-04	
323	2.750000e+00	2.345114e-04	
324	2.800000e+00	2.349190e-04	
325	2.850000e+00	2.353245e-04	
326	2.900000e+00	2.357287e-04	
327	2.950000e+00	2.361328e-04	
328	3.000000e+00	2.365379e-04	
329	3.050000e+00	2.369452e-04	
330	3.100000e+00	2.373561e-04	
331	3.150000e+00	2.377723e-04	
332	3.200000e+00	2.381954e-04	
333	3.250000e+00	2.386275e-04	
334	3.300000e+00	2.390707e-04	
335	0.000000e+00	-0.000000e+00	
336	5.000000e-02	1.948172e-05	
337	1.000000e-01	3.799184e-05	
338	1.500000e-01	5.557467e-05	
339	2.000000e-01	7.227182e-05	
340	2.500000e-01	8.812238e-05	
341	3.000000e-01	1.031631e-04	
342	3.500000e-01	1.174284e-04	
343	4.000000e-01	1.309509e-04	
344	4.500000e-01	1.437609e-04	

Index   v-sweep         -i(vds)         
--------------------------------------------------------------------------------
345	5.000000e-01	1.558868e-04	
346	5.500000e-01	1.673554e-04	
347	6.000000e-01	1.781912e-04	
348	6.500000e-01	1.884168e-04	
349	7.000000e-01	1.980527e-04	
350	7.500000e-01	2.071166e-04	
351	8.000000e-01	2.156231e-04	
352	8.500000e-01	2.235828e-04	
353	9.000000e-01	2.310012e-04	
354	9.500000e-01	2.378765e-04	
355	1.000000e+00	2.441988e-04	
356	1.050000e+00	2.499490e-04	
357	1.100000e+00	2.551029e-04	
358	1.150000e+00	2.596408e-04	
359	1.200000e+00	2.635638e-04	
360	1.250000e+00	2.669057e-04	
361	1.300000e+00	2.697320e-04	
362	1.350000e+00	2.721251e-04	
363	1.400000e+00	2.741677e-04	
364	1.450000e+00	2.759319e-04	
365	1.500000e+00	2.774765e-04	
366	1.550000e+00	2.788469e-04	
367	1.600000e+00	2.800780e-04	
368	1.650000e+00	2.811965e-04	
369	1.700000e+00	2.822228e-04	
370	1.750000e+00	2.831728e-04	
371	1.800000e+00	2.840588e-04	
372	1.850000e+00	2.848906e-04	
373	1.900000e+00	2.856761e-04	
374	1.950000e+00	2.864217e-04	
375	2.000000e+00	2.871324e-04	
376	2.050000e+00	2.878126e-04	
377	2.100000e+00	2.884659e-04	
378	2.150000e+00	2.890954e-04	
379	2.200000e+00	2.897034e-04	
380	2.250000e+00	2.902923e-04	
381	2.300000e+00	2.908639e-04	
382	2.350000e+00	2.914198e-04	
383	2.400000e+00	2.919614e-04	
384	2.450000e+00	2.924901e-04	
385	2.500000e+00	2.930069e-04	
386	2.550000e+00	2.935128e-04	
387	2.600000e+00	2.940088e-04	
388	2.650000e+00	2.944956e-04	
389	2.700000e+00	2.949742e-04	
390	2.750000e+00	2.954454e-04	
391	2.800000e+00	2.959098e-04	
392	2.850000e+00	2.963684e-04	
393	2.900000e+00	2.968220e-04	
394	2.950000e+00	2.972715e-04	
395	3.000000e+00	2.977180e-04	
396	3.050000e+00	2.981624e-04	
397	3.100000e+00	2.986061e-04	
398	3.150000e+00	2.990504e-04	
399	3.200000e+00	2.994968e-04	
400	3.250000e+00	2.999469e-04	
401	3.300000e+00	3.004027e-04	
Note: No ".plot", ".print", or ".fourier" lines; no simulations run
