
Note: Compatibility modes selected: hs

Warning: m=xx on .subckt line will override multiplier m hierarchy!


Circuit: ***************************

Doing analysis at TEMP = -40.000000 and TNOM = -40.000000


No. of Data Rows : 402
                          ***************************
                          DC transfer characteristic  Mon Jan  9 13:57:17  2023
--------------------------------------------------------------------------------
Index   v-sweep         -i(vds)         
--------------------------------------------------------------------------------
0	0.000000e+00	-0.000000e+00	
1	5.000000e-02	2.219363e-07	
2	1.000000e-01	2.867636e-07	
3	1.500000e-01	2.964721e-07	
4	2.000000e-01	2.997227e-07	
5	2.500000e-01	3.017995e-07	
6	3.000000e-01	3.034453e-07	
7	3.500000e-01	3.048681e-07	
8	4.000000e-01	3.061536e-07	
9	4.500000e-01	3.073454e-07	
10	5.000000e-01	3.084688e-07	
11	5.500000e-01	3.095401e-07	
12	6.000000e-01	3.105702e-07	
13	6.500000e-01	3.115669e-07	
14	7.000000e-01	3.125360e-07	
15	7.500000e-01	3.134819e-07	
16	8.000000e-01	3.144080e-07	
17	8.500000e-01	3.153171e-07	
18	9.000000e-01	3.162112e-07	
19	9.500000e-01	3.170922e-07	
20	1.000000e+00	3.179616e-07	
21	1.050000e+00	3.188206e-07	
22	1.100000e+00	3.196704e-07	
23	1.150000e+00	3.205117e-07	
24	1.200000e+00	3.213455e-07	
25	1.250000e+00	3.221723e-07	
26	1.300000e+00	3.229928e-07	
27	1.350000e+00	3.238075e-07	
28	1.400000e+00	3.246169e-07	
29	1.450000e+00	3.254214e-07	
30	1.500000e+00	3.262214e-07	
31	1.550000e+00	3.270174e-07	
32	1.600000e+00	3.278096e-07	
33	1.650000e+00	3.285986e-07	
34	1.700000e+00	3.293846e-07	
35	1.750000e+00	3.301682e-07	
36	1.800000e+00	3.309497e-07	
37	1.850000e+00	3.317298e-07	
38	1.900000e+00	3.325091e-07	
39	1.950000e+00	3.332882e-07	
40	2.000000e+00	3.340678e-07	
41	2.050000e+00	3.348490e-07	
42	2.100000e+00	3.356326e-07	
43	2.150000e+00	3.364198e-07	
44	2.200000e+00	3.372119e-07	
45	2.250000e+00	3.380104e-07	
46	2.300000e+00	3.388168e-07	
47	2.350000e+00	3.396329e-07	
48	2.400000e+00	3.404606e-07	
49	2.450000e+00	3.413022e-07	
50	2.500000e+00	3.421599e-07	
51	2.550000e+00	3.430364e-07	
52	2.600000e+00	3.439345e-07	
53	2.650000e+00	3.448571e-07	
54	2.700000e+00	3.458075e-07	

Index   v-sweep         -i(vds)         
--------------------------------------------------------------------------------
55	2.750000e+00	3.467892e-07	
56	2.800000e+00	3.478060e-07	
57	2.850000e+00	3.488616e-07	
58	2.900000e+00	3.499605e-07	
59	2.950000e+00	3.511070e-07	
60	3.000000e+00	3.523057e-07	
61	3.050000e+00	3.535618e-07	
62	3.100000e+00	3.548803e-07	
63	3.150000e+00	3.562668e-07	
64	3.200000e+00	3.577268e-07	
65	3.250000e+00	3.592665e-07	
66	3.300000e+00	3.608919e-07	
67	0.000000e+00	-0.000000e+00	
68	5.000000e-02	2.400396e-06	
69	1.000000e-01	4.499659e-06	
70	1.500000e-01	6.306858e-06	
71	2.000000e-01	7.830777e-06	
72	2.500000e-01	9.080024e-06	
73	3.000000e-01	1.006336e-05	
74	3.500000e-01	1.079083e-05	
75	4.000000e-01	1.127861e-05	
76	4.500000e-01	1.156438e-05	
77	5.000000e-01	1.171871e-05	
78	5.500000e-01	1.180841e-05	
79	6.000000e-01	1.186825e-05	
80	6.500000e-01	1.191272e-05	
81	7.000000e-01	1.194825e-05	
82	7.500000e-01	1.197801e-05	
83	8.000000e-01	1.200378e-05	
84	8.500000e-01	1.202665e-05	
85	9.000000e-01	1.204729e-05	
86	9.500000e-01	1.206620e-05	
87	1.000000e+00	1.208370e-05	
88	1.050000e+00	1.210005e-05	
89	1.100000e+00	1.211544e-05	
90	1.150000e+00	1.213000e-05	
91	1.200000e+00	1.214387e-05	
92	1.250000e+00	1.215712e-05	
93	1.300000e+00	1.216984e-05	
94	1.350000e+00	1.218209e-05	
95	1.400000e+00	1.219391e-05	
96	1.450000e+00	1.220536e-05	
97	1.500000e+00	1.221647e-05	
98	1.550000e+00	1.222728e-05	
99	1.600000e+00	1.223780e-05	
100	1.650000e+00	1.224807e-05	
101	1.700000e+00	1.225811e-05	
102	1.750000e+00	1.226793e-05	
103	1.800000e+00	1.227756e-05	
104	1.850000e+00	1.228701e-05	
105	1.900000e+00	1.229629e-05	
106	1.950000e+00	1.230542e-05	
107	2.000000e+00	1.231442e-05	
108	2.050000e+00	1.232331e-05	
109	2.100000e+00	1.233209e-05	
110	2.150000e+00	1.234078e-05	
111	2.200000e+00	1.234942e-05	
112	2.250000e+00	1.235801e-05	

Index   v-sweep         -i(vds)         
--------------------------------------------------------------------------------
113	2.300000e+00	1.236658e-05	
114	2.350000e+00	1.237517e-05	
115	2.400000e+00	1.238380e-05	
116	2.450000e+00	1.239252e-05	
117	2.500000e+00	1.240135e-05	
118	2.550000e+00	1.241036e-05	
119	2.600000e+00	1.241958e-05	
120	2.650000e+00	1.242908e-05	
121	2.700000e+00	1.243892e-05	
122	2.750000e+00	1.244917e-05	
123	2.800000e+00	1.245990e-05	
124	2.850000e+00	1.247121e-05	
125	2.900000e+00	1.248317e-05	
126	2.950000e+00	1.249589e-05	
127	3.000000e+00	1.250948e-05	
128	3.050000e+00	1.252404e-05	
129	3.100000e+00	1.253970e-05	
130	3.150000e+00	1.255658e-05	
131	3.200000e+00	1.257482e-05	
132	3.250000e+00	1.259457e-05	
133	3.300000e+00	1.261598e-05	
134	0.000000e+00	-0.000000e+00	
135	5.000000e-02	4.319979e-06	
136	1.000000e-01	8.328052e-06	
137	1.500000e-01	1.203269e-05	
138	2.000000e-01	1.544205e-05	
139	2.500000e-01	1.856400e-05	
140	3.000000e-01	2.140612e-05	
141	3.500000e-01	2.397571e-05	
142	4.000000e-01	2.627979e-05	
143	4.500000e-01	2.832509e-05	
144	5.000000e-01	3.011802e-05	
145	5.500000e-01	3.166460e-05	
146	6.000000e-01	3.297031e-05	
147	6.500000e-01	3.404000e-05	
148	7.000000e-01	3.487862e-05	
149	7.500000e-01	3.549619e-05	
150	8.000000e-01	3.592133e-05	
151	8.500000e-01	3.620596e-05	
152	9.000000e-01	3.640275e-05	
153	9.500000e-01	3.654723e-05	
154	1.000000e+00	3.665955e-05	
155	1.050000e+00	3.675096e-05	
156	1.100000e+00	3.682795e-05	
157	1.150000e+00	3.689455e-05	
158	1.200000e+00	3.695335e-05	
159	1.250000e+00	3.700609e-05	
160	1.300000e+00	3.705403e-05	
161	1.350000e+00	3.709805e-05	
162	1.400000e+00	3.713884e-05	
163	1.450000e+00	3.717690e-05	
164	1.500000e+00	3.721264e-05	
165	1.550000e+00	3.724639e-05	
166	1.600000e+00	3.727840e-05	
167	1.650000e+00	3.730888e-05	
168	1.700000e+00	3.733802e-05	
169	1.750000e+00	3.736595e-05	
170	1.800000e+00	3.739281e-05	

Index   v-sweep         -i(vds)         
--------------------------------------------------------------------------------
171	1.850000e+00	3.741870e-05	
172	1.900000e+00	3.744370e-05	
173	1.950000e+00	3.746791e-05	
174	2.000000e+00	3.749139e-05	
175	2.050000e+00	3.751421e-05	
176	2.100000e+00	3.753641e-05	
177	2.150000e+00	3.755805e-05	
178	2.200000e+00	3.757919e-05	
179	2.250000e+00	3.759986e-05	
180	2.300000e+00	3.762011e-05	
181	2.350000e+00	3.763998e-05	
182	2.400000e+00	3.765953e-05	
183	2.450000e+00	3.767881e-05	
184	2.500000e+00	3.769788e-05	
185	2.550000e+00	3.771680e-05	
186	2.600000e+00	3.773563e-05	
187	2.650000e+00	3.775447e-05	
188	2.700000e+00	3.777340e-05	
189	2.750000e+00	3.779254e-05	
190	2.800000e+00	3.781198e-05	
191	2.850000e+00	3.783188e-05	
192	2.900000e+00	3.785237e-05	
193	2.950000e+00	3.787361e-05	
194	3.000000e+00	3.789581e-05	
195	3.050000e+00	3.791914e-05	
196	3.100000e+00	3.794384e-05	
197	3.150000e+00	3.797014e-05	
198	3.200000e+00	3.799832e-05	
199	3.250000e+00	3.802864e-05	
200	3.300000e+00	3.806143e-05	
201	0.000000e+00	-0.000000e+00	
202	5.000000e-02	5.822961e-06	
203	1.000000e-01	1.134130e-05	
204	1.500000e-01	1.656253e-05	
205	2.000000e-01	2.149390e-05	
206	2.500000e-01	2.614245e-05	
207	3.000000e-01	3.051498e-05	
208	3.500000e-01	3.461805e-05	
209	4.000000e-01	3.845802e-05	
210	4.500000e-01	4.204104e-05	
211	5.000000e-01	4.537306e-05	
212	5.500000e-01	4.845979e-05	
213	6.000000e-01	5.130674e-05	
214	6.500000e-01	5.391919e-05	
215	7.000000e-01	5.630210e-05	
216	7.500000e-01	5.846009e-05	
217	8.000000e-01	6.039727e-05	
218	8.500000e-01	6.211689e-05	
219	9.000000e-01	6.362085e-05	
220	9.500000e-01	6.490883e-05	
221	1.000000e+00	6.597791e-05	
222	1.050000e+00	6.682621e-05	
223	1.100000e+00	6.746522e-05	
224	1.150000e+00	6.793060e-05	
225	1.200000e+00	6.827087e-05	
226	1.250000e+00	6.852768e-05	
227	1.300000e+00	6.872934e-05	
228	1.350000e+00	6.889358e-05	

Index   v-sweep         -i(vds)         
--------------------------------------------------------------------------------
229	1.400000e+00	6.903145e-05	
230	1.450000e+00	6.915006e-05	
231	1.500000e+00	6.925410e-05	
232	1.550000e+00	6.934682e-05	
233	1.600000e+00	6.943054e-05	
234	1.650000e+00	6.950693e-05	
235	1.700000e+00	6.957726e-05	
236	1.750000e+00	6.964251e-05	
237	1.800000e+00	6.970343e-05	
238	1.850000e+00	6.976063e-05	
239	1.900000e+00	6.981460e-05	
240	1.950000e+00	6.986574e-05	
241	2.000000e+00	6.991438e-05	
242	2.050000e+00	6.996080e-05	
243	2.100000e+00	7.000523e-05	
244	2.150000e+00	7.004787e-05	
245	2.200000e+00	7.008889e-05	
246	2.250000e+00	7.012845e-05	
247	2.300000e+00	7.016666e-05	
248	2.350000e+00	7.020365e-05	
249	2.400000e+00	7.023952e-05	
250	2.450000e+00	7.027437e-05	
251	2.500000e+00	7.030829e-05	
252	2.550000e+00	7.034135e-05	
253	2.600000e+00	7.037365e-05	
254	2.650000e+00	7.040527e-05	
255	2.700000e+00	7.043630e-05	
256	2.750000e+00	7.046684e-05	
257	2.800000e+00	7.049699e-05	
258	2.850000e+00	7.052687e-05	
259	2.900000e+00	7.055661e-05	
260	2.950000e+00	7.058636e-05	
261	3.000000e+00	7.061629e-05	
262	3.050000e+00	7.064660e-05	
263	3.100000e+00	7.067750e-05	
264	3.150000e+00	7.070922e-05	
265	3.200000e+00	7.074206e-05	
266	3.250000e+00	7.077631e-05	
267	3.300000e+00	7.081230e-05	
268	0.000000e+00	-0.000000e+00	
269	5.000000e-02	6.954173e-06	
270	1.000000e-01	1.362026e-05	
271	1.500000e-01	2.000468e-05	
272	2.000000e-01	2.611369e-05	
273	2.500000e-01	3.195335e-05	
274	3.000000e-01	3.752952e-05	
275	3.500000e-01	4.284793e-05	
276	4.000000e-01	4.791411e-05	
277	4.500000e-01	5.273345e-05	
278	5.000000e-01	5.731116e-05	
279	5.500000e-01	6.165231e-05	
280	6.000000e-01	6.576182e-05	
281	6.500000e-01	6.964446e-05	
282	7.000000e-01	7.330484e-05	
283	7.500000e-01	7.674743e-05	
284	8.000000e-01	7.997653e-05	
285	8.500000e-01	8.299625e-05	
286	9.000000e-01	8.581051e-05	

Index   v-sweep         -i(vds)         
--------------------------------------------------------------------------------
287	9.500000e-01	8.842295e-05	
288	1.000000e+00	9.083685e-05	
289	1.050000e+00	9.305500e-05	
290	1.100000e+00	9.507931e-05	
291	1.150000e+00	9.691039e-05	
292	1.200000e+00	9.854656e-05	
293	1.250000e+00	9.998266e-05	
294	1.300000e+00	1.012097e-04	
295	1.350000e+00	1.022189e-04	
296	1.400000e+00	1.030138e-04	
297	1.450000e+00	1.036213e-04	
298	1.500000e+00	1.040838e-04	
299	1.550000e+00	1.044426e-04	
300	1.600000e+00	1.047289e-04	
301	1.650000e+00	1.049642e-04	
302	1.700000e+00	1.051626e-04	
303	1.750000e+00	1.053334e-04	
304	1.800000e+00	1.054832e-04	
305	1.850000e+00	1.056166e-04	
306	1.900000e+00	1.057368e-04	
307	1.950000e+00	1.058462e-04	
308	2.000000e+00	1.059467e-04	
309	2.050000e+00	1.060398e-04	
310	2.100000e+00	1.061264e-04	
311	2.150000e+00	1.062075e-04	
312	2.200000e+00	1.062839e-04	
313	2.250000e+00	1.063560e-04	
314	2.300000e+00	1.064245e-04	
315	2.350000e+00	1.064897e-04	
316	2.400000e+00	1.065519e-04	
317	2.450000e+00	1.066115e-04	
318	2.500000e+00	1.066687e-04	
319	2.550000e+00	1.067237e-04	
320	2.600000e+00	1.067767e-04	
321	2.650000e+00	1.068280e-04	
322	2.700000e+00	1.068775e-04	
323	2.750000e+00	1.069256e-04	
324	2.800000e+00	1.069723e-04	
325	2.850000e+00	1.070178e-04	
326	2.900000e+00	1.070621e-04	
327	2.950000e+00	1.071054e-04	
328	3.000000e+00	1.071479e-04	
329	3.050000e+00	1.071896e-04	
330	3.100000e+00	1.072308e-04	
331	3.150000e+00	1.072716e-04	
332	3.200000e+00	1.073123e-04	
333	3.250000e+00	1.073530e-04	
334	3.300000e+00	1.073940e-04	
335	0.000000e+00	-0.000000e+00	
336	5.000000e-02	7.774212e-06	
337	1.000000e-01	1.528158e-05	
338	1.500000e-01	2.252749e-05	
339	2.000000e-01	2.951719e-05	
340	2.500000e-01	3.625579e-05	
341	3.000000e-01	4.274825e-05	
342	3.500000e-01	4.899943e-05	
343	4.000000e-01	5.501402e-05	
344	4.500000e-01	6.079662e-05	

Index   v-sweep         -i(vds)         
--------------------------------------------------------------------------------
345	5.000000e-01	6.635170e-05	
346	5.500000e-01	7.168361e-05	
347	6.000000e-01	7.679658e-05	
348	6.500000e-01	8.169475e-05	
349	7.000000e-01	8.638214e-05	
350	7.500000e-01	9.086265e-05	
351	8.000000e-01	9.514010e-05	
352	8.500000e-01	9.921819e-05	
353	9.000000e-01	1.031005e-04	
354	9.500000e-01	1.067905e-04	
355	1.000000e+00	1.102917e-04	
356	1.050000e+00	1.136071e-04	
357	1.100000e+00	1.167399e-04	
358	1.150000e+00	1.196931e-04	
359	1.200000e+00	1.224693e-04	
360	1.250000e+00	1.250709e-04	
361	1.300000e+00	1.274999e-04	
362	1.350000e+00	1.297574e-04	
363	1.400000e+00	1.318436e-04	
364	1.450000e+00	1.337570e-04	
365	1.500000e+00	1.354931e-04	
366	1.550000e+00	1.370433e-04	
367	1.600000e+00	1.383948e-04	
368	1.650000e+00	1.395349e-04	
369	1.700000e+00	1.404618e-04	
370	1.750000e+00	1.411946e-04	
371	1.800000e+00	1.417693e-04	
372	1.850000e+00	1.422249e-04	
373	1.900000e+00	1.425935e-04	
374	1.950000e+00	1.428989e-04	
375	2.000000e+00	1.431574e-04	
376	2.050000e+00	1.433806e-04	
377	2.100000e+00	1.435764e-04	
378	2.150000e+00	1.437507e-04	
379	2.200000e+00	1.439077e-04	
380	2.250000e+00	1.440504e-04	
381	2.300000e+00	1.441813e-04	
382	2.350000e+00	1.443023e-04	
383	2.400000e+00	1.444148e-04	
384	2.450000e+00	1.445199e-04	
385	2.500000e+00	1.446188e-04	
386	2.550000e+00	1.447120e-04	
387	2.600000e+00	1.448003e-04	
388	2.650000e+00	1.448842e-04	
389	2.700000e+00	1.449642e-04	
390	2.750000e+00	1.450407e-04	
391	2.800000e+00	1.451140e-04	
392	2.850000e+00	1.451844e-04	
393	2.900000e+00	1.452521e-04	
394	2.950000e+00	1.453175e-04	
395	3.000000e+00	1.453807e-04	
396	3.050000e+00	1.454418e-04	
397	3.100000e+00	1.455011e-04	
398	3.150000e+00	1.455588e-04	
399	3.200000e+00	1.456149e-04	
400	3.250000e+00	1.456698e-04	
401	3.300000e+00	1.457235e-04	
Note: No ".plot", ".print", or ".fourier" lines; no simulations run
