
Note: Compatibility modes selected: hs

Warning: m=xx on .subckt line will override multiplier m hierarchy!


Circuit: ***************************

Doing analysis at TEMP = 125.000000 and TNOM = 125.000000


No. of Data Rows : 402
                          ***************************
                          DC transfer characteristic  Mon Jan  9 13:57:18  2023
--------------------------------------------------------------------------------
Index   v-sweep         -i(vds)         
--------------------------------------------------------------------------------
0	0.000000e+00	-0.000000e+00	
1	5.000000e-02	3.803964e-05	
2	1.000000e-01	6.799384e-05	
3	1.500000e-01	9.055242e-05	
4	2.000000e-01	1.064739e-04	
5	2.500000e-01	1.168600e-04	
6	3.000000e-01	1.233290e-04	
7	3.500000e-01	1.275643e-04	
8	4.000000e-01	1.306806e-04	
9	4.500000e-01	1.332299e-04	
10	5.000000e-01	1.354671e-04	
11	5.500000e-01	1.375167e-04	
12	6.000000e-01	1.394449e-04	
13	6.500000e-01	1.412899e-04	
14	7.000000e-01	1.430756e-04	
15	7.500000e-01	1.448176e-04	
16	8.000000e-01	1.465266e-04	
17	8.500000e-01	1.482103e-04	
18	9.000000e-01	1.498742e-04	
19	9.500000e-01	1.515228e-04	
20	1.000000e+00	1.531593e-04	
21	1.050000e+00	1.547864e-04	
22	1.100000e+00	1.564060e-04	
23	1.150000e+00	1.580199e-04	
24	1.200000e+00	1.596295e-04	
25	1.250000e+00	1.612360e-04	
26	1.300000e+00	1.628403e-04	
27	1.350000e+00	1.644432e-04	
28	1.400000e+00	1.660456e-04	
29	1.450000e+00	1.676479e-04	
30	1.500000e+00	1.692507e-04	
31	1.550000e+00	1.708544e-04	
32	1.600000e+00	1.724596e-04	
33	1.650000e+00	1.740665e-04	
34	1.700000e+00	1.756756e-04	
35	1.750000e+00	1.772870e-04	
36	1.800000e+00	1.789012e-04	
37	1.850000e+00	1.805185e-04	
38	1.900000e+00	1.821392e-04	
39	1.950000e+00	1.837636e-04	
40	2.000000e+00	1.853922e-04	
41	2.050000e+00	1.870253e-04	
42	2.100000e+00	1.886635e-04	
43	2.150000e+00	1.903073e-04	
44	2.200000e+00	1.919575e-04	
45	2.250000e+00	1.936146e-04	
46	2.300000e+00	1.952797e-04	
47	2.350000e+00	1.969538e-04	
48	2.400000e+00	1.986379e-04	
49	2.450000e+00	2.003335e-04	
50	2.500000e+00	2.020420e-04	
51	2.550000e+00	2.037651e-04	
52	2.600000e+00	2.055048e-04	
53	2.650000e+00	2.072634e-04	
54	2.700000e+00	2.090431e-04	

Index   v-sweep         -i(vds)         
--------------------------------------------------------------------------------
55	2.750000e+00	2.108468e-04	
56	2.800000e+00	2.126775e-04	
57	2.850000e+00	2.145385e-04	
58	2.900000e+00	2.164335e-04	
59	2.950000e+00	2.183666e-04	
60	3.000000e+00	2.203423e-04	
61	3.050000e+00	2.223654e-04	
62	3.100000e+00	2.244412e-04	
63	3.150000e+00	2.265754e-04	
64	3.200000e+00	2.287743e-04	
65	3.250000e+00	2.310446e-04	
66	3.300000e+00	2.333934e-04	
67	0.000000e+00	-0.000000e+00	
68	5.000000e-02	1.049435e-04	
69	1.000000e-01	1.993496e-04	
70	1.500000e-01	2.838664e-04	
71	2.000000e-01	3.590479e-04	
72	2.500000e-01	4.253962e-04	
73	3.000000e-01	4.833739e-04	
74	3.500000e-01	5.334096e-04	
75	4.000000e-01	5.759049e-04	
76	4.500000e-01	6.112541e-04	
77	5.000000e-01	6.398996e-04	
78	5.500000e-01	6.624497e-04	
79	6.000000e-01	6.798127e-04	
80	6.500000e-01	6.931576e-04	
81	7.000000e-01	7.036468e-04	
82	7.500000e-01	7.121985e-04	
83	8.000000e-01	7.194418e-04	
84	8.500000e-01	7.257835e-04	
85	9.000000e-01	7.314848e-04	
86	9.500000e-01	7.367167e-04	
87	1.000000e+00	7.415943e-04	
88	1.050000e+00	7.461975e-04	
89	1.100000e+00	7.505833e-04	
90	1.150000e+00	7.547936e-04	
91	1.200000e+00	7.588598e-04	
92	1.250000e+00	7.628060e-04	
93	1.300000e+00	7.666510e-04	
94	1.350000e+00	7.704098e-04	
95	1.400000e+00	7.740944e-04	
96	1.450000e+00	7.777147e-04	
97	1.500000e+00	7.812787e-04	
98	1.550000e+00	7.847932e-04	
99	1.600000e+00	7.882640e-04	
100	1.650000e+00	7.916958e-04	
101	1.700000e+00	7.950928e-04	
102	1.750000e+00	7.984586e-04	
103	1.800000e+00	8.017963e-04	
104	1.850000e+00	8.051087e-04	
105	1.900000e+00	8.083982e-04	
106	1.950000e+00	8.116670e-04	
107	2.000000e+00	8.149171e-04	
108	2.050000e+00	8.181504e-04	
109	2.100000e+00	8.213688e-04	
110	2.150000e+00	8.245740e-04	
111	2.200000e+00	8.277677e-04	
112	2.250000e+00	8.309520e-04	

Index   v-sweep         -i(vds)         
--------------------------------------------------------------------------------
113	2.300000e+00	8.341286e-04	
114	2.350000e+00	8.372999e-04	
115	2.400000e+00	8.404682e-04	
116	2.450000e+00	8.436362e-04	
117	2.500000e+00	8.468070e-04	
118	2.550000e+00	8.499838e-04	
119	2.600000e+00	8.531707e-04	
120	2.650000e+00	8.563721e-04	
121	2.700000e+00	8.595929e-04	
122	2.750000e+00	8.628387e-04	
123	2.800000e+00	8.661160e-04	
124	2.850000e+00	8.694318e-04	
125	2.900000e+00	8.727940e-04	
126	2.950000e+00	8.762116e-04	
127	3.000000e+00	8.796943e-04	
128	3.050000e+00	8.832529e-04	
129	3.100000e+00	8.868995e-04	
130	3.150000e+00	8.906470e-04	
131	3.200000e+00	8.945098e-04	
132	3.250000e+00	8.985034e-04	
133	3.300000e+00	9.026449e-04	
134	0.000000e+00	-0.000000e+00	
135	5.000000e-02	1.553589e-04	
136	1.000000e-01	2.996418e-04	
137	1.500000e-01	4.334461e-04	
138	2.000000e-01	5.572837e-04	
139	2.500000e-01	6.716220e-04	
140	3.000000e-01	7.768949e-04	
141	3.500000e-01	8.735062e-04	
142	4.000000e-01	9.618306e-04	
143	4.500000e-01	1.042213e-03	
144	5.000000e-01	1.114968e-03	
145	5.500000e-01	1.180373e-03	
146	6.000000e-01	1.238668e-03	
147	6.500000e-01	1.290047e-03	
148	7.000000e-01	1.334671e-03	
149	7.500000e-01	1.372708e-03	
150	8.000000e-01	1.404446e-03	
151	8.500000e-01	1.430431e-03	
152	9.000000e-01	1.451517e-03	
153	9.500000e-01	1.468713e-03	
154	1.000000e+00	1.482979e-03	
155	1.050000e+00	1.495085e-03	
156	1.100000e+00	1.505602e-03	
157	1.150000e+00	1.514937e-03	
158	1.200000e+00	1.523375e-03	
159	1.250000e+00	1.531120e-03	
160	1.300000e+00	1.538318e-03	
161	1.350000e+00	1.545078e-03	
162	1.400000e+00	1.551480e-03	
163	1.450000e+00	1.557586e-03	
164	1.500000e+00	1.563443e-03	
165	1.550000e+00	1.569090e-03	
166	1.600000e+00	1.574556e-03	
167	1.650000e+00	1.579866e-03	
168	1.700000e+00	1.585040e-03	
169	1.750000e+00	1.590093e-03	
170	1.800000e+00	1.595041e-03	

Index   v-sweep         -i(vds)         
--------------------------------------------------------------------------------
171	1.850000e+00	1.599895e-03	
172	1.900000e+00	1.604665e-03	
173	1.950000e+00	1.609359e-03	
174	2.000000e+00	1.613984e-03	
175	2.050000e+00	1.618548e-03	
176	2.100000e+00	1.623055e-03	
177	2.150000e+00	1.627511e-03	
178	2.200000e+00	1.631920e-03	
179	2.250000e+00	1.636287e-03	
180	2.300000e+00	1.640615e-03	
181	2.350000e+00	1.644908e-03	
182	2.400000e+00	1.649170e-03	
183	2.450000e+00	1.653404e-03	
184	2.500000e+00	1.657614e-03	
185	2.550000e+00	1.661805e-03	
186	2.600000e+00	1.665980e-03	
187	2.650000e+00	1.670145e-03	
188	2.700000e+00	1.674305e-03	
189	2.750000e+00	1.678466e-03	
190	2.800000e+00	1.682635e-03	
191	2.850000e+00	1.686820e-03	
192	2.900000e+00	1.691029e-03	
193	2.950000e+00	1.695272e-03	
194	3.000000e+00	1.699561e-03	
195	3.050000e+00	1.703908e-03	
196	3.100000e+00	1.708327e-03	
197	3.150000e+00	1.712834e-03	
198	3.200000e+00	1.717446e-03	
199	3.250000e+00	1.722181e-03	
200	3.300000e+00	1.727062e-03	
201	0.000000e+00	-0.000000e+00	
202	5.000000e-02	1.932914e-04	
203	1.000000e-01	3.756074e-04	
204	1.500000e-01	5.474789e-04	
205	2.000000e-01	7.093596e-04	
206	2.500000e-01	8.616663e-04	
207	3.000000e-01	1.004789e-03	
208	3.500000e-01	1.139095e-03	
209	4.000000e-01	1.264931e-03	
210	4.500000e-01	1.382620e-03	
211	5.000000e-01	1.492468e-03	
212	5.500000e-01	1.594757e-03	
213	6.000000e-01	1.689748e-03	
214	6.500000e-01	1.777676e-03	
215	7.000000e-01	1.858749e-03	
216	7.500000e-01	1.933137e-03	
217	8.000000e-01	2.000968e-03	
218	8.500000e-01	2.062314e-03	
219	9.000000e-01	2.117194e-03	
220	9.500000e-01	2.165595e-03	
221	1.000000e+00	2.207550e-03	
222	1.050000e+00	2.243265e-03	
223	1.100000e+00	2.273234e-03	
224	1.150000e+00	2.298235e-03	
225	1.200000e+00	2.319180e-03	
226	1.250000e+00	2.336943e-03	
227	1.300000e+00	2.352257e-03	
228	1.350000e+00	2.365693e-03	

Index   v-sweep         -i(vds)         
--------------------------------------------------------------------------------
229	1.400000e+00	2.377678e-03	
230	1.450000e+00	2.388528e-03	
231	1.500000e+00	2.398479e-03	
232	1.550000e+00	2.407705e-03	
233	1.600000e+00	2.416339e-03	
234	1.650000e+00	2.424483e-03	
235	1.700000e+00	2.432218e-03	
236	1.750000e+00	2.439604e-03	
237	1.800000e+00	2.446693e-03	
238	1.850000e+00	2.453525e-03	
239	1.900000e+00	2.460133e-03	
240	1.950000e+00	2.466545e-03	
241	2.000000e+00	2.472784e-03	
242	2.050000e+00	2.478868e-03	
243	2.100000e+00	2.484815e-03	
244	2.150000e+00	2.490638e-03	
245	2.200000e+00	2.496350e-03	
246	2.250000e+00	2.501960e-03	
247	2.300000e+00	2.507479e-03	
248	2.350000e+00	2.512913e-03	
249	2.400000e+00	2.518272e-03	
250	2.450000e+00	2.523560e-03	
251	2.500000e+00	2.528785e-03	
252	2.550000e+00	2.533953e-03	
253	2.600000e+00	2.539068e-03	
254	2.650000e+00	2.544137e-03	
255	2.700000e+00	2.549165e-03	
256	2.750000e+00	2.554158e-03	
257	2.800000e+00	2.559123e-03	
258	2.850000e+00	2.564068e-03	
259	2.900000e+00	2.568999e-03	
260	2.950000e+00	2.573927e-03	
261	3.000000e+00	2.578860e-03	
262	3.050000e+00	2.583810e-03	
263	3.100000e+00	2.588790e-03	
264	3.150000e+00	2.593814e-03	
265	3.200000e+00	2.598899e-03	
266	3.250000e+00	2.604062e-03	
267	3.300000e+00	2.609324e-03	
268	0.000000e+00	-0.000000e+00	
269	5.000000e-02	2.222092e-04	
270	1.000000e-01	4.338271e-04	
271	1.500000e-01	6.353203e-04	
272	2.000000e-01	8.270843e-04	
273	2.500000e-01	1.009483e-03	
274	3.000000e-01	1.182861e-03	
275	3.500000e-01	1.347542e-03	
276	4.000000e-01	1.503836e-03	
277	4.500000e-01	1.652035e-03	
278	5.000000e-01	1.792418e-03	
279	5.500000e-01	1.925248e-03	
280	6.000000e-01	2.050773e-03	
281	6.500000e-01	2.169225e-03	
282	7.000000e-01	2.280823e-03	
283	7.500000e-01	2.385767e-03	
284	8.000000e-01	2.484236e-03	
285	8.500000e-01	2.576389e-03	
286	9.000000e-01	2.662353e-03	

Index   v-sweep         -i(vds)         
--------------------------------------------------------------------------------
287	9.500000e-01	2.742221e-03	
288	1.000000e+00	2.816035e-03	
289	1.050000e+00	2.883785e-03	
290	1.100000e+00	2.945398e-03	
291	1.150000e+00	3.000757e-03	
292	1.200000e+00	3.049768e-03	
293	1.250000e+00	3.092463e-03	
294	1.300000e+00	3.129123e-03	
295	1.350000e+00	3.160319e-03	
296	1.400000e+00	3.186831e-03	
297	1.450000e+00	3.209495e-03	
298	1.500000e+00	3.229086e-03	
299	1.550000e+00	3.246250e-03	
300	1.600000e+00	3.261498e-03	
301	1.650000e+00	3.275226e-03	
302	1.700000e+00	3.287735e-03	
303	1.750000e+00	3.299256e-03	
304	1.800000e+00	3.309965e-03	
305	1.850000e+00	3.320001e-03	
306	1.900000e+00	3.329471e-03	
307	1.950000e+00	3.338461e-03	
308	2.000000e+00	3.347040e-03	
309	2.050000e+00	3.355263e-03	
310	2.100000e+00	3.363177e-03	
311	2.150000e+00	3.370820e-03	
312	2.200000e+00	3.378223e-03	
313	2.250000e+00	3.385413e-03	
314	2.300000e+00	3.392412e-03	
315	2.350000e+00	3.399240e-03	
316	2.400000e+00	3.405915e-03	
317	2.450000e+00	3.412449e-03	
318	2.500000e+00	3.418857e-03	
319	2.550000e+00	3.425149e-03	
320	2.600000e+00	3.431335e-03	
321	2.650000e+00	3.437425e-03	
322	2.700000e+00	3.443427e-03	
323	2.750000e+00	3.449348e-03	
324	2.800000e+00	3.455197e-03	
325	2.850000e+00	3.460981e-03	
326	2.900000e+00	3.466709e-03	
327	2.950000e+00	3.472387e-03	
328	3.000000e+00	3.478025e-03	
329	3.050000e+00	3.483632e-03	
330	3.100000e+00	3.489219e-03	
331	3.150000e+00	3.494797e-03	
332	3.200000e+00	3.500380e-03	
333	3.250000e+00	3.505982e-03	
334	3.300000e+00	3.511621e-03	
335	0.000000e+00	-0.000000e+00	
336	5.000000e-02	2.444781e-04	
337	1.000000e-01	4.788742e-04	
338	1.500000e-01	7.035978e-04	
339	2.000000e-01	9.189918e-04	
340	2.500000e-01	1.125372e-03	
341	3.000000e-01	1.323038e-03	
342	3.500000e-01	1.512275e-03	
343	4.000000e-01	1.693355e-03	
344	4.500000e-01	1.866537e-03	

Index   v-sweep         -i(vds)         
--------------------------------------------------------------------------------
345	5.000000e-01	2.032071e-03	
346	5.500000e-01	2.190192e-03	
347	6.000000e-01	2.341128e-03	
348	6.500000e-01	2.485092e-03	
349	7.000000e-01	2.622290e-03	
350	7.500000e-01	2.752914e-03	
351	8.000000e-01	2.877148e-03	
352	8.500000e-01	2.995160e-03	
353	9.000000e-01	3.107108e-03	
354	9.500000e-01	3.213132e-03	
355	1.000000e+00	3.313354e-03	
356	1.050000e+00	3.407874e-03	
357	1.100000e+00	3.496761e-03	
358	1.150000e+00	3.580047e-03	
359	1.200000e+00	3.657716e-03	
360	1.250000e+00	3.729692e-03	
361	1.300000e+00	3.795842e-03	
362	1.350000e+00	3.855986e-03	
363	1.400000e+00	3.909957e-03	
364	1.450000e+00	3.957693e-03	
365	1.500000e+00	3.999350e-03	
366	1.550000e+00	4.035351e-03	
367	1.600000e+00	4.066347e-03	
368	1.650000e+00	4.093100e-03	
369	1.700000e+00	4.116362e-03	
370	1.750000e+00	4.136796e-03	
371	1.800000e+00	4.154957e-03	
372	1.850000e+00	4.171284e-03	
373	1.900000e+00	4.186123e-03	
374	1.950000e+00	4.199747e-03	
375	2.000000e+00	4.212365e-03	
376	2.050000e+00	4.224144e-03	
377	2.100000e+00	4.235216e-03	
378	2.150000e+00	4.245686e-03	
379	2.200000e+00	4.255640e-03	
380	2.250000e+00	4.265146e-03	
381	2.300000e+00	4.274263e-03	
382	2.350000e+00	4.283038e-03	
383	2.400000e+00	4.291510e-03	
384	2.450000e+00	4.299713e-03	
385	2.500000e+00	4.307675e-03	
386	2.550000e+00	4.315422e-03	
387	2.600000e+00	4.322973e-03	
388	2.650000e+00	4.330348e-03	
389	2.700000e+00	4.337563e-03	
390	2.750000e+00	4.344631e-03	
391	2.800000e+00	4.351565e-03	
392	2.850000e+00	4.358377e-03	
393	2.900000e+00	4.365078e-03	
394	2.950000e+00	4.371677e-03	
395	3.000000e+00	4.378184e-03	
396	3.050000e+00	4.384609e-03	
397	3.100000e+00	4.390961e-03	
398	3.150000e+00	4.397251e-03	
399	3.200000e+00	4.403489e-03	
400	3.250000e+00	4.409687e-03	
401	3.300000e+00	4.415858e-03	
Note: No ".plot", ".print", or ".fourier" lines; no simulations run
