
Note: Compatibility modes selected: hs

Warning: m=xx on .subckt line will override multiplier m hierarchy!


Circuit: ***************************

Doing analysis at TEMP = 125.000000 and TNOM = 125.000000


No. of Data Rows : 402
                          ***************************
                          DC transfer characteristic  Mon Jan  9 13:57:19  2023
--------------------------------------------------------------------------------
Index   v-sweep         -i(vds)         
--------------------------------------------------------------------------------
0	0.000000e+00	-0.000000e+00	
1	5.000000e-02	3.084701e-08	
2	1.000000e-01	5.386296e-08	
3	1.500000e-01	7.053090e-08	
4	2.000000e-01	8.125038e-08	
5	2.500000e-01	8.640967e-08	
6	3.000000e-01	8.775767e-08	
7	3.500000e-01	8.801972e-08	
8	4.000000e-01	8.811485e-08	
9	4.500000e-01	8.817250e-08	
10	5.000000e-01	8.821667e-08	
11	5.500000e-01	8.825431e-08	
12	6.000000e-01	8.828816e-08	
13	6.500000e-01	8.831953e-08	
14	7.000000e-01	8.834915e-08	
15	7.500000e-01	8.837746e-08	
16	8.000000e-01	8.840474e-08	
17	8.500000e-01	8.843121e-08	
18	9.000000e-01	8.845700e-08	
19	9.500000e-01	8.848223e-08	
20	1.000000e+00	8.850697e-08	
21	1.050000e+00	8.853130e-08	
22	1.100000e+00	8.855527e-08	
23	1.150000e+00	8.857892e-08	
24	1.200000e+00	8.860229e-08	
25	1.250000e+00	8.862540e-08	
26	1.300000e+00	8.864829e-08	
27	1.350000e+00	8.867097e-08	
28	1.400000e+00	8.869347e-08	
29	1.450000e+00	8.871580e-08	
30	1.500000e+00	8.873797e-08	
31	1.550000e+00	8.875999e-08	
32	1.600000e+00	8.878189e-08	
33	1.650000e+00	8.880368e-08	
34	1.700000e+00	8.882536e-08	
35	1.750000e+00	8.884695e-08	
36	1.800000e+00	8.886847e-08	
37	1.850000e+00	8.888995e-08	
38	1.900000e+00	8.891140e-08	
39	1.950000e+00	8.893288e-08	
40	2.000000e+00	8.895442e-08	
41	2.050000e+00	8.897609e-08	
42	2.100000e+00	8.899796e-08	
43	2.150000e+00	8.902012e-08	
44	2.200000e+00	8.904270e-08	
45	2.250000e+00	8.906583e-08	
46	2.300000e+00	8.908968e-08	
47	2.350000e+00	8.911445e-08	
48	2.400000e+00	8.914038e-08	
49	2.450000e+00	8.916774e-08	
50	2.500000e+00	8.919686e-08	
51	2.550000e+00	8.922808e-08	
52	2.600000e+00	8.926182e-08	
53	2.650000e+00	8.929853e-08	
54	2.700000e+00	8.933873e-08	

Index   v-sweep         -i(vds)         
--------------------------------------------------------------------------------
55	2.750000e+00	8.938298e-08	
56	2.800000e+00	8.943190e-08	
57	2.850000e+00	8.948617e-08	
58	2.900000e+00	8.954652e-08	
59	2.950000e+00	8.961376e-08	
60	3.000000e+00	8.968873e-08	
61	3.050000e+00	8.977237e-08	
62	3.100000e+00	8.986563e-08	
63	3.150000e+00	8.996957e-08	
64	3.200000e+00	9.008527e-08	
65	3.250000e+00	9.021389e-08	
66	3.300000e+00	9.035664e-08	
67	0.000000e+00	-0.000000e+00	
68	5.000000e-02	7.843363e-08	
69	1.000000e-01	1.486937e-07	
70	1.500000e-01	2.122540e-07	
71	2.000000e-01	2.694718e-07	
72	2.500000e-01	3.204406e-07	
73	3.000000e-01	3.651920e-07	
74	3.500000e-01	4.037440e-07	
75	4.000000e-01	4.361130e-07	
76	4.500000e-01	4.623204e-07	
77	5.000000e-01	4.824031e-07	
78	5.500000e-01	4.964545e-07	
79	6.000000e-01	5.048008e-07	
80	6.500000e-01	5.085760e-07	
81	7.000000e-01	5.099449e-07	
82	7.500000e-01	5.105135e-07	
83	8.000000e-01	5.108334e-07	
84	8.500000e-01	5.110568e-07	
85	9.000000e-01	5.112331e-07	
86	9.500000e-01	5.113824e-07	
87	1.000000e+00	5.115143e-07	
88	1.050000e+00	5.116341e-07	
89	1.100000e+00	5.117449e-07	
90	1.150000e+00	5.118488e-07	
91	1.200000e+00	5.119472e-07	
92	1.250000e+00	5.120411e-07	
93	1.300000e+00	5.121313e-07	
94	1.350000e+00	5.122184e-07	
95	1.400000e+00	5.123028e-07	
96	1.450000e+00	5.123848e-07	
97	1.500000e+00	5.124647e-07	
98	1.550000e+00	5.125429e-07	
99	1.600000e+00	5.126194e-07	
100	1.650000e+00	5.126945e-07	
101	1.700000e+00	5.127683e-07	
102	1.750000e+00	5.128408e-07	
103	1.800000e+00	5.129123e-07	
104	1.850000e+00	5.129829e-07	
105	1.900000e+00	5.130525e-07	
106	1.950000e+00	5.131213e-07	
107	2.000000e+00	5.131894e-07	
108	2.050000e+00	5.132568e-07	
109	2.100000e+00	5.133236e-07	
110	2.150000e+00	5.133900e-07	
111	2.200000e+00	5.134560e-07	
112	2.250000e+00	5.135218e-07	

Index   v-sweep         -i(vds)         
--------------------------------------------------------------------------------
113	2.300000e+00	5.135877e-07	
114	2.350000e+00	5.136538e-07	
115	2.400000e+00	5.137205e-07	
116	2.450000e+00	5.137882e-07	
117	2.500000e+00	5.138574e-07	
118	2.550000e+00	5.139288e-07	
119	2.600000e+00	5.140032e-07	
120	2.650000e+00	5.140814e-07	
121	2.700000e+00	5.141646e-07	
122	2.750000e+00	5.142542e-07	
123	2.800000e+00	5.143516e-07	
124	2.850000e+00	5.144587e-07	
125	2.900000e+00	5.145774e-07	
126	2.950000e+00	5.147102e-07	
127	3.000000e+00	5.148595e-07	
128	3.050000e+00	5.150284e-07	
129	3.100000e+00	5.152200e-07	
130	3.150000e+00	5.154379e-07	
131	3.200000e+00	5.156860e-07	
132	3.250000e+00	5.159685e-07	
133	3.300000e+00	5.162900e-07	
134	0.000000e+00	-0.000000e+00	
135	5.000000e-02	1.220533e-07	
136	1.000000e-01	2.362120e-07	
137	1.500000e-01	3.439489e-07	
138	2.000000e-01	4.456199e-07	
139	2.500000e-01	5.413170e-07	
140	3.000000e-01	6.310700e-07	
141	3.500000e-01	7.148940e-07	
142	4.000000e-01	7.928006e-07	
143	4.500000e-01	8.648005e-07	
144	5.000000e-01	9.309046e-07	
145	5.500000e-01	9.911235e-07	
146	6.000000e-01	1.045469e-06	
147	6.500000e-01	1.093951e-06	
148	7.000000e-01	1.136584e-06	
149	7.500000e-01	1.173382e-06	
150	8.000000e-01	1.204365e-06	
151	8.500000e-01	1.229561e-06	
152	9.000000e-01	1.249030e-06	
153	9.500000e-01	1.262919e-06	
154	1.000000e+00	1.271644e-06	
155	1.050000e+00	1.276269e-06	
156	1.100000e+00	1.278477e-06	
157	1.150000e+00	1.279620e-06	
158	1.200000e+00	1.280326e-06	
159	1.250000e+00	1.280830e-06	
160	1.300000e+00	1.281227e-06	
161	1.350000e+00	1.281560e-06	
162	1.400000e+00	1.281849e-06	
163	1.450000e+00	1.282108e-06	
164	1.500000e+00	1.282345e-06	
165	1.550000e+00	1.282564e-06	
166	1.600000e+00	1.282769e-06	
167	1.650000e+00	1.282963e-06	
168	1.700000e+00	1.283147e-06	
169	1.750000e+00	1.283323e-06	
170	1.800000e+00	1.283493e-06	

Index   v-sweep         -i(vds)         
--------------------------------------------------------------------------------
171	1.850000e+00	1.283656e-06	
172	1.900000e+00	1.283814e-06	
173	1.950000e+00	1.283967e-06	
174	2.000000e+00	1.284116e-06	
175	2.050000e+00	1.284262e-06	
176	2.100000e+00	1.284404e-06	
177	2.150000e+00	1.284543e-06	
178	2.200000e+00	1.284680e-06	
179	2.250000e+00	1.284814e-06	
180	2.300000e+00	1.284945e-06	
181	2.350000e+00	1.285075e-06	
182	2.400000e+00	1.285203e-06	
183	2.450000e+00	1.285329e-06	
184	2.500000e+00	1.285453e-06	
185	2.550000e+00	1.285577e-06	
186	2.600000e+00	1.285699e-06	
187	2.650000e+00	1.285821e-06	
188	2.700000e+00	1.285943e-06	
189	2.750000e+00	1.286066e-06	
190	2.800000e+00	1.286190e-06	
191	2.850000e+00	1.286317e-06	
192	2.900000e+00	1.286448e-06	
193	2.950000e+00	1.286584e-06	
194	3.000000e+00	1.286728e-06	
195	3.050000e+00	1.286882e-06	
196	3.100000e+00	1.287048e-06	
197	3.150000e+00	1.287231e-06	
198	3.200000e+00	1.287433e-06	
199	3.250000e+00	1.287660e-06	
200	3.300000e+00	1.287917e-06	
201	0.000000e+00	-0.000000e+00	
202	5.000000e-02	1.602839e-07	
203	1.000000e-01	3.130977e-07	
204	1.500000e-01	4.599130e-07	
205	2.000000e-01	6.010845e-07	
206	2.500000e-01	7.367032e-07	
207	3.000000e-01	8.667974e-07	
208	3.500000e-01	9.913811e-07	
209	4.000000e-01	1.110465e-06	
210	4.500000e-01	1.224057e-06	
211	5.000000e-01	1.332169e-06	
212	5.500000e-01	1.434807e-06	
213	6.000000e-01	1.531983e-06	
214	6.500000e-01	1.623705e-06	
215	7.000000e-01	1.709983e-06	
216	7.500000e-01	1.790824e-06	
217	8.000000e-01	1.866240e-06	
218	8.500000e-01	1.936239e-06	
219	9.000000e-01	2.000831e-06	
220	9.500000e-01	2.060025e-06	
221	1.000000e+00	2.113831e-06	
222	1.050000e+00	2.162261e-06	
223	1.100000e+00	2.205325e-06	
224	1.150000e+00	2.243037e-06	
225	1.200000e+00	2.275416e-06	
226	1.250000e+00	2.302489e-06	
227	1.300000e+00	2.324303e-06	
228	1.350000e+00	2.340964e-06	

Index   v-sweep         -i(vds)         
--------------------------------------------------------------------------------
229	1.400000e+00	2.352722e-06	
230	1.450000e+00	2.360182e-06	
231	1.500000e+00	2.364467e-06	
232	1.550000e+00	2.366892e-06	
233	1.600000e+00	2.368389e-06	
234	1.650000e+00	2.369425e-06	
235	1.700000e+00	2.370212e-06	
236	1.750000e+00	2.370851e-06	
237	1.800000e+00	2.371393e-06	
238	1.850000e+00	2.371869e-06	
239	1.900000e+00	2.372295e-06	
240	1.950000e+00	2.372683e-06	
241	2.000000e+00	2.373041e-06	
242	2.050000e+00	2.373376e-06	
243	2.100000e+00	2.373691e-06	
244	2.150000e+00	2.373989e-06	
245	2.200000e+00	2.374273e-06	
246	2.250000e+00	2.374545e-06	
247	2.300000e+00	2.374806e-06	
248	2.350000e+00	2.375058e-06	
249	2.400000e+00	2.375302e-06	
250	2.450000e+00	2.375538e-06	
251	2.500000e+00	2.375768e-06	
252	2.550000e+00	2.375992e-06	
253	2.600000e+00	2.376210e-06	
254	2.650000e+00	2.376423e-06	
255	2.700000e+00	2.376632e-06	
256	2.750000e+00	2.376836e-06	
257	2.800000e+00	2.377037e-06	
258	2.850000e+00	2.377235e-06	
259	2.900000e+00	2.377429e-06	
260	2.950000e+00	2.377621e-06	
261	3.000000e+00	2.377812e-06	
262	3.050000e+00	2.378000e-06	
263	3.100000e+00	2.378189e-06	
264	3.150000e+00	2.378377e-06	
265	3.200000e+00	2.378568e-06	
266	3.250000e+00	2.378762e-06	
267	3.300000e+00	2.378963e-06	
268	0.000000e+00	-0.000000e+00	
269	5.000000e-02	1.927096e-07	
270	1.000000e-01	3.784247e-07	
271	1.500000e-01	5.586156e-07	
272	2.000000e-01	7.336359e-07	
273	2.500000e-01	9.035753e-07	
274	3.000000e-01	1.068461e-06	
275	3.500000e-01	1.228306e-06	
276	4.000000e-01	1.383118e-06	
277	4.500000e-01	1.532907e-06	
278	5.000000e-01	1.677681e-06	
279	5.500000e-01	1.817447e-06	
280	6.000000e-01	1.952213e-06	
281	6.500000e-01	2.081987e-06	
282	7.000000e-01	2.206778e-06	
283	7.500000e-01	2.326593e-06	
284	8.000000e-01	2.441440e-06	
285	8.500000e-01	2.551327e-06	
286	9.000000e-01	2.656261e-06	

Index   v-sweep         -i(vds)         
--------------------------------------------------------------------------------
287	9.500000e-01	2.756252e-06	
288	1.000000e+00	2.851306e-06	
289	1.050000e+00	2.941432e-06	
290	1.100000e+00	3.026637e-06	
291	1.150000e+00	3.106930e-06	
292	1.200000e+00	3.182318e-06	
293	1.250000e+00	3.252810e-06	
294	1.300000e+00	3.318413e-06	
295	1.350000e+00	3.379136e-06	
296	1.400000e+00	3.434987e-06	
297	1.450000e+00	3.485975e-06	
298	1.500000e+00	3.532110e-06	
299	1.550000e+00	3.573403e-06	
300	1.600000e+00	3.609866e-06	
301	1.650000e+00	3.641517e-06	
302	1.700000e+00	3.668382e-06	
303	1.750000e+00	3.690505e-06	
304	1.800000e+00	3.707978e-06	
305	1.850000e+00	3.721000e-06	
306	1.900000e+00	3.730007e-06	
307	1.950000e+00	3.735801e-06	
308	2.000000e+00	3.739428e-06	
309	2.050000e+00	3.741792e-06	
310	2.100000e+00	3.743458e-06	
311	2.150000e+00	3.744722e-06	
312	2.200000e+00	3.745740e-06	
313	2.250000e+00	3.746596e-06	
314	2.300000e+00	3.747338e-06	
315	2.350000e+00	3.747998e-06	
316	2.400000e+00	3.748593e-06	
317	2.450000e+00	3.749139e-06	
318	2.500000e+00	3.749645e-06	
319	2.550000e+00	3.750118e-06	
320	2.600000e+00	3.750563e-06	
321	2.650000e+00	3.750985e-06	
322	2.700000e+00	3.751386e-06	
323	2.750000e+00	3.751770e-06	
324	2.800000e+00	3.752138e-06	
325	2.850000e+00	3.752493e-06	
326	2.900000e+00	3.752835e-06	
327	2.950000e+00	3.753167e-06	
328	3.000000e+00	3.753489e-06	
329	3.050000e+00	3.753802e-06	
330	3.100000e+00	3.754107e-06	
331	3.150000e+00	3.754404e-06	
332	3.200000e+00	3.754695e-06	
333	3.250000e+00	3.754980e-06	
334	3.300000e+00	3.755259e-06	
335	0.000000e+00	-0.000000e+00	
336	5.000000e-02	2.193848e-07	
337	1.000000e-01	4.322619e-07	
338	1.500000e-01	6.401005e-07	
339	2.000000e-01	8.432531e-07	
340	2.500000e-01	1.041808e-06	
341	3.000000e-01	1.235791e-06	
342	3.500000e-01	1.425215e-06	
343	4.000000e-01	1.610086e-06	
344	4.500000e-01	1.790413e-06	

Index   v-sweep         -i(vds)         
--------------------------------------------------------------------------------
345	5.000000e-01	1.966201e-06	
346	5.500000e-01	2.137459e-06	
347	6.000000e-01	2.304191e-06	
348	6.500000e-01	2.466407e-06	
349	7.000000e-01	2.624111e-06	
350	7.500000e-01	2.777312e-06	
351	8.000000e-01	2.926015e-06	
352	8.500000e-01	3.070228e-06	
353	9.000000e-01	3.209958e-06	
354	9.500000e-01	3.345210e-06	
355	1.000000e+00	3.475992e-06	
356	1.050000e+00	3.602311e-06	
357	1.100000e+00	3.724172e-06	
358	1.150000e+00	3.841584e-06	
359	1.200000e+00	3.954552e-06	
360	1.250000e+00	4.063083e-06	
361	1.300000e+00	4.167184e-06	
362	1.350000e+00	4.266862e-06	
363	1.400000e+00	4.362122e-06	
364	1.450000e+00	4.452973e-06	
365	1.500000e+00	4.539420e-06	
366	1.550000e+00	4.621470e-06	
367	1.600000e+00	4.699131e-06	
368	1.650000e+00	4.772407e-06	
369	1.700000e+00	4.841308e-06	
370	1.750000e+00	4.905838e-06	
371	1.800000e+00	4.966005e-06	
372	1.850000e+00	5.021817e-06	
373	1.900000e+00	5.073281e-06	
374	1.950000e+00	5.120404e-06	
375	2.000000e+00	5.163195e-06	
376	2.050000e+00	5.201664e-06	
377	2.100000e+00	5.235823e-06	
378	2.150000e+00	5.265689e-06	
379	2.200000e+00	5.291287e-06	
380	2.250000e+00	5.312661e-06	
381	2.300000e+00	5.329896e-06	
382	2.350000e+00	5.343169e-06	
383	2.400000e+00	5.352836e-06	
384	2.450000e+00	5.359519e-06	
385	2.500000e+00	5.364039e-06	
386	2.550000e+00	5.367167e-06	
387	2.600000e+00	5.369447e-06	
388	2.650000e+00	5.371207e-06	
389	2.700000e+00	5.372633e-06	
390	2.750000e+00	5.373833e-06	
391	2.800000e+00	5.374873e-06	
392	2.850000e+00	5.375793e-06	
393	2.900000e+00	5.376621e-06	
394	2.950000e+00	5.377378e-06	
395	3.000000e+00	5.378076e-06	
396	3.050000e+00	5.378726e-06	
397	3.100000e+00	5.379336e-06	
398	3.150000e+00	5.379912e-06	
399	3.200000e+00	5.380458e-06	
400	3.250000e+00	5.380979e-06	
401	3.300000e+00	5.381477e-06	
Note: No ".plot", ".print", or ".fourier" lines; no simulations run
