
Note: Compatibility modes selected: hs

Warning: m=xx on .subckt line will override multiplier m hierarchy!


Circuit: ***************************

Doing analysis at TEMP = 25.000000 and TNOM = 25.000000


No. of Data Rows : 402
                          ***************************
                          DC transfer characteristic  Mon Jan  9 13:57:17  2023
--------------------------------------------------------------------------------
Index   v-sweep         -i(vds)         
--------------------------------------------------------------------------------
0	0.000000e+00	-0.000000e+00	
1	5.000000e-02	1.215003e-06	
2	1.000000e-01	1.922526e-06	
3	1.500000e-01	2.230936e-06	
4	2.000000e-01	2.340501e-06	
5	2.500000e-01	2.390954e-06	
6	3.000000e-01	2.423566e-06	
7	3.500000e-01	2.448764e-06	
8	4.000000e-01	2.470008e-06	
9	4.500000e-01	2.488792e-06	
10	5.000000e-01	2.505893e-06	
11	5.500000e-01	2.521765e-06	
12	6.000000e-01	2.536699e-06	
13	6.500000e-01	2.550893e-06	
14	7.000000e-01	2.564487e-06	
15	7.500000e-01	2.577587e-06	
16	8.000000e-01	2.590270e-06	
17	8.500000e-01	2.602600e-06	
18	9.000000e-01	2.614624e-06	
19	9.500000e-01	2.626384e-06	
20	1.000000e+00	2.637911e-06	
21	1.050000e+00	2.649233e-06	
22	1.100000e+00	2.660373e-06	
23	1.150000e+00	2.671349e-06	
24	1.200000e+00	2.682179e-06	
25	1.250000e+00	2.692876e-06	
26	1.300000e+00	2.703453e-06	
27	1.350000e+00	2.713921e-06	
28	1.400000e+00	2.724289e-06	
29	1.450000e+00	2.734567e-06	
30	1.500000e+00	2.744761e-06	
31	1.550000e+00	2.754879e-06	
32	1.600000e+00	2.764928e-06	
33	1.650000e+00	2.774913e-06	
34	1.700000e+00	2.784841e-06	
35	1.750000e+00	2.794719e-06	
36	1.800000e+00	2.804551e-06	
37	1.850000e+00	2.814345e-06	
38	1.900000e+00	2.824108e-06	
39	1.950000e+00	2.833847e-06	
40	2.000000e+00	2.843570e-06	
41	2.050000e+00	2.853286e-06	
42	2.100000e+00	2.863005e-06	
43	2.150000e+00	2.872739e-06	
44	2.200000e+00	2.882499e-06	
45	2.250000e+00	2.892300e-06	
46	2.300000e+00	2.902156e-06	
47	2.350000e+00	2.912086e-06	
48	2.400000e+00	2.922108e-06	
49	2.450000e+00	2.932242e-06	
50	2.500000e+00	2.942513e-06	
51	2.550000e+00	2.952944e-06	
52	2.600000e+00	2.963563e-06	
53	2.650000e+00	2.974401e-06	
54	2.700000e+00	2.985490e-06	

Index   v-sweep         -i(vds)         
--------------------------------------------------------------------------------
55	2.750000e+00	2.996864e-06	
56	2.800000e+00	3.008563e-06	
57	2.850000e+00	3.020626e-06	
58	2.900000e+00	3.033097e-06	
59	2.950000e+00	3.046024e-06	
60	3.000000e+00	3.059457e-06	
61	3.050000e+00	3.073448e-06	
62	3.100000e+00	3.088055e-06	
63	3.150000e+00	3.103336e-06	
64	3.200000e+00	3.119357e-06	
65	3.250000e+00	3.136184e-06	
66	3.300000e+00	3.153887e-06	
67	0.000000e+00	-0.000000e+00	
68	5.000000e-02	7.095397e-06	
69	1.000000e-01	1.339165e-05	
70	1.500000e-01	1.892333e-05	
71	2.000000e-01	2.372328e-05	
72	2.500000e-01	2.782289e-05	
73	3.000000e-01	3.125268e-05	
74	3.500000e-01	3.404354e-05	
75	4.000000e-01	3.622993e-05	
76	4.500000e-01	3.785862e-05	
77	5.000000e-01	3.900600e-05	
78	5.500000e-01	3.978811e-05	
79	6.000000e-01	4.033094e-05	
80	6.500000e-01	4.072894e-05	
81	7.000000e-01	4.103857e-05	
82	7.500000e-01	4.129142e-05	
83	8.000000e-01	4.150564e-05	
84	8.500000e-01	4.169219e-05	
85	9.000000e-01	4.185808e-05	
86	9.500000e-01	4.200802e-05	
87	1.000000e+00	4.214530e-05	
88	1.050000e+00	4.227230e-05	
89	1.100000e+00	4.239079e-05	
90	1.150000e+00	4.250212e-05	
91	1.200000e+00	4.260737e-05	
92	1.250000e+00	4.270738e-05	
93	1.300000e+00	4.280281e-05	
94	1.350000e+00	4.289424e-05	
95	1.400000e+00	4.298211e-05	
96	1.450000e+00	4.306683e-05	
97	1.500000e+00	4.314871e-05	
98	1.550000e+00	4.322804e-05	
99	1.600000e+00	4.330506e-05	
100	1.650000e+00	4.337997e-05	
101	1.700000e+00	4.345296e-05	
102	1.750000e+00	4.352418e-05	
103	1.800000e+00	4.359380e-05	
104	1.850000e+00	4.366192e-05	
105	1.900000e+00	4.372867e-05	
106	1.950000e+00	4.379416e-05	
107	2.000000e+00	4.385849e-05	
108	2.050000e+00	4.392176e-05	
109	2.100000e+00	4.398408e-05	
110	2.150000e+00	4.404553e-05	
111	2.200000e+00	4.410622e-05	
112	2.250000e+00	4.416627e-05	

Index   v-sweep         -i(vds)         
--------------------------------------------------------------------------------
113	2.300000e+00	4.422578e-05	
114	2.350000e+00	4.428489e-05	
115	2.400000e+00	4.434373e-05	
116	2.450000e+00	4.440245e-05	
117	2.500000e+00	4.446122e-05	
118	2.550000e+00	4.452024e-05	
119	2.600000e+00	4.457970e-05	
120	2.650000e+00	4.463985e-05	
121	2.700000e+00	4.470092e-05	
122	2.750000e+00	4.476320e-05	
123	2.800000e+00	4.482700e-05	
124	2.850000e+00	4.489266e-05	
125	2.900000e+00	4.496053e-05	
126	2.950000e+00	4.503103e-05	
127	3.000000e+00	4.510458e-05	
128	3.050000e+00	4.518165e-05	
129	3.100000e+00	4.526274e-05	
130	3.150000e+00	4.534841e-05	
131	3.200000e+00	4.543922e-05	
132	3.250000e+00	4.553581e-05	
133	3.300000e+00	4.563883e-05	
134	0.000000e+00	-0.000000e+00	
135	5.000000e-02	1.185230e-05	
136	1.000000e-01	2.285374e-05	
137	1.500000e-01	3.303652e-05	
138	2.000000e-01	4.243124e-05	
139	2.500000e-01	5.106695e-05	
140	3.000000e-01	5.897131e-05	
141	3.500000e-01	6.617056e-05	
142	4.000000e-01	7.268964e-05	
143	4.500000e-01	7.855220e-05	
144	5.000000e-01	8.378054e-05	
145	5.500000e-01	8.839553e-05	
146	6.000000e-01	9.241651e-05	
147	6.500000e-01	9.586127e-05	
148	7.000000e-01	9.874717e-05	
149	7.500000e-01	1.010964e-04	
150	8.000000e-01	1.029486e-04	
151	8.500000e-01	1.043745e-04	
152	9.000000e-01	1.054689e-04	
153	9.500000e-01	1.063240e-04	
154	1.000000e+00	1.070116e-04	
155	1.050000e+00	1.075808e-04	
156	1.100000e+00	1.080647e-04	
157	1.150000e+00	1.084851e-04	
158	1.200000e+00	1.088569e-04	
159	1.250000e+00	1.091906e-04	
160	1.300000e+00	1.094938e-04	
161	1.350000e+00	1.097720e-04	
162	1.400000e+00	1.100295e-04	
163	1.450000e+00	1.102695e-04	
164	1.500000e+00	1.104946e-04	
165	1.550000e+00	1.107067e-04	
166	1.600000e+00	1.109077e-04	
167	1.650000e+00	1.110988e-04	
168	1.700000e+00	1.112812e-04	
169	1.750000e+00	1.114558e-04	
170	1.800000e+00	1.116235e-04	

Index   v-sweep         -i(vds)         
--------------------------------------------------------------------------------
171	1.850000e+00	1.117849e-04	
172	1.900000e+00	1.119406e-04	
173	1.950000e+00	1.120911e-04	
174	2.000000e+00	1.122370e-04	
175	2.050000e+00	1.123785e-04	
176	2.100000e+00	1.125160e-04	
177	2.150000e+00	1.126499e-04	
178	2.200000e+00	1.127804e-04	
179	2.250000e+00	1.129078e-04	
180	2.300000e+00	1.130325e-04	
181	2.350000e+00	1.131545e-04	
182	2.400000e+00	1.132742e-04	
183	2.450000e+00	1.133918e-04	
184	2.500000e+00	1.135076e-04	
185	2.550000e+00	1.136219e-04	
186	2.600000e+00	1.137349e-04	
187	2.650000e+00	1.138469e-04	
188	2.700000e+00	1.139584e-04	
189	2.750000e+00	1.140698e-04	
190	2.800000e+00	1.141814e-04	
191	2.850000e+00	1.142937e-04	
192	2.900000e+00	1.144073e-04	
193	2.950000e+00	1.145227e-04	
194	3.000000e+00	1.146407e-04	
195	3.050000e+00	1.147619e-04	
196	3.100000e+00	1.148871e-04	
197	3.150000e+00	1.150172e-04	
198	3.200000e+00	1.151531e-04	
199	3.250000e+00	1.152959e-04	
200	3.300000e+00	1.154466e-04	
201	0.000000e+00	-0.000000e+00	
202	5.000000e-02	1.551425e-05	
203	1.000000e-01	3.017897e-05	
204	1.500000e-01	4.402281e-05	
205	2.000000e-01	5.707315e-05	
206	2.500000e-01	6.935612e-05	
207	3.000000e-01	8.089673e-05	
208	3.500000e-01	9.171888e-05	
209	4.000000e-01	1.018454e-04	
210	4.500000e-01	1.112981e-04	
211	5.000000e-01	1.200979e-04	
212	5.500000e-01	1.282645e-04	
213	6.000000e-01	1.358168e-04	
214	6.500000e-01	1.427724e-04	
215	7.000000e-01	1.491480e-04	
216	7.500000e-01	1.549585e-04	
217	8.000000e-01	1.602167e-04	
218	8.500000e-01	1.649329e-04	
219	9.000000e-01	1.691135e-04	
220	9.500000e-01	1.727607e-04	
221	1.000000e+00	1.758761e-04	
222	1.050000e+00	1.784707e-04	
223	1.100000e+00	1.805815e-04	
224	1.150000e+00	1.822773e-04	
225	1.200000e+00	1.836432e-04	
226	1.250000e+00	1.847596e-04	
227	1.300000e+00	1.856902e-04	
228	1.350000e+00	1.864819e-04	

Index   v-sweep         -i(vds)         
--------------------------------------------------------------------------------
229	1.400000e+00	1.871681e-04	
230	1.450000e+00	1.877727e-04	
231	1.500000e+00	1.883128e-04	
232	1.550000e+00	1.888008e-04	
233	1.600000e+00	1.892463e-04	
234	1.650000e+00	1.896565e-04	
235	1.700000e+00	1.900367e-04	
236	1.750000e+00	1.903916e-04	
237	1.800000e+00	1.907245e-04	
238	1.850000e+00	1.910384e-04	
239	1.900000e+00	1.913355e-04	
240	1.950000e+00	1.916178e-04	
241	2.000000e+00	1.918870e-04	
242	2.050000e+00	1.921444e-04	
243	2.100000e+00	1.923912e-04	
244	2.150000e+00	1.926284e-04	
245	2.200000e+00	1.928569e-04	
246	2.250000e+00	1.930774e-04	
247	2.300000e+00	1.932907e-04	
248	2.350000e+00	1.934973e-04	
249	2.400000e+00	1.936977e-04	
250	2.450000e+00	1.938926e-04	
251	2.500000e+00	1.940822e-04	
252	2.550000e+00	1.942671e-04	
253	2.600000e+00	1.944477e-04	
254	2.650000e+00	1.946244e-04	
255	2.700000e+00	1.947976e-04	
256	2.750000e+00	1.949677e-04	
257	2.800000e+00	1.951352e-04	
258	2.850000e+00	1.953006e-04	
259	2.900000e+00	1.954644e-04	
260	2.950000e+00	1.956272e-04	
261	3.000000e+00	1.957898e-04	
262	3.050000e+00	1.959527e-04	
263	3.100000e+00	1.961168e-04	
264	3.150000e+00	1.962830e-04	
265	3.200000e+00	1.964522e-04	
266	3.250000e+00	1.966257e-04	
267	3.300000e+00	1.968045e-04	
268	0.000000e+00	-0.000000e+00	
269	5.000000e-02	1.832581e-05	
270	1.000000e-01	3.582872e-05	
271	1.500000e-01	5.253366e-05	
272	2.000000e-01	6.846453e-05	
273	2.500000e-01	8.364429e-05	
274	3.000000e-01	9.809499e-05	
275	3.500000e-01	1.118378e-04	
276	4.000000e-01	1.248931e-04	
277	4.500000e-01	1.372805e-04	
278	5.000000e-01	1.490187e-04	
279	5.500000e-01	1.601257e-04	
280	6.000000e-01	1.706189e-04	
281	6.500000e-01	1.805149e-04	
282	7.000000e-01	1.898296e-04	
283	7.500000e-01	1.985779e-04	
284	8.000000e-01	2.067743e-04	
285	8.500000e-01	2.144321e-04	
286	9.000000e-01	2.215634e-04	

Index   v-sweep         -i(vds)         
--------------------------------------------------------------------------------
287	9.500000e-01	2.281792e-04	
288	1.000000e+00	2.342880e-04	
289	1.050000e+00	2.398959e-04	
290	1.100000e+00	2.450047e-04	
291	1.150000e+00	2.496108e-04	
292	1.200000e+00	2.537051e-04	
293	1.250000e+00	2.572767e-04	
294	1.300000e+00	2.603247e-04	
295	1.350000e+00	2.628734e-04	
296	1.400000e+00	2.649788e-04	
297	1.450000e+00	2.667169e-04	
298	1.500000e+00	2.681646e-04	
299	1.550000e+00	2.693879e-04	
300	1.600000e+00	2.704379e-04	
301	1.650000e+00	2.713533e-04	
302	1.700000e+00	2.721625e-04	
303	1.750000e+00	2.728866e-04	
304	1.800000e+00	2.735415e-04	
305	1.850000e+00	2.741394e-04	
306	1.900000e+00	2.746894e-04	
307	1.950000e+00	2.751990e-04	
308	2.000000e+00	2.756740e-04	
309	2.050000e+00	2.761191e-04	
310	2.100000e+00	2.765380e-04	
311	2.150000e+00	2.769341e-04	
312	2.200000e+00	2.773098e-04	
313	2.250000e+00	2.776674e-04	
314	2.300000e+00	2.780088e-04	
315	2.350000e+00	2.783356e-04	
316	2.400000e+00	2.786491e-04	
317	2.450000e+00	2.789507e-04	
318	2.500000e+00	2.792413e-04	
319	2.550000e+00	2.795218e-04	
320	2.600000e+00	2.797932e-04	
321	2.650000e+00	2.800560e-04	
322	2.700000e+00	2.803111e-04	
323	2.750000e+00	2.805591e-04	
324	2.800000e+00	2.808005e-04	
325	2.850000e+00	2.810360e-04	
326	2.900000e+00	2.812661e-04	
327	2.950000e+00	2.814914e-04	
328	3.000000e+00	2.817126e-04	
329	3.050000e+00	2.819303e-04	
330	3.100000e+00	2.821452e-04	
331	3.150000e+00	2.823581e-04	
332	3.200000e+00	2.825698e-04	
333	3.250000e+00	2.827813e-04	
334	3.300000e+00	2.829937e-04	
335	0.000000e+00	-0.000000e+00	
336	5.000000e-02	2.047820e-05	
337	1.000000e-01	4.017280e-05	
338	1.500000e-01	5.910522e-05	
339	2.000000e-01	7.729609e-05	
340	2.500000e-01	9.476532e-05	
341	3.000000e-01	1.115321e-04	
342	3.500000e-01	1.276150e-04	
343	4.000000e-01	1.430317e-04	
344	4.500000e-01	1.577996e-04	

Index   v-sweep         -i(vds)         
--------------------------------------------------------------------------------
345	5.000000e-01	1.719353e-04	
346	5.500000e-01	1.854548e-04	
347	6.000000e-01	1.983735e-04	
348	6.500000e-01	2.107065e-04	
349	7.000000e-01	2.224681e-04	
350	7.500000e-01	2.336722e-04	
351	8.000000e-01	2.443321e-04	
352	8.500000e-01	2.544607e-04	
353	9.000000e-01	2.640700e-04	
354	9.500000e-01	2.731719e-04	
355	1.000000e+00	2.817771e-04	
356	1.050000e+00	2.898959e-04	
357	1.100000e+00	2.975374e-04	
358	1.150000e+00	3.047092e-04	
359	1.200000e+00	3.114173e-04	
360	1.250000e+00	3.176650e-04	
361	1.300000e+00	3.234515e-04	
362	1.350000e+00	3.287711e-04	
363	1.400000e+00	3.336115e-04	
364	1.450000e+00	3.379548e-04	
365	1.500000e+00	3.417836e-04	
366	1.550000e+00	3.450932e-04	
367	1.600000e+00	3.479057e-04	
368	1.650000e+00	3.502724e-04	
369	1.700000e+00	3.522626e-04	
370	1.750000e+00	3.539477e-04	
371	1.800000e+00	3.553908e-04	
372	1.850000e+00	3.566425e-04	
373	1.900000e+00	3.577423e-04	
374	1.950000e+00	3.587203e-04	
375	2.000000e+00	3.595993e-04	
376	2.050000e+00	3.603968e-04	
377	2.100000e+00	3.611265e-04	
378	2.150000e+00	3.617990e-04	
379	2.200000e+00	3.624226e-04	
380	2.250000e+00	3.630044e-04	
381	2.300000e+00	3.635496e-04	
382	2.350000e+00	3.640630e-04	
383	2.400000e+00	3.645483e-04	
384	2.450000e+00	3.650085e-04	
385	2.500000e+00	3.654465e-04	
386	2.550000e+00	3.658644e-04	
387	2.600000e+00	3.662643e-04	
388	2.650000e+00	3.666477e-04	
389	2.700000e+00	3.670162e-04	
390	2.750000e+00	3.673711e-04	
391	2.800000e+00	3.677136e-04	
392	2.850000e+00	3.680445e-04	
393	2.900000e+00	3.683649e-04	
394	2.950000e+00	3.686756e-04	
395	3.000000e+00	3.689775e-04	
396	3.050000e+00	3.692712e-04	
397	3.100000e+00	3.695576e-04	
398	3.150000e+00	3.698373e-04	
399	3.200000e+00	3.701112e-04	
400	3.250000e+00	3.703801e-04	
401	3.300000e+00	3.706449e-04	
Note: No ".plot", ".print", or ".fourier" lines; no simulations run
