
Note: Compatibility modes selected: hs

Warning: m=xx on .subckt line will override multiplier m hierarchy!


Circuit: ***************************

Doing analysis at TEMP = 25.000000 and TNOM = 25.000000


No. of Data Rows : 402
                          ***************************
                          DC transfer characteristic  Mon Jan  9 13:57:17  2023
--------------------------------------------------------------------------------
Index   v-sweep         -i(vds)         
--------------------------------------------------------------------------------
0	0.000000e+00	-0.000000e+00	
1	5.000000e-02	7.946293e-06	
2	1.000000e-01	1.255913e-05	
3	1.500000e-01	1.434503e-05	
4	2.000000e-01	1.476069e-05	
5	2.500000e-01	1.489117e-05	
6	3.000000e-01	1.496350e-05	
7	3.500000e-01	1.501646e-05	
8	4.000000e-01	1.506038e-05	
9	4.500000e-01	1.509916e-05	
10	5.000000e-01	1.513464e-05	
11	5.500000e-01	1.516783e-05	
12	6.000000e-01	1.519932e-05	
13	6.500000e-01	1.522952e-05	
14	7.000000e-01	1.525869e-05	
15	7.500000e-01	1.528702e-05	
16	8.000000e-01	1.531466e-05	
17	8.500000e-01	1.534173e-05	
18	9.000000e-01	1.536829e-05	
19	9.500000e-01	1.539443e-05	
20	1.000000e+00	1.542019e-05	
21	1.050000e+00	1.544562e-05	
22	1.100000e+00	1.547076e-05	
23	1.150000e+00	1.549564e-05	
24	1.200000e+00	1.552028e-05	
25	1.250000e+00	1.554471e-05	
26	1.300000e+00	1.556895e-05	
27	1.350000e+00	1.559302e-05	
28	1.400000e+00	1.561693e-05	
29	1.450000e+00	1.564069e-05	
30	1.500000e+00	1.566431e-05	
31	1.550000e+00	1.568782e-05	
32	1.600000e+00	1.571122e-05	
33	1.650000e+00	1.573453e-05	
34	1.700000e+00	1.575775e-05	
35	1.750000e+00	1.578090e-05	
36	1.800000e+00	1.580401e-05	
37	1.850000e+00	1.582708e-05	
38	1.900000e+00	1.585014e-05	
39	1.950000e+00	1.587322e-05	
40	2.000000e+00	1.589634e-05	
41	2.050000e+00	1.591955e-05	
42	2.100000e+00	1.594287e-05	
43	2.150000e+00	1.596636e-05	
44	2.200000e+00	1.599006e-05	
45	2.250000e+00	1.601404e-05	
46	2.300000e+00	1.603837e-05	
47	2.350000e+00	1.606311e-05	
48	2.400000e+00	1.608835e-05	
49	2.450000e+00	1.611419e-05	
50	2.500000e+00	1.614072e-05	
51	2.550000e+00	1.616806e-05	
52	2.600000e+00	1.619633e-05	
53	2.650000e+00	1.622565e-05	
54	2.700000e+00	1.625617e-05	

Index   v-sweep         -i(vds)         
--------------------------------------------------------------------------------
55	2.750000e+00	1.628804e-05	
56	2.800000e+00	1.632142e-05	
57	2.850000e+00	1.635649e-05	
58	2.900000e+00	1.639344e-05	
59	2.950000e+00	1.643245e-05	
60	3.000000e+00	1.647373e-05	
61	3.050000e+00	1.651751e-05	
62	3.100000e+00	1.656402e-05	
63	3.150000e+00	1.661348e-05	
64	3.200000e+00	1.666617e-05	
65	3.250000e+00	1.672233e-05	
66	3.300000e+00	1.678224e-05	
67	0.000000e+00	-0.000000e+00	
68	5.000000e-02	4.365219e-05	
69	1.000000e-01	8.268928e-05	
70	1.500000e-01	1.172289e-04	
71	2.000000e-01	1.473849e-04	
72	2.500000e-01	1.732674e-04	
73	3.000000e-01	1.949840e-04	
74	3.500000e-01	2.126405e-04	
75	4.000000e-01	2.263484e-04	
76	4.500000e-01	2.362532e-04	
77	5.000000e-01	2.426557e-04	
78	5.500000e-01	2.462860e-04	
79	6.000000e-01	2.482533e-04	
80	6.500000e-01	2.494184e-04	
81	7.000000e-01	2.502020e-04	
82	7.500000e-01	2.507853e-04	
83	8.000000e-01	2.512511e-04	
84	8.500000e-01	2.516418e-04	
85	9.000000e-01	2.519809e-04	
86	9.500000e-01	2.522828e-04	
87	1.000000e+00	2.525566e-04	
88	1.050000e+00	2.528086e-04	
89	1.100000e+00	2.530432e-04	
90	1.150000e+00	2.532637e-04	
91	1.200000e+00	2.534723e-04	
92	1.250000e+00	2.536710e-04	
93	1.300000e+00	2.538613e-04	
94	1.350000e+00	2.540442e-04	
95	1.400000e+00	2.542207e-04	
96	1.450000e+00	2.543917e-04	
97	1.500000e+00	2.545576e-04	
98	1.550000e+00	2.547192e-04	
99	1.600000e+00	2.548768e-04	
100	1.650000e+00	2.550307e-04	
101	1.700000e+00	2.551815e-04	
102	1.750000e+00	2.553293e-04	
103	1.800000e+00	2.554744e-04	
104	1.850000e+00	2.556171e-04	
105	1.900000e+00	2.557576e-04	
106	1.950000e+00	2.558961e-04	
107	2.000000e+00	2.560327e-04	
108	2.050000e+00	2.561679e-04	
109	2.100000e+00	2.563017e-04	
110	2.150000e+00	2.564344e-04	
111	2.200000e+00	2.565664e-04	
112	2.250000e+00	2.566979e-04	

Index   v-sweep         -i(vds)         
--------------------------------------------------------------------------------
113	2.300000e+00	2.568294e-04	
114	2.350000e+00	2.569614e-04	
115	2.400000e+00	2.570942e-04	
116	2.450000e+00	2.572286e-04	
117	2.500000e+00	2.573652e-04	
118	2.550000e+00	2.575047e-04	
119	2.600000e+00	2.576482e-04	
120	2.650000e+00	2.577966e-04	
121	2.700000e+00	2.579510e-04	
122	2.750000e+00	2.581127e-04	
123	2.800000e+00	2.582831e-04	
124	2.850000e+00	2.584637e-04	
125	2.900000e+00	2.586561e-04	
126	2.950000e+00	2.588622e-04	
127	3.000000e+00	2.590840e-04	
128	3.050000e+00	2.593236e-04	
129	3.100000e+00	2.595833e-04	
130	3.150000e+00	2.598655e-04	
131	3.200000e+00	2.601730e-04	
132	3.250000e+00	2.605083e-04	
133	3.300000e+00	2.608746e-04	
134	0.000000e+00	-0.000000e+00	
135	5.000000e-02	7.337714e-05	
136	1.000000e-01	1.420702e-04	
137	1.500000e-01	2.061862e-04	
138	2.000000e-01	2.658285e-04	
139	2.500000e-01	3.210977e-04	
140	3.000000e-01	3.720908e-04	
141	3.500000e-01	4.189021e-04	
142	4.000000e-01	4.616224e-04	
143	4.500000e-01	5.003393e-04	
144	5.000000e-01	5.351369e-04	
145	5.500000e-01	5.660950e-04	
146	6.000000e-01	5.932879e-04	
147	6.500000e-01	6.167819e-04	
148	7.000000e-01	6.366324e-04	
149	7.500000e-01	6.528801e-04	
150	8.000000e-01	6.655673e-04	
151	8.500000e-01	6.748302e-04	
152	9.000000e-01	6.811133e-04	
153	9.500000e-01	6.852230e-04	
154	1.000000e+00	6.879793e-04	
155	1.050000e+00	6.899410e-04	
156	1.100000e+00	6.914257e-04	
157	1.150000e+00	6.926084e-04	
158	1.200000e+00	6.935888e-04	
159	1.250000e+00	6.944270e-04	
160	1.300000e+00	6.951609e-04	
161	1.350000e+00	6.958155e-04	
162	1.400000e+00	6.964084e-04	
163	1.450000e+00	6.969518e-04	
164	1.500000e+00	6.974549e-04	
165	1.550000e+00	6.979246e-04	
166	1.600000e+00	6.983662e-04	
167	1.650000e+00	6.987837e-04	
168	1.700000e+00	6.991807e-04	
169	1.750000e+00	6.995596e-04	
170	1.800000e+00	6.999228e-04	

Index   v-sweep         -i(vds)         
--------------------------------------------------------------------------------
171	1.850000e+00	7.002721e-04	
172	1.900000e+00	7.006089e-04	
173	1.950000e+00	7.009347e-04	
174	2.000000e+00	7.012505e-04	
175	2.050000e+00	7.015572e-04	
176	2.100000e+00	7.018558e-04	
177	2.150000e+00	7.021470e-04	
178	2.200000e+00	7.024314e-04	
179	2.250000e+00	7.027097e-04	
180	2.300000e+00	7.029825e-04	
181	2.350000e+00	7.032503e-04	
182	2.400000e+00	7.035140e-04	
183	2.450000e+00	7.037740e-04	
184	2.500000e+00	7.040312e-04	
185	2.550000e+00	7.042863e-04	
186	2.600000e+00	7.045403e-04	
187	2.650000e+00	7.047943e-04	
188	2.700000e+00	7.050496e-04	
189	2.750000e+00	7.053076e-04	
190	2.800000e+00	7.055699e-04	
191	2.850000e+00	7.058385e-04	
192	2.900000e+00	7.061156e-04	
193	2.950000e+00	7.064036e-04	
194	3.000000e+00	7.067053e-04	
195	3.050000e+00	7.070238e-04	
196	3.100000e+00	7.073626e-04	
197	3.150000e+00	7.077255e-04	
198	3.200000e+00	7.081167e-04	
199	3.250000e+00	7.085409e-04	
200	3.300000e+00	7.090030e-04	
201	0.000000e+00	-0.000000e+00	
202	5.000000e-02	9.606131e-05	
203	1.000000e-01	1.876233e-04	
204	1.500000e-01	2.747781e-04	
205	2.000000e-01	3.576154e-04	
206	2.500000e-01	4.362225e-04	
207	3.000000e-01	5.106841e-04	
208	3.500000e-01	5.810828e-04	
209	4.000000e-01	6.474986e-04	
210	4.500000e-01	7.100096e-04	
211	5.000000e-01	7.686915e-04	
212	5.500000e-01	8.236177e-04	
213	6.000000e-01	8.748592e-04	
214	6.500000e-01	9.224849e-04	
215	7.000000e-01	9.665605e-04	
216	7.500000e-01	1.007149e-03	
217	8.000000e-01	1.044309e-03	
218	8.500000e-01	1.078094e-03	
219	9.000000e-01	1.108549e-03	
220	9.500000e-01	1.135707e-03	
221	1.000000e+00	1.159582e-03	
222	1.050000e+00	1.180157e-03	
223	1.100000e+00	1.197378e-03	
224	1.150000e+00	1.211190e-03	
225	1.200000e+00	1.221675e-03	
226	1.250000e+00	1.229250e-03	
227	1.300000e+00	1.234627e-03	
228	1.350000e+00	1.238516e-03	

Index   v-sweep         -i(vds)         
--------------------------------------------------------------------------------
229	1.400000e+00	1.241441e-03	
230	1.450000e+00	1.243733e-03	
231	1.500000e+00	1.245597e-03	
232	1.550000e+00	1.247161e-03	
233	1.600000e+00	1.248504e-03	
234	1.650000e+00	1.249683e-03	
235	1.700000e+00	1.250734e-03	
236	1.750000e+00	1.251684e-03	
237	1.800000e+00	1.252551e-03	
238	1.850000e+00	1.253352e-03	
239	1.900000e+00	1.254096e-03	
240	1.950000e+00	1.254792e-03	
241	2.000000e+00	1.255448e-03	
242	2.050000e+00	1.256069e-03	
243	2.100000e+00	1.256658e-03	
244	2.150000e+00	1.257221e-03	
245	2.200000e+00	1.257760e-03	
246	2.250000e+00	1.258278e-03	
247	2.300000e+00	1.258776e-03	
248	2.350000e+00	1.259257e-03	
249	2.400000e+00	1.259723e-03	
250	2.450000e+00	1.260174e-03	
251	2.500000e+00	1.260613e-03	
252	2.550000e+00	1.261040e-03	
253	2.600000e+00	1.261457e-03	
254	2.650000e+00	1.261864e-03	
255	2.700000e+00	1.262263e-03	
256	2.750000e+00	1.262655e-03	
257	2.800000e+00	1.263041e-03	
258	2.850000e+00	1.263423e-03	
259	2.900000e+00	1.263802e-03	
260	2.950000e+00	1.264179e-03	
261	3.000000e+00	1.264558e-03	
262	3.050000e+00	1.264941e-03	
263	3.100000e+00	1.265329e-03	
264	3.150000e+00	1.265727e-03	
265	3.200000e+00	1.266138e-03	
266	3.250000e+00	1.266566e-03	
267	3.300000e+00	1.267016e-03	
268	0.000000e+00	-0.000000e+00	
269	5.000000e-02	1.127111e-04	
270	1.000000e-01	2.212240e-04	
271	1.500000e-01	3.256159e-04	
272	2.000000e-01	4.259620e-04	
273	2.500000e-01	5.223359e-04	
274	3.000000e-01	6.148091e-04	
275	3.500000e-01	7.034515e-04	
276	4.000000e-01	7.883314e-04	
277	4.500000e-01	8.695152e-04	
278	5.000000e-01	9.470679e-04	
279	5.500000e-01	1.021053e-03	
280	6.000000e-01	1.091532e-03	
281	6.500000e-01	1.158565e-03	
282	7.000000e-01	1.222210e-03	
283	7.500000e-01	1.282525e-03	
284	8.000000e-01	1.339566e-03	
285	8.500000e-01	1.393385e-03	
286	9.000000e-01	1.444035e-03	

Index   v-sweep         -i(vds)         
--------------------------------------------------------------------------------
287	9.500000e-01	1.491564e-03	
288	1.000000e+00	1.536021e-03	
289	1.050000e+00	1.577448e-03	
290	1.100000e+00	1.615885e-03	
291	1.150000e+00	1.651364e-03	
292	1.200000e+00	1.683910e-03	
293	1.250000e+00	1.713529e-03	
294	1.300000e+00	1.740207e-03	
295	1.350000e+00	1.763893e-03	
296	1.400000e+00	1.784486e-03	
297	1.450000e+00	1.801848e-03	
298	1.500000e+00	1.815888e-03	
299	1.550000e+00	1.826741e-03	
300	1.600000e+00	1.834870e-03	
301	1.650000e+00	1.840932e-03	
302	1.700000e+00	1.845538e-03	
303	1.750000e+00	1.849143e-03	
304	1.800000e+00	1.852053e-03	
305	1.850000e+00	1.854469e-03	
306	1.900000e+00	1.856525e-03	
307	1.950000e+00	1.858309e-03	
308	2.000000e+00	1.859884e-03	
309	2.050000e+00	1.861294e-03	
310	2.100000e+00	1.862571e-03	
311	2.150000e+00	1.863739e-03	
312	2.200000e+00	1.864817e-03	
313	2.250000e+00	1.865819e-03	
314	2.300000e+00	1.866756e-03	
315	2.350000e+00	1.867637e-03	
316	2.400000e+00	1.868470e-03	
317	2.450000e+00	1.869260e-03	
318	2.500000e+00	1.870013e-03	
319	2.550000e+00	1.870732e-03	
320	2.600000e+00	1.871421e-03	
321	2.650000e+00	1.872084e-03	
322	2.700000e+00	1.872723e-03	
323	2.750000e+00	1.873339e-03	
324	2.800000e+00	1.873936e-03	
325	2.850000e+00	1.874515e-03	
326	2.900000e+00	1.875078e-03	
327	2.950000e+00	1.875626e-03	
328	3.000000e+00	1.876161e-03	
329	3.050000e+00	1.876685e-03	
330	3.100000e+00	1.877200e-03	
331	3.150000e+00	1.877707e-03	
332	3.200000e+00	1.878209e-03	
333	3.250000e+00	1.878708e-03	
334	3.300000e+00	1.879207e-03	
335	0.000000e+00	-0.000000e+00	
336	5.000000e-02	1.244692e-04	
337	1.000000e-01	2.450905e-04	
338	1.500000e-01	3.619274e-04	
339	2.000000e-01	4.750420e-04	
340	2.500000e-01	5.844949e-04	
341	3.000000e-01	6.903455e-04	
342	3.500000e-01	7.926519e-04	
343	4.000000e-01	8.914708e-04	
344	4.500000e-01	9.868580e-04	

Index   v-sweep         -i(vds)         
--------------------------------------------------------------------------------
345	5.000000e-01	1.078868e-03	
346	5.500000e-01	1.167553e-03	
347	6.000000e-01	1.252966e-03	
348	6.500000e-01	1.335158e-03	
349	7.000000e-01	1.414179e-03	
350	7.500000e-01	1.490077e-03	
351	8.000000e-01	1.562900e-03	
352	8.500000e-01	1.632695e-03	
353	9.000000e-01	1.699506e-03	
354	9.500000e-01	1.763379e-03	
355	1.000000e+00	1.824356e-03	
356	1.050000e+00	1.882481e-03	
357	1.100000e+00	1.937792e-03	
358	1.150000e+00	1.990330e-03	
359	1.200000e+00	2.040132e-03	
360	1.250000e+00	2.087234e-03	
361	1.300000e+00	2.131670e-03	
362	1.350000e+00	2.173467e-03	
363	1.400000e+00	2.212653e-03	
364	1.450000e+00	2.249246e-03	
365	1.500000e+00	2.283254e-03	
366	1.550000e+00	2.314670e-03	
367	1.600000e+00	2.343466e-03	
368	1.650000e+00	2.369575e-03	
369	1.700000e+00	2.392884e-03	
370	1.750000e+00	2.413227e-03	
371	1.800000e+00	2.430430e-03	
372	1.850000e+00	2.444430e-03	
373	1.900000e+00	2.455433e-03	
374	1.950000e+00	2.463917e-03	
375	2.000000e+00	2.470470e-03	
376	2.050000e+00	2.475618e-03	
377	2.100000e+00	2.479761e-03	
378	2.150000e+00	2.483177e-03	
379	2.200000e+00	2.486059e-03	
380	2.250000e+00	2.488540e-03	
381	2.300000e+00	2.490711e-03	
382	2.350000e+00	2.492640e-03	
383	2.400000e+00	2.494374e-03	
384	2.450000e+00	2.495949e-03	
385	2.500000e+00	2.497393e-03	
386	2.550000e+00	2.498727e-03	
387	2.600000e+00	2.499968e-03	
388	2.650000e+00	2.501129e-03	
389	2.700000e+00	2.502220e-03	
390	2.750000e+00	2.503251e-03	
391	2.800000e+00	2.504229e-03	
392	2.850000e+00	2.505159e-03	
393	2.900000e+00	2.506048e-03	
394	2.950000e+00	2.506899e-03	
395	3.000000e+00	2.507716e-03	
396	3.050000e+00	2.508503e-03	
397	3.100000e+00	2.509261e-03	
398	3.150000e+00	2.509995e-03	
399	3.200000e+00	2.510706e-03	
400	3.250000e+00	2.511396e-03	
401	3.300000e+00	2.512068e-03	
Note: No ".plot", ".print", or ".fourier" lines; no simulations run
