
Note: Compatibility modes selected: hs

Warning: m=xx on .subckt line will override multiplier m hierarchy!


Circuit: ***************************

Doing analysis at TEMP = 25.000000 and TNOM = 25.000000


No. of Data Rows : 402
                          ***************************
                          DC transfer characteristic  Mon Jan  9 13:57:17  2023
--------------------------------------------------------------------------------
Index   v-sweep         -i(vds)         
--------------------------------------------------------------------------------
0	0.000000e+00	-0.000000e+00	
1	5.000000e-02	3.268544e-05	
2	1.000000e-01	5.421152e-05	
3	1.500000e-01	6.661520e-05	
4	2.000000e-01	7.305405e-05	
5	2.500000e-01	7.669933e-05	
6	3.000000e-01	7.924543e-05	
7	3.500000e-01	8.132725e-05	
8	4.000000e-01	8.318201e-05	
9	4.500000e-01	8.491116e-05	
10	5.000000e-01	8.656448e-05	
11	5.500000e-01	8.816932e-05	
12	6.000000e-01	8.974203e-05	
13	6.500000e-01	9.129308e-05	
14	7.000000e-01	9.282951e-05	
15	7.500000e-01	9.435627e-05	
16	8.000000e-01	9.587698e-05	
17	8.500000e-01	9.739432e-05	
18	9.000000e-01	9.891036e-05	
19	9.500000e-01	1.004267e-04	
20	1.000000e+00	1.019446e-04	
21	1.050000e+00	1.034652e-04	
22	1.100000e+00	1.049892e-04	
23	1.150000e+00	1.065174e-04	
24	1.200000e+00	1.080503e-04	
25	1.250000e+00	1.095884e-04	
26	1.300000e+00	1.111321e-04	
27	1.350000e+00	1.126819e-04	
28	1.400000e+00	1.142379e-04	
29	1.450000e+00	1.158005e-04	
30	1.500000e+00	1.173698e-04	
31	1.550000e+00	1.189462e-04	
32	1.600000e+00	1.205298e-04	
33	1.650000e+00	1.221207e-04	
34	1.700000e+00	1.237192e-04	
35	1.750000e+00	1.253255e-04	
36	1.800000e+00	1.269396e-04	
37	1.850000e+00	1.285620e-04	
38	1.900000e+00	1.301927e-04	
39	1.950000e+00	1.318322e-04	
40	2.000000e+00	1.334806e-04	
41	2.050000e+00	1.351385e-04	
42	2.100000e+00	1.368062e-04	
43	2.150000e+00	1.384843e-04	
44	2.200000e+00	1.401734e-04	
45	2.250000e+00	1.418743e-04	
46	2.300000e+00	1.435878e-04	
47	2.350000e+00	1.453149e-04	
48	2.400000e+00	1.470567e-04	
49	2.450000e+00	1.488145e-04	
50	2.500000e+00	1.505899e-04	
51	2.550000e+00	1.523844e-04	
52	2.600000e+00	1.542000e-04	
53	2.650000e+00	1.560387e-04	
54	2.700000e+00	1.579031e-04	

Index   v-sweep         -i(vds)         
--------------------------------------------------------------------------------
55	2.750000e+00	1.597956e-04	
56	2.800000e+00	1.617193e-04	
57	2.850000e+00	1.636773e-04	
58	2.900000e+00	1.656733e-04	
59	2.950000e+00	1.677111e-04	
60	3.000000e+00	1.697951e-04	
61	3.050000e+00	1.719299e-04	
62	3.100000e+00	1.741205e-04	
63	3.150000e+00	1.763726e-04	
64	3.200000e+00	1.786920e-04	
65	3.250000e+00	1.810852e-04	
66	3.300000e+00	1.835591e-04	
67	0.000000e+00	-0.000000e+00	
68	5.000000e-02	1.353530e-04	
69	1.000000e-01	2.538190e-04	
70	1.500000e-01	3.566504e-04	
71	2.000000e-01	4.449668e-04	
72	2.500000e-01	5.197645e-04	
73	3.000000e-01	5.819272e-04	
74	3.500000e-01	6.322601e-04	
75	4.000000e-01	6.716104e-04	
76	4.500000e-01	7.011658e-04	
77	5.000000e-01	7.227554e-04	
78	5.500000e-01	7.386154e-04	
79	6.000000e-01	7.507216e-04	
80	6.500000e-01	7.604450e-04	
81	7.000000e-01	7.686321e-04	
82	7.500000e-01	7.757922e-04	
83	8.000000e-01	7.822374e-04	
84	8.500000e-01	7.881657e-04	
85	9.000000e-01	7.937078e-04	
86	9.500000e-01	7.989532e-04	
87	1.000000e+00	8.039649e-04	
88	1.050000e+00	8.087891e-04	
89	1.100000e+00	8.134600e-04	
90	1.150000e+00	8.180038e-04	
91	1.200000e+00	8.224408e-04	
92	1.250000e+00	8.267872e-04	
93	1.300000e+00	8.310558e-04	
94	1.350000e+00	8.352572e-04	
95	1.400000e+00	8.394001e-04	
96	1.450000e+00	8.434916e-04	
97	1.500000e+00	8.475378e-04	
98	1.550000e+00	8.515438e-04	
99	1.600000e+00	8.555141e-04	
100	1.650000e+00	8.594524e-04	
101	1.700000e+00	8.633620e-04	
102	1.750000e+00	8.672459e-04	
103	1.800000e+00	8.711065e-04	
104	1.850000e+00	8.749463e-04	
105	1.900000e+00	8.787673e-04	
106	1.950000e+00	8.825716e-04	
107	2.000000e+00	8.863611e-04	
108	2.050000e+00	8.901377e-04	
109	2.100000e+00	8.939035e-04	
110	2.150000e+00	8.976603e-04	
111	2.200000e+00	9.014106e-04	
112	2.250000e+00	9.051566e-04	

Index   v-sweep         -i(vds)         
--------------------------------------------------------------------------------
113	2.300000e+00	9.089010e-04	
114	2.350000e+00	9.126469e-04	
115	2.400000e+00	9.163977e-04	
116	2.450000e+00	9.201573e-04	
117	2.500000e+00	9.239300e-04	
118	2.550000e+00	9.277209e-04	
119	2.600000e+00	9.315356e-04	
120	2.650000e+00	9.353805e-04	
121	2.700000e+00	9.392629e-04	
122	2.750000e+00	9.431907e-04	
123	2.800000e+00	9.471730e-04	
124	2.850000e+00	9.512197e-04	
125	2.900000e+00	9.553421e-04	
126	2.950000e+00	9.595523e-04	
127	3.000000e+00	9.638639e-04	
128	3.050000e+00	9.682916e-04	
129	3.100000e+00	9.728516e-04	
130	3.150000e+00	9.775616e-04	
131	3.200000e+00	9.824406e-04	
132	3.250000e+00	9.875094e-04	
133	3.300000e+00	9.927903e-04	
134	0.000000e+00	-0.000000e+00	
135	5.000000e-02	2.068788e-04	
136	1.000000e-01	3.962335e-04	
137	1.500000e-01	5.691531e-04	
138	2.000000e-01	7.266319e-04	
139	2.500000e-01	8.695754e-04	
140	3.000000e-01	9.988042e-04	
141	3.500000e-01	1.115054e-03	
142	4.000000e-01	1.218972e-03	
143	4.500000e-01	1.311105e-03	
144	5.000000e-01	1.391884e-03	
145	5.500000e-01	1.461617e-03	
146	6.000000e-01	1.520533e-03	
147	6.500000e-01	1.568953e-03	
148	7.000000e-01	1.607624e-03	
149	7.500000e-01	1.637942e-03	
150	8.000000e-01	1.661727e-03	
151	8.500000e-01	1.680744e-03	
152	9.000000e-01	1.696386e-03	
153	9.500000e-01	1.709644e-03	
154	1.000000e+00	1.721189e-03	
155	1.050000e+00	1.731475e-03	
156	1.100000e+00	1.740813e-03	
157	1.150000e+00	1.749420e-03	
158	1.200000e+00	1.757452e-03	
159	1.250000e+00	1.765021e-03	
160	1.300000e+00	1.772214e-03	
161	1.350000e+00	1.779094e-03	
162	1.400000e+00	1.785712e-03	
163	1.450000e+00	1.792108e-03	
164	1.500000e+00	1.798312e-03	
165	1.550000e+00	1.804352e-03	
166	1.600000e+00	1.810247e-03	
167	1.650000e+00	1.816016e-03	
168	1.700000e+00	1.821672e-03	
169	1.750000e+00	1.827229e-03	
170	1.800000e+00	1.832697e-03	

Index   v-sweep         -i(vds)         
--------------------------------------------------------------------------------
171	1.850000e+00	1.838084e-03	
172	1.900000e+00	1.843399e-03	
173	1.950000e+00	1.848648e-03	
174	2.000000e+00	1.853838e-03	
175	2.050000e+00	1.858974e-03	
176	2.100000e+00	1.864061e-03	
177	2.150000e+00	1.869103e-03	
178	2.200000e+00	1.874104e-03	
179	2.250000e+00	1.879070e-03	
180	2.300000e+00	1.884004e-03	
181	2.350000e+00	1.888910e-03	
182	2.400000e+00	1.893793e-03	
183	2.450000e+00	1.898658e-03	
184	2.500000e+00	1.903510e-03	
185	2.550000e+00	1.908356e-03	
186	2.600000e+00	1.913202e-03	
187	2.650000e+00	1.918056e-03	
188	2.700000e+00	1.922926e-03	
189	2.750000e+00	1.927822e-03	
190	2.800000e+00	1.932756e-03	
191	2.850000e+00	1.937739e-03	
192	2.900000e+00	1.942786e-03	
193	2.950000e+00	1.947911e-03	
194	3.000000e+00	1.953134e-03	
195	3.050000e+00	1.958472e-03	
196	3.100000e+00	1.963948e-03	
197	3.150000e+00	1.969584e-03	
198	3.200000e+00	1.975408e-03	
199	3.250000e+00	1.981447e-03	
200	3.300000e+00	1.987732e-03	
201	0.000000e+00	-0.000000e+00	
202	5.000000e-02	2.560120e-04	
203	1.000000e-01	4.951614e-04	
204	1.500000e-01	7.183462e-04	
205	2.000000e-01	9.263989e-04	
206	2.500000e-01	1.120091e-03	
207	3.000000e-01	1.300137e-03	
208	3.500000e-01	1.467197e-03	
209	4.000000e-01	1.621876e-03	
210	4.500000e-01	1.764725e-03	
211	5.000000e-01	1.896240e-03	
212	5.500000e-01	2.016847e-03	
213	6.000000e-01	2.126898e-03	
214	6.500000e-01	2.226648e-03	
215	7.000000e-01	2.316233e-03	
216	7.500000e-01	2.395657e-03	
217	8.000000e-01	2.464836e-03	
218	8.500000e-01	2.523742e-03	
219	9.000000e-01	2.572698e-03	
220	9.500000e-01	2.612613e-03	
221	1.000000e+00	2.644931e-03	
222	1.050000e+00	2.671276e-03	
223	1.100000e+00	2.693116e-03	
224	1.150000e+00	2.711609e-03	
225	1.200000e+00	2.727611e-03	
226	1.250000e+00	2.741735e-03	
227	1.300000e+00	2.754421e-03	
228	1.350000e+00	2.765984e-03	

Index   v-sweep         -i(vds)         
--------------------------------------------------------------------------------
229	1.400000e+00	2.776654e-03	
230	1.450000e+00	2.786605e-03	
231	1.500000e+00	2.795965e-03	
232	1.550000e+00	2.804836e-03	
233	1.600000e+00	2.813293e-03	
234	1.650000e+00	2.821400e-03	
235	1.700000e+00	2.829206e-03	
236	1.750000e+00	2.836751e-03	
237	1.800000e+00	2.844069e-03	
238	1.850000e+00	2.851186e-03	
239	1.900000e+00	2.858126e-03	
240	1.950000e+00	2.864907e-03	
241	2.000000e+00	2.871548e-03	
242	2.050000e+00	2.878061e-03	
243	2.100000e+00	2.884459e-03	
244	2.150000e+00	2.890753e-03	
245	2.200000e+00	2.896953e-03	
246	2.250000e+00	2.903066e-03	
247	2.300000e+00	2.909101e-03	
248	2.350000e+00	2.915065e-03	
249	2.400000e+00	2.920964e-03	
250	2.450000e+00	2.926805e-03	
251	2.500000e+00	2.932595e-03	
252	2.550000e+00	2.938340e-03	
253	2.600000e+00	2.944047e-03	
254	2.650000e+00	2.949723e-03	
255	2.700000e+00	2.955379e-03	
256	2.750000e+00	2.961021e-03	
257	2.800000e+00	2.966662e-03	
258	2.850000e+00	2.972312e-03	
259	2.900000e+00	2.977984e-03	
260	2.950000e+00	2.983694e-03	
261	3.000000e+00	2.989459e-03	
262	3.050000e+00	2.995297e-03	
263	3.100000e+00	3.001229e-03	
264	3.150000e+00	3.007280e-03	
265	3.200000e+00	3.013475e-03	
266	3.250000e+00	3.019844e-03	
267	3.300000e+00	3.026420e-03	
268	0.000000e+00	-0.000000e+00	
269	5.000000e-02	2.903228e-04	
270	1.000000e-01	5.648927e-04	
271	1.500000e-01	8.244393e-04	
272	2.000000e-01	1.069646e-03	
273	2.500000e-01	1.301154e-03	
274	3.000000e-01	1.519564e-03	
275	3.500000e-01	1.725439e-03	
276	4.000000e-01	1.919306e-03	
277	4.500000e-01	2.101657e-03	
278	5.000000e-01	2.272948e-03	
279	5.500000e-01	2.433600e-03	
280	6.000000e-01	2.583997e-03	
281	6.500000e-01	2.724481e-03	
282	7.000000e-01	2.855344e-03	
283	7.500000e-01	2.976819e-03	
284	8.000000e-01	3.089062e-03	
285	8.500000e-01	3.192131e-03	
286	9.000000e-01	3.285968e-03	

Index   v-sweep         -i(vds)         
--------------------------------------------------------------------------------
287	9.500000e-01	3.370387e-03	
288	1.000000e+00	3.445130e-03	
289	1.050000e+00	3.510010e-03	
290	1.100000e+00	3.565163e-03	
291	1.150000e+00	3.611249e-03	
292	1.200000e+00	3.649439e-03	
293	1.250000e+00	3.681155e-03	
294	1.300000e+00	3.707777e-03	
295	1.350000e+00	3.730475e-03	
296	1.400000e+00	3.750161e-03	
297	1.450000e+00	3.767524e-03	
298	1.500000e+00	3.783074e-03	
299	1.550000e+00	3.797190e-03	
300	1.600000e+00	3.810154e-03	
301	1.650000e+00	3.822182e-03	
302	1.700000e+00	3.833436e-03	
303	1.750000e+00	3.844045e-03	
304	1.800000e+00	3.854109e-03	
305	1.850000e+00	3.863709e-03	
306	1.900000e+00	3.872908e-03	
307	1.950000e+00	3.881760e-03	
308	2.000000e+00	3.890309e-03	
309	2.050000e+00	3.898590e-03	
310	2.100000e+00	3.906633e-03	
311	2.150000e+00	3.914465e-03	
312	2.200000e+00	3.922108e-03	
313	2.250000e+00	3.929580e-03	
314	2.300000e+00	3.936898e-03	
315	2.350000e+00	3.944076e-03	
316	2.400000e+00	3.951127e-03	
317	2.450000e+00	3.958062e-03	
318	2.500000e+00	3.964892e-03	
319	2.550000e+00	3.971626e-03	
320	2.600000e+00	3.978272e-03	
321	2.650000e+00	3.984841e-03	
322	2.700000e+00	3.991340e-03	
323	2.750000e+00	3.997780e-03	
324	2.800000e+00	4.004168e-03	
325	2.850000e+00	4.010517e-03	
326	2.900000e+00	4.016836e-03	
327	2.950000e+00	4.023139e-03	
328	3.000000e+00	4.029440e-03	
329	3.050000e+00	4.035754e-03	
330	3.100000e+00	4.042100e-03	
331	3.150000e+00	4.048498e-03	
332	3.200000e+00	4.054971e-03	
333	3.250000e+00	4.061544e-03	
334	3.300000e+00	4.068246e-03	
335	0.000000e+00	-0.000000e+00	
336	5.000000e-02	3.144887e-04	
337	1.000000e-01	6.144530e-04	
338	1.500000e-01	9.004845e-04	
339	2.000000e-01	1.173142e-03	
340	2.500000e-01	1.432955e-03	
341	3.000000e-01	1.680423e-03	
342	3.500000e-01	1.916019e-03	
343	4.000000e-01	2.140191e-03	
344	4.500000e-01	2.353360e-03	

Index   v-sweep         -i(vds)         
--------------------------------------------------------------------------------
345	5.000000e-01	2.555926e-03	
346	5.500000e-01	2.748264e-03	
347	6.000000e-01	2.930726e-03	
348	6.500000e-01	3.103640e-03	
349	7.000000e-01	3.267308e-03	
350	7.500000e-01	3.422008e-03	
351	8.000000e-01	3.567982e-03	
352	8.500000e-01	3.705438e-03	
353	9.000000e-01	3.834535e-03	
354	9.500000e-01	3.955376e-03	
355	1.000000e+00	4.067985e-03	
356	1.050000e+00	4.172288e-03	
357	1.100000e+00	4.268099e-03	
358	1.150000e+00	4.355122e-03	
359	1.200000e+00	4.433008e-03	
360	1.250000e+00	4.501501e-03	
361	1.300000e+00	4.560641e-03	
362	1.350000e+00	4.610939e-03	
363	1.400000e+00	4.653364e-03	
364	1.450000e+00	4.689149e-03	
365	1.500000e+00	4.719550e-03	
366	1.550000e+00	4.745683e-03	
367	1.600000e+00	4.768461e-03	
368	1.650000e+00	4.788596e-03	
369	1.700000e+00	4.806635e-03	
370	1.750000e+00	4.822995e-03	
371	1.800000e+00	4.837992e-03	
372	1.850000e+00	4.851871e-03	
373	1.900000e+00	4.864821e-03	
374	1.950000e+00	4.876992e-03	
375	2.000000e+00	4.888502e-03	
376	2.050000e+00	4.899447e-03	
377	2.100000e+00	4.909902e-03	
378	2.150000e+00	4.919933e-03	
379	2.200000e+00	4.929592e-03	
380	2.250000e+00	4.938921e-03	
381	2.300000e+00	4.947958e-03	
382	2.350000e+00	4.956735e-03	
383	2.400000e+00	4.965279e-03	
384	2.450000e+00	4.973611e-03	
385	2.500000e+00	4.981753e-03	
386	2.550000e+00	4.989722e-03	
387	2.600000e+00	4.997534e-03	
388	2.650000e+00	5.005202e-03	
389	2.700000e+00	5.012739e-03	
390	2.750000e+00	5.020158e-03	
391	2.800000e+00	5.027469e-03	
392	2.850000e+00	5.034683e-03	
393	2.900000e+00	5.041812e-03	
394	2.950000e+00	5.048867e-03	
395	3.000000e+00	5.055860e-03	
396	3.050000e+00	5.062803e-03	
397	3.100000e+00	5.069713e-03	
398	3.150000e+00	5.076603e-03	
399	3.200000e+00	5.083493e-03	
400	3.250000e+00	5.090402e-03	
401	3.300000e+00	5.097353e-03	
Note: No ".plot", ".print", or ".fourier" lines; no simulations run
