
Note: Compatibility modes selected: hs

Warning: m=xx on .subckt line will override multiplier m hierarchy!


Circuit: ***************************

Doing analysis at TEMP = -40.000000 and TNOM = -40.000000


No. of Data Rows : 402
                          ***************************
                          DC transfer characteristic  Mon Jan  9 13:57:17  2023
--------------------------------------------------------------------------------
Index   v-sweep         -i(vds)         
--------------------------------------------------------------------------------
0	0.000000e+00	-0.000000e+00	
1	5.000000e-02	8.316896e-07	
2	1.000000e-01	1.301300e-06	
3	1.500000e-01	1.531768e-06	
4	2.000000e-01	1.654964e-06	
5	2.500000e-01	1.739624e-06	
6	3.000000e-01	1.808676e-06	
7	3.500000e-01	1.870016e-06	
8	4.000000e-01	1.926954e-06	
9	4.500000e-01	1.981139e-06	
10	5.000000e-01	2.033502e-06	
11	5.500000e-01	2.084613e-06	
12	6.000000e-01	2.134853e-06	
13	6.500000e-01	2.184480e-06	
14	7.000000e-01	2.233683e-06	
15	7.500000e-01	2.282601e-06	
16	8.000000e-01	2.331340e-06	
17	8.500000e-01	2.379983e-06	
18	9.000000e-01	2.428595e-06	
19	9.500000e-01	2.477228e-06	
20	1.000000e+00	2.525924e-06	
21	1.050000e+00	2.574720e-06	
22	1.100000e+00	2.623644e-06	
23	1.150000e+00	2.672721e-06	
24	1.200000e+00	2.721971e-06	
25	1.250000e+00	2.771412e-06	
26	1.300000e+00	2.821059e-06	
27	1.350000e+00	2.870924e-06	
28	1.400000e+00	2.921020e-06	
29	1.450000e+00	2.971355e-06	
30	1.500000e+00	3.021939e-06	
31	1.550000e+00	3.072780e-06	
32	1.600000e+00	3.123884e-06	
33	1.650000e+00	3.175258e-06	
34	1.700000e+00	3.226909e-06	
35	1.750000e+00	3.278843e-06	
36	1.800000e+00	3.331067e-06	
37	1.850000e+00	3.383588e-06	
38	1.900000e+00	3.436414e-06	
39	1.950000e+00	3.489554e-06	
40	2.000000e+00	3.543018e-06	
41	2.050000e+00	3.596817e-06	
42	2.100000e+00	3.650967e-06	
43	2.150000e+00	3.705482e-06	
44	2.200000e+00	3.760382e-06	
45	2.250000e+00	3.815688e-06	
46	2.300000e+00	3.871425e-06	
47	2.350000e+00	3.927622e-06	
48	2.400000e+00	3.984312e-06	
49	2.450000e+00	4.041534e-06	
50	2.500000e+00	4.099331e-06	
51	2.550000e+00	4.157751e-06	
52	2.600000e+00	4.216850e-06	
53	2.650000e+00	4.276691e-06	
54	2.700000e+00	4.337342e-06	

Index   v-sweep         -i(vds)         
--------------------------------------------------------------------------------
55	2.750000e+00	4.398881e-06	
56	2.800000e+00	4.461394e-06	
57	2.850000e+00	4.524977e-06	
58	2.900000e+00	4.589734e-06	
59	2.950000e+00	4.655781e-06	
60	3.000000e+00	4.723244e-06	
61	3.050000e+00	4.792261e-06	
62	3.100000e+00	4.862983e-06	
63	3.150000e+00	4.935574e-06	
64	3.200000e+00	5.010210e-06	
65	3.250000e+00	5.087083e-06	
66	3.300000e+00	5.166399e-06	
67	0.000000e+00	-0.000000e+00	
68	5.000000e-02	4.381823e-06	
69	1.000000e-01	8.137077e-06	
70	1.500000e-01	1.132495e-05	
71	2.000000e-01	1.399725e-05	
72	2.500000e-01	1.619942e-05	
73	3.000000e-01	1.797205e-05	
74	3.500000e-01	1.935521e-05	
75	4.000000e-01	2.039927e-05	
76	4.500000e-01	2.117461e-05	
77	5.000000e-01	2.176001e-05	
78	5.500000e-01	2.222022e-05	
79	6.000000e-01	2.259855e-05	
80	6.500000e-01	2.292179e-05	
81	7.000000e-01	2.320646e-05	
82	7.500000e-01	2.346307e-05	
83	8.000000e-01	2.369856e-05	
84	8.500000e-01	2.391767e-05	
85	9.000000e-01	2.412379e-05	
86	9.500000e-01	2.431938e-05	
87	1.000000e+00	2.450627e-05	
88	1.050000e+00	2.468589e-05	
89	1.100000e+00	2.485935e-05	
90	1.150000e+00	2.502752e-05	
91	1.200000e+00	2.519111e-05	
92	1.250000e+00	2.535071e-05	
93	1.300000e+00	2.550679e-05	
94	1.350000e+00	2.565977e-05	
95	1.400000e+00	2.580997e-05	
96	1.450000e+00	2.595769e-05	
97	1.500000e+00	2.610318e-05	
98	1.550000e+00	2.624665e-05	
99	1.600000e+00	2.638829e-05	
100	1.650000e+00	2.652826e-05	
101	1.700000e+00	2.666670e-05	
102	1.750000e+00	2.680376e-05	
103	1.800000e+00	2.693954e-05	
104	1.850000e+00	2.707416e-05	
105	1.900000e+00	2.720770e-05	
106	1.950000e+00	2.734027e-05	
107	2.000000e+00	2.747196e-05	
108	2.050000e+00	2.760284e-05	
109	2.100000e+00	2.773302e-05	
110	2.150000e+00	2.786259e-05	
111	2.200000e+00	2.799163e-05	
112	2.250000e+00	2.812026e-05	

Index   v-sweep         -i(vds)         
--------------------------------------------------------------------------------
113	2.300000e+00	2.824859e-05	
114	2.350000e+00	2.837673e-05	
115	2.400000e+00	2.850483e-05	
116	2.450000e+00	2.863303e-05	
117	2.500000e+00	2.876150e-05	
118	2.550000e+00	2.889043e-05	
119	2.600000e+00	2.902002e-05	
120	2.650000e+00	2.915051e-05	
121	2.700000e+00	2.928216e-05	
122	2.750000e+00	2.941524e-05	
123	2.800000e+00	2.955009e-05	
124	2.850000e+00	2.968704e-05	
125	2.900000e+00	2.982648e-05	
126	2.950000e+00	2.996883e-05	
127	3.000000e+00	3.011456e-05	
128	3.050000e+00	3.026417e-05	
129	3.100000e+00	3.041820e-05	
130	3.150000e+00	3.057725e-05	
131	3.200000e+00	3.074196e-05	
132	3.250000e+00	3.091303e-05	
133	3.300000e+00	3.109120e-05	
134	0.000000e+00	-0.000000e+00	
135	5.000000e-02	6.786141e-06	
136	1.000000e-01	1.291542e-05	
137	1.500000e-01	1.843882e-05	
138	2.000000e-01	2.340188e-05	
139	2.500000e-01	2.784521e-05	
140	3.000000e-01	3.180473e-05	
141	3.500000e-01	3.531162e-05	
142	4.000000e-01	3.839186e-05	
143	4.500000e-01	4.106540e-05	
144	5.000000e-01	4.334606e-05	
145	5.500000e-01	4.524535e-05	
146	6.000000e-01	4.678427e-05	
147	6.500000e-01	4.800662e-05	
148	7.000000e-01	4.897593e-05	
149	7.500000e-01	4.975723e-05	
150	8.000000e-01	5.040330e-05	
151	8.500000e-01	5.095206e-05	
152	9.000000e-01	5.142960e-05	
153	9.500000e-01	5.185374e-05	
154	1.000000e+00	5.223688e-05	
155	1.050000e+00	5.258782e-05	
156	1.100000e+00	5.291294e-05	
157	1.150000e+00	5.321698e-05	
158	1.200000e+00	5.350355e-05	
159	1.250000e+00	5.377542e-05	
160	1.300000e+00	5.403480e-05	
161	1.350000e+00	5.428343e-05	
162	1.400000e+00	5.452272e-05	
163	1.450000e+00	5.475385e-05	
164	1.500000e+00	5.497777e-05	
165	1.550000e+00	5.519530e-05	
166	1.600000e+00	5.540711e-05	
167	1.650000e+00	5.561379e-05	
168	1.700000e+00	5.581583e-05	
169	1.750000e+00	5.601367e-05	
170	1.800000e+00	5.620769e-05	

Index   v-sweep         -i(vds)         
--------------------------------------------------------------------------------
171	1.850000e+00	5.639822e-05	
172	1.900000e+00	5.658555e-05	
173	1.950000e+00	5.676994e-05	
174	2.000000e+00	5.695163e-05	
175	2.050000e+00	5.713084e-05	
176	2.100000e+00	5.730776e-05	
177	2.150000e+00	5.748259e-05	
178	2.200000e+00	5.765552e-05	
179	2.250000e+00	5.782672e-05	
180	2.300000e+00	5.799638e-05	
181	2.350000e+00	5.816468e-05	
182	2.400000e+00	5.833184e-05	
183	2.450000e+00	5.849805e-05	
184	2.500000e+00	5.866356e-05	
185	2.550000e+00	5.882862e-05	
186	2.600000e+00	5.899350e-05	
187	2.650000e+00	5.915852e-05	
188	2.700000e+00	5.932403e-05	
189	2.750000e+00	5.949039e-05	
190	2.800000e+00	5.965806e-05	
191	2.850000e+00	5.982748e-05	
192	2.900000e+00	5.999920e-05	
193	2.950000e+00	6.017380e-05	
194	3.000000e+00	6.035191e-05	
195	3.050000e+00	6.053423e-05	
196	3.100000e+00	6.072156e-05	
197	3.150000e+00	6.091472e-05	
198	3.200000e+00	6.111464e-05	
199	3.250000e+00	6.132233e-05	
200	3.300000e+00	6.153888e-05	
201	0.000000e+00	-0.000000e+00	
202	5.000000e-02	8.447565e-06	
203	1.000000e-01	1.625729e-05	
204	1.500000e-01	2.347140e-05	
205	2.000000e-01	3.012834e-05	
206	2.500000e-01	3.626311e-05	
207	3.000000e-01	4.190751e-05	
208	3.500000e-01	4.709028e-05	
209	4.000000e-01	5.183713e-05	
210	4.500000e-01	5.617054e-05	
211	5.000000e-01	6.010929e-05	
212	5.500000e-01	6.366756e-05	
213	6.000000e-01	6.685371e-05	
214	6.500000e-01	6.966934e-05	
215	7.000000e-01	7.211113e-05	
216	7.500000e-01	7.417907e-05	
217	8.000000e-01	7.589035e-05	
218	8.500000e-01	7.728703e-05	
219	9.000000e-01	7.842750e-05	
220	9.500000e-01	7.937056e-05	
221	1.000000e+00	8.016521e-05	
222	1.050000e+00	8.084846e-05	
223	1.100000e+00	8.144715e-05	
224	1.150000e+00	8.198058e-05	
225	1.200000e+00	8.246269e-05	
226	1.250000e+00	8.290373e-05	
227	1.300000e+00	8.331135e-05	
228	1.350000e+00	8.369134e-05	

Index   v-sweep         -i(vds)         
--------------------------------------------------------------------------------
229	1.400000e+00	8.404821e-05	
230	1.450000e+00	8.438548e-05	
231	1.500000e+00	8.470595e-05	
232	1.550000e+00	8.501189e-05	
233	1.600000e+00	8.530515e-05	
234	1.650000e+00	8.558727e-05	
235	1.700000e+00	8.585951e-05	
236	1.750000e+00	8.612297e-05	
237	1.800000e+00	8.637854e-05	
238	1.850000e+00	8.662702e-05	
239	1.900000e+00	8.686908e-05	
240	1.950000e+00	8.710530e-05	
241	2.000000e+00	8.733620e-05	
242	2.050000e+00	8.756223e-05	
243	2.100000e+00	8.778379e-05	
244	2.150000e+00	8.800125e-05	
245	2.200000e+00	8.821493e-05	
246	2.250000e+00	8.842514e-05	
247	2.300000e+00	8.863218e-05	
248	2.350000e+00	8.883630e-05	
249	2.400000e+00	8.903778e-05	
250	2.450000e+00	8.923690e-05	
251	2.500000e+00	8.943393e-05	
252	2.550000e+00	8.962915e-05	
253	2.600000e+00	8.982289e-05	
254	2.650000e+00	9.001547e-05	
255	2.700000e+00	9.020726e-05	
256	2.750000e+00	9.039866e-05	
257	2.800000e+00	9.059013e-05	
258	2.850000e+00	9.078215e-05	
259	2.900000e+00	9.097527e-05	
260	2.950000e+00	9.117013e-05	
261	3.000000e+00	9.136738e-05	
262	3.050000e+00	9.156781e-05	
263	3.100000e+00	9.177223e-05	
264	3.150000e+00	9.198158e-05	
265	3.200000e+00	9.219687e-05	
266	3.250000e+00	9.241923e-05	
267	3.300000e+00	9.264987e-05	
268	0.000000e+00	-0.000000e+00	
269	5.000000e-02	9.647441e-06	
270	1.000000e-01	1.869162e-05	
271	1.500000e-01	2.716734e-05	
272	2.000000e-01	3.510672e-05	
273	2.500000e-01	4.253938e-05	
274	3.000000e-01	4.949266e-05	
275	3.500000e-01	5.599177e-05	
276	4.000000e-01	6.205986e-05	
277	4.500000e-01	6.771804e-05	
278	5.000000e-01	7.298539e-05	
279	5.500000e-01	7.787872e-05	
280	6.000000e-01	8.241220e-05	
281	6.500000e-01	8.659674e-05	
282	7.000000e-01	9.043896e-05	
283	7.500000e-01	9.393990e-05	
284	8.000000e-01	9.709405e-05	
285	8.500000e-01	9.989060e-05	
286	9.000000e-01	1.023197e-04	

Index   v-sweep         -i(vds)         
--------------------------------------------------------------------------------
287	9.500000e-01	1.043841e-04	
288	1.000000e+00	1.061096e-04	
289	1.050000e+00	1.075423e-04	
290	1.100000e+00	1.087375e-04	
291	1.150000e+00	1.097466e-04	
292	1.200000e+00	1.106123e-04	
293	1.250000e+00	1.113670e-04	
294	1.300000e+00	1.120353e-04	
295	1.350000e+00	1.126351e-04	
296	1.400000e+00	1.131799e-04	
297	1.450000e+00	1.136800e-04	
298	1.500000e+00	1.141432e-04	
299	1.550000e+00	1.145754e-04	
300	1.600000e+00	1.149814e-04	
301	1.650000e+00	1.153650e-04	
302	1.700000e+00	1.157292e-04	
303	1.750000e+00	1.160766e-04	
304	1.800000e+00	1.164092e-04	
305	1.850000e+00	1.167287e-04	
306	1.900000e+00	1.170366e-04	
307	1.950000e+00	1.173341e-04	
308	2.000000e+00	1.176223e-04	
309	2.050000e+00	1.179019e-04	
310	2.100000e+00	1.181739e-04	
311	2.150000e+00	1.184390e-04	
312	2.200000e+00	1.186976e-04	
313	2.250000e+00	1.189503e-04	
314	2.300000e+00	1.191977e-04	
315	2.350000e+00	1.194402e-04	
316	2.400000e+00	1.196781e-04	
317	2.450000e+00	1.199118e-04	
318	2.500000e+00	1.201417e-04	
319	2.550000e+00	1.203682e-04	
320	2.600000e+00	1.205916e-04	
321	2.650000e+00	1.208122e-04	
322	2.700000e+00	1.210305e-04	
323	2.750000e+00	1.212467e-04	
324	2.800000e+00	1.214615e-04	
325	2.850000e+00	1.216751e-04	
326	2.900000e+00	1.218883e-04	
327	2.950000e+00	1.221014e-04	
328	3.000000e+00	1.223153e-04	
329	3.050000e+00	1.225305e-04	
330	3.100000e+00	1.227479e-04	
331	3.150000e+00	1.229683e-04	
332	3.200000e+00	1.231928e-04	
333	3.250000e+00	1.234224e-04	
334	3.300000e+00	1.236584e-04	
335	0.000000e+00	-0.000000e+00	
336	5.000000e-02	1.054253e-05	
337	1.000000e-01	2.052021e-05	
338	1.500000e-01	2.996190e-05	
339	2.000000e-01	3.889446e-05	
340	2.500000e-01	4.734297e-05	
341	3.000000e-01	5.533077e-05	
342	3.500000e-01	6.287966e-05	
343	4.000000e-01	7.000992e-05	
344	4.500000e-01	7.674042e-05	

Index   v-sweep         -i(vds)         
--------------------------------------------------------------------------------
345	5.000000e-01	8.308862e-05	
346	5.500000e-01	8.907058e-05	
347	6.000000e-01	9.470089e-05	
348	6.500000e-01	9.999254e-05	
349	7.000000e-01	1.049566e-04	
350	7.500000e-01	1.096017e-04	
351	8.000000e-01	1.139336e-04	
352	8.500000e-01	1.179539e-04	
353	9.000000e-01	1.216586e-04	
354	9.500000e-01	1.250381e-04	
355	1.000000e+00	1.280773e-04	
356	1.050000e+00	1.307613e-04	
357	1.100000e+00	1.330851e-04	
358	1.150000e+00	1.350631e-04	
359	1.200000e+00	1.367309e-04	
360	1.250000e+00	1.381368e-04	
361	1.300000e+00	1.393306e-04	
362	1.350000e+00	1.403565e-04	
363	1.400000e+00	1.412503e-04	
364	1.450000e+00	1.420396e-04	
365	1.500000e+00	1.427457e-04	
366	1.550000e+00	1.433846e-04	
367	1.600000e+00	1.439685e-04	
368	1.650000e+00	1.445070e-04	
369	1.700000e+00	1.450074e-04	
370	1.750000e+00	1.454756e-04	
371	1.800000e+00	1.459162e-04	
372	1.850000e+00	1.463331e-04	
373	1.900000e+00	1.467292e-04	
374	1.950000e+00	1.471072e-04	
375	2.000000e+00	1.474691e-04	
376	2.050000e+00	1.478168e-04	
377	2.100000e+00	1.481517e-04	
378	2.150000e+00	1.484752e-04	
379	2.200000e+00	1.487884e-04	
380	2.250000e+00	1.490921e-04	
381	2.300000e+00	1.493874e-04	
382	2.350000e+00	1.496749e-04	
383	2.400000e+00	1.499552e-04	
384	2.450000e+00	1.502290e-04	
385	2.500000e+00	1.504967e-04	
386	2.550000e+00	1.507590e-04	
387	2.600000e+00	1.510162e-04	
388	2.650000e+00	1.512687e-04	
389	2.700000e+00	1.515170e-04	
390	2.750000e+00	1.517616e-04	
391	2.800000e+00	1.520028e-04	
392	2.850000e+00	1.522412e-04	
393	2.900000e+00	1.524771e-04	
394	2.950000e+00	1.527112e-04	
395	3.000000e+00	1.529440e-04	
396	3.050000e+00	1.531761e-04	
397	3.100000e+00	1.534082e-04	
398	3.150000e+00	1.536411e-04	
399	3.200000e+00	1.538757e-04	
400	3.250000e+00	1.541130e-04	
401	3.300000e+00	1.543540e-04	
Note: No ".plot", ".print", or ".fourier" lines; no simulations run
