
Note: Compatibility modes selected: hs

Warning: m=xx on .subckt line will override multiplier m hierarchy!


Circuit: ***************************

Doing analysis at TEMP = 25.000000 and TNOM = 25.000000


No. of Data Rows : 402
                          ***************************
                          DC transfer characteristic  Mon Jan  9 13:57:17  2023
--------------------------------------------------------------------------------
Index   v-sweep         -i(vds)         
--------------------------------------------------------------------------------
0	0.000000e+00	-0.000000e+00	
1	5.000000e-02	7.305046e-07	
2	1.000000e-01	1.155545e-06	
3	1.500000e-01	1.321191e-06	
4	2.000000e-01	1.361333e-06	
5	2.500000e-01	1.375270e-06	
6	3.000000e-01	1.383602e-06	
7	3.500000e-01	1.389897e-06	
8	4.000000e-01	1.395156e-06	
9	4.500000e-01	1.399782e-06	
10	5.000000e-01	1.403978e-06	
11	5.500000e-01	1.407862e-06	
12	6.000000e-01	1.411508e-06	
13	6.500000e-01	1.414966e-06	
14	7.000000e-01	1.418271e-06	
15	7.500000e-01	1.421450e-06	
16	8.000000e-01	1.424523e-06	
17	8.500000e-01	1.427506e-06	
18	9.000000e-01	1.430410e-06	
19	9.500000e-01	1.433247e-06	
20	1.000000e+00	1.436023e-06	
21	1.050000e+00	1.438746e-06	
22	1.100000e+00	1.441421e-06	
23	1.150000e+00	1.444054e-06	
24	1.200000e+00	1.446648e-06	
25	1.250000e+00	1.449207e-06	
26	1.300000e+00	1.451734e-06	
27	1.350000e+00	1.454232e-06	
28	1.400000e+00	1.456703e-06	
29	1.450000e+00	1.459149e-06	
30	1.500000e+00	1.461573e-06	
31	1.550000e+00	1.463977e-06	
32	1.600000e+00	1.466361e-06	
33	1.650000e+00	1.468728e-06	
34	1.700000e+00	1.471080e-06	
35	1.750000e+00	1.473418e-06	
36	1.800000e+00	1.475745e-06	
37	1.850000e+00	1.478062e-06	
38	1.900000e+00	1.480372e-06	
39	1.950000e+00	1.482678e-06	
40	2.000000e+00	1.484983e-06	
41	2.050000e+00	1.487291e-06	
42	2.100000e+00	1.489605e-06	
43	2.150000e+00	1.491930e-06	
44	2.200000e+00	1.494271e-06	
45	2.250000e+00	1.496634e-06	
46	2.300000e+00	1.499026e-06	
47	2.350000e+00	1.501453e-06	
48	2.400000e+00	1.503924e-06	
49	2.450000e+00	1.506447e-06	
50	2.500000e+00	1.509033e-06	
51	2.550000e+00	1.511692e-06	
52	2.600000e+00	1.514435e-06	
53	2.650000e+00	1.517274e-06	
54	2.700000e+00	1.520224e-06	

Index   v-sweep         -i(vds)         
--------------------------------------------------------------------------------
55	2.750000e+00	1.523299e-06	
56	2.800000e+00	1.526513e-06	
57	2.850000e+00	1.529884e-06	
58	2.900000e+00	1.533429e-06	
59	2.950000e+00	1.537167e-06	
60	3.000000e+00	1.541116e-06	
61	3.050000e+00	1.545298e-06	
62	3.100000e+00	1.549734e-06	
63	3.150000e+00	1.554447e-06	
64	3.200000e+00	1.559461e-06	
65	3.250000e+00	1.564800e-06	
66	3.300000e+00	1.570490e-06	
67	0.000000e+00	-0.000000e+00	
68	5.000000e-02	3.899386e-06	
69	1.000000e-01	7.382839e-06	
70	1.500000e-01	1.045985e-05	
71	2.000000e-01	1.313967e-05	
72	2.500000e-01	1.543140e-05	
73	3.000000e-01	1.734413e-05	
74	3.500000e-01	1.888729e-05	
75	4.000000e-01	2.007193e-05	
76	4.500000e-01	2.091495e-05	
77	5.000000e-01	2.145296e-05	
78	5.500000e-01	2.176336e-05	
79	6.000000e-01	2.194409e-05	
80	6.500000e-01	2.206164e-05	
81	7.000000e-01	2.214713e-05	
82	7.500000e-01	2.221439e-05	
83	8.000000e-01	2.227014e-05	
84	8.500000e-01	2.231806e-05	
85	9.000000e-01	2.236030e-05	
86	9.500000e-01	2.239826e-05	
87	1.000000e+00	2.243287e-05	
88	1.050000e+00	2.246480e-05	
89	1.100000e+00	2.249453e-05	
90	1.150000e+00	2.252242e-05	
91	1.200000e+00	2.254876e-05	
92	1.250000e+00	2.257376e-05	
93	1.300000e+00	2.259761e-05	
94	1.350000e+00	2.262044e-05	
95	1.400000e+00	2.264238e-05	
96	1.450000e+00	2.266352e-05	
97	1.500000e+00	2.268395e-05	
98	1.550000e+00	2.270374e-05	
99	1.600000e+00	2.272294e-05	
100	1.650000e+00	2.274163e-05	
101	1.700000e+00	2.275983e-05	
102	1.750000e+00	2.277759e-05	
103	1.800000e+00	2.279495e-05	
104	1.850000e+00	2.281194e-05	
105	1.900000e+00	2.282859e-05	
106	1.950000e+00	2.284493e-05	
107	2.000000e+00	2.286098e-05	
108	2.050000e+00	2.287678e-05	
109	2.100000e+00	2.289236e-05	
110	2.150000e+00	2.290773e-05	
111	2.200000e+00	2.292295e-05	
112	2.250000e+00	2.293804e-05	

Index   v-sweep         -i(vds)         
--------------------------------------------------------------------------------
113	2.300000e+00	2.295304e-05	
114	2.350000e+00	2.296801e-05	
115	2.400000e+00	2.298299e-05	
116	2.450000e+00	2.299804e-05	
117	2.500000e+00	2.301323e-05	
118	2.550000e+00	2.302863e-05	
119	2.600000e+00	2.304434e-05	
120	2.650000e+00	2.306044e-05	
121	2.700000e+00	2.307705e-05	
122	2.750000e+00	2.309427e-05	
123	2.800000e+00	2.311225e-05	
124	2.850000e+00	2.313111e-05	
125	2.900000e+00	2.315102e-05	
126	2.950000e+00	2.317215e-05	
127	3.000000e+00	2.319467e-05	
128	3.050000e+00	2.321878e-05	
129	3.100000e+00	2.324470e-05	
130	3.150000e+00	2.327265e-05	
131	3.200000e+00	2.330287e-05	
132	3.250000e+00	2.333561e-05	
133	3.300000e+00	2.337114e-05	
134	0.000000e+00	-0.000000e+00	
135	5.000000e-02	6.671282e-06	
136	1.000000e-01	1.291509e-05	
137	1.500000e-01	1.874033e-05	
138	2.000000e-01	2.415567e-05	
139	2.500000e-01	2.916956e-05	
140	3.000000e-01	3.379019e-05	
141	3.500000e-01	3.802553e-05	
142	4.000000e-01	4.188338e-05	
143	4.500000e-01	4.537127e-05	
144	5.000000e-01	4.849656e-05	
145	5.500000e-01	5.126642e-05	
146	6.000000e-01	5.368781e-05	
147	6.500000e-01	5.576751e-05	
148	7.000000e-01	5.751231e-05	
149	7.500000e-01	5.892957e-05	
150	8.000000e-01	6.003013e-05	
151	8.500000e-01	6.083727e-05	
152	9.000000e-01	6.140047e-05	
153	9.500000e-01	6.179051e-05	
154	1.000000e+00	6.207120e-05	
155	1.050000e+00	6.228451e-05	
156	1.100000e+00	6.245480e-05	
157	1.150000e+00	6.259616e-05	
158	1.200000e+00	6.271706e-05	
159	1.250000e+00	6.282286e-05	
160	1.300000e+00	6.291711e-05	
161	1.350000e+00	6.300228e-05	
162	1.400000e+00	6.308013e-05	
163	1.450000e+00	6.315197e-05	
164	1.500000e+00	6.321879e-05	
165	1.550000e+00	6.328135e-05	
166	1.600000e+00	6.334025e-05	
167	1.650000e+00	6.339599e-05	
168	1.700000e+00	6.344896e-05	
169	1.750000e+00	6.349948e-05	
170	1.800000e+00	6.354784e-05	

Index   v-sweep         -i(vds)         
--------------------------------------------------------------------------------
171	1.850000e+00	6.359425e-05	
172	1.900000e+00	6.363891e-05	
173	1.950000e+00	6.368200e-05	
174	2.000000e+00	6.372365e-05	
175	2.050000e+00	6.376400e-05	
176	2.100000e+00	6.380315e-05	
177	2.150000e+00	6.384120e-05	
178	2.200000e+00	6.387825e-05	
179	2.250000e+00	6.391439e-05	
180	2.300000e+00	6.394968e-05	
181	2.350000e+00	6.398421e-05	
182	2.400000e+00	6.401805e-05	
183	2.450000e+00	6.405129e-05	
184	2.500000e+00	6.408401e-05	
185	2.550000e+00	6.411630e-05	
186	2.600000e+00	6.414828e-05	
187	2.650000e+00	6.418004e-05	
188	2.700000e+00	6.421173e-05	
189	2.750000e+00	6.424350e-05	
190	2.800000e+00	6.427550e-05	
191	2.850000e+00	6.430793e-05	
192	2.900000e+00	6.434100e-05	
193	2.950000e+00	6.437497e-05	
194	3.000000e+00	6.441008e-05	
195	3.050000e+00	6.444665e-05	
196	3.100000e+00	6.448500e-05	
197	3.150000e+00	6.452550e-05	
198	3.200000e+00	6.456855e-05	
199	3.250000e+00	6.461458e-05	
200	3.300000e+00	6.466408e-05	
201	0.000000e+00	-0.000000e+00	
202	5.000000e-02	8.920800e-06	
203	1.000000e-01	1.742297e-05	
204	1.500000e-01	2.551455e-05	
205	2.000000e-01	3.320335e-05	
206	2.500000e-01	4.049701e-05	
207	3.000000e-01	4.740295e-05	
208	3.500000e-01	5.392843e-05	
209	4.000000e-01	6.008050e-05	
210	4.500000e-01	6.586605e-05	
211	5.000000e-01	7.129180e-05	
212	5.500000e-01	7.636428e-05	
213	6.000000e-01	8.108986e-05	
214	6.500000e-01	8.547473e-05	
215	7.000000e-01	8.952491e-05	
216	7.500000e-01	9.324621e-05	
217	8.000000e-01	9.664420e-05	
218	8.500000e-01	9.972419e-05	
219	9.000000e-01	1.024911e-04	
220	9.500000e-01	1.049491e-04	
221	1.000000e+00	1.071018e-04	
222	1.050000e+00	1.089510e-04	
223	1.100000e+00	1.104976e-04	
224	1.150000e+00	1.117449e-04	
225	1.200000e+00	1.127093e-04	
226	1.250000e+00	1.134323e-04	
227	1.300000e+00	1.139733e-04	
228	1.350000e+00	1.143880e-04	

Index   v-sweep         -i(vds)         
--------------------------------------------------------------------------------
229	1.400000e+00	1.147168e-04	
230	1.450000e+00	1.149866e-04	
231	1.500000e+00	1.152142e-04	
232	1.550000e+00	1.154107e-04	
233	1.600000e+00	1.155837e-04	
234	1.650000e+00	1.157383e-04	
235	1.700000e+00	1.158781e-04	
236	1.750000e+00	1.160059e-04	
237	1.800000e+00	1.161238e-04	
238	1.850000e+00	1.162333e-04	
239	1.900000e+00	1.163356e-04	
240	1.950000e+00	1.164318e-04	
241	2.000000e+00	1.165226e-04	
242	2.050000e+00	1.166087e-04	
243	2.100000e+00	1.166907e-04	
244	2.150000e+00	1.167689e-04	
245	2.200000e+00	1.168438e-04	
246	2.250000e+00	1.169157e-04	
247	2.300000e+00	1.169849e-04	
248	2.350000e+00	1.170516e-04	
249	2.400000e+00	1.171161e-04	
250	2.450000e+00	1.171785e-04	
251	2.500000e+00	1.172390e-04	
252	2.550000e+00	1.172978e-04	
253	2.600000e+00	1.173550e-04	
254	2.650000e+00	1.174108e-04	
255	2.700000e+00	1.174653e-04	
256	2.750000e+00	1.175187e-04	
257	2.800000e+00	1.175710e-04	
258	2.850000e+00	1.176225e-04	
259	2.900000e+00	1.176733e-04	
260	2.950000e+00	1.177237e-04	
261	3.000000e+00	1.177738e-04	
262	3.050000e+00	1.178240e-04	
263	3.100000e+00	1.178744e-04	
264	3.150000e+00	1.179255e-04	
265	3.200000e+00	1.179775e-04	
266	3.250000e+00	1.180310e-04	
267	3.300000e+00	1.180864e-04	
268	0.000000e+00	-0.000000e+00	
269	5.000000e-02	1.068750e-05	
270	1.000000e-01	2.097580e-05	
271	1.500000e-01	3.087193e-05	
272	2.000000e-01	4.038275e-05	
273	2.500000e-01	4.951497e-05	
274	3.000000e-01	5.827513e-05	
275	3.500000e-01	6.666962e-05	
276	4.000000e-01	7.470471e-05	
277	4.500000e-01	8.238648e-05	
278	5.000000e-01	8.972091e-05	
279	5.500000e-01	9.671383e-05	
280	6.000000e-01	1.033709e-04	
281	6.500000e-01	1.096978e-04	
282	7.000000e-01	1.156998e-04	
283	7.500000e-01	1.213823e-04	
284	8.000000e-01	1.267505e-04	
285	8.500000e-01	1.318094e-04	
286	9.000000e-01	1.365638e-04	

Index   v-sweep         -i(vds)         
--------------------------------------------------------------------------------
287	9.500000e-01	1.410186e-04	
288	1.000000e+00	1.451783e-04	
289	1.050000e+00	1.490473e-04	
290	1.100000e+00	1.526296e-04	
291	1.150000e+00	1.559290e-04	
292	1.200000e+00	1.589485e-04	
293	1.250000e+00	1.616904e-04	
294	1.300000e+00	1.641553e-04	
295	1.350000e+00	1.663416e-04	
296	1.400000e+00	1.682446e-04	
297	1.450000e+00	1.698577e-04	
298	1.500000e+00	1.711799e-04	
299	1.550000e+00	1.722287e-04	
300	1.600000e+00	1.730462e-04	
301	1.650000e+00	1.736863e-04	
302	1.700000e+00	1.741974e-04	
303	1.750000e+00	1.746160e-04	
304	1.800000e+00	1.749674e-04	
305	1.850000e+00	1.752690e-04	
306	1.900000e+00	1.755326e-04	
307	1.950000e+00	1.757666e-04	
308	2.000000e+00	1.759770e-04	
309	2.050000e+00	1.761681e-04	
310	2.100000e+00	1.763434e-04	
311	2.150000e+00	1.765054e-04	
312	2.200000e+00	1.766560e-04	
313	2.250000e+00	1.767970e-04	
314	2.300000e+00	1.769295e-04	
315	2.350000e+00	1.770546e-04	
316	2.400000e+00	1.771732e-04	
317	2.450000e+00	1.772861e-04	
318	2.500000e+00	1.773938e-04	
319	2.550000e+00	1.774968e-04	
320	2.600000e+00	1.775957e-04	
321	2.650000e+00	1.776907e-04	
322	2.700000e+00	1.777823e-04	
323	2.750000e+00	1.778707e-04	
324	2.800000e+00	1.779562e-04	
325	2.850000e+00	1.780390e-04	
326	2.900000e+00	1.781195e-04	
327	2.950000e+00	1.781977e-04	
328	3.000000e+00	1.782739e-04	
329	3.050000e+00	1.783483e-04	
330	3.100000e+00	1.784211e-04	
331	3.150000e+00	1.784926e-04	
332	3.200000e+00	1.785631e-04	
333	3.250000e+00	1.786327e-04	
334	3.300000e+00	1.787019e-04	
335	0.000000e+00	-0.000000e+00	
336	5.000000e-02	1.203367e-05	
337	1.000000e-01	2.369337e-05	
338	1.500000e-01	3.498513e-05	
339	2.000000e-01	4.591484e-05	
340	2.500000e-01	5.648829e-05	
341	3.000000e-01	6.671113e-05	
342	3.500000e-01	7.658889e-05	
343	4.000000e-01	8.612698e-05	
344	4.500000e-01	9.533072e-05	

Index   v-sweep         -i(vds)         
--------------------------------------------------------------------------------
345	5.000000e-01	1.042053e-04	
346	5.500000e-01	1.127558e-04	
347	6.000000e-01	1.209872e-04	
348	6.500000e-01	1.289043e-04	
349	7.000000e-01	1.365120e-04	
350	7.500000e-01	1.438150e-04	
351	8.000000e-01	1.508177e-04	
352	8.500000e-01	1.575247e-04	
353	9.000000e-01	1.639404e-04	
354	9.500000e-01	1.700690e-04	
355	1.000000e+00	1.759148e-04	
356	1.050000e+00	1.814818e-04	
357	1.100000e+00	1.867740e-04	
358	1.150000e+00	1.917953e-04	
359	1.200000e+00	1.965495e-04	
360	1.250000e+00	2.010401e-04	
361	1.300000e+00	2.052707e-04	
362	1.350000e+00	2.092443e-04	
363	1.400000e+00	2.129639e-04	
364	1.450000e+00	2.164320e-04	
365	1.500000e+00	2.196503e-04	
366	1.550000e+00	2.226194e-04	
367	1.600000e+00	2.253384e-04	
368	1.650000e+00	2.278034e-04	
369	1.700000e+00	2.300070e-04	
370	1.750000e+00	2.319378e-04	
371	1.800000e+00	2.335849e-04	
372	1.850000e+00	2.349487e-04	
373	1.900000e+00	2.360514e-04	
374	1.950000e+00	2.369355e-04	
375	2.000000e+00	2.376495e-04	
376	2.050000e+00	2.382359e-04	
377	2.100000e+00	2.387274e-04	
378	2.150000e+00	2.391474e-04	
379	2.200000e+00	2.395127e-04	
380	2.250000e+00	2.398353e-04	
381	2.300000e+00	2.401239e-04	
382	2.350000e+00	2.403848e-04	
383	2.400000e+00	2.406230e-04	
384	2.450000e+00	2.408422e-04	
385	2.500000e+00	2.410452e-04	
386	2.550000e+00	2.412345e-04	
387	2.600000e+00	2.414118e-04	
388	2.650000e+00	2.415787e-04	
389	2.700000e+00	2.417365e-04	
390	2.750000e+00	2.418861e-04	
391	2.800000e+00	2.420285e-04	
392	2.850000e+00	2.421644e-04	
393	2.900000e+00	2.422944e-04	
394	2.950000e+00	2.424192e-04	
395	3.000000e+00	2.425391e-04	
396	3.050000e+00	2.426546e-04	
397	3.100000e+00	2.427661e-04	
398	3.150000e+00	2.428738e-04	
399	3.200000e+00	2.429783e-04	
400	3.250000e+00	2.430796e-04	
401	3.300000e+00	2.431782e-04	
Note: No ".plot", ".print", or ".fourier" lines; no simulations run
