
Note: Compatibility modes selected: hs

Warning: m=xx on .subckt line will override multiplier m hierarchy!


Circuit: ***************************

Doing analysis at TEMP = 25.000000 and TNOM = 25.000000


No. of Data Rows : 402
                          ***************************
                          DC transfer characteristic  Mon Jan  9 13:57:17  2023
--------------------------------------------------------------------------------
Index   v-sweep         -i(vds)         
--------------------------------------------------------------------------------
0	0.000000e+00	-0.000000e+00	
1	5.000000e-02	4.885883e-07	
2	1.000000e-01	8.231685e-07	
3	1.500000e-01	1.020031e-06	
4	2.000000e-01	1.113531e-06	
5	2.500000e-01	1.155337e-06	
6	3.000000e-01	1.178865e-06	
7	3.500000e-01	1.195440e-06	
8	4.000000e-01	1.208622e-06	
9	4.500000e-01	1.219804e-06	
10	5.000000e-01	1.229658e-06	
11	5.500000e-01	1.238563e-06	
12	6.000000e-01	1.246753e-06	
13	6.500000e-01	1.254383e-06	
14	7.000000e-01	1.261563e-06	
15	7.500000e-01	1.268374e-06	
16	8.000000e-01	1.274875e-06	
17	8.500000e-01	1.281113e-06	
18	9.000000e-01	1.287125e-06	
19	9.500000e-01	1.292941e-06	
20	1.000000e+00	1.298585e-06	
21	1.050000e+00	1.304077e-06	
22	1.100000e+00	1.309433e-06	
23	1.150000e+00	1.314669e-06	
24	1.200000e+00	1.319796e-06	
25	1.250000e+00	1.324824e-06	
26	1.300000e+00	1.329763e-06	
27	1.350000e+00	1.334621e-06	
28	1.400000e+00	1.339404e-06	
29	1.450000e+00	1.344118e-06	
30	1.500000e+00	1.348770e-06	
31	1.550000e+00	1.353363e-06	
32	1.600000e+00	1.357903e-06	
33	1.650000e+00	1.362394e-06	
34	1.700000e+00	1.366839e-06	
35	1.750000e+00	1.371243e-06	
36	1.800000e+00	1.375609e-06	
37	1.850000e+00	1.379940e-06	
38	1.900000e+00	1.384241e-06	
39	1.950000e+00	1.388515e-06	
40	2.000000e+00	1.392766e-06	
41	2.050000e+00	1.396999e-06	
42	2.100000e+00	1.401219e-06	
43	2.150000e+00	1.405430e-06	
44	2.200000e+00	1.409638e-06	
45	2.250000e+00	1.413851e-06	
46	2.300000e+00	1.418073e-06	
47	2.350000e+00	1.422314e-06	
48	2.400000e+00	1.426582e-06	
49	2.450000e+00	1.430886e-06	
50	2.500000e+00	1.435236e-06	
51	2.550000e+00	1.439644e-06	
52	2.600000e+00	1.444122e-06	
53	2.650000e+00	1.448683e-06	
54	2.700000e+00	1.453342e-06	

Index   v-sweep         -i(vds)         
--------------------------------------------------------------------------------
55	2.750000e+00	1.458114e-06	
56	2.800000e+00	1.463017e-06	
57	2.850000e+00	1.468070e-06	
58	2.900000e+00	1.473291e-06	
59	2.950000e+00	1.478703e-06	
60	3.000000e+00	1.484327e-06	
61	3.050000e+00	1.490189e-06	
62	3.100000e+00	1.496313e-06	
63	3.150000e+00	1.502728e-06	
64	3.200000e+00	1.509462e-06	
65	3.250000e+00	1.516546e-06	
66	3.300000e+00	1.524012e-06	
67	0.000000e+00	-0.000000e+00	
68	5.000000e-02	2.018087e-06	
69	1.000000e-01	3.819891e-06	
70	1.500000e-01	5.415468e-06	
71	2.000000e-01	6.814306e-06	
72	2.500000e-01	8.025399e-06	
73	3.000000e-01	9.057357e-06	
74	3.500000e-01	9.918606e-06	
75	4.000000e-01	1.061785e-05	
76	4.500000e-01	1.116530e-05	
77	5.000000e-01	1.157554e-05	
78	5.500000e-01	1.187166e-05	
79	6.000000e-01	1.208419e-05	
80	6.500000e-01	1.224171e-05	
81	7.000000e-01	1.236418e-05	
82	7.500000e-01	1.246374e-05	
83	8.000000e-01	1.254760e-05	
84	8.500000e-01	1.262017e-05	
85	9.000000e-01	1.268429e-05	
86	9.500000e-01	1.274190e-05	
87	1.000000e+00	1.279432e-05	
88	1.050000e+00	1.284253e-05	
89	1.100000e+00	1.288726e-05	
90	1.150000e+00	1.292905e-05	
91	1.200000e+00	1.296835e-05	
92	1.250000e+00	1.300549e-05	
93	1.300000e+00	1.304076e-05	
94	1.350000e+00	1.307438e-05	
95	1.400000e+00	1.310655e-05	
96	1.450000e+00	1.313742e-05	
97	1.500000e+00	1.316712e-05	
98	1.550000e+00	1.319578e-05	
99	1.600000e+00	1.322348e-05	
100	1.650000e+00	1.325032e-05	
101	1.700000e+00	1.327637e-05	
102	1.750000e+00	1.330169e-05	
103	1.800000e+00	1.332634e-05	
104	1.850000e+00	1.335038e-05	
105	1.900000e+00	1.337385e-05	
106	1.950000e+00	1.339679e-05	
107	2.000000e+00	1.341925e-05	
108	2.050000e+00	1.344126e-05	
109	2.100000e+00	1.346286e-05	
110	2.150000e+00	1.348409e-05	
111	2.200000e+00	1.350497e-05	
112	2.250000e+00	1.352555e-05	

Index   v-sweep         -i(vds)         
--------------------------------------------------------------------------------
113	2.300000e+00	1.354586e-05	
114	2.350000e+00	1.356594e-05	
115	2.400000e+00	1.358584e-05	
116	2.450000e+00	1.360560e-05	
117	2.500000e+00	1.362528e-05	
118	2.550000e+00	1.364492e-05	
119	2.600000e+00	1.366459e-05	
120	2.650000e+00	1.368435e-05	
121	2.700000e+00	1.370429e-05	
122	2.750000e+00	1.372448e-05	
123	2.800000e+00	1.374501e-05	
124	2.850000e+00	1.376597e-05	
125	2.900000e+00	1.378749e-05	
126	2.950000e+00	1.380967e-05	
127	3.000000e+00	1.383263e-05	
128	3.050000e+00	1.385653e-05	
129	3.100000e+00	1.388149e-05	
130	3.150000e+00	1.390770e-05	
131	3.200000e+00	1.393531e-05	
132	3.250000e+00	1.396451e-05	
133	3.300000e+00	1.399549e-05	
134	0.000000e+00	-0.000000e+00	
135	5.000000e-02	3.266253e-06	
136	1.000000e-01	6.298648e-06	
137	1.500000e-01	9.106849e-06	
138	2.000000e-01	1.170000e-05	
139	2.500000e-01	1.408674e-05	
140	3.000000e-01	1.627525e-05	
141	3.500000e-01	1.827329e-05	
142	4.000000e-01	2.008818e-05	
143	4.500000e-01	2.172684e-05	
144	5.000000e-01	2.319578e-05	
145	5.500000e-01	2.450108e-05	
146	6.000000e-01	2.564833e-05	
147	6.500000e-01	2.664253e-05	
148	7.000000e-01	2.748828e-05	
149	7.500000e-01	2.819064e-05	
150	8.000000e-01	2.875811e-05	
151	8.500000e-01	2.920666e-05	
152	9.000000e-01	2.955942e-05	
153	9.500000e-01	2.984061e-05	
154	1.000000e+00	3.007011e-05	
155	1.050000e+00	3.026225e-05	
156	1.100000e+00	3.042685e-05	
157	1.150000e+00	3.057065e-05	
158	1.200000e+00	3.069831e-05	
159	1.250000e+00	3.081317e-05	
160	1.300000e+00	3.091766e-05	
161	1.350000e+00	3.101362e-05	
162	1.400000e+00	3.110243e-05	
163	1.450000e+00	3.118518e-05	
164	1.500000e+00	3.126272e-05	
165	1.550000e+00	3.133576e-05	
166	1.600000e+00	3.140485e-05	
167	1.650000e+00	3.147047e-05	
168	1.700000e+00	3.153299e-05	
169	1.750000e+00	3.159275e-05	
170	1.800000e+00	3.165003e-05	

Index   v-sweep         -i(vds)         
--------------------------------------------------------------------------------
171	1.850000e+00	3.170507e-05	
172	1.900000e+00	3.175807e-05	
173	1.950000e+00	3.180922e-05	
174	2.000000e+00	3.185867e-05	
175	2.050000e+00	3.190656e-05	
176	2.100000e+00	3.195301e-05	
177	2.150000e+00	3.199814e-05	
178	2.200000e+00	3.204205e-05	
179	2.250000e+00	3.208483e-05	
180	2.300000e+00	3.212657e-05	
181	2.350000e+00	3.216735e-05	
182	2.400000e+00	3.220725e-05	
183	2.450000e+00	3.224636e-05	
184	2.500000e+00	3.228475e-05	
185	2.550000e+00	3.232252e-05	
186	2.600000e+00	3.235975e-05	
187	2.650000e+00	3.239653e-05	
188	2.700000e+00	3.243298e-05	
189	2.750000e+00	3.246921e-05	
190	2.800000e+00	3.250534e-05	
191	2.850000e+00	3.254150e-05	
192	2.900000e+00	3.257786e-05	
193	2.950000e+00	3.261457e-05	
194	3.000000e+00	3.265183e-05	
195	3.050000e+00	3.268982e-05	
196	3.100000e+00	3.272879e-05	
197	3.150000e+00	3.276896e-05	
198	3.200000e+00	3.281060e-05	
199	3.250000e+00	3.285401e-05	
200	3.300000e+00	3.289949e-05	
201	0.000000e+00	-0.000000e+00	
202	5.000000e-02	4.268386e-06	
203	1.000000e-01	8.297948e-06	
204	1.500000e-01	1.209761e-05	
205	2.000000e-01	1.567587e-05	
206	2.500000e-01	1.904080e-05	
207	3.000000e-01	2.220007e-05	
208	3.500000e-01	2.516099e-05	
209	4.000000e-01	2.793052e-05	
210	4.500000e-01	3.051527e-05	
211	5.000000e-01	3.292152e-05	
212	5.500000e-01	3.515524e-05	
213	6.000000e-01	3.722206e-05	
214	6.500000e-01	3.912724e-05	
215	7.000000e-01	4.087565e-05	
216	7.500000e-01	4.247164e-05	
217	8.000000e-01	4.391886e-05	
218	8.500000e-01	4.521998e-05	
219	9.000000e-01	4.637633e-05	
220	9.500000e-01	4.738780e-05	
221	1.000000e+00	4.825418e-05	
222	1.050000e+00	4.897896e-05	
223	1.100000e+00	4.957387e-05	
224	1.150000e+00	5.005893e-05	
225	1.200000e+00	5.045716e-05	
226	1.250000e+00	5.078915e-05	
227	1.300000e+00	5.107103e-05	
228	1.350000e+00	5.131467e-05	

Index   v-sweep         -i(vds)         
--------------------------------------------------------------------------------
229	1.400000e+00	5.152864e-05	
230	1.450000e+00	5.171919e-05	
231	1.500000e+00	5.189088e-05	
232	1.550000e+00	5.204713e-05	
233	1.600000e+00	5.219057e-05	
234	1.650000e+00	5.232320e-05	
235	1.700000e+00	5.244664e-05	
236	1.750000e+00	5.256214e-05	
237	1.800000e+00	5.267075e-05	
238	1.850000e+00	5.277331e-05	
239	1.900000e+00	5.287053e-05	
240	1.950000e+00	5.296299e-05	
241	2.000000e+00	5.305120e-05	
242	2.050000e+00	5.313557e-05	
243	2.100000e+00	5.321649e-05	
244	2.150000e+00	5.329425e-05	
245	2.200000e+00	5.336914e-05	
246	2.250000e+00	5.344140e-05	
247	2.300000e+00	5.351125e-05	
248	2.350000e+00	5.357887e-05	
249	2.400000e+00	5.364444e-05	
250	2.450000e+00	5.370812e-05	
251	2.500000e+00	5.377006e-05	
252	2.550000e+00	5.383038e-05	
253	2.600000e+00	5.388923e-05	
254	2.650000e+00	5.394674e-05	
255	2.700000e+00	5.400303e-05	
256	2.750000e+00	5.405825e-05	
257	2.800000e+00	5.411253e-05	
258	2.850000e+00	5.416601e-05	
259	2.900000e+00	5.421888e-05	
260	2.950000e+00	5.427129e-05	
261	3.000000e+00	5.432344e-05	
262	3.050000e+00	5.437554e-05	
263	3.100000e+00	5.442784e-05	
264	3.150000e+00	5.448057e-05	
265	3.200000e+00	5.453404e-05	
266	3.250000e+00	5.458854e-05	
267	3.300000e+00	5.464444e-05	
268	0.000000e+00	-0.000000e+00	
269	5.000000e-02	5.079534e-06	
270	1.000000e-01	9.921803e-06	
271	1.500000e-01	1.453490e-05	
272	2.000000e-01	1.892655e-05	
273	2.500000e-01	2.310414e-05	
274	3.000000e-01	2.707473e-05	
275	3.500000e-01	3.084505e-05	
276	4.000000e-01	3.442155e-05	
277	4.500000e-01	3.781041e-05	
278	5.000000e-01	4.101751e-05	
279	5.500000e-01	4.404849e-05	
280	6.000000e-01	4.690874e-05	
281	6.500000e-01	4.960337e-05	
282	7.000000e-01	5.213727e-05	
283	7.500000e-01	5.451503e-05	
284	8.000000e-01	5.674097e-05	
285	8.500000e-01	5.881904e-05	
286	9.000000e-01	6.075277e-05	

Index   v-sweep         -i(vds)         
--------------------------------------------------------------------------------
287	9.500000e-01	6.254508e-05	
288	1.000000e+00	6.419804e-05	
289	1.050000e+00	6.571246e-05	
290	1.100000e+00	6.708740e-05	
291	1.150000e+00	6.831983e-05	
292	1.200000e+00	6.940545e-05	
293	1.250000e+00	7.034181e-05	
294	1.300000e+00	7.113333e-05	
295	1.350000e+00	7.179402e-05	
296	1.400000e+00	7.234463e-05	
297	1.450000e+00	7.280712e-05	
298	1.500000e+00	7.320070e-05	
299	1.550000e+00	7.354062e-05	
300	1.600000e+00	7.383841e-05	
301	1.650000e+00	7.410272e-05	
302	1.700000e+00	7.434001e-05	
303	1.750000e+00	7.455516e-05	
304	1.800000e+00	7.475193e-05	
305	1.850000e+00	7.493325e-05	
306	1.900000e+00	7.510140e-05	
307	1.950000e+00	7.525825e-05	
308	2.000000e+00	7.540527e-05	
309	2.050000e+00	7.554370e-05	
310	2.100000e+00	7.567454e-05	
311	2.150000e+00	7.579865e-05	
312	2.200000e+00	7.591675e-05	
313	2.250000e+00	7.602943e-05	
314	2.300000e+00	7.613724e-05	
315	2.350000e+00	7.624061e-05	
316	2.400000e+00	7.633995e-05	
317	2.450000e+00	7.643560e-05	
318	2.500000e+00	7.652786e-05	
319	2.550000e+00	7.661701e-05	
320	2.600000e+00	7.670328e-05	
321	2.650000e+00	7.678692e-05	
322	2.700000e+00	7.686811e-05	
323	2.750000e+00	7.694705e-05	
324	2.800000e+00	7.702392e-05	
325	2.850000e+00	7.709892e-05	
326	2.900000e+00	7.717222e-05	
327	2.950000e+00	7.724400e-05	
328	3.000000e+00	7.731445e-05	
329	3.050000e+00	7.738379e-05	
330	3.100000e+00	7.745224e-05	
331	3.150000e+00	7.752003e-05	
332	3.200000e+00	7.758742e-05	
333	3.250000e+00	7.765471e-05	
334	3.300000e+00	7.772222e-05	
335	0.000000e+00	-0.000000e+00	
336	5.000000e-02	5.740841e-06	
337	1.000000e-01	1.124966e-05	
338	1.500000e-01	1.653371e-05	
339	2.000000e-01	2.159998e-05	
340	2.500000e-01	2.645512e-05	
341	3.000000e-01	3.110556e-05	
342	3.500000e-01	3.555743e-05	
343	4.000000e-01	3.981665e-05	
344	4.500000e-01	4.388886e-05	

Index   v-sweep         -i(vds)         
--------------------------------------------------------------------------------
345	5.000000e-01	4.777952e-05	
346	5.500000e-01	5.149384e-05	
347	6.000000e-01	5.503684e-05	
348	6.500000e-01	5.841333e-05	
349	7.000000e-01	6.162792e-05	
350	7.500000e-01	6.468503e-05	
351	8.000000e-01	6.758888e-05	
352	8.500000e-01	7.034349e-05	
353	9.000000e-01	7.295265e-05	
354	9.500000e-01	7.541991e-05	
355	1.000000e+00	7.774853e-05	
356	1.050000e+00	7.994140e-05	
357	1.100000e+00	8.200089e-05	
358	1.150000e+00	8.392869e-05	
359	1.200000e+00	8.572546e-05	
360	1.250000e+00	8.739035e-05	
361	1.300000e+00	8.892045e-05	
362	1.350000e+00	9.031048e-05	
363	1.400000e+00	9.155358e-05	
364	1.450000e+00	9.264424e-05	
365	1.500000e+00	9.358315e-05	
366	1.550000e+00	9.438049e-05	
367	1.600000e+00	9.505441e-05	
368	1.650000e+00	9.562619e-05	
369	1.700000e+00	9.611592e-05	
370	1.750000e+00	9.654042e-05	
371	1.800000e+00	9.691300e-05	
372	1.850000e+00	9.724386e-05	
373	1.900000e+00	9.754084e-05	
374	1.950000e+00	9.780994e-05	
375	2.000000e+00	9.805581e-05	
376	2.050000e+00	9.828209e-05	
377	2.100000e+00	9.849169e-05	
378	2.150000e+00	9.868693e-05	
379	2.200000e+00	9.886970e-05	
380	2.250000e+00	9.904154e-05	
381	2.300000e+00	9.920375e-05	
382	2.350000e+00	9.935741e-05	
383	2.400000e+00	9.950343e-05	
384	2.450000e+00	9.964259e-05	
385	2.500000e+00	9.977554e-05	
386	2.550000e+00	9.990288e-05	
387	2.600000e+00	1.000251e-04	
388	2.650000e+00	1.001426e-04	
389	2.700000e+00	1.002559e-04	
390	2.750000e+00	1.003652e-04	
391	2.800000e+00	1.004708e-04	
392	2.850000e+00	1.005731e-04	
393	2.900000e+00	1.006723e-04	
394	2.950000e+00	1.007687e-04	
395	3.000000e+00	1.008625e-04	
396	3.050000e+00	1.009538e-04	
397	3.100000e+00	1.010431e-04	
398	3.150000e+00	1.011304e-04	
399	3.200000e+00	1.012160e-04	
400	3.250000e+00	1.013003e-04	
401	3.300000e+00	1.013834e-04	
Note: No ".plot", ".print", or ".fourier" lines; no simulations run
