
Note: Compatibility modes selected: hs

Warning: m=xx on .subckt line will override multiplier m hierarchy!


Circuit: ***************************

Doing analysis at TEMP = 25.000000 and TNOM = 25.000000


No. of Data Rows : 402
                          ***************************
                          DC transfer characteristic  Mon Jan  9 13:57:17  2023
--------------------------------------------------------------------------------
Index   v-sweep         -i(vds)         
--------------------------------------------------------------------------------
0	0.000000e+00	-0.000000e+00	
1	5.000000e-02	1.054673e-06	
2	1.000000e-01	1.652896e-06	
3	1.500000e-01	1.844626e-06	
4	2.000000e-01	1.866492e-06	
5	2.500000e-01	1.870571e-06	
6	3.000000e-01	1.872596e-06	
7	3.500000e-01	1.874082e-06	
8	4.000000e-01	1.875347e-06	
9	4.500000e-01	1.876495e-06	
10	5.000000e-01	1.877571e-06	
11	5.500000e-01	1.878598e-06	
12	6.000000e-01	1.879590e-06	
13	6.500000e-01	1.880555e-06	
14	7.000000e-01	1.881499e-06	
15	7.500000e-01	1.882426e-06	
16	8.000000e-01	1.883339e-06	
17	8.500000e-01	1.884240e-06	
18	9.000000e-01	1.885130e-06	
19	9.500000e-01	1.886012e-06	
20	1.000000e+00	1.886886e-06	
21	1.050000e+00	1.887753e-06	
22	1.100000e+00	1.888615e-06	
23	1.150000e+00	1.889471e-06	
24	1.200000e+00	1.890322e-06	
25	1.250000e+00	1.891168e-06	
26	1.300000e+00	1.892011e-06	
27	1.350000e+00	1.892850e-06	
28	1.400000e+00	1.893686e-06	
29	1.450000e+00	1.894518e-06	
30	1.500000e+00	1.895348e-06	
31	1.550000e+00	1.896175e-06	
32	1.600000e+00	1.897001e-06	
33	1.650000e+00	1.897824e-06	
34	1.700000e+00	1.898646e-06	
35	1.750000e+00	1.899468e-06	
36	1.800000e+00	1.900289e-06	
37	1.850000e+00	1.901111e-06	
38	1.900000e+00	1.901934e-06	
39	1.950000e+00	1.902761e-06	
40	2.000000e+00	1.903592e-06	
41	2.050000e+00	1.904431e-06	
42	2.100000e+00	1.905278e-06	
43	2.150000e+00	1.906139e-06	
44	2.200000e+00	1.907015e-06	
45	2.250000e+00	1.907912e-06	
46	2.300000e+00	1.908834e-06	
47	2.350000e+00	1.909787e-06	
48	2.400000e+00	1.910778e-06	
49	2.450000e+00	1.911814e-06	
50	2.500000e+00	1.912904e-06	
51	2.550000e+00	1.914056e-06	
52	2.600000e+00	1.915282e-06	
53	2.650000e+00	1.916593e-06	
54	2.700000e+00	1.918000e-06	

Index   v-sweep         -i(vds)         
--------------------------------------------------------------------------------
55	2.750000e+00	1.919519e-06	
56	2.800000e+00	1.921163e-06	
57	2.850000e+00	1.922948e-06	
58	2.900000e+00	1.924892e-06	
59	2.950000e+00	1.927012e-06	
60	3.000000e+00	1.929327e-06	
61	3.050000e+00	1.931859e-06	
62	3.100000e+00	1.934628e-06	
63	3.150000e+00	1.937657e-06	
64	3.200000e+00	1.940970e-06	
65	3.250000e+00	1.944591e-06	
66	3.300000e+00	1.948546e-06	
67	0.000000e+00	-0.000000e+00	
68	5.000000e-02	4.983566e-06	
69	1.000000e-01	9.433649e-06	
70	1.500000e-01	1.335169e-05	
71	2.000000e-01	1.673917e-05	
72	2.500000e-01	1.959765e-05	
73	3.000000e-01	2.192896e-05	
74	3.500000e-01	2.373564e-05	
75	4.000000e-01	2.502283e-05	
76	4.500000e-01	2.580783e-05	
77	5.000000e-01	2.616426e-05	
78	5.500000e-01	2.628017e-05	
79	6.000000e-01	2.632114e-05	
80	6.500000e-01	2.634206e-05	
81	7.000000e-01	2.635602e-05	
82	7.500000e-01	2.636679e-05	
83	8.000000e-01	2.637582e-05	
84	8.500000e-01	2.638375e-05	
85	9.000000e-01	2.639093e-05	
86	9.500000e-01	2.639758e-05	
87	1.000000e+00	2.640381e-05	
88	1.050000e+00	2.640972e-05	
89	1.100000e+00	2.641537e-05	
90	1.150000e+00	2.642081e-05	
91	1.200000e+00	2.642607e-05	
92	1.250000e+00	2.643117e-05	
93	1.300000e+00	2.643614e-05	
94	1.350000e+00	2.644100e-05	
95	1.400000e+00	2.644575e-05	
96	1.450000e+00	2.645042e-05	
97	1.500000e+00	2.645500e-05	
98	1.550000e+00	2.645952e-05	
99	1.600000e+00	2.646396e-05	
100	1.650000e+00	2.646835e-05	
101	1.700000e+00	2.647269e-05	
102	1.750000e+00	2.647697e-05	
103	1.800000e+00	2.648122e-05	
104	1.850000e+00	2.648542e-05	
105	1.900000e+00	2.648958e-05	
106	1.950000e+00	2.649371e-05	
107	2.000000e+00	2.649782e-05	
108	2.050000e+00	2.650191e-05	
109	2.100000e+00	2.650598e-05	
110	2.150000e+00	2.651005e-05	
111	2.200000e+00	2.651412e-05	
112	2.250000e+00	2.651822e-05	

Index   v-sweep         -i(vds)         
--------------------------------------------------------------------------------
113	2.300000e+00	2.652236e-05	
114	2.350000e+00	2.652656e-05	
115	2.400000e+00	2.653085e-05	
116	2.450000e+00	2.653528e-05	
117	2.500000e+00	2.653987e-05	
118	2.550000e+00	2.654468e-05	
119	2.600000e+00	2.654977e-05	
120	2.650000e+00	2.655520e-05	
121	2.700000e+00	2.656106e-05	
122	2.750000e+00	2.656744e-05	
123	2.800000e+00	2.657443e-05	
124	2.850000e+00	2.658215e-05	
125	2.900000e+00	2.659074e-05	
126	2.950000e+00	2.660033e-05	
127	3.000000e+00	2.661108e-05	
128	3.050000e+00	2.662316e-05	
129	3.100000e+00	2.663675e-05	
130	3.150000e+00	2.665207e-05	
131	3.200000e+00	2.666932e-05	
132	3.250000e+00	2.668874e-05	
133	3.300000e+00	2.671058e-05	
134	0.000000e+00	-0.000000e+00	
135	5.000000e-02	8.540243e-06	
136	1.000000e-01	1.657729e-05	
137	1.500000e-01	2.411240e-05	
138	2.000000e-01	3.114681e-05	
139	2.500000e-01	3.768175e-05	
140	3.000000e-01	4.371847e-05	
141	3.500000e-01	4.925821e-05	
142	4.000000e-01	5.430223e-05	
143	4.500000e-01	5.885179e-05	
144	5.000000e-01	6.290819e-05	
145	5.500000e-01	6.647277e-05	
146	6.000000e-01	6.954701e-05	
147	6.500000e-01	7.213265e-05	
148	7.000000e-01	7.423212e-05	
149	7.500000e-01	7.584976e-05	
150	8.000000e-01	7.699621e-05	
151	8.500000e-01	7.770396e-05	
152	9.000000e-01	7.806406e-05	
153	9.500000e-01	7.822645e-05	
154	1.000000e+00	7.830720e-05	
155	1.050000e+00	7.835601e-05	
156	1.100000e+00	7.839048e-05	
157	1.150000e+00	7.841739e-05	
158	1.200000e+00	7.843977e-05	
159	1.250000e+00	7.845918e-05	
160	1.300000e+00	7.847649e-05	
161	1.350000e+00	7.849227e-05	
162	1.400000e+00	7.850686e-05	
163	1.450000e+00	7.852050e-05	
164	1.500000e+00	7.853338e-05	
165	1.550000e+00	7.854563e-05	
166	1.600000e+00	7.855735e-05	
167	1.650000e+00	7.856861e-05	
168	1.700000e+00	7.857948e-05	
169	1.750000e+00	7.859001e-05	
170	1.800000e+00	7.860024e-05	

Index   v-sweep         -i(vds)         
--------------------------------------------------------------------------------
171	1.850000e+00	7.861019e-05	
172	1.900000e+00	7.861991e-05	
173	1.950000e+00	7.862942e-05	
174	2.000000e+00	7.863873e-05	
175	2.050000e+00	7.864787e-05	
176	2.100000e+00	7.865684e-05	
177	2.150000e+00	7.866567e-05	
178	2.200000e+00	7.867437e-05	
179	2.250000e+00	7.868294e-05	
180	2.300000e+00	7.869141e-05	
181	2.350000e+00	7.869979e-05	
182	2.400000e+00	7.870809e-05	
183	2.450000e+00	7.871633e-05	
184	2.500000e+00	7.872454e-05	
185	2.550000e+00	7.873274e-05	
186	2.600000e+00	7.874097e-05	
187	2.650000e+00	7.874929e-05	
188	2.700000e+00	7.875774e-05	
189	2.750000e+00	7.876640e-05	
190	2.800000e+00	7.877537e-05	
191	2.850000e+00	7.878474e-05	
192	2.900000e+00	7.879466e-05	
193	2.950000e+00	7.880527e-05	
194	3.000000e+00	7.881676e-05	
195	3.050000e+00	7.882935e-05	
196	3.100000e+00	7.884326e-05	
197	3.150000e+00	7.885879e-05	
198	3.200000e+00	7.887624e-05	
199	3.250000e+00	7.889597e-05	
200	3.300000e+00	7.891836e-05	
201	0.000000e+00	-0.000000e+00	
202	5.000000e-02	1.146203e-05	
203	1.000000e-01	2.246779e-05	
204	1.500000e-01	3.301834e-05	
205	2.000000e-01	4.311473e-05	
206	2.500000e-01	5.275801e-05	
207	3.000000e-01	6.194922e-05	
208	3.500000e-01	7.068942e-05	
209	4.000000e-01	7.897963e-05	
210	4.500000e-01	8.682089e-05	
211	5.000000e-01	9.421425e-05	
212	5.500000e-01	1.011607e-04	
213	6.000000e-01	1.076614e-04	
214	6.500000e-01	1.137172e-04	
215	7.000000e-01	1.193293e-04	
216	7.500000e-01	1.244987e-04	
217	8.000000e-01	1.292263e-04	
218	8.500000e-01	1.335134e-04	
219	9.000000e-01	1.373611e-04	
220	9.500000e-01	1.407704e-04	
221	1.000000e+00	1.437427e-04	
222	1.050000e+00	1.462797e-04	
223	1.100000e+00	1.483836e-04	
224	1.150000e+00	1.500585e-04	
225	1.200000e+00	1.513134e-04	
226	1.250000e+00	1.521718e-04	
227	1.300000e+00	1.526922e-04	
228	1.350000e+00	1.529788e-04	

Index   v-sweep         -i(vds)         
--------------------------------------------------------------------------------
229	1.400000e+00	1.531390e-04	
230	1.450000e+00	1.532387e-04	
231	1.500000e+00	1.533084e-04	
232	1.550000e+00	1.533618e-04	
233	1.600000e+00	1.534052e-04	
234	1.650000e+00	1.534421e-04	
235	1.700000e+00	1.534745e-04	
236	1.750000e+00	1.535034e-04	
237	1.800000e+00	1.535298e-04	
238	1.850000e+00	1.535542e-04	
239	1.900000e+00	1.535770e-04	
240	1.950000e+00	1.535984e-04	
241	2.000000e+00	1.536186e-04	
242	2.050000e+00	1.536379e-04	
243	2.100000e+00	1.536564e-04	
244	2.150000e+00	1.536742e-04	
245	2.200000e+00	1.536914e-04	
246	2.250000e+00	1.537080e-04	
247	2.300000e+00	1.537240e-04	
248	2.350000e+00	1.537397e-04	
249	2.400000e+00	1.537550e-04	
250	2.450000e+00	1.537698e-04	
251	2.500000e+00	1.537844e-04	
252	2.550000e+00	1.537987e-04	
253	2.600000e+00	1.538127e-04	
254	2.650000e+00	1.538264e-04	
255	2.700000e+00	1.538399e-04	
256	2.750000e+00	1.538533e-04	
257	2.800000e+00	1.538664e-04	
258	2.850000e+00	1.538795e-04	
259	2.900000e+00	1.538924e-04	
260	2.950000e+00	1.539053e-04	
261	3.000000e+00	1.539183e-04	
262	3.050000e+00	1.539314e-04	
263	3.100000e+00	1.539447e-04	
264	3.150000e+00	1.539584e-04	
265	3.200000e+00	1.539726e-04	
266	3.250000e+00	1.539875e-04	
267	3.300000e+00	1.540034e-04	
268	0.000000e+00	-0.000000e+00	
269	5.000000e-02	1.372053e-05	
270	1.000000e-01	2.703620e-05	
271	1.500000e-01	3.994790e-05	
272	2.000000e-01	5.245649e-05	
273	2.500000e-01	6.456281e-05	
274	3.000000e-01	7.626775e-05	
275	3.500000e-01	8.757215e-05	
276	4.000000e-01	9.847687e-05	
277	4.500000e-01	1.089828e-04	
278	5.000000e-01	1.190907e-04	
279	5.500000e-01	1.288015e-04	
280	6.000000e-01	1.381160e-04	
281	6.500000e-01	1.470350e-04	
282	7.000000e-01	1.555595e-04	
283	7.500000e-01	1.636902e-04	
284	8.000000e-01	1.714280e-04	
285	8.500000e-01	1.787737e-04	
286	9.000000e-01	1.857282e-04	

Index   v-sweep         -i(vds)         
--------------------------------------------------------------------------------
287	9.500000e-01	1.922922e-04	
288	1.000000e+00	1.984667e-04	
289	1.050000e+00	2.042524e-04	
290	1.100000e+00	2.096503e-04	
291	1.150000e+00	2.146611e-04	
292	1.200000e+00	2.192856e-04	
293	1.250000e+00	2.235249e-04	
294	1.300000e+00	2.273796e-04	
295	1.350000e+00	2.308508e-04	
296	1.400000e+00	2.339395e-04	
297	1.450000e+00	2.366469e-04	
298	1.500000e+00	2.389744e-04	
299	1.550000e+00	2.409242e-04	
300	1.600000e+00	2.425006e-04	
301	1.650000e+00	2.437123e-04	
302	1.700000e+00	2.445806e-04	
303	1.750000e+00	2.451527e-04	
304	1.800000e+00	2.455069e-04	
305	1.850000e+00	2.457275e-04	
306	1.900000e+00	2.458743e-04	
307	1.950000e+00	2.459803e-04	
308	2.000000e+00	2.460624e-04	
309	2.050000e+00	2.461293e-04	
310	2.100000e+00	2.461861e-04	
311	2.150000e+00	2.462355e-04	
312	2.200000e+00	2.462796e-04	
313	2.250000e+00	2.463195e-04	
314	2.300000e+00	2.463562e-04	
315	2.350000e+00	2.463902e-04	
316	2.400000e+00	2.464220e-04	
317	2.450000e+00	2.464520e-04	
318	2.500000e+00	2.464804e-04	
319	2.550000e+00	2.465075e-04	
320	2.600000e+00	2.465334e-04	
321	2.650000e+00	2.465583e-04	
322	2.700000e+00	2.465822e-04	
323	2.750000e+00	2.466054e-04	
324	2.800000e+00	2.466279e-04	
325	2.850000e+00	2.466497e-04	
326	2.900000e+00	2.466709e-04	
327	2.950000e+00	2.466915e-04	
328	3.000000e+00	2.467117e-04	
329	3.050000e+00	2.467315e-04	
330	3.100000e+00	2.467508e-04	
331	3.150000e+00	2.467698e-04	
332	3.200000e+00	2.467885e-04	
333	3.250000e+00	2.468069e-04	
334	3.300000e+00	2.468251e-04	
335	0.000000e+00	-0.000000e+00	
336	5.000000e-02	1.536542e-05	
337	1.000000e-01	3.037679e-05	
338	1.500000e-01	4.503483e-05	
339	2.000000e-01	5.934022e-05	
340	2.500000e-01	7.329366e-05	
341	3.000000e-01	8.689584e-05	
342	3.500000e-01	1.001475e-04	
343	4.000000e-01	1.130492e-04	
344	4.500000e-01	1.256017e-04	

Index   v-sweep         -i(vds)         
--------------------------------------------------------------------------------
345	5.000000e-01	1.378058e-04	
346	5.500000e-01	1.496620e-04	
347	6.000000e-01	1.611710e-04	
348	6.500000e-01	1.723336e-04	
349	7.000000e-01	1.831505e-04	
350	7.500000e-01	1.936222e-04	
351	8.000000e-01	2.037495e-04	
352	8.500000e-01	2.135330e-04	
353	9.000000e-01	2.229734e-04	
354	9.500000e-01	2.320715e-04	
355	1.000000e+00	2.408278e-04	
356	1.050000e+00	2.492429e-04	
357	1.100000e+00	2.573177e-04	
358	1.150000e+00	2.650528e-04	
359	1.200000e+00	2.724487e-04	
360	1.250000e+00	2.795062e-04	
361	1.300000e+00	2.862259e-04	
362	1.350000e+00	2.926086e-04	
363	1.400000e+00	2.986548e-04	
364	1.450000e+00	3.043652e-04	
365	1.500000e+00	3.097404e-04	
366	1.550000e+00	3.147812e-04	
367	1.600000e+00	3.194882e-04	
368	1.650000e+00	3.238620e-04	
369	1.700000e+00	3.279034e-04	
370	1.750000e+00	3.316130e-04	
371	1.800000e+00	3.349915e-04	
372	1.850000e+00	3.380397e-04	
373	1.900000e+00	3.407585e-04	
374	1.950000e+00	3.431489e-04	
375	2.000000e+00	3.452122e-04	
376	2.050000e+00	3.469506e-04	
377	2.100000e+00	3.483686e-04	
378	2.150000e+00	3.494753e-04	
379	2.200000e+00	3.502914e-04	
380	2.250000e+00	3.508581e-04	
381	2.300000e+00	3.512375e-04	
382	2.350000e+00	3.514939e-04	
383	2.400000e+00	3.516756e-04	
384	2.450000e+00	3.518123e-04	
385	2.500000e+00	3.519205e-04	
386	2.550000e+00	3.520098e-04	
387	2.600000e+00	3.520860e-04	
388	2.650000e+00	3.521527e-04	
389	2.700000e+00	3.522121e-04	
390	2.750000e+00	3.522660e-04	
391	2.800000e+00	3.523153e-04	
392	2.850000e+00	3.523610e-04	
393	2.900000e+00	3.524036e-04	
394	2.950000e+00	3.524437e-04	
395	3.000000e+00	3.524816e-04	
396	3.050000e+00	3.525176e-04	
397	3.100000e+00	3.525520e-04	
398	3.150000e+00	3.525849e-04	
399	3.200000e+00	3.526166e-04	
400	3.250000e+00	3.526471e-04	
401	3.300000e+00	3.526767e-04	
Note: No ".plot", ".print", or ".fourier" lines; no simulations run
