
Note: Compatibility modes selected: hs

Warning: m=xx on .subckt line will override multiplier m hierarchy!


Circuit: ***************************

Doing analysis at TEMP = 25.000000 and TNOM = 25.000000


No. of Data Rows : 402
                          ***************************
                          DC transfer characteristic  Mon Jan  9 13:57:17  2023
--------------------------------------------------------------------------------
Index   v-sweep         -i(vds)         
--------------------------------------------------------------------------------
0	0.000000e+00	-0.000000e+00	
1	5.000000e-02	1.008754e-06	
2	1.000000e-01	1.584676e-06	
3	1.500000e-01	1.776222e-06	
4	2.000000e-01	1.801375e-06	
5	2.500000e-01	1.806751e-06	
6	3.000000e-01	1.809566e-06	
7	3.500000e-01	1.811650e-06	
8	4.000000e-01	1.813412e-06	
9	4.500000e-01	1.814993e-06	
10	5.000000e-01	1.816460e-06	
11	5.500000e-01	1.817846e-06	
12	6.000000e-01	1.819172e-06	
13	6.500000e-01	1.820453e-06	
14	7.000000e-01	1.821697e-06	
15	7.500000e-01	1.822912e-06	
16	8.000000e-01	1.824101e-06	
17	8.500000e-01	1.825269e-06	
18	9.000000e-01	1.826420e-06	
19	9.500000e-01	1.827554e-06	
20	1.000000e+00	1.828675e-06	
21	1.050000e+00	1.829783e-06	
22	1.100000e+00	1.830881e-06	
23	1.150000e+00	1.831969e-06	
24	1.200000e+00	1.833048e-06	
25	1.250000e+00	1.834119e-06	
26	1.300000e+00	1.835183e-06	
27	1.350000e+00	1.836241e-06	
28	1.400000e+00	1.837292e-06	
29	1.450000e+00	1.838338e-06	
30	1.500000e+00	1.839379e-06	
31	1.550000e+00	1.840416e-06	
32	1.600000e+00	1.841449e-06	
33	1.650000e+00	1.842478e-06	
34	1.700000e+00	1.843506e-06	
35	1.750000e+00	1.844532e-06	
36	1.800000e+00	1.845559e-06	
37	1.850000e+00	1.846587e-06	
38	1.900000e+00	1.847620e-06	
39	1.950000e+00	1.848660e-06	
40	2.000000e+00	1.849709e-06	
41	2.050000e+00	1.850774e-06	
42	2.100000e+00	1.851858e-06	
43	2.150000e+00	1.852967e-06	
44	2.200000e+00	1.854109e-06	
45	2.250000e+00	1.855293e-06	
46	2.300000e+00	1.856527e-06	
47	2.350000e+00	1.857824e-06	
48	2.400000e+00	1.859196e-06	
49	2.450000e+00	1.860657e-06	
50	2.500000e+00	1.862224e-06	
51	2.550000e+00	1.863914e-06	
52	2.600000e+00	1.865747e-06	
53	2.650000e+00	1.867746e-06	
54	2.700000e+00	1.869934e-06	

Index   v-sweep         -i(vds)         
--------------------------------------------------------------------------------
55	2.750000e+00	1.872337e-06	
56	2.800000e+00	1.874981e-06	
57	2.850000e+00	1.877899e-06	
58	2.900000e+00	1.881120e-06	
59	2.950000e+00	1.884679e-06	
60	3.000000e+00	1.888613e-06	
61	3.050000e+00	1.892958e-06	
62	3.100000e+00	1.897755e-06	
63	3.150000e+00	1.903045e-06	
64	3.200000e+00	1.908873e-06	
65	3.250000e+00	1.915283e-06	
66	3.300000e+00	1.922322e-06	
67	0.000000e+00	-0.000000e+00	
68	5.000000e-02	4.832601e-06	
69	1.000000e-01	9.151729e-06	
70	1.500000e-01	1.296007e-05	
71	2.000000e-01	1.626034e-05	
72	2.500000e-01	1.905533e-05	
73	3.000000e-01	2.134803e-05	
74	3.500000e-01	2.314211e-05	
75	4.000000e-01	2.444350e-05	
76	4.500000e-01	2.526812e-05	
77	5.000000e-01	2.567673e-05	
78	5.500000e-01	2.583011e-05	
79	6.000000e-01	2.589103e-05	
80	6.500000e-01	2.592393e-05	
81	7.000000e-01	2.594627e-05	
82	7.500000e-01	2.596352e-05	
83	8.000000e-01	2.597786e-05	
84	8.500000e-01	2.599032e-05	
85	9.000000e-01	2.600148e-05	
86	9.500000e-01	2.601168e-05	
87	1.000000e+00	2.602114e-05	
88	1.050000e+00	2.603002e-05	
89	1.100000e+00	2.603843e-05	
90	1.150000e+00	2.604644e-05	
91	1.200000e+00	2.605413e-05	
92	1.250000e+00	2.606153e-05	
93	1.300000e+00	2.606869e-05	
94	1.350000e+00	2.607564e-05	
95	1.400000e+00	2.608240e-05	
96	1.450000e+00	2.608899e-05	
97	1.500000e+00	2.609544e-05	
98	1.550000e+00	2.610175e-05	
99	1.600000e+00	2.610794e-05	
100	1.650000e+00	2.611402e-05	
101	1.700000e+00	2.612001e-05	
102	1.750000e+00	2.612590e-05	
103	1.800000e+00	2.613171e-05	
104	1.850000e+00	2.613744e-05	
105	1.900000e+00	2.614311e-05	
106	1.950000e+00	2.614872e-05	
107	2.000000e+00	2.615428e-05	
108	2.050000e+00	2.615981e-05	
109	2.100000e+00	2.616531e-05	
110	2.150000e+00	2.617082e-05	
111	2.200000e+00	2.617634e-05	
112	2.250000e+00	2.618192e-05	

Index   v-sweep         -i(vds)         
--------------------------------------------------------------------------------
113	2.300000e+00	2.618758e-05	
114	2.350000e+00	2.619338e-05	
115	2.400000e+00	2.619937e-05	
116	2.450000e+00	2.620563e-05	
117	2.500000e+00	2.621223e-05	
118	2.550000e+00	2.621928e-05	
119	2.600000e+00	2.622688e-05	
120	2.650000e+00	2.623518e-05	
121	2.700000e+00	2.624433e-05	
122	2.750000e+00	2.625451e-05	
123	2.800000e+00	2.626591e-05	
124	2.850000e+00	2.627875e-05	
125	2.900000e+00	2.629329e-05	
126	2.950000e+00	2.630980e-05	
127	3.000000e+00	2.632858e-05	
128	3.050000e+00	2.634995e-05	
129	3.100000e+00	2.637428e-05	
130	3.150000e+00	2.640194e-05	
131	3.200000e+00	2.643335e-05	
132	3.250000e+00	2.646895e-05	
133	3.300000e+00	2.650920e-05	
134	0.000000e+00	-0.000000e+00	
135	5.000000e-02	8.268565e-06	
136	1.000000e-01	1.604858e-05	
137	1.500000e-01	2.334240e-05	
138	2.000000e-01	3.015240e-05	
139	2.500000e-01	3.648090e-05	
140	3.000000e-01	4.233023e-05	
141	3.500000e-01	4.770272e-05	
142	4.000000e-01	5.260068e-05	
143	4.500000e-01	5.702642e-05	
144	5.000000e-01	6.098228e-05	
145	5.500000e-01	6.447061e-05	
146	6.000000e-01	6.749387e-05	
147	6.500000e-01	7.005471e-05	
148	7.000000e-01	7.215633e-05	
149	7.500000e-01	7.380344e-05	
150	8.000000e-01	7.500567e-05	
151	8.500000e-01	7.578967e-05	
152	9.000000e-01	7.622898e-05	
153	9.500000e-01	7.645297e-05	
154	1.000000e+00	7.657557e-05	
155	1.050000e+00	7.665361e-05	
156	1.100000e+00	7.670991e-05	
157	1.150000e+00	7.675408e-05	
158	1.200000e+00	7.679073e-05	
159	1.250000e+00	7.682230e-05	
160	1.300000e+00	7.685023e-05	
161	1.350000e+00	7.687544e-05	
162	1.400000e+00	7.689853e-05	
163	1.450000e+00	7.691994e-05	
164	1.500000e+00	7.693997e-05	
165	1.550000e+00	7.695886e-05	
166	1.600000e+00	7.697679e-05	
167	1.650000e+00	7.699388e-05	
168	1.700000e+00	7.701026e-05	
169	1.750000e+00	7.702602e-05	
170	1.800000e+00	7.704122e-05	

Index   v-sweep         -i(vds)         
--------------------------------------------------------------------------------
171	1.850000e+00	7.705593e-05	
172	1.900000e+00	7.707021e-05	
173	1.950000e+00	7.708410e-05	
174	2.000000e+00	7.709763e-05	
175	2.050000e+00	7.711084e-05	
176	2.100000e+00	7.712375e-05	
177	2.150000e+00	7.713640e-05	
178	2.200000e+00	7.714880e-05	
179	2.250000e+00	7.716099e-05	
180	2.300000e+00	7.717299e-05	
181	2.350000e+00	7.718482e-05	
182	2.400000e+00	7.719651e-05	
183	2.450000e+00	7.720811e-05	
184	2.500000e+00	7.721966e-05	
185	2.550000e+00	7.723122e-05	
186	2.600000e+00	7.724286e-05	
187	2.650000e+00	7.725469e-05	
188	2.700000e+00	7.726682e-05	
189	2.750000e+00	7.727940e-05	
190	2.800000e+00	7.729261e-05	
191	2.850000e+00	7.730666e-05	
192	2.900000e+00	7.732182e-05	
193	2.950000e+00	7.733839e-05	
194	3.000000e+00	7.735674e-05	
195	3.050000e+00	7.737726e-05	
196	3.100000e+00	7.740045e-05	
197	3.150000e+00	7.742683e-05	
198	3.200000e+00	7.745702e-05	
199	3.250000e+00	7.749169e-05	
200	3.300000e+00	7.753161e-05	
201	0.000000e+00	-0.000000e+00	
202	5.000000e-02	1.107525e-05	
203	1.000000e-01	2.170373e-05	
204	1.500000e-01	3.188747e-05	
205	2.000000e-01	4.162847e-05	
206	2.500000e-01	5.092873e-05	
207	3.000000e-01	5.979022e-05	
208	3.500000e-01	6.821491e-05	
209	4.000000e-01	7.620478e-05	
210	4.500000e-01	8.376175e-05	
211	5.000000e-01	9.088778e-05	
212	5.500000e-01	9.758478e-05	
213	6.000000e-01	1.038547e-04	
214	6.500000e-01	1.096994e-04	
215	7.000000e-01	1.151208e-04	
216	7.500000e-01	1.201208e-04	
217	8.000000e-01	1.247013e-04	
218	8.500000e-01	1.288641e-04	
219	9.000000e-01	1.326113e-04	
220	9.500000e-01	1.359446e-04	
221	1.000000e+00	1.388663e-04	
222	1.050000e+00	1.413783e-04	
223	1.100000e+00	1.434834e-04	
224	1.150000e+00	1.451856e-04	
225	1.200000e+00	1.464924e-04	
226	1.250000e+00	1.474235e-04	
227	1.300000e+00	1.480275e-04	
228	1.350000e+00	1.483938e-04	

Index   v-sweep         -i(vds)         
--------------------------------------------------------------------------------
229	1.400000e+00	1.486195e-04	
230	1.450000e+00	1.487701e-04	
231	1.500000e+00	1.488797e-04	
232	1.550000e+00	1.489653e-04	
233	1.600000e+00	1.490355e-04	
234	1.650000e+00	1.490953e-04	
235	1.700000e+00	1.491475e-04	
236	1.750000e+00	1.491940e-04	
237	1.800000e+00	1.492363e-04	
238	1.850000e+00	1.492750e-04	
239	1.900000e+00	1.493109e-04	
240	1.950000e+00	1.493444e-04	
241	2.000000e+00	1.493760e-04	
242	2.050000e+00	1.494059e-04	
243	2.100000e+00	1.494343e-04	
244	2.150000e+00	1.494615e-04	
245	2.200000e+00	1.494876e-04	
246	2.250000e+00	1.495126e-04	
247	2.300000e+00	1.495368e-04	
248	2.350000e+00	1.495602e-04	
249	2.400000e+00	1.495829e-04	
250	2.450000e+00	1.496049e-04	
251	2.500000e+00	1.496264e-04	
252	2.550000e+00	1.496473e-04	
253	2.600000e+00	1.496677e-04	
254	2.650000e+00	1.496877e-04	
255	2.700000e+00	1.497073e-04	
256	2.750000e+00	1.497266e-04	
257	2.800000e+00	1.497455e-04	
258	2.850000e+00	1.497643e-04	
259	2.900000e+00	1.497830e-04	
260	2.950000e+00	1.498017e-04	
261	3.000000e+00	1.498205e-04	
262	3.050000e+00	1.498396e-04	
263	3.100000e+00	1.498593e-04	
264	3.150000e+00	1.498798e-04	
265	3.200000e+00	1.499015e-04	
266	3.250000e+00	1.499247e-04	
267	3.300000e+00	1.499500e-04	
268	0.000000e+00	-0.000000e+00	
269	5.000000e-02	1.323867e-05	
270	1.000000e-01	2.607763e-05	
271	1.500000e-01	3.851854e-05	
272	2.000000e-01	5.056306e-05	
273	2.500000e-01	6.221285e-05	
274	3.000000e-01	7.346955e-05	
275	3.500000e-01	8.433478e-05	
276	4.000000e-01	9.481018e-05	
277	4.500000e-01	1.048974e-04	
278	5.000000e-01	1.145979e-04	
279	5.500000e-01	1.239135e-04	
280	6.000000e-01	1.328456e-04	
281	6.500000e-01	1.413958e-04	
282	7.000000e-01	1.495658e-04	
283	7.500000e-01	1.573571e-04	
284	8.000000e-01	1.647711e-04	
285	8.500000e-01	1.718096e-04	
286	9.000000e-01	1.784740e-04	

Index   v-sweep         -i(vds)         
--------------------------------------------------------------------------------
287	9.500000e-01	1.847659e-04	
288	1.000000e+00	1.906867e-04	
289	1.050000e+00	1.962380e-04	
290	1.100000e+00	2.014213e-04	
291	1.150000e+00	2.062380e-04	
292	1.200000e+00	2.106898e-04	
293	1.250000e+00	2.147779e-04	
294	1.300000e+00	2.185041e-04	
295	1.350000e+00	2.218696e-04	
296	1.400000e+00	2.248760e-04	
297	1.450000e+00	2.275248e-04	
298	1.500000e+00	2.298177e-04	
299	1.550000e+00	2.317567e-04	
300	1.600000e+00	2.333451e-04	
301	1.650000e+00	2.345900e-04	
302	1.700000e+00	2.355100e-04	
303	1.750000e+00	2.361479e-04	
304	1.800000e+00	2.365741e-04	
305	1.850000e+00	2.368634e-04	
306	1.900000e+00	2.370703e-04	
307	1.950000e+00	2.372272e-04	
308	2.000000e+00	2.373524e-04	
309	2.050000e+00	2.374563e-04	
310	2.100000e+00	2.375453e-04	
311	2.150000e+00	2.376231e-04	
312	2.200000e+00	2.376926e-04	
313	2.250000e+00	2.377555e-04	
314	2.300000e+00	2.378130e-04	
315	2.350000e+00	2.378663e-04	
316	2.400000e+00	2.379158e-04	
317	2.450000e+00	2.379624e-04	
318	2.500000e+00	2.380063e-04	
319	2.550000e+00	2.380480e-04	
320	2.600000e+00	2.380876e-04	
321	2.650000e+00	2.381256e-04	
322	2.700000e+00	2.381620e-04	
323	2.750000e+00	2.381970e-04	
324	2.800000e+00	2.382307e-04	
325	2.850000e+00	2.382634e-04	
326	2.900000e+00	2.382950e-04	
327	2.950000e+00	2.383257e-04	
328	3.000000e+00	2.383556e-04	
329	3.050000e+00	2.383847e-04	
330	3.100000e+00	2.384131e-04	
331	3.150000e+00	2.384410e-04	
332	3.200000e+00	2.384683e-04	
333	3.250000e+00	2.384952e-04	
334	3.300000e+00	2.385218e-04	
335	0.000000e+00	-0.000000e+00	
336	5.000000e-02	1.481462e-05	
337	1.000000e-01	2.927686e-05	
338	1.500000e-01	4.338806e-05	
339	2.000000e-01	5.714957e-05	
340	2.500000e-01	7.056273e-05	
341	3.000000e-01	8.362886e-05	
342	3.500000e-01	9.634930e-05	
343	4.000000e-01	1.087254e-04	
344	4.500000e-01	1.207584e-04	

Index   v-sweep         -i(vds)         
--------------------------------------------------------------------------------
345	5.000000e-01	1.324496e-04	
346	5.500000e-01	1.438004e-04	
347	6.000000e-01	1.548120e-04	
348	6.500000e-01	1.654857e-04	
349	7.000000e-01	1.758228e-04	
350	7.500000e-01	1.858246e-04	
351	8.000000e-01	1.954923e-04	
352	8.500000e-01	2.048272e-04	
353	9.000000e-01	2.138305e-04	
354	9.500000e-01	2.225035e-04	
355	1.000000e+00	2.308475e-04	
356	1.050000e+00	2.388636e-04	
357	1.100000e+00	2.465531e-04	
358	1.150000e+00	2.539172e-04	
359	1.200000e+00	2.609571e-04	
360	1.250000e+00	2.676741e-04	
361	1.300000e+00	2.740693e-04	
362	1.350000e+00	2.801439e-04	
363	1.400000e+00	2.858992e-04	
364	1.450000e+00	2.913362e-04	
365	1.500000e+00	2.964562e-04	
366	1.550000e+00	3.012603e-04	
367	1.600000e+00	3.057497e-04	
368	1.650000e+00	3.099256e-04	
369	1.700000e+00	3.137889e-04	
370	1.750000e+00	3.173409e-04	
371	1.800000e+00	3.205825e-04	
372	1.850000e+00	3.235149e-04	
373	1.900000e+00	3.261390e-04	
374	1.950000e+00	3.284557e-04	
375	2.000000e+00	3.304659e-04	
376	2.050000e+00	3.321710e-04	
377	2.100000e+00	3.335736e-04	
378	2.150000e+00	3.346817e-04	
379	2.200000e+00	3.355161e-04	
380	2.250000e+00	3.361194e-04	
381	2.300000e+00	3.365504e-04	
382	2.350000e+00	3.368649e-04	
383	2.400000e+00	3.371038e-04	
384	2.450000e+00	3.372930e-04	
385	2.500000e+00	3.374486e-04	
386	2.550000e+00	3.375802e-04	
387	2.600000e+00	3.376944e-04	
388	2.650000e+00	3.377952e-04	
389	2.700000e+00	3.378858e-04	
390	2.750000e+00	3.379680e-04	
391	2.800000e+00	3.380435e-04	
392	2.850000e+00	3.381135e-04	
393	2.900000e+00	3.381787e-04	
394	2.950000e+00	3.382399e-04	
395	3.000000e+00	3.382977e-04	
396	3.050000e+00	3.383525e-04	
397	3.100000e+00	3.384046e-04	
398	3.150000e+00	3.384544e-04	
399	3.200000e+00	3.385021e-04	
400	3.250000e+00	3.385480e-04	
401	3.300000e+00	3.385922e-04	
Note: No ".plot", ".print", or ".fourier" lines; no simulations run
