
Note: Compatibility modes selected: hs

Warning: m=xx on .subckt line will override multiplier m hierarchy!


Circuit: ***************************

Doing analysis at TEMP = -40.000000 and TNOM = -40.000000


No. of Data Rows : 402
                          ***************************
                          DC transfer characteristic  Mon Jan  9 13:57:17  2023
--------------------------------------------------------------------------------
Index   v-sweep         -i(vds)         
--------------------------------------------------------------------------------
0	0.000000e+00	-0.000000e+00	
1	5.000000e-02	6.105694e-07	
2	1.000000e-01	7.933050e-07	
3	1.500000e-01	8.370329e-07	
4	2.000000e-01	8.565739e-07	
5	2.500000e-01	8.699726e-07	
6	3.000000e-01	8.808533e-07	
7	3.500000e-01	8.903820e-07	
8	4.000000e-01	8.990659e-07	
9	4.500000e-01	9.071707e-07	
10	5.000000e-01	9.148535e-07	
11	5.500000e-01	9.222151e-07	
12	6.000000e-01	9.293244e-07	
13	6.500000e-01	9.362306e-07	
14	7.000000e-01	9.429700e-07	
15	7.500000e-01	9.495703e-07	
16	8.000000e-01	9.560533e-07	
17	8.500000e-01	9.624360e-07	
18	9.000000e-01	9.687323e-07	
19	9.500000e-01	9.749537e-07	
20	1.000000e+00	9.811095e-07	
21	1.050000e+00	9.872078e-07	
22	1.100000e+00	9.932552e-07	
23	1.150000e+00	9.992576e-07	
24	1.200000e+00	1.005220e-06	
25	1.250000e+00	1.011146e-06	
26	1.300000e+00	1.017041e-06	
27	1.350000e+00	1.022906e-06	
28	1.400000e+00	1.028746e-06	
29	1.450000e+00	1.034563e-06	
30	1.500000e+00	1.040360e-06	
31	1.550000e+00	1.046138e-06	
32	1.600000e+00	1.051901e-06	
33	1.650000e+00	1.057650e-06	
34	1.700000e+00	1.063387e-06	
35	1.750000e+00	1.069116e-06	
36	1.800000e+00	1.074837e-06	
37	1.850000e+00	1.080555e-06	
38	1.900000e+00	1.086271e-06	
39	1.950000e+00	1.091989e-06	
40	2.000000e+00	1.097713e-06	
41	2.050000e+00	1.103446e-06	
42	2.100000e+00	1.109193e-06	
43	2.150000e+00	1.114959e-06	
44	2.200000e+00	1.120749e-06	
45	2.250000e+00	1.126570e-06	
46	2.300000e+00	1.132429e-06	
47	2.350000e+00	1.138333e-06	
48	2.400000e+00	1.144291e-06	
49	2.450000e+00	1.150313e-06	
50	2.500000e+00	1.156409e-06	
51	2.550000e+00	1.162589e-06	
52	2.600000e+00	1.168868e-06	
53	2.650000e+00	1.175257e-06	
54	2.700000e+00	1.181772e-06	

Index   v-sweep         -i(vds)         
--------------------------------------------------------------------------------
55	2.750000e+00	1.188429e-06	
56	2.800000e+00	1.195245e-06	
57	2.850000e+00	1.202238e-06	
58	2.900000e+00	1.209429e-06	
59	2.950000e+00	1.216837e-06	
60	3.000000e+00	1.224486e-06	
61	3.050000e+00	1.232401e-06	
62	3.100000e+00	1.240605e-06	
63	3.150000e+00	1.249128e-06	
64	3.200000e+00	1.257996e-06	
65	3.250000e+00	1.267242e-06	
66	3.300000e+00	1.276896e-06	
67	0.000000e+00	-0.000000e+00	
68	5.000000e-02	8.632970e-06	
69	1.000000e-01	1.609691e-05	
70	1.500000e-01	2.245774e-05	
71	2.000000e-01	2.777704e-05	
72	2.500000e-01	3.211306e-05	
73	3.000000e-01	3.552317e-05	
74	3.500000e-01	3.807139e-05	
75	4.000000e-01	3.985074e-05	
76	4.500000e-01	4.101822e-05	
77	5.000000e-01	4.177829e-05	
78	5.500000e-01	4.230102e-05	
79	6.000000e-01	4.268801e-05	
80	6.500000e-01	4.299307e-05	
81	7.000000e-01	4.324517e-05	
82	7.500000e-01	4.346084e-05	
83	8.000000e-01	4.365018e-05	
84	8.500000e-01	4.381969e-05	
85	9.000000e-01	4.397379e-05	
86	9.500000e-01	4.411558e-05	
87	1.000000e+00	4.424735e-05	
88	1.050000e+00	4.437080e-05	
89	1.100000e+00	4.448723e-05	
90	1.150000e+00	4.459767e-05	
91	1.200000e+00	4.470295e-05	
92	1.250000e+00	4.480371e-05	
93	1.300000e+00	4.490052e-05	
94	1.350000e+00	4.499382e-05	
95	1.400000e+00	4.508398e-05	
96	1.450000e+00	4.517134e-05	
97	1.500000e+00	4.525617e-05	
98	1.550000e+00	4.533871e-05	
99	1.600000e+00	4.541915e-05	
100	1.650000e+00	4.549769e-05	
101	1.700000e+00	4.557448e-05	
102	1.750000e+00	4.564967e-05	
103	1.800000e+00	4.572339e-05	
104	1.850000e+00	4.579575e-05	
105	1.900000e+00	4.586686e-05	
106	1.950000e+00	4.593684e-05	
107	2.000000e+00	4.600579e-05	
108	2.050000e+00	4.607381e-05	
109	2.100000e+00	4.614100e-05	
110	2.150000e+00	4.620749e-05	
111	2.200000e+00	4.627339e-05	
112	2.250000e+00	4.633882e-05	

Index   v-sweep         -i(vds)         
--------------------------------------------------------------------------------
113	2.300000e+00	4.640394e-05	
114	2.350000e+00	4.646888e-05	
115	2.400000e+00	4.653384e-05	
116	2.450000e+00	4.659898e-05	
117	2.500000e+00	4.666453e-05	
118	2.550000e+00	4.673071e-05	
119	2.600000e+00	4.679778e-05	
120	2.650000e+00	4.686603e-05	
121	2.700000e+00	4.693577e-05	
122	2.750000e+00	4.700734e-05	
123	2.800000e+00	4.708111e-05	
124	2.850000e+00	4.715749e-05	
125	2.900000e+00	4.723692e-05	
126	2.950000e+00	4.731989e-05	
127	3.000000e+00	4.740690e-05	
128	3.050000e+00	4.749851e-05	
129	3.100000e+00	4.759532e-05	
130	3.150000e+00	4.769796e-05	
131	3.200000e+00	4.780713e-05	
132	3.250000e+00	4.792354e-05	
133	3.300000e+00	4.804796e-05	
134	0.000000e+00	-0.000000e+00	
135	5.000000e-02	1.506842e-05	
136	1.000000e-01	2.889161e-05	
137	1.500000e-01	4.152922e-05	
138	2.000000e-01	5.303709e-05	
139	2.500000e-01	6.346742e-05	
140	3.000000e-01	7.286903e-05	
141	3.500000e-01	8.128738e-05	
142	4.000000e-01	8.876451e-05	
143	4.500000e-01	9.533871e-05	
144	5.000000e-01	1.010438e-04	
145	5.500000e-01	1.059079e-04	
146	6.000000e-01	1.099537e-04	
147	6.500000e-01	1.132051e-04	
148	7.000000e-01	1.157126e-04	
149	7.500000e-01	1.175843e-04	
150	8.000000e-01	1.189739e-04	
151	8.500000e-01	1.200289e-04	
152	9.000000e-01	1.208582e-04	
153	9.500000e-01	1.215333e-04	
154	1.000000e+00	1.220997e-04	
155	1.050000e+00	1.225871e-04	
156	1.100000e+00	1.230149e-04	
157	1.150000e+00	1.233965e-04	
158	1.200000e+00	1.237416e-04	
159	1.250000e+00	1.240571e-04	
160	1.300000e+00	1.243482e-04	
161	1.350000e+00	1.246188e-04	
162	1.400000e+00	1.248721e-04	
163	1.450000e+00	1.251105e-04	
164	1.500000e+00	1.253360e-04	
165	1.550000e+00	1.255502e-04	
166	1.600000e+00	1.257545e-04	
167	1.650000e+00	1.259500e-04	
168	1.700000e+00	1.261376e-04	
169	1.750000e+00	1.263181e-04	
170	1.800000e+00	1.264921e-04	

Index   v-sweep         -i(vds)         
--------------------------------------------------------------------------------
171	1.850000e+00	1.266604e-04	
172	1.900000e+00	1.268234e-04	
173	1.950000e+00	1.269816e-04	
174	2.000000e+00	1.271353e-04	
175	2.050000e+00	1.272849e-04	
176	2.100000e+00	1.274309e-04	
177	2.150000e+00	1.275734e-04	
178	2.200000e+00	1.277127e-04	
179	2.250000e+00	1.278493e-04	
180	2.300000e+00	1.279832e-04	
181	2.350000e+00	1.281149e-04	
182	2.400000e+00	1.282446e-04	
183	2.450000e+00	1.283726e-04	
184	2.500000e+00	1.284992e-04	
185	2.550000e+00	1.286249e-04	
186	2.600000e+00	1.287500e-04	
187	2.650000e+00	1.288750e-04	
188	2.700000e+00	1.290004e-04	
189	2.750000e+00	1.291266e-04	
190	2.800000e+00	1.292544e-04	
191	2.850000e+00	1.293844e-04	
192	2.900000e+00	1.295173e-04	
193	2.950000e+00	1.296540e-04	
194	3.000000e+00	1.297953e-04	
195	3.050000e+00	1.299422e-04	
196	3.100000e+00	1.300958e-04	
197	3.150000e+00	1.302573e-04	
198	3.200000e+00	1.304279e-04	
199	3.250000e+00	1.306089e-04	
200	3.300000e+00	1.308019e-04	
201	0.000000e+00	-0.000000e+00	
202	5.000000e-02	1.972372e-05	
203	1.000000e-01	3.822318e-05	
204	1.500000e-01	5.554947e-05	
205	2.000000e-01	7.175081e-05	
206	2.500000e-01	8.687277e-05	
207	3.000000e-01	1.009584e-04	
208	3.500000e-01	1.140483e-04	
209	4.000000e-01	1.261808e-04	
210	4.500000e-01	1.373920e-04	
211	5.000000e-01	1.477155e-04	
212	5.500000e-01	1.571827e-04	
213	6.000000e-01	1.658219e-04	
214	6.500000e-01	1.736578e-04	
215	7.000000e-01	1.807104e-04	
216	7.500000e-01	1.869926e-04	
217	8.000000e-01	1.925076e-04	
218	8.500000e-01	1.972487e-04	
219	9.000000e-01	2.012089e-04	
220	9.500000e-01	2.044089e-04	
221	1.000000e+00	2.069273e-04	
222	1.050000e+00	2.088935e-04	
223	1.100000e+00	2.104452e-04	
224	1.150000e+00	2.116969e-04	
225	1.200000e+00	2.127319e-04	
226	1.250000e+00	2.136079e-04	
227	1.300000e+00	2.143646e-04	
228	1.350000e+00	2.150297e-04	

Index   v-sweep         -i(vds)         
--------------------------------------------------------------------------------
229	1.400000e+00	2.156227e-04	
230	1.450000e+00	2.161580e-04	
231	1.500000e+00	2.166462e-04	
232	1.550000e+00	2.170952e-04	
233	1.600000e+00	2.175113e-04	
234	1.650000e+00	2.178995e-04	
235	1.700000e+00	2.182636e-04	
236	1.750000e+00	2.186067e-04	
237	1.800000e+00	2.189315e-04	
238	1.850000e+00	2.192402e-04	
239	1.900000e+00	2.195344e-04	
240	1.950000e+00	2.198159e-04	
241	2.000000e+00	2.200857e-04	
242	2.050000e+00	2.203451e-04	
243	2.100000e+00	2.205950e-04	
244	2.150000e+00	2.208363e-04	
245	2.200000e+00	2.210697e-04	
246	2.250000e+00	2.212959e-04	
247	2.300000e+00	2.215154e-04	
248	2.350000e+00	2.217289e-04	
249	2.400000e+00	2.219367e-04	
250	2.450000e+00	2.221395e-04	
251	2.500000e+00	2.223377e-04	
252	2.550000e+00	2.225318e-04	
253	2.600000e+00	2.227222e-04	
254	2.650000e+00	2.229094e-04	
255	2.700000e+00	2.230941e-04	
256	2.750000e+00	2.232767e-04	
257	2.800000e+00	2.234579e-04	
258	2.850000e+00	2.236385e-04	
259	2.900000e+00	2.238192e-04	
260	2.950000e+00	2.240008e-04	
261	3.000000e+00	2.241844e-04	
262	3.050000e+00	2.243710e-04	
263	3.100000e+00	2.245617e-04	
264	3.150000e+00	2.247580e-04	
265	3.200000e+00	2.249611e-04	
266	3.250000e+00	2.251728e-04	
267	3.300000e+00	2.253946e-04	
268	0.000000e+00	-0.000000e+00	
269	5.000000e-02	2.308766e-05	
270	1.000000e-01	4.501272e-05	
271	1.500000e-01	6.581787e-05	
272	2.000000e-01	8.554369e-05	
273	2.500000e-01	1.042288e-04	
274	3.000000e-01	1.219100e-04	
275	3.500000e-01	1.386222e-04	
276	4.000000e-01	1.543988e-04	
277	4.500000e-01	1.692714e-04	
278	5.000000e-01	1.832702e-04	
279	5.500000e-01	1.964238e-04	
280	6.000000e-01	2.087591e-04	
281	6.500000e-01	2.203015e-04	
282	7.000000e-01	2.310748e-04	
283	7.500000e-01	2.411004e-04	
284	8.000000e-01	2.503972e-04	
285	8.500000e-01	2.589809e-04	
286	9.000000e-01	2.668620e-04	

Index   v-sweep         -i(vds)         
--------------------------------------------------------------------------------
287	9.500000e-01	2.740439e-04	
288	1.000000e+00	2.805199e-04	
289	1.050000e+00	2.862710e-04	
290	1.100000e+00	2.912699e-04	
291	1.150000e+00	2.954986e-04	
292	1.200000e+00	2.989793e-04	
293	1.250000e+00	3.017921e-04	
294	1.300000e+00	3.040570e-04	
295	1.350000e+00	3.058983e-04	
296	1.400000e+00	3.074205e-04	
297	1.450000e+00	3.087033e-04	
298	1.500000e+00	3.098044e-04	
299	1.550000e+00	3.107652e-04	
300	1.600000e+00	3.116159e-04	
301	1.650000e+00	3.123784e-04	
302	1.700000e+00	3.130691e-04	
303	1.750000e+00	3.137006e-04	
304	1.800000e+00	3.142824e-04	
305	1.850000e+00	3.148221e-04	
306	1.900000e+00	3.153257e-04	
307	1.950000e+00	3.157981e-04	
308	2.000000e+00	3.162432e-04	
309	2.050000e+00	3.166643e-04	
310	2.100000e+00	3.170642e-04	
311	2.150000e+00	3.174451e-04	
312	2.200000e+00	3.178090e-04	
313	2.250000e+00	3.181577e-04	
314	2.300000e+00	3.184924e-04	
315	2.350000e+00	3.188146e-04	
316	2.400000e+00	3.191252e-04	
317	2.450000e+00	3.194254e-04	
318	2.500000e+00	3.197159e-04	
319	2.550000e+00	3.199975e-04	
320	2.600000e+00	3.202711e-04	
321	2.650000e+00	3.205372e-04	
322	2.700000e+00	3.207966e-04	
323	2.750000e+00	3.210500e-04	
324	2.800000e+00	3.212979e-04	
325	2.850000e+00	3.215412e-04	
326	2.900000e+00	3.217805e-04	
327	2.950000e+00	3.220166e-04	
328	3.000000e+00	3.222505e-04	
329	3.050000e+00	3.224830e-04	
330	3.100000e+00	3.227152e-04	
331	3.150000e+00	3.229484e-04	
332	3.200000e+00	3.231837e-04	
333	3.250000e+00	3.234227e-04	
334	3.300000e+00	3.236669e-04	
335	0.000000e+00	-0.000000e+00	
336	5.000000e-02	2.550942e-05	
337	1.000000e-01	4.993434e-05	
338	1.500000e-01	7.331006e-05	
339	2.000000e-01	9.567037e-05	
340	2.500000e-01	1.170476e-04	
341	3.000000e-01	1.374727e-04	
342	3.500000e-01	1.569753e-04	
343	4.000000e-01	1.755838e-04	
344	4.500000e-01	1.933254e-04	

Index   v-sweep         -i(vds)         
--------------------------------------------------------------------------------
345	5.000000e-01	2.102261e-04	
346	5.500000e-01	2.263109e-04	
347	6.000000e-01	2.416037e-04	
348	6.500000e-01	2.561272e-04	
349	7.000000e-01	2.699032e-04	
350	7.500000e-01	2.829522e-04	
351	8.000000e-01	2.952939e-04	
352	8.500000e-01	3.069463e-04	
353	9.000000e-01	3.179263e-04	
354	9.500000e-01	3.282487e-04	
355	1.000000e+00	3.379261e-04	
356	1.050000e+00	3.469676e-04	
357	1.100000e+00	3.553779e-04	
358	1.150000e+00	3.631545e-04	
359	1.200000e+00	3.702854e-04	
360	1.250000e+00	3.767464e-04	
361	1.300000e+00	3.825024e-04	
362	1.350000e+00	3.875184e-04	
363	1.400000e+00	3.917833e-04	
364	1.450000e+00	3.953343e-04	
365	1.500000e+00	3.982582e-04	
366	1.550000e+00	4.006673e-04	
367	1.600000e+00	4.026713e-04	
368	1.650000e+00	4.043622e-04	
369	1.700000e+00	4.058112e-04	
370	1.750000e+00	4.070718e-04	
371	1.800000e+00	4.081835e-04	
372	1.850000e+00	4.091760e-04	
373	1.900000e+00	4.100713e-04	
374	1.950000e+00	4.108865e-04	
375	2.000000e+00	4.116347e-04	
376	2.050000e+00	4.123261e-04	
377	2.100000e+00	4.129691e-04	
378	2.150000e+00	4.135701e-04	
379	2.200000e+00	4.141347e-04	
380	2.250000e+00	4.146673e-04	
381	2.300000e+00	4.151715e-04	
382	2.350000e+00	4.156506e-04	
383	2.400000e+00	4.161070e-04	
384	2.450000e+00	4.165432e-04	
385	2.500000e+00	4.169611e-04	
386	2.550000e+00	4.173623e-04	
387	2.600000e+00	4.177483e-04	
388	2.650000e+00	4.181204e-04	
389	2.700000e+00	4.184799e-04	
390	2.750000e+00	4.188277e-04	
391	2.800000e+00	4.191648e-04	
392	2.850000e+00	4.194921e-04	
393	2.900000e+00	4.198106e-04	
394	2.950000e+00	4.201210e-04	
395	3.000000e+00	4.204242e-04	
396	3.050000e+00	4.207211e-04	
397	3.100000e+00	4.210127e-04	
398	3.150000e+00	4.212999e-04	
399	3.200000e+00	4.215837e-04	
400	3.250000e+00	4.218655e-04	
401	3.300000e+00	4.221464e-04	
Note: No ".plot", ".print", or ".fourier" lines; no simulations run
