
Note: Compatibility modes selected: hs

Warning: m=xx on .subckt line will override multiplier m hierarchy!


Circuit: ***************************

Doing analysis at TEMP = 125.000000 and TNOM = 125.000000


No. of Data Rows : 402
                          ***************************
                          DC transfer characteristic  Mon Jan  9 13:57:19  2023
--------------------------------------------------------------------------------
Index   v-sweep         -i(vds)         
--------------------------------------------------------------------------------
0	0.000000e+00	-0.000000e+00	
1	5.000000e-02	3.388574e-06	
2	1.000000e-01	6.033348e-06	
3	1.500000e-01	7.997937e-06	
4	2.000000e-01	9.357688e-06	
5	2.500000e-01	1.022826e-05	
6	3.000000e-01	1.077218e-05	
7	3.500000e-01	1.114035e-05	
8	4.000000e-01	1.142240e-05	
9	4.500000e-01	1.166018e-05	
10	5.000000e-01	1.187285e-05	
11	5.500000e-01	1.206990e-05	
12	6.000000e-01	1.225656e-05	
13	6.500000e-01	1.243590e-05	
14	7.000000e-01	1.260992e-05	
15	7.500000e-01	1.277993e-05	
16	8.000000e-01	1.294688e-05	
17	8.500000e-01	1.311144e-05	
18	9.000000e-01	1.327413e-05	
19	9.500000e-01	1.343534e-05	
20	1.000000e+00	1.359539e-05	
21	1.050000e+00	1.375451e-05	
22	1.100000e+00	1.391291e-05	
23	1.150000e+00	1.407074e-05	
24	1.200000e+00	1.422816e-05	
25	1.250000e+00	1.438527e-05	
26	1.300000e+00	1.454217e-05	
27	1.350000e+00	1.469894e-05	
28	1.400000e+00	1.485565e-05	
29	1.450000e+00	1.501237e-05	
30	1.500000e+00	1.516914e-05	
31	1.550000e+00	1.532602e-05	
32	1.600000e+00	1.548305e-05	
33	1.650000e+00	1.564027e-05	
34	1.700000e+00	1.579771e-05	
35	1.750000e+00	1.595542e-05	
36	1.800000e+00	1.611341e-05	
37	1.850000e+00	1.627174e-05	
38	1.900000e+00	1.643042e-05	
39	1.950000e+00	1.658951e-05	
40	2.000000e+00	1.674904e-05	
41	2.050000e+00	1.690905e-05	
42	2.100000e+00	1.706961e-05	
43	2.150000e+00	1.723077e-05	
44	2.200000e+00	1.739261e-05	
45	2.250000e+00	1.755519e-05	
46	2.300000e+00	1.771861e-05	
47	2.350000e+00	1.788298e-05	
48	2.400000e+00	1.804841e-05	
49	2.450000e+00	1.821504e-05	
50	2.500000e+00	1.838302e-05	
51	2.550000e+00	1.855253e-05	
52	2.600000e+00	1.872375e-05	
53	2.650000e+00	1.889691e-05	
54	2.700000e+00	1.907225e-05	

Index   v-sweep         -i(vds)         
--------------------------------------------------------------------------------
55	2.750000e+00	1.925003e-05	
56	2.800000e+00	1.943056e-05	
57	2.850000e+00	1.961416e-05	
58	2.900000e+00	1.980119e-05	
59	2.950000e+00	1.999205e-05	
60	3.000000e+00	2.018717e-05	
61	3.050000e+00	2.038702e-05	
62	3.100000e+00	2.059211e-05	
63	3.150000e+00	2.080299e-05	
64	3.200000e+00	2.102026e-05	
65	3.250000e+00	2.124457e-05	
66	3.300000e+00	2.147660e-05	
67	0.000000e+00	-0.000000e+00	
68	5.000000e-02	9.879066e-06	
69	1.000000e-01	1.878138e-05	
70	1.500000e-01	2.676362e-05	
71	2.000000e-01	3.387413e-05	
72	2.500000e-01	4.015715e-05	
73	3.000000e-01	4.565412e-05	
74	3.500000e-01	5.040444e-05	
75	4.000000e-01	5.444650e-05	
76	4.500000e-01	5.781989e-05	
77	5.000000e-01	6.057027e-05	
78	5.500000e-01	6.275852e-05	
79	6.000000e-01	6.447001e-05	
80	6.500000e-01	6.581025e-05	
81	7.000000e-01	6.688308e-05	
82	7.500000e-01	6.777115e-05	
83	8.000000e-01	6.853196e-05	
84	8.500000e-01	6.920332e-05	
85	9.000000e-01	6.980994e-05	
86	9.500000e-01	7.036829e-05	
87	1.000000e+00	7.088963e-05	
88	1.050000e+00	7.138189e-05	
89	1.100000e+00	7.185082e-05	
90	1.150000e+00	7.230069e-05	
91	1.200000e+00	7.273476e-05	
92	1.250000e+00	7.315554e-05	
93	1.300000e+00	7.356501e-05	
94	1.350000e+00	7.396478e-05	
95	1.400000e+00	7.435612e-05	
96	1.450000e+00	7.474011e-05	
97	1.500000e+00	7.511764e-05	
98	1.550000e+00	7.548944e-05	
99	1.600000e+00	7.585615e-05	
100	1.650000e+00	7.621831e-05	
101	1.700000e+00	7.657637e-05	
102	1.750000e+00	7.693076e-05	
103	1.800000e+00	7.728181e-05	
104	1.850000e+00	7.762984e-05	
105	1.900000e+00	7.797513e-05	
106	1.950000e+00	7.831794e-05	
107	2.000000e+00	7.865849e-05	
108	2.050000e+00	7.899700e-05	
109	2.100000e+00	7.933367e-05	
110	2.150000e+00	7.966873e-05	
111	2.200000e+00	8.000236e-05	
112	2.250000e+00	8.033478e-05	

Index   v-sweep         -i(vds)         
--------------------------------------------------------------------------------
113	2.300000e+00	8.066622e-05	
114	2.350000e+00	8.099692e-05	
115	2.400000e+00	8.132714e-05	
116	2.450000e+00	8.165718e-05	
117	2.500000e+00	8.198737e-05	
118	2.550000e+00	8.231809e-05	
119	2.600000e+00	8.264974e-05	
120	2.650000e+00	8.298279e-05	
121	2.700000e+00	8.331778e-05	
122	2.750000e+00	8.365529e-05	
123	2.800000e+00	8.399599e-05	
124	2.850000e+00	8.434060e-05	
125	2.900000e+00	8.468995e-05	
126	2.950000e+00	8.504495e-05	
127	3.000000e+00	8.540660e-05	
128	3.050000e+00	8.577599e-05	
129	3.100000e+00	8.615434e-05	
130	3.150000e+00	8.654297e-05	
131	3.200000e+00	8.694331e-05	
132	3.250000e+00	8.735692e-05	
133	3.300000e+00	8.778550e-05	
134	0.000000e+00	-0.000000e+00	
135	5.000000e-02	1.484444e-05	
136	1.000000e-01	2.865816e-05	
137	1.500000e-01	4.149376e-05	
138	2.000000e-01	5.339597e-05	
139	2.500000e-01	6.440580e-05	
140	3.000000e-01	7.456156e-05	
141	3.500000e-01	8.389922e-05	
142	4.000000e-01	9.245252e-05	
143	4.500000e-01	1.002531e-04	
144	5.000000e-01	1.073303e-04	
145	5.500000e-01	1.137114e-04	
146	6.000000e-01	1.194209e-04	
147	6.500000e-01	1.244810e-04	
148	7.000000e-01	1.289116e-04	
149	7.500000e-01	1.327334e-04	
150	8.000000e-01	1.359740e-04	
151	8.500000e-01	1.386785e-04	
152	9.000000e-01	1.409156e-04	
153	9.500000e-01	1.427707e-04	
154	1.000000e+00	1.443293e-04	
155	1.050000e+00	1.456639e-04	
156	1.100000e+00	1.468305e-04	
157	1.150000e+00	1.478698e-04	
158	1.200000e+00	1.488113e-04	
159	1.250000e+00	1.496763e-04	
160	1.300000e+00	1.504802e-04	
161	1.350000e+00	1.512348e-04	
162	1.400000e+00	1.519486e-04	
163	1.450000e+00	1.526285e-04	
164	1.500000e+00	1.532797e-04	
165	1.550000e+00	1.539064e-04	
166	1.600000e+00	1.545120e-04	
167	1.650000e+00	1.550993e-04	
168	1.700000e+00	1.556704e-04	
169	1.750000e+00	1.562273e-04	
170	1.800000e+00	1.567715e-04	

Index   v-sweep         -i(vds)         
--------------------------------------------------------------------------------
171	1.850000e+00	1.573045e-04	
172	1.900000e+00	1.578273e-04	
173	1.950000e+00	1.583409e-04	
174	2.000000e+00	1.588463e-04	
175	2.050000e+00	1.593441e-04	
176	2.100000e+00	1.598350e-04	
177	2.150000e+00	1.603196e-04	
178	2.200000e+00	1.607985e-04	
179	2.250000e+00	1.612721e-04	
180	2.300000e+00	1.617409e-04	
181	2.350000e+00	1.622054e-04	
182	2.400000e+00	1.626659e-04	
183	2.450000e+00	1.631229e-04	
184	2.500000e+00	1.635767e-04	
185	2.550000e+00	1.640280e-04	
186	2.600000e+00	1.644772e-04	
187	2.650000e+00	1.649247e-04	
188	2.700000e+00	1.653713e-04	
189	2.750000e+00	1.658175e-04	
190	2.800000e+00	1.662642e-04	
191	2.850000e+00	1.667121e-04	
192	2.900000e+00	1.671621e-04	
193	2.950000e+00	1.676154e-04	
194	3.000000e+00	1.680730e-04	
195	3.050000e+00	1.685363e-04	
196	3.100000e+00	1.690067e-04	
197	3.150000e+00	1.694858e-04	
198	3.200000e+00	1.699754e-04	
199	3.250000e+00	1.704774e-04	
200	3.300000e+00	1.709940e-04	
201	0.000000e+00	-0.000000e+00	
202	5.000000e-02	1.869169e-05	
203	1.000000e-01	3.635208e-05	
204	1.500000e-01	5.302869e-05	
205	2.000000e-01	6.876177e-05	
206	2.500000e-01	8.358835e-05	
207	3.000000e-01	9.754325e-05	
208	3.500000e-01	1.106594e-04	
209	4.000000e-01	1.229679e-04	
210	4.500000e-01	1.344983e-04	
211	5.000000e-01	1.452786e-04	
212	5.500000e-01	1.553348e-04	
213	6.000000e-01	1.646916e-04	
214	6.500000e-01	1.733719e-04	
215	7.000000e-01	1.813963e-04	
216	7.500000e-01	1.887832e-04	
217	8.000000e-01	1.955483e-04	
218	8.500000e-01	2.017034e-04	
219	9.000000e-01	2.072565e-04	
220	9.500000e-01	2.122123e-04	
221	1.000000e+00	2.165760e-04	
222	1.050000e+00	2.203617e-04	
223	1.100000e+00	2.236024e-04	
224	1.150000e+00	2.263558e-04	
225	1.200000e+00	2.286965e-04	
226	1.250000e+00	2.307027e-04	
227	1.300000e+00	2.324448e-04	
228	1.350000e+00	2.339801e-04	

Index   v-sweep         -i(vds)         
--------------------------------------------------------------------------------
229	1.400000e+00	2.353533e-04	
230	1.450000e+00	2.365981e-04	
231	1.500000e+00	2.377400e-04	
232	1.550000e+00	2.387984e-04	
233	1.600000e+00	2.397879e-04	
234	1.650000e+00	2.407201e-04	
235	1.700000e+00	2.416039e-04	
236	1.750000e+00	2.424465e-04	
237	1.800000e+00	2.432537e-04	
238	1.850000e+00	2.440301e-04	
239	1.900000e+00	2.447796e-04	
240	1.950000e+00	2.455054e-04	
241	2.000000e+00	2.462101e-04	
242	2.050000e+00	2.468960e-04	
243	2.100000e+00	2.475651e-04	
244	2.150000e+00	2.482190e-04	
245	2.200000e+00	2.488592e-04	
246	2.250000e+00	2.494869e-04	
247	2.300000e+00	2.501032e-04	
248	2.350000e+00	2.507091e-04	
249	2.400000e+00	2.513055e-04	
250	2.450000e+00	2.518931e-04	
251	2.500000e+00	2.524727e-04	
252	2.550000e+00	2.530450e-04	
253	2.600000e+00	2.536107e-04	
254	2.650000e+00	2.541704e-04	
255	2.700000e+00	2.547247e-04	
256	2.750000e+00	2.552745e-04	
257	2.800000e+00	2.558203e-04	
258	2.850000e+00	2.563631e-04	
259	2.900000e+00	2.569036e-04	
260	2.950000e+00	2.574429e-04	
261	3.000000e+00	2.579819e-04	
262	3.050000e+00	2.585220e-04	
263	3.100000e+00	2.590645e-04	
264	3.150000e+00	2.596108e-04	
265	3.200000e+00	2.601626e-04	
266	3.250000e+00	2.607219e-04	
267	3.300000e+00	2.612907e-04	
268	0.000000e+00	-0.000000e+00	
269	5.000000e-02	2.174528e-05	
270	1.000000e-01	4.248172e-05	
271	1.500000e-01	6.225197e-05	
272	2.000000e-01	8.109189e-05	
273	2.500000e-01	9.903452e-05	
274	3.000000e-01	1.161111e-04	
275	3.500000e-01	1.323512e-04	
276	4.000000e-01	1.477832e-04	
277	4.500000e-01	1.624341e-04	
278	5.000000e-01	1.763294e-04	
279	5.500000e-01	1.894936e-04	
280	6.000000e-01	2.019500e-04	
281	6.500000e-01	2.137205e-04	
282	7.000000e-01	2.248260e-04	
283	7.500000e-01	2.352858e-04	
284	8.000000e-01	2.451180e-04	
285	8.500000e-01	2.543389e-04	
286	9.000000e-01	2.629629e-04	

Index   v-sweep         -i(vds)         
--------------------------------------------------------------------------------
287	9.500000e-01	2.710018e-04	
288	1.000000e+00	2.784642e-04	
289	1.050000e+00	2.853546e-04	
290	1.100000e+00	2.916728e-04	
291	1.150000e+00	2.974141e-04	
292	1.200000e+00	3.025720e-04	
293	1.250000e+00	3.071451e-04	
294	1.300000e+00	3.111473e-04	
295	1.350000e+00	3.146154e-04	
296	1.400000e+00	3.176081e-04	
297	1.450000e+00	3.201968e-04	
298	1.500000e+00	3.224531e-04	
299	1.550000e+00	3.244409e-04	
300	1.600000e+00	3.262131e-04	
301	1.650000e+00	3.278118e-04	
302	1.700000e+00	3.292700e-04	
303	1.750000e+00	3.306130e-04	
304	1.800000e+00	3.318608e-04	
305	1.850000e+00	3.330290e-04	
306	1.900000e+00	3.341299e-04	
307	1.950000e+00	3.351734e-04	
308	2.000000e+00	3.361675e-04	
309	2.050000e+00	3.371187e-04	
310	2.100000e+00	3.380324e-04	
311	2.150000e+00	3.389131e-04	
312	2.200000e+00	3.397644e-04	
313	2.250000e+00	3.405895e-04	
314	2.300000e+00	3.413912e-04	
315	2.350000e+00	3.421718e-04	
316	2.400000e+00	3.429333e-04	
317	2.450000e+00	3.436774e-04	
318	2.500000e+00	3.444056e-04	
319	2.550000e+00	3.451194e-04	
320	2.600000e+00	3.458200e-04	
321	2.650000e+00	3.465083e-04	
322	2.700000e+00	3.471855e-04	
323	2.750000e+00	3.478525e-04	
324	2.800000e+00	3.485103e-04	
325	2.850000e+00	3.491596e-04	
326	2.900000e+00	3.498014e-04	
327	2.950000e+00	3.504367e-04	
328	3.000000e+00	3.510664e-04	
329	3.050000e+00	3.516916e-04	
330	3.100000e+00	3.523134e-04	
331	3.150000e+00	3.529331e-04	
332	3.200000e+00	3.535522e-04	
333	3.250000e+00	3.541722e-04	
334	3.300000e+00	3.547949e-04	
335	0.000000e+00	-0.000000e+00	
336	5.000000e-02	2.421805e-05	
337	1.000000e-01	4.746008e-05	
338	1.500000e-01	6.976444e-05	
339	2.000000e-01	9.116303e-05	
340	2.500000e-01	1.116852e-04	
341	3.000000e-01	1.313589e-04	
342	3.500000e-01	1.502106e-04	
343	4.000000e-01	1.682659e-04	
344	4.500000e-01	1.855491e-04	

Index   v-sweep         -i(vds)         
--------------------------------------------------------------------------------
345	5.000000e-01	2.020836e-04	
346	5.500000e-01	2.178917e-04	
347	6.000000e-01	2.329949e-04	
348	6.500000e-01	2.474136e-04	
349	7.000000e-01	2.611675e-04	
350	7.500000e-01	2.742750e-04	
351	8.000000e-01	2.867539e-04	
352	8.500000e-01	2.986209e-04	
353	9.000000e-01	3.098917e-04	
354	9.500000e-01	3.205808e-04	
355	1.000000e+00	3.307012e-04	
356	1.050000e+00	3.402644e-04	
357	1.100000e+00	3.492797e-04	
358	1.150000e+00	3.577536e-04	
359	1.200000e+00	3.656892e-04	
360	1.250000e+00	3.730851e-04	
361	1.300000e+00	3.799347e-04	
362	1.350000e+00	3.862266e-04	
363	1.400000e+00	3.919471e-04	
364	1.450000e+00	3.970866e-04	
365	1.500000e+00	4.016483e-04	
366	1.550000e+00	4.056571e-04	
367	1.600000e+00	4.091599e-04	
368	1.650000e+00	4.122196e-04	
369	1.700000e+00	4.149043e-04	
370	1.750000e+00	4.172783e-04	
371	1.800000e+00	4.193977e-04	
372	1.850000e+00	4.213089e-04	
373	1.900000e+00	4.230493e-04	
374	1.950000e+00	4.246484e-04	
375	2.000000e+00	4.261299e-04	
376	2.050000e+00	4.275125e-04	
377	2.100000e+00	4.288112e-04	
378	2.150000e+00	4.300381e-04	
379	2.200000e+00	4.312030e-04	
380	2.250000e+00	4.323140e-04	
381	2.300000e+00	4.333778e-04	
382	2.350000e+00	4.343999e-04	
383	2.400000e+00	4.353851e-04	
384	2.450000e+00	4.363372e-04	
385	2.500000e+00	4.372598e-04	
386	2.550000e+00	4.381557e-04	
387	2.600000e+00	4.390275e-04	
388	2.650000e+00	4.398772e-04	
389	2.700000e+00	4.407070e-04	
390	2.750000e+00	4.415185e-04	
391	2.800000e+00	4.423132e-04	
392	2.850000e+00	4.430925e-04	
393	2.900000e+00	4.438576e-04	
394	2.950000e+00	4.446099e-04	
395	3.000000e+00	4.453504e-04	
396	3.050000e+00	4.460803e-04	
397	3.100000e+00	4.468006e-04	
398	3.150000e+00	4.475127e-04	
399	3.200000e+00	4.482176e-04	
400	3.250000e+00	4.489167e-04	
401	3.300000e+00	4.496116e-04	
Note: No ".plot", ".print", or ".fourier" lines; no simulations run
