
Note: Compatibility modes selected: hs

Warning: m=xx on .subckt line will override multiplier m hierarchy!


Circuit: ***************************

Doing analysis at TEMP = 125.000000 and TNOM = 125.000000


No. of Data Rows : 402
                          ***************************
                          DC transfer characteristic  Mon Jan  9 13:57:19  2023
--------------------------------------------------------------------------------
Index   v-sweep         -i(vds)         
--------------------------------------------------------------------------------
0	0.000000e+00	-0.000000e+00	
1	5.000000e-02	5.559802e-07	
2	1.000000e-01	1.000759e-06	
3	1.500000e-01	1.340799e-06	
4	2.000000e-01	1.582606e-06	
5	2.500000e-01	1.736548e-06	
6	3.000000e-01	1.822933e-06	
7	3.500000e-01	1.870421e-06	
8	4.000000e-01	1.900387e-06	
9	4.500000e-01	1.922391e-06	
10	5.000000e-01	1.940155e-06	
11	5.500000e-01	1.955300e-06	
12	6.000000e-01	1.968655e-06	
13	6.500000e-01	1.980699e-06	
14	7.000000e-01	1.991737e-06	
15	7.500000e-01	2.001976e-06	
16	8.000000e-01	2.011566e-06	
17	8.500000e-01	2.020615e-06	
18	9.000000e-01	2.029208e-06	
19	9.500000e-01	2.037409e-06	
20	1.000000e+00	2.045273e-06	
21	1.050000e+00	2.052840e-06	
22	1.100000e+00	2.060146e-06	
23	1.150000e+00	2.067220e-06	
24	1.200000e+00	2.074086e-06	
25	1.250000e+00	2.080766e-06	
26	1.300000e+00	2.087277e-06	
27	1.350000e+00	2.093635e-06	
28	1.400000e+00	2.099853e-06	
29	1.450000e+00	2.105943e-06	
30	1.500000e+00	2.111915e-06	
31	1.550000e+00	2.117779e-06	
32	1.600000e+00	2.123543e-06	
33	1.650000e+00	2.129214e-06	
34	1.700000e+00	2.134800e-06	
35	1.750000e+00	2.140306e-06	
36	1.800000e+00	2.145739e-06	
37	1.850000e+00	2.151104e-06	
38	1.900000e+00	2.156408e-06	
39	1.950000e+00	2.161655e-06	
40	2.000000e+00	2.166852e-06	
41	2.050000e+00	2.172004e-06	
42	2.100000e+00	2.177118e-06	
43	2.150000e+00	2.182200e-06	
44	2.200000e+00	2.187259e-06	
45	2.250000e+00	2.192301e-06	
46	2.300000e+00	2.197335e-06	
47	2.350000e+00	2.202372e-06	
48	2.400000e+00	2.207422e-06	
49	2.450000e+00	2.212497e-06	
50	2.500000e+00	2.217610e-06	
51	2.550000e+00	2.222774e-06	
52	2.600000e+00	2.228007e-06	
53	2.650000e+00	2.233324e-06	
54	2.700000e+00	2.238745e-06	

Index   v-sweep         -i(vds)         
--------------------------------------------------------------------------------
55	2.750000e+00	2.244291e-06	
56	2.800000e+00	2.249982e-06	
57	2.850000e+00	2.255844e-06	
58	2.900000e+00	2.261903e-06	
59	2.950000e+00	2.268185e-06	
60	3.000000e+00	2.274722e-06	
61	3.050000e+00	2.281545e-06	
62	3.100000e+00	2.288689e-06	
63	3.150000e+00	2.296190e-06	
64	3.200000e+00	2.304087e-06	
65	3.250000e+00	2.312421e-06	
66	3.300000e+00	2.321236e-06	
67	0.000000e+00	-0.000000e+00	
68	5.000000e-02	1.571621e-06	
69	1.000000e-01	3.003980e-06	
70	1.500000e-01	4.303273e-06	
71	2.000000e-01	5.474381e-06	
72	2.500000e-01	6.521741e-06	
73	3.000000e-01	7.449576e-06	
74	3.500000e-01	8.261978e-06	
75	4.000000e-01	8.962996e-06	
76	4.500000e-01	9.556778e-06	
77	5.000000e-01	1.004790e-05	
78	5.500000e-01	1.044209e-05	
79	6.000000e-01	1.074778e-05	
80	6.500000e-01	1.097799e-05	
81	7.000000e-01	1.115017e-05	
82	7.500000e-01	1.128190e-05	
83	8.000000e-01	1.138658e-05	
84	8.500000e-01	1.147298e-05	
85	9.000000e-01	1.154655e-05	
86	9.500000e-01	1.161073e-05	
87	1.000000e+00	1.166778e-05	
88	1.050000e+00	1.171925e-05	
89	1.100000e+00	1.176625e-05	
90	1.150000e+00	1.180957e-05	
91	1.200000e+00	1.184984e-05	
92	1.250000e+00	1.188751e-05	
93	1.300000e+00	1.192296e-05	
94	1.350000e+00	1.195649e-05	
95	1.400000e+00	1.198834e-05	
96	1.450000e+00	1.201870e-05	
97	1.500000e+00	1.204774e-05	
98	1.550000e+00	1.207560e-05	
99	1.600000e+00	1.210240e-05	
100	1.650000e+00	1.212824e-05	
101	1.700000e+00	1.215320e-05	
102	1.750000e+00	1.217738e-05	
103	1.800000e+00	1.220082e-05	
104	1.850000e+00	1.222359e-05	
105	1.900000e+00	1.224575e-05	
106	1.950000e+00	1.226734e-05	
107	2.000000e+00	1.228840e-05	
108	2.050000e+00	1.230897e-05	
109	2.100000e+00	1.232909e-05	
110	2.150000e+00	1.234879e-05	
111	2.200000e+00	1.236810e-05	
112	2.250000e+00	1.238706e-05	

Index   v-sweep         -i(vds)         
--------------------------------------------------------------------------------
113	2.300000e+00	1.240569e-05	
114	2.350000e+00	1.242403e-05	
115	2.400000e+00	1.244212e-05	
116	2.450000e+00	1.245999e-05	
117	2.500000e+00	1.247767e-05	
118	2.550000e+00	1.249521e-05	
119	2.600000e+00	1.251265e-05	
120	2.650000e+00	1.253004e-05	
121	2.700000e+00	1.254744e-05	
122	2.750000e+00	1.256491e-05	
123	2.800000e+00	1.258250e-05	
124	2.850000e+00	1.260030e-05	
125	2.900000e+00	1.261838e-05	
126	2.950000e+00	1.263684e-05	
127	3.000000e+00	1.265575e-05	
128	3.050000e+00	1.267524e-05	
129	3.100000e+00	1.269542e-05	
130	3.150000e+00	1.271639e-05	
131	3.200000e+00	1.273831e-05	
132	3.250000e+00	1.276131e-05	
133	3.300000e+00	1.278554e-05	
134	0.000000e+00	-0.000000e+00	
135	5.000000e-02	2.430898e-06	
136	1.000000e-01	4.712382e-06	
137	1.500000e-01	6.850541e-06	
138	2.000000e-01	8.850155e-06	
139	2.500000e-01	1.071556e-05	
140	3.000000e-01	1.245086e-05	
141	3.500000e-01	1.405999e-05	
142	4.000000e-01	1.554672e-05	
143	4.500000e-01	1.691466e-05	
144	5.000000e-01	1.816732e-05	
145	5.500000e-01	1.930806e-05	
146	6.000000e-01	2.034013e-05	
147	6.500000e-01	2.126666e-05	
148	7.000000e-01	2.209073e-05	
149	7.500000e-01	2.281536e-05	
150	8.000000e-01	2.344371e-05	
151	8.500000e-01	2.397937e-05	
152	9.000000e-01	2.442727e-05	
153	9.500000e-01	2.479505e-05	
154	1.000000e+00	2.509397e-05	
155	1.050000e+00	2.533761e-05	
156	1.100000e+00	2.553904e-05	
157	1.150000e+00	2.570884e-05	
158	1.200000e+00	2.585486e-05	
159	1.250000e+00	2.598270e-05	
160	1.300000e+00	2.609634e-05	
161	1.350000e+00	2.619867e-05	
162	1.400000e+00	2.629181e-05	
163	1.450000e+00	2.637736e-05	
164	1.500000e+00	2.645654e-05	
165	1.550000e+00	2.653031e-05	
166	1.600000e+00	2.659943e-05	
167	1.650000e+00	2.666452e-05	
168	1.700000e+00	2.672607e-05	
169	1.750000e+00	2.678450e-05	
170	1.800000e+00	2.684016e-05	

Index   v-sweep         -i(vds)         
--------------------------------------------------------------------------------
171	1.850000e+00	2.689333e-05	
172	1.900000e+00	2.694428e-05	
173	1.950000e+00	2.699320e-05	
174	2.000000e+00	2.704029e-05	
175	2.050000e+00	2.708571e-05	
176	2.100000e+00	2.712959e-05	
177	2.150000e+00	2.717206e-05	
178	2.200000e+00	2.721324e-05	
179	2.250000e+00	2.725321e-05	
180	2.300000e+00	2.729208e-05	
181	2.350000e+00	2.732991e-05	
182	2.400000e+00	2.736680e-05	
183	2.450000e+00	2.740280e-05	
184	2.500000e+00	2.743800e-05	
185	2.550000e+00	2.747245e-05	
186	2.600000e+00	2.750623e-05	
187	2.650000e+00	2.753941e-05	
188	2.700000e+00	2.757205e-05	
189	2.750000e+00	2.760424e-05	
190	2.800000e+00	2.763606e-05	
191	2.850000e+00	2.766759e-05	
192	2.900000e+00	2.769894e-05	
193	2.950000e+00	2.773022e-05	
194	3.000000e+00	2.776154e-05	
195	3.050000e+00	2.779303e-05	
196	3.100000e+00	2.782485e-05	
197	3.150000e+00	2.785715e-05	
198	3.200000e+00	2.789010e-05	
199	3.250000e+00	2.792390e-05	
200	3.300000e+00	2.795876e-05	
201	0.000000e+00	-0.000000e+00	
202	5.000000e-02	3.161812e-06	
203	1.000000e-01	6.169558e-06	
204	1.500000e-01	9.029109e-06	
205	2.000000e-01	1.174505e-05	
206	2.500000e-01	1.432155e-05	
207	3.000000e-01	1.676254e-05	
208	3.500000e-01	1.907182e-05	
209	4.000000e-01	2.125302e-05	
210	4.500000e-01	2.330966e-05	
211	5.000000e-01	2.524510e-05	
212	5.500000e-01	2.706261e-05	
213	6.000000e-01	2.876532e-05	
214	6.500000e-01	3.035625e-05	
215	7.000000e-01	3.183830e-05	
216	7.500000e-01	3.321424e-05	
217	8.000000e-01	3.448675e-05	
218	8.500000e-01	3.565834e-05	
219	9.000000e-01	3.673137e-05	
220	9.500000e-01	3.770799e-05	
221	1.000000e+00	3.859010e-05	
222	1.050000e+00	3.937926e-05	
223	1.100000e+00	4.007682e-05	
224	1.150000e+00	4.068440e-05	
225	1.200000e+00	4.120516e-05	
226	1.250000e+00	4.164552e-05	
227	1.300000e+00	4.201566e-05	
228	1.350000e+00	4.232778e-05	

Index   v-sweep         -i(vds)         
--------------------------------------------------------------------------------
229	1.400000e+00	4.259370e-05	
230	1.450000e+00	4.282339e-05	
231	1.500000e+00	4.302460e-05	
232	1.550000e+00	4.320322e-05	
233	1.600000e+00	4.336364e-05	
234	1.650000e+00	4.350921e-05	
235	1.700000e+00	4.364246e-05	
236	1.750000e+00	4.376537e-05	
237	1.800000e+00	4.387948e-05	
238	1.850000e+00	4.398604e-05	
239	1.900000e+00	4.408605e-05	
240	1.950000e+00	4.418033e-05	
241	2.000000e+00	4.426955e-05	
242	2.050000e+00	4.435428e-05	
243	2.100000e+00	4.443499e-05	
244	2.150000e+00	4.451210e-05	
245	2.200000e+00	4.458595e-05	
246	2.250000e+00	4.465684e-05	
247	2.300000e+00	4.472503e-05	
248	2.350000e+00	4.479076e-05	
249	2.400000e+00	4.485422e-05	
250	2.450000e+00	4.491559e-05	
251	2.500000e+00	4.497504e-05	
252	2.550000e+00	4.503271e-05	
253	2.600000e+00	4.508873e-05	
254	2.650000e+00	4.514323e-05	
255	2.700000e+00	4.519632e-05	
256	2.750000e+00	4.524810e-05	
257	2.800000e+00	4.529870e-05	
258	2.850000e+00	4.534822e-05	
259	2.900000e+00	4.539677e-05	
260	2.950000e+00	4.544446e-05	
261	3.000000e+00	4.549142e-05	
262	3.050000e+00	4.553778e-05	
263	3.100000e+00	4.558368e-05	
264	3.150000e+00	4.562929e-05	
265	3.200000e+00	4.567477e-05	
266	3.250000e+00	4.572031e-05	
267	3.300000e+00	4.576612e-05	
268	0.000000e+00	-0.000000e+00	
269	5.000000e-02	3.792351e-06	
270	1.000000e-01	7.428804e-06	
271	1.500000e-01	1.091498e-05	
272	2.000000e-01	1.425524e-05	
273	2.500000e-01	1.745353e-05	
274	3.000000e-01	2.051360e-05	
275	3.500000e-01	2.343906e-05	
276	4.000000e-01	2.623338e-05	
277	4.500000e-01	2.889994e-05	
278	5.000000e-01	3.144196e-05	
279	5.500000e-01	3.386259e-05	
280	6.000000e-01	3.616484e-05	
281	6.500000e-01	3.835165e-05	
282	7.000000e-01	4.042583e-05	
283	7.500000e-01	4.239010e-05	
284	8.000000e-01	4.424709e-05	
285	8.500000e-01	4.599933e-05	
286	9.000000e-01	4.764923e-05	

Index   v-sweep         -i(vds)         
--------------------------------------------------------------------------------
287	9.500000e-01	4.919911e-05	
288	1.000000e+00	5.065116e-05	
289	1.050000e+00	5.200739e-05	
290	1.100000e+00	5.326965e-05	
291	1.150000e+00	5.443950e-05	
292	1.200000e+00	5.551812e-05	
293	1.250000e+00	5.650616e-05	
294	1.300000e+00	5.740361e-05	
295	1.350000e+00	5.820987e-05	
296	1.400000e+00	5.892440e-05	
297	1.450000e+00	5.954830e-05	
298	1.500000e+00	6.008626e-05	
299	1.550000e+00	6.054710e-05	
300	1.600000e+00	6.094225e-05	
301	1.650000e+00	6.128345e-05	
302	1.700000e+00	6.158111e-05	
303	1.750000e+00	6.184375e-05	
304	1.800000e+00	6.207806e-05	
305	1.850000e+00	6.228923e-05	
306	1.900000e+00	6.248128e-05	
307	1.950000e+00	6.265734e-05	
308	2.000000e+00	6.281987e-05	
309	2.050000e+00	6.297085e-05	
310	2.100000e+00	6.311185e-05	
311	2.150000e+00	6.324416e-05	
312	2.200000e+00	6.336884e-05	
313	2.250000e+00	6.348678e-05	
314	2.300000e+00	6.359872e-05	
315	2.350000e+00	6.370529e-05	
316	2.400000e+00	6.380702e-05	
317	2.450000e+00	6.390438e-05	
318	2.500000e+00	6.399776e-05	
319	2.550000e+00	6.408751e-05	
320	2.600000e+00	6.417394e-05	
321	2.650000e+00	6.425732e-05	
322	2.700000e+00	6.433788e-05	
323	2.750000e+00	6.441585e-05	
324	2.800000e+00	6.449142e-05	
325	2.850000e+00	6.456476e-05	
326	2.900000e+00	6.463604e-05	
327	2.950000e+00	6.470543e-05	
328	3.000000e+00	6.477308e-05	
329	3.050000e+00	6.483913e-05	
330	3.100000e+00	6.490374e-05	
331	3.150000e+00	6.496707e-05	
332	3.200000e+00	6.502927e-05	
333	3.250000e+00	6.509053e-05	
334	3.300000e+00	6.515103e-05	
335	0.000000e+00	-0.000000e+00	
336	5.000000e-02	4.343340e-06	
337	1.000000e-01	8.530602e-06	
338	1.500000e-01	1.256716e-05	
339	2.000000e-01	1.645712e-05	
340	2.500000e-01	2.020423e-05	
341	3.000000e-01	2.381203e-05	
342	3.500000e-01	2.728393e-05	
343	4.000000e-01	3.062325e-05	
344	4.500000e-01	3.383318e-05	

Index   v-sweep         -i(vds)         
--------------------------------------------------------------------------------
345	5.000000e-01	3.691681e-05	
346	5.500000e-01	3.987713e-05	
347	6.000000e-01	4.271705e-05	
348	6.500000e-01	4.543936e-05	
349	7.000000e-01	4.804679e-05	
350	7.500000e-01	5.054197e-05	
351	8.000000e-01	5.292744e-05	
352	8.500000e-01	5.520567e-05	
353	9.000000e-01	5.737903e-05	
354	9.500000e-01	5.944983e-05	
355	1.000000e+00	6.142028e-05	
356	1.050000e+00	6.329250e-05	
357	1.100000e+00	6.506852e-05	
358	1.150000e+00	6.675025e-05	
359	1.200000e+00	6.833948e-05	
360	1.250000e+00	6.983781e-05	
361	1.300000e+00	7.124664e-05	
362	1.350000e+00	7.256700e-05	
363	1.400000e+00	7.379952e-05	
364	1.450000e+00	7.494414e-05	
365	1.500000e+00	7.599994e-05	
366	1.550000e+00	7.696508e-05	
367	1.600000e+00	7.783712e-05	
368	1.650000e+00	7.861434e-05	
369	1.700000e+00	7.929771e-05	
370	1.750000e+00	7.989252e-05	
371	1.800000e+00	8.040810e-05	
372	1.850000e+00	8.085591e-05	
373	1.900000e+00	8.124738e-05	
374	1.950000e+00	8.159264e-05	
375	2.000000e+00	8.190009e-05	
376	2.050000e+00	8.217645e-05	
377	2.100000e+00	8.242703e-05	
378	2.150000e+00	8.265606e-05	
379	2.200000e+00	8.286684e-05	
380	2.250000e+00	8.306207e-05	
381	2.300000e+00	8.324387e-05	
382	2.350000e+00	8.341402e-05	
383	2.400000e+00	8.357396e-05	
384	2.450000e+00	8.372489e-05	
385	2.500000e+00	8.386781e-05	
386	2.550000e+00	8.400358e-05	
387	2.600000e+00	8.413292e-05	
388	2.650000e+00	8.425646e-05	
389	2.700000e+00	8.437473e-05	
390	2.750000e+00	8.448821e-05	
391	2.800000e+00	8.459730e-05	
392	2.850000e+00	8.470236e-05	
393	2.900000e+00	8.480372e-05	
394	2.950000e+00	8.490167e-05	
395	3.000000e+00	8.499645e-05	
396	3.050000e+00	8.508832e-05	
397	3.100000e+00	8.517748e-05	
398	3.150000e+00	8.526414e-05	
399	3.200000e+00	8.534851e-05	
400	3.250000e+00	8.543078e-05	
401	3.300000e+00	8.551113e-05	
Note: No ".plot", ".print", or ".fourier" lines; no simulations run
