
Note: Compatibility modes selected: hs

Warning: m=xx on .subckt line will override multiplier m hierarchy!


Circuit: ***************************

Doing analysis at TEMP = 25.000000 and TNOM = 25.000000


No. of Data Rows : 402
                          ***************************
                          DC transfer characteristic  Mon Jan  9 13:57:17  2023
--------------------------------------------------------------------------------
Index   v-sweep         -i(vds)         
--------------------------------------------------------------------------------
0	0.000000e+00	-0.000000e+00	
1	5.000000e-02	1.669039e-05	
2	1.000000e-01	2.779737e-05	
3	1.500000e-01	3.429825e-05	
4	2.000000e-01	3.771708e-05	
5	2.500000e-01	3.964871e-05	
6	3.000000e-01	4.098564e-05	
7	3.500000e-01	4.207068e-05	
8	4.000000e-01	4.303260e-05	
9	4.500000e-01	4.392638e-05	
10	5.000000e-01	4.477893e-05	
11	5.500000e-01	4.560500e-05	
12	6.000000e-01	4.641341e-05	
13	6.500000e-01	4.720978e-05	
14	7.000000e-01	4.799790e-05	
15	7.500000e-01	4.878045e-05	
16	8.000000e-01	4.955935e-05	
17	8.500000e-01	5.033607e-05	
18	9.000000e-01	5.111170e-05	
19	9.500000e-01	5.188711e-05	
20	1.000000e+00	5.266300e-05	
21	1.050000e+00	5.343990e-05	
22	1.100000e+00	5.421829e-05	
23	1.150000e+00	5.499853e-05	
24	1.200000e+00	5.578094e-05	
25	1.250000e+00	5.656577e-05	
26	1.300000e+00	5.735324e-05	
27	1.350000e+00	5.814356e-05	
28	1.400000e+00	5.893688e-05	
29	1.450000e+00	5.973334e-05	
30	1.500000e+00	6.053307e-05	
31	1.550000e+00	6.133619e-05	
32	1.600000e+00	6.214280e-05	
33	1.650000e+00	6.295299e-05	
34	1.700000e+00	6.376688e-05	
35	1.750000e+00	6.458454e-05	
36	1.800000e+00	6.540609e-05	
37	1.850000e+00	6.623165e-05	
38	1.900000e+00	6.706134e-05	
39	1.950000e+00	6.789531e-05	
40	2.000000e+00	6.873373e-05	
41	2.050000e+00	6.957680e-05	
42	2.100000e+00	7.042476e-05	
43	2.150000e+00	7.127789e-05	
44	2.200000e+00	7.213651e-05	
45	2.250000e+00	7.300100e-05	
46	2.300000e+00	7.387180e-05	
47	2.350000e+00	7.474942e-05	
48	2.400000e+00	7.563444e-05	
49	2.450000e+00	7.652753e-05	
50	2.500000e+00	7.742946e-05	
51	2.550000e+00	7.834107e-05	
52	2.600000e+00	7.926335e-05	
53	2.650000e+00	8.019739e-05	
54	2.700000e+00	8.114439e-05	

Index   v-sweep         -i(vds)         
--------------------------------------------------------------------------------
55	2.750000e+00	8.210571e-05	
56	2.800000e+00	8.308286e-05	
57	2.850000e+00	8.407750e-05	
58	2.900000e+00	8.509144e-05	
59	2.950000e+00	8.612669e-05	
60	3.000000e+00	8.718544e-05	
61	3.050000e+00	8.827008e-05	
62	3.100000e+00	8.938321e-05	
63	3.150000e+00	9.052764e-05	
64	3.200000e+00	9.170641e-05	
65	3.250000e+00	9.292282e-05	
66	3.300000e+00	9.418039e-05	
67	0.000000e+00	-0.000000e+00	
68	5.000000e-02	6.758585e-05	
69	1.000000e-01	1.268227e-04	
70	1.500000e-01	1.783223e-04	
71	2.000000e-01	2.226328e-04	
72	2.500000e-01	2.602436e-04	
73	3.000000e-01	2.915906e-04	
74	3.500000e-01	3.170708e-04	
75	4.000000e-01	3.370963e-04	
76	4.500000e-01	3.522311e-04	
77	5.000000e-01	3.633448e-04	
78	5.500000e-01	3.715275e-04	
79	6.000000e-01	3.777700e-04	
80	6.500000e-01	3.827742e-04	
81	7.000000e-01	3.869784e-04	
82	7.500000e-01	3.906475e-04	
83	8.000000e-01	3.939441e-04	
84	8.500000e-01	3.969715e-04	
85	9.000000e-01	3.997978e-04	
86	9.500000e-01	4.024695e-04	
87	1.000000e+00	4.050196e-04	
88	1.050000e+00	4.074721e-04	
89	1.100000e+00	4.098447e-04	
90	1.150000e+00	4.121511e-04	
91	1.200000e+00	4.144018e-04	
92	1.250000e+00	4.166053e-04	
93	1.300000e+00	4.187683e-04	
94	1.350000e+00	4.208962e-04	
95	1.400000e+00	4.229936e-04	
96	1.450000e+00	4.250642e-04	
97	1.500000e+00	4.271111e-04	
98	1.550000e+00	4.291370e-04	
99	1.600000e+00	4.311442e-04	
100	1.650000e+00	4.331347e-04	
101	1.700000e+00	4.351101e-04	
102	1.750000e+00	4.370721e-04	
103	1.800000e+00	4.390219e-04	
104	1.850000e+00	4.409607e-04	
105	1.900000e+00	4.428897e-04	
106	1.950000e+00	4.448099e-04	
107	2.000000e+00	4.467222e-04	
108	2.050000e+00	4.486278e-04	
109	2.100000e+00	4.505276e-04	
110	2.150000e+00	4.524226e-04	
111	2.200000e+00	4.543139e-04	
112	2.250000e+00	4.562029e-04	

Index   v-sweep         -i(vds)         
--------------------------------------------------------------------------------
113	2.300000e+00	4.580909e-04	
114	2.350000e+00	4.599794e-04	
115	2.400000e+00	4.618701e-04	
116	2.450000e+00	4.637650e-04	
117	2.500000e+00	4.656664e-04	
118	2.550000e+00	4.675767e-04	
119	2.600000e+00	4.694989e-04	
120	2.650000e+00	4.714361e-04	
121	2.700000e+00	4.733921e-04	
122	2.750000e+00	4.753707e-04	
123	2.800000e+00	4.773767e-04	
124	2.850000e+00	4.794150e-04	
125	2.900000e+00	4.814912e-04	
126	2.950000e+00	4.836116e-04	
127	3.000000e+00	4.857828e-04	
128	3.050000e+00	4.880124e-04	
129	3.100000e+00	4.903085e-04	
130	3.150000e+00	4.926799e-04	
131	3.200000e+00	4.951363e-04	
132	3.250000e+00	4.976881e-04	
133	3.300000e+00	5.003465e-04	
134	0.000000e+00	-0.000000e+00	
135	5.000000e-02	1.031256e-04	
136	1.000000e-01	1.975867e-04	
137	1.500000e-01	2.839158e-04	
138	2.000000e-01	3.625995e-04	
139	2.500000e-01	4.340821e-04	
140	3.000000e-01	4.987667e-04	
141	3.500000e-01	5.570163e-04	
142	4.000000e-01	6.091510e-04	
143	4.500000e-01	6.554438e-04	
144	5.000000e-01	6.961126e-04	
145	5.500000e-01	7.313159e-04	
146	6.000000e-01	7.611696e-04	
147	6.500000e-01	7.858231e-04	
148	7.000000e-01	8.056149e-04	
149	7.500000e-01	8.211954e-04	
150	8.000000e-01	8.334455e-04	
151	8.500000e-01	8.432426e-04	
152	9.000000e-01	8.512948e-04	
153	9.500000e-01	8.581105e-04	
154	1.000000e+00	8.640372e-04	
155	1.050000e+00	8.693103e-04	
156	1.100000e+00	8.740913e-04	
157	1.150000e+00	8.784928e-04	
158	1.200000e+00	8.825957e-04	
159	1.250000e+00	8.864588e-04	
160	1.300000e+00	8.901263e-04	
161	1.350000e+00	8.936318e-04	
162	1.400000e+00	8.970012e-04	
163	1.450000e+00	9.002552e-04	
164	1.500000e+00	9.034101e-04	
165	1.550000e+00	9.064794e-04	
166	1.600000e+00	9.094738e-04	
167	1.650000e+00	9.124025e-04	
168	1.700000e+00	9.152730e-04	
169	1.750000e+00	9.180918e-04	
170	1.800000e+00	9.208642e-04	

Index   v-sweep         -i(vds)         
--------------------------------------------------------------------------------
171	1.850000e+00	9.235950e-04	
172	1.900000e+00	9.262881e-04	
173	1.950000e+00	9.289472e-04	
174	2.000000e+00	9.315754e-04	
175	2.050000e+00	9.341754e-04	
176	2.100000e+00	9.367499e-04	
177	2.150000e+00	9.393011e-04	
178	2.200000e+00	9.418313e-04	
179	2.250000e+00	9.443426e-04	
180	2.300000e+00	9.468372e-04	
181	2.350000e+00	9.493174e-04	
182	2.400000e+00	9.517854e-04	
183	2.450000e+00	9.542438e-04	
184	2.500000e+00	9.566953e-04	
185	2.550000e+00	9.591429e-04	
186	2.600000e+00	9.615901e-04	
187	2.650000e+00	9.640408e-04	
188	2.700000e+00	9.664993e-04	
189	2.750000e+00	9.689704e-04	
190	2.800000e+00	9.714598e-04	
191	2.850000e+00	9.739737e-04	
192	2.900000e+00	9.765191e-04	
193	2.950000e+00	9.791039e-04	
194	3.000000e+00	9.817367e-04	
195	3.050000e+00	9.844273e-04	
196	3.100000e+00	9.871864e-04	
197	3.150000e+00	9.900260e-04	
198	3.200000e+00	9.929589e-04	
199	3.250000e+00	9.959996e-04	
200	3.300000e+00	9.991634e-04	
201	0.000000e+00	-0.000000e+00	
202	5.000000e-02	1.276820e-04	
203	1.000000e-01	2.470128e-04	
204	1.500000e-01	3.584329e-04	
205	2.000000e-01	4.623509e-04	
206	2.500000e-01	5.591459e-04	
207	3.000000e-01	6.491693e-04	
208	3.500000e-01	7.327459e-04	
209	4.000000e-01	8.101748e-04	
210	4.500000e-01	8.817287e-04	
211	5.000000e-01	9.476527e-04	
212	5.500000e-01	1.008161e-03	
213	6.000000e-01	1.063430e-03	
214	6.500000e-01	1.113593e-03	
215	7.000000e-01	1.158723e-03	
216	7.500000e-01	1.198831e-03	
217	8.000000e-01	1.233880e-03	
218	8.500000e-01	1.263850e-03	
219	9.000000e-01	1.288870e-03	
220	9.500000e-01	1.309353e-03	
221	1.000000e+00	1.325981e-03	
222	1.050000e+00	1.339552e-03	
223	1.100000e+00	1.350802e-03	
224	1.150000e+00	1.360321e-03	
225	1.200000e+00	1.368551e-03	
226	1.250000e+00	1.375806e-03	
227	1.300000e+00	1.382316e-03	
228	1.350000e+00	1.388243e-03	

Index   v-sweep         -i(vds)         
--------------------------------------------------------------------------------
229	1.400000e+00	1.393708e-03	
230	1.450000e+00	1.398799e-03	
231	1.500000e+00	1.403584e-03	
232	1.550000e+00	1.408115e-03	
233	1.600000e+00	1.412433e-03	
234	1.650000e+00	1.416568e-03	
235	1.700000e+00	1.420548e-03	
236	1.750000e+00	1.424392e-03	
237	1.800000e+00	1.428118e-03	
238	1.850000e+00	1.431741e-03	
239	1.900000e+00	1.435271e-03	
240	1.950000e+00	1.438720e-03	
241	2.000000e+00	1.442095e-03	
242	2.050000e+00	1.445405e-03	
243	2.100000e+00	1.448654e-03	
244	2.150000e+00	1.451850e-03	
245	2.200000e+00	1.454997e-03	
246	2.250000e+00	1.458099e-03	
247	2.300000e+00	1.461160e-03	
248	2.350000e+00	1.464184e-03	
249	2.400000e+00	1.467175e-03	
250	2.450000e+00	1.470135e-03	
251	2.500000e+00	1.473068e-03	
252	2.550000e+00	1.475978e-03	
253	2.600000e+00	1.478868e-03	
254	2.650000e+00	1.481742e-03	
255	2.700000e+00	1.484605e-03	
256	2.750000e+00	1.487460e-03	
257	2.800000e+00	1.490313e-03	
258	2.850000e+00	1.493170e-03	
259	2.900000e+00	1.496038e-03	
260	2.950000e+00	1.498924e-03	
261	3.000000e+00	1.501837e-03	
262	3.050000e+00	1.504785e-03	
263	3.100000e+00	1.507781e-03	
264	3.150000e+00	1.510835e-03	
265	3.200000e+00	1.513961e-03	
266	3.250000e+00	1.517173e-03	
267	3.300000e+00	1.520488e-03	
268	0.000000e+00	-0.000000e+00	
269	5.000000e-02	1.449530e-04	
270	1.000000e-01	2.820874e-04	
271	1.500000e-01	4.117623e-04	
272	2.000000e-01	5.343143e-04	
273	2.500000e-01	6.500593e-04	
274	3.000000e-01	7.592938e-04	
275	3.500000e-01	8.622956e-04	
276	4.000000e-01	9.593251e-04	
277	4.500000e-01	1.050625e-03	
278	5.000000e-01	1.136422e-03	
279	5.500000e-01	1.216925e-03	
280	6.000000e-01	1.292325e-03	
281	6.500000e-01	1.362793e-03	
282	7.000000e-01	1.428475e-03	
283	7.500000e-01	1.489490e-03	
284	8.000000e-01	1.545922e-03	
285	8.500000e-01	1.597805e-03	
286	9.000000e-01	1.645119e-03	

Index   v-sweep         -i(vds)         
--------------------------------------------------------------------------------
287	9.500000e-01	1.687779e-03	
288	1.000000e+00	1.725662e-03	
289	1.050000e+00	1.758666e-03	
290	1.100000e+00	1.786832e-03	
291	1.150000e+00	1.810452e-03	
292	1.200000e+00	1.830076e-03	
293	1.250000e+00	1.846396e-03	
294	1.300000e+00	1.860101e-03	
295	1.350000e+00	1.871783e-03	
296	1.400000e+00	1.881909e-03	
297	1.450000e+00	1.890834e-03	
298	1.500000e+00	1.898820e-03	
299	1.550000e+00	1.906063e-03	
300	1.600000e+00	1.912710e-03	
301	1.650000e+00	1.918871e-03	
302	1.700000e+00	1.924633e-03	
303	1.750000e+00	1.930060e-03	
304	1.800000e+00	1.935205e-03	
305	1.850000e+00	1.940110e-03	
306	1.900000e+00	1.944807e-03	
307	1.950000e+00	1.949325e-03	
308	2.000000e+00	1.953685e-03	
309	2.050000e+00	1.957907e-03	
310	2.100000e+00	1.962006e-03	
311	2.150000e+00	1.965995e-03	
312	2.200000e+00	1.969887e-03	
313	2.250000e+00	1.973690e-03	
314	2.300000e+00	1.977413e-03	
315	2.350000e+00	1.981063e-03	
316	2.400000e+00	1.984648e-03	
317	2.450000e+00	1.988172e-03	
318	2.500000e+00	1.991642e-03	
319	2.550000e+00	1.995062e-03	
320	2.600000e+00	1.998437e-03	
321	2.650000e+00	2.001771e-03	
322	2.700000e+00	2.005069e-03	
323	2.750000e+00	2.008336e-03	
324	2.800000e+00	2.011576e-03	
325	2.850000e+00	2.014794e-03	
326	2.900000e+00	2.017997e-03	
327	2.950000e+00	2.021191e-03	
328	3.000000e+00	2.024383e-03	
329	3.050000e+00	2.027580e-03	
330	3.100000e+00	2.030792e-03	
331	3.150000e+00	2.034029e-03	
332	3.200000e+00	2.037303e-03	
333	3.250000e+00	2.040626e-03	
334	3.300000e+00	2.044013e-03	
335	0.000000e+00	-0.000000e+00	
336	5.000000e-02	1.572235e-04	
337	1.000000e-01	3.072208e-04	
338	1.500000e-01	4.502843e-04	
339	2.000000e-01	5.866905e-04	
340	2.500000e-01	7.167008e-04	
341	3.000000e-01	8.405628e-04	
342	3.500000e-01	9.585106e-04	
343	4.000000e-01	1.070766e-03	
344	4.500000e-01	1.177538e-03	

Index   v-sweep         -i(vds)         
--------------------------------------------------------------------------------
345	5.000000e-01	1.279024e-03	
346	5.500000e-01	1.375411e-03	
347	6.000000e-01	1.466875e-03	
348	6.500000e-01	1.553577e-03	
349	7.000000e-01	1.635669e-03	
350	7.500000e-01	1.713290e-03	
351	8.000000e-01	1.786561e-03	
352	8.500000e-01	1.855587e-03	
353	9.000000e-01	1.920452e-03	
354	9.500000e-01	1.981209e-03	
355	1.000000e+00	2.037876e-03	
356	1.050000e+00	2.090422e-03	
357	1.100000e+00	2.138764e-03	
358	1.150000e+00	2.182761e-03	
359	1.200000e+00	2.222240e-03	
360	1.250000e+00	2.257066e-03	
361	1.300000e+00	2.287236e-03	
362	1.350000e+00	2.312973e-03	
363	1.400000e+00	2.334732e-03	
364	1.450000e+00	2.353113e-03	
365	1.500000e+00	2.368739e-03	
366	1.550000e+00	2.382172e-03	
367	1.600000e+00	2.393878e-03	
368	1.650000e+00	2.404222e-03	
369	1.700000e+00	2.413483e-03	
370	1.750000e+00	2.421877e-03	
371	1.800000e+00	2.429567e-03	
372	1.850000e+00	2.436680e-03	
373	1.900000e+00	2.443312e-03	
374	1.950000e+00	2.449542e-03	
375	2.000000e+00	2.455430e-03	
376	2.050000e+00	2.461026e-03	
377	2.100000e+00	2.466369e-03	
378	2.150000e+00	2.471493e-03	
379	2.200000e+00	2.476424e-03	
380	2.250000e+00	2.481185e-03	
381	2.300000e+00	2.485795e-03	
382	2.350000e+00	2.490270e-03	
383	2.400000e+00	2.494624e-03	
384	2.450000e+00	2.498870e-03	
385	2.500000e+00	2.503016e-03	
386	2.550000e+00	2.507074e-03	
387	2.600000e+00	2.511049e-03	
388	2.650000e+00	2.514951e-03	
389	2.700000e+00	2.518784e-03	
390	2.750000e+00	2.522556e-03	
391	2.800000e+00	2.526273e-03	
392	2.850000e+00	2.529939e-03	
393	2.900000e+00	2.533560e-03	
394	2.950000e+00	2.537143e-03	
395	3.000000e+00	2.540693e-03	
396	3.050000e+00	2.544217e-03	
397	3.100000e+00	2.547723e-03	
398	3.150000e+00	2.551218e-03	
399	3.200000e+00	2.554711e-03	
400	3.250000e+00	2.558213e-03	
401	3.300000e+00	2.561735e-03	
Note: No ".plot", ".print", or ".fourier" lines; no simulations run
