
Note: Compatibility modes selected: hs

Warning: m=xx on .subckt line will override multiplier m hierarchy!


Circuit: ***************************

Doing analysis at TEMP = 25.000000 and TNOM = 25.000000


No. of Data Rows : 402
                          ***************************
                          DC transfer characteristic  Mon Jan  9 13:57:17  2023
--------------------------------------------------------------------------------
Index   v-sweep         -i(vds)         
--------------------------------------------------------------------------------
0	0.000000e+00	-0.000000e+00	
1	5.000000e-02	9.297395e-08	
2	1.000000e-01	1.453722e-07	
3	1.500000e-01	1.618308e-07	
4	2.000000e-01	1.636634e-07	
5	2.500000e-01	1.640094e-07	
6	3.000000e-01	1.641826e-07	
7	3.500000e-01	1.643104e-07	
8	4.000000e-01	1.644194e-07	
9	4.500000e-01	1.645185e-07	
10	5.000000e-01	1.646115e-07	
11	5.500000e-01	1.647004e-07	
12	6.000000e-01	1.647863e-07	
13	6.500000e-01	1.648699e-07	
14	7.000000e-01	1.649517e-07	
15	7.500000e-01	1.650320e-07	
16	8.000000e-01	1.651111e-07	
17	8.500000e-01	1.651892e-07	
18	9.000000e-01	1.652665e-07	
19	9.500000e-01	1.653429e-07	
20	1.000000e+00	1.654188e-07	
21	1.050000e+00	1.654940e-07	
22	1.100000e+00	1.655687e-07	
23	1.150000e+00	1.656430e-07	
24	1.200000e+00	1.657168e-07	
25	1.250000e+00	1.657903e-07	
26	1.300000e+00	1.658634e-07	
27	1.350000e+00	1.659362e-07	
28	1.400000e+00	1.660088e-07	
29	1.450000e+00	1.660810e-07	
30	1.500000e+00	1.661531e-07	
31	1.550000e+00	1.662249e-07	
32	1.600000e+00	1.662965e-07	
33	1.650000e+00	1.663680e-07	
34	1.700000e+00	1.664394e-07	
35	1.750000e+00	1.665108e-07	
36	1.800000e+00	1.665821e-07	
37	1.850000e+00	1.666535e-07	
38	1.900000e+00	1.667251e-07	
39	1.950000e+00	1.667971e-07	
40	2.000000e+00	1.668695e-07	
41	2.050000e+00	1.669426e-07	
42	2.100000e+00	1.670166e-07	
43	2.150000e+00	1.670918e-07	
44	2.200000e+00	1.671686e-07	
45	2.250000e+00	1.672474e-07	
46	2.300000e+00	1.673285e-07	
47	2.350000e+00	1.674127e-07	
48	2.400000e+00	1.675004e-07	
49	2.450000e+00	1.675924e-07	
50	2.500000e+00	1.676895e-07	
51	2.550000e+00	1.677924e-07	
52	2.600000e+00	1.679023e-07	
53	2.650000e+00	1.680202e-07	
54	2.700000e+00	1.681471e-07	

Index   v-sweep         -i(vds)         
--------------------------------------------------------------------------------
55	2.750000e+00	1.682844e-07	
56	2.800000e+00	1.684335e-07	
57	2.850000e+00	1.685957e-07	
58	2.900000e+00	1.687726e-07	
59	2.950000e+00	1.689659e-07	
60	3.000000e+00	1.691774e-07	
61	3.050000e+00	1.694089e-07	
62	3.100000e+00	1.696624e-07	
63	3.150000e+00	1.699399e-07	
64	3.200000e+00	1.702436e-07	
65	3.250000e+00	1.705757e-07	
66	3.300000e+00	1.709385e-07	
67	0.000000e+00	-0.000000e+00	
68	5.000000e-02	4.388648e-07	
69	1.000000e-01	8.301566e-07	
70	1.500000e-01	1.173991e-06	
71	2.000000e-01	1.470488e-06	
72	2.500000e-01	1.719776e-06	
73	3.000000e-01	1.922009e-06	
74	3.500000e-01	2.077414e-06	
75	4.000000e-01	2.186496e-06	
76	4.500000e-01	2.251077e-06	
77	5.000000e-01	2.278880e-06	
78	5.500000e-01	2.287605e-06	
79	6.000000e-01	2.290771e-06	
80	6.500000e-01	2.292446e-06	
81	7.000000e-01	2.293590e-06	
82	7.500000e-01	2.294485e-06	
83	8.000000e-01	2.295242e-06	
84	8.500000e-01	2.295912e-06	
85	9.000000e-01	2.296521e-06	
86	9.500000e-01	2.297087e-06	
87	1.000000e+00	2.297619e-06	
88	1.050000e+00	2.298124e-06	
89	1.100000e+00	2.298608e-06	
90	1.150000e+00	2.299074e-06	
91	1.200000e+00	2.299526e-06	
92	1.250000e+00	2.299964e-06	
93	1.300000e+00	2.300392e-06	
94	1.350000e+00	2.300810e-06	
95	1.400000e+00	2.301220e-06	
96	1.450000e+00	2.301622e-06	
97	1.500000e+00	2.302017e-06	
98	1.550000e+00	2.302406e-06	
99	1.600000e+00	2.302790e-06	
100	1.650000e+00	2.303169e-06	
101	1.700000e+00	2.303543e-06	
102	1.750000e+00	2.303914e-06	
103	1.800000e+00	2.304280e-06	
104	1.850000e+00	2.304643e-06	
105	1.900000e+00	2.305003e-06	
106	1.950000e+00	2.305361e-06	
107	2.000000e+00	2.305716e-06	
108	2.050000e+00	2.306070e-06	
109	2.100000e+00	2.306423e-06	
110	2.150000e+00	2.306776e-06	
111	2.200000e+00	2.307130e-06	
112	2.250000e+00	2.307487e-06	

Index   v-sweep         -i(vds)         
--------------------------------------------------------------------------------
113	2.300000e+00	2.307848e-06	
114	2.350000e+00	2.308215e-06	
115	2.400000e+00	2.308593e-06	
116	2.450000e+00	2.308983e-06	
117	2.500000e+00	2.309389e-06	
118	2.550000e+00	2.309817e-06	
119	2.600000e+00	2.310273e-06	
120	2.650000e+00	2.310762e-06	
121	2.700000e+00	2.311292e-06	
122	2.750000e+00	2.311871e-06	
123	2.800000e+00	2.312510e-06	
124	2.850000e+00	2.313218e-06	
125	2.900000e+00	2.314008e-06	
126	2.950000e+00	2.314894e-06	
127	3.000000e+00	2.315889e-06	
128	3.050000e+00	2.317009e-06	
129	3.100000e+00	2.318273e-06	
130	3.150000e+00	2.319697e-06	
131	3.200000e+00	2.321303e-06	
132	3.250000e+00	2.323112e-06	
133	3.300000e+00	2.325145e-06	
134	0.000000e+00	-0.000000e+00	
135	5.000000e-02	7.583231e-07	
136	1.000000e-01	1.471439e-06	
137	1.500000e-01	2.139449e-06	
138	2.000000e-01	2.762454e-06	
139	2.500000e-01	3.340555e-06	
140	3.000000e-01	3.873852e-06	
141	3.500000e-01	4.362449e-06	
142	4.000000e-01	4.806446e-06	
143	4.500000e-01	5.205949e-06	
144	5.000000e-01	5.561063e-06	
145	5.500000e-01	5.871902e-06	
146	6.000000e-01	6.138593e-06	
147	6.500000e-01	6.361292e-06	
148	7.000000e-01	6.540232e-06	
149	7.500000e-01	6.675871e-06	
150	8.000000e-01	6.769418e-06	
151	8.500000e-01	6.824644e-06	
152	9.000000e-01	6.851338e-06	
153	9.500000e-01	6.863232e-06	
154	1.000000e+00	6.869333e-06	
155	1.050000e+00	6.873155e-06	
156	1.100000e+00	6.875927e-06	
157	1.150000e+00	6.878129e-06	
158	1.200000e+00	6.879984e-06	
159	1.250000e+00	6.881608e-06	
160	1.300000e+00	6.883067e-06	
161	1.350000e+00	6.884403e-06	
162	1.400000e+00	6.885643e-06	
163	1.450000e+00	6.886807e-06	
164	1.500000e+00	6.887910e-06	
165	1.550000e+00	6.888960e-06	
166	1.600000e+00	6.889967e-06	
167	1.650000e+00	6.890936e-06	
168	1.700000e+00	6.891873e-06	
169	1.750000e+00	6.892782e-06	
170	1.800000e+00	6.893665e-06	

Index   v-sweep         -i(vds)         
--------------------------------------------------------------------------------
171	1.850000e+00	6.894526e-06	
172	1.900000e+00	6.895368e-06	
173	1.950000e+00	6.896191e-06	
174	2.000000e+00	6.896998e-06	
175	2.050000e+00	6.897790e-06	
176	2.100000e+00	6.898569e-06	
177	2.150000e+00	6.899336e-06	
178	2.200000e+00	6.900092e-06	
179	2.250000e+00	6.900837e-06	
180	2.300000e+00	6.901574e-06	
181	2.350000e+00	6.902303e-06	
182	2.400000e+00	6.903027e-06	
183	2.450000e+00	6.903746e-06	
184	2.500000e+00	6.904463e-06	
185	2.550000e+00	6.905182e-06	
186	2.600000e+00	6.905905e-06	
187	2.650000e+00	6.906638e-06	
188	2.700000e+00	6.907387e-06	
189	2.750000e+00	6.908158e-06	
190	2.800000e+00	6.908961e-06	
191	2.850000e+00	6.909806e-06	
192	2.900000e+00	6.910707e-06	
193	2.950000e+00	6.911677e-06	
194	3.000000e+00	6.912736e-06	
195	3.050000e+00	6.913903e-06	
196	3.100000e+00	6.915202e-06	
197	3.150000e+00	6.916660e-06	
198	3.200000e+00	6.918306e-06	
199	3.250000e+00	6.920174e-06	
200	3.300000e+00	6.922301e-06	
201	0.000000e+00	-0.000000e+00	
202	5.000000e-02	1.027484e-06	
203	1.000000e-01	2.013636e-06	
204	1.500000e-01	2.958544e-06	
205	2.000000e-01	3.862294e-06	
206	2.500000e-01	4.724973e-06	
207	3.000000e-01	5.546669e-06	
208	3.500000e-01	6.327466e-06	
209	4.000000e-01	7.067453e-06	
210	4.500000e-01	7.766713e-06	
211	5.000000e-01	8.425334e-06	
212	5.500000e-01	9.043402e-06	
213	6.000000e-01	9.621002e-06	
214	6.500000e-01	1.015822e-05	
215	7.000000e-01	1.065514e-05	
216	7.500000e-01	1.111186e-05	
217	8.000000e-01	1.152846e-05	
218	8.500000e-01	1.190503e-05	
219	9.000000e-01	1.224166e-05	
220	9.500000e-01	1.253847e-05	
221	1.000000e+00	1.279557e-05	
222	1.050000e+00	1.301311e-05	
223	1.100000e+00	1.319134e-05	
224	1.150000e+00	1.333073e-05	
225	1.200000e+00	1.343237e-05	
226	1.250000e+00	1.349917e-05	
227	1.300000e+00	1.353787e-05	
228	1.350000e+00	1.355874e-05	

Index   v-sweep         -i(vds)         
--------------------------------------------------------------------------------
229	1.400000e+00	1.357061e-05	
230	1.450000e+00	1.357825e-05	
231	1.500000e+00	1.358375e-05	
232	1.550000e+00	1.358805e-05	
233	1.600000e+00	1.359161e-05	
234	1.650000e+00	1.359467e-05	
235	1.700000e+00	1.359738e-05	
236	1.750000e+00	1.359982e-05	
237	1.800000e+00	1.360206e-05	
238	1.850000e+00	1.360414e-05	
239	1.900000e+00	1.360609e-05	
240	1.950000e+00	1.360793e-05	
241	2.000000e+00	1.360967e-05	
242	2.050000e+00	1.361134e-05	
243	2.100000e+00	1.361294e-05	
244	2.150000e+00	1.361448e-05	
245	2.200000e+00	1.361597e-05	
246	2.250000e+00	1.361741e-05	
247	2.300000e+00	1.361881e-05	
248	2.350000e+00	1.362017e-05	
249	2.400000e+00	1.362150e-05	
250	2.450000e+00	1.362280e-05	
251	2.500000e+00	1.362407e-05	
252	2.550000e+00	1.362532e-05	
253	2.600000e+00	1.362654e-05	
254	2.650000e+00	1.362775e-05	
255	2.700000e+00	1.362893e-05	
256	2.750000e+00	1.363010e-05	
257	2.800000e+00	1.363126e-05	
258	2.850000e+00	1.363240e-05	
259	2.900000e+00	1.363355e-05	
260	2.950000e+00	1.363469e-05	
261	3.000000e+00	1.363584e-05	
262	3.050000e+00	1.363701e-05	
263	3.100000e+00	1.363820e-05	
264	3.150000e+00	1.363944e-05	
265	3.200000e+00	1.364073e-05	
266	3.250000e+00	1.364211e-05	
267	3.300000e+00	1.364358e-05	
268	0.000000e+00	-0.000000e+00	
269	5.000000e-02	1.241721e-06	
270	1.000000e-01	2.446462e-06	
271	1.500000e-01	3.614296e-06	
272	2.000000e-01	4.745295e-06	
273	2.500000e-01	5.839533e-06	
274	3.000000e-01	6.897081e-06	
275	3.500000e-01	7.918013e-06	
276	4.000000e-01	8.902400e-06	
277	4.500000e-01	9.850314e-06	
278	5.000000e-01	1.076183e-05	
279	5.500000e-01	1.163701e-05	
280	6.000000e-01	1.247594e-05	
281	6.500000e-01	1.327868e-05	
282	7.000000e-01	1.404530e-05	
283	7.500000e-01	1.477588e-05	
284	8.000000e-01	1.547048e-05	
285	8.500000e-01	1.612918e-05	
286	9.000000e-01	1.675206e-05	

Index   v-sweep         -i(vds)         
--------------------------------------------------------------------------------
287	9.500000e-01	1.733916e-05	
288	1.000000e+00	1.789058e-05	
289	1.050000e+00	1.840638e-05	
290	1.100000e+00	1.888663e-05	
291	1.150000e+00	1.933141e-05	
292	1.200000e+00	1.974078e-05	
293	1.250000e+00	2.011482e-05	
294	1.300000e+00	2.045361e-05	
295	1.350000e+00	2.075724e-05	
296	1.400000e+00	2.102579e-05	
297	1.450000e+00	2.125938e-05	
298	1.500000e+00	2.145817e-05	
299	1.550000e+00	2.162242e-05	
300	1.600000e+00	2.175265e-05	
301	1.650000e+00	2.185000e-05	
302	1.700000e+00	2.191725e-05	
303	1.750000e+00	2.195994e-05	
304	1.800000e+00	2.198595e-05	
305	1.850000e+00	2.200236e-05	
306	1.900000e+00	2.201359e-05	
307	1.950000e+00	2.202193e-05	
308	2.000000e+00	2.202852e-05	
309	2.050000e+00	2.203400e-05	
310	2.100000e+00	2.203870e-05	
311	2.150000e+00	2.204284e-05	
312	2.200000e+00	2.204656e-05	
313	2.250000e+00	2.204995e-05	
314	2.300000e+00	2.205308e-05	
315	2.350000e+00	2.205600e-05	
316	2.400000e+00	2.205874e-05	
317	2.450000e+00	2.206133e-05	
318	2.500000e+00	2.206379e-05	
319	2.550000e+00	2.206615e-05	
320	2.600000e+00	2.206840e-05	
321	2.650000e+00	2.207057e-05	
322	2.700000e+00	2.207267e-05	
323	2.750000e+00	2.207470e-05	
324	2.800000e+00	2.207666e-05	
325	2.850000e+00	2.207858e-05	
326	2.900000e+00	2.208044e-05	
327	2.950000e+00	2.208226e-05	
328	3.000000e+00	2.208404e-05	
329	3.050000e+00	2.208578e-05	
330	3.100000e+00	2.208748e-05	
331	3.150000e+00	2.208916e-05	
332	3.200000e+00	2.209081e-05	
333	3.250000e+00	2.209244e-05	
334	3.300000e+00	2.209406e-05	
335	0.000000e+00	-0.000000e+00	
336	5.000000e-02	1.403146e-06	
337	1.000000e-01	2.773699e-06	
338	1.500000e-01	4.111716e-06	
339	2.000000e-01	5.417260e-06	
340	2.500000e-01	6.690387e-06	
341	3.000000e-01	7.931159e-06	
342	3.500000e-01	9.139634e-06	
343	4.000000e-01	1.031587e-05	
344	4.500000e-01	1.145993e-05	

Index   v-sweep         -i(vds)         
--------------------------------------------------------------------------------
345	5.000000e-01	1.257187e-05	
346	5.500000e-01	1.365175e-05	
347	6.000000e-01	1.469962e-05	
348	6.500000e-01	1.571555e-05	
349	7.000000e-01	1.669960e-05	
350	7.500000e-01	1.765182e-05	
351	8.000000e-01	1.857226e-05	
352	8.500000e-01	1.946100e-05	
353	9.000000e-01	2.031808e-05	
354	9.500000e-01	2.114356e-05	
355	1.000000e+00	2.193750e-05	
356	1.050000e+00	2.269997e-05	
357	1.100000e+00	2.343100e-05	
358	1.150000e+00	2.413067e-05	
359	1.200000e+00	2.479903e-05	
360	1.250000e+00	2.543614e-05	
361	1.300000e+00	2.604205e-05	
362	1.350000e+00	2.661682e-05	
363	1.400000e+00	2.716050e-05	
364	1.450000e+00	2.767316e-05	
365	1.500000e+00	2.815486e-05	
366	1.550000e+00	2.860564e-05	
367	1.600000e+00	2.902556e-05	
368	1.650000e+00	2.941470e-05	
369	1.700000e+00	2.977309e-05	
370	1.750000e+00	3.010082e-05	
371	1.800000e+00	3.039793e-05	
372	1.850000e+00	3.066451e-05	
373	1.900000e+00	3.090064e-05	
374	1.950000e+00	3.110643e-05	
375	2.000000e+00	3.128204e-05	
376	2.050000e+00	3.142776e-05	
377	2.100000e+00	3.154417e-05	
378	2.150000e+00	3.163254e-05	
379	2.200000e+00	3.169562e-05	
380	2.250000e+00	3.173822e-05	
381	2.300000e+00	3.176650e-05	
382	2.350000e+00	3.178586e-05	
383	2.400000e+00	3.179991e-05	
384	2.450000e+00	3.181072e-05	
385	2.500000e+00	3.181946e-05	
386	2.550000e+00	3.182680e-05	
387	2.600000e+00	3.183314e-05	
388	2.650000e+00	3.183874e-05	
389	2.700000e+00	3.184377e-05	
390	2.750000e+00	3.184837e-05	
391	2.800000e+00	3.185260e-05	
392	2.850000e+00	3.185654e-05	
393	2.900000e+00	3.186023e-05	
394	2.950000e+00	3.186371e-05	
395	3.000000e+00	3.186702e-05	
396	3.050000e+00	3.187017e-05	
397	3.100000e+00	3.187318e-05	
398	3.150000e+00	3.187607e-05	
399	3.200000e+00	3.187885e-05	
400	3.250000e+00	3.188154e-05	
401	3.300000e+00	3.188415e-05	
Note: No ".plot", ".print", or ".fourier" lines; no simulations run
