
Note: Compatibility modes selected: hs

Warning: m=xx on .subckt line will override multiplier m hierarchy!


Circuit: ***************************

Doing analysis at TEMP = -40.000000 and TNOM = -40.000000


No. of Data Rows : 402
                          ***************************
                          DC transfer characteristic  Mon Jan  9 13:57:17  2023
--------------------------------------------------------------------------------
Index   v-sweep         -i(vds)         
--------------------------------------------------------------------------------
0	0.000000e+00	-0.000000e+00	
1	5.000000e-02	3.318520e-06	
2	1.000000e-01	4.253519e-06	
3	1.500000e-01	4.466544e-06	
4	2.000000e-01	4.558818e-06	
5	2.500000e-01	4.621008e-06	
6	3.000000e-01	4.671313e-06	
7	3.500000e-01	4.715487e-06	
8	4.000000e-01	4.755961e-06	
9	4.500000e-01	4.793972e-06	
10	5.000000e-01	4.830231e-06	
11	5.500000e-01	4.865183e-06	
12	6.000000e-01	4.899125e-06	
13	6.500000e-01	4.932266e-06	
14	7.000000e-01	4.964759e-06	
15	7.500000e-01	4.996717e-06	
16	8.000000e-01	5.028229e-06	
17	8.500000e-01	5.059364e-06	
18	9.000000e-01	5.090177e-06	
19	9.500000e-01	5.120714e-06	
20	1.000000e+00	5.151012e-06	
21	1.050000e+00	5.181102e-06	
22	1.100000e+00	5.211010e-06	
23	1.150000e+00	5.240758e-06	
24	1.200000e+00	5.270366e-06	
25	1.250000e+00	5.299850e-06	
26	1.300000e+00	5.329225e-06	
27	1.350000e+00	5.358503e-06	
28	1.400000e+00	5.387696e-06	
29	1.450000e+00	5.416814e-06	
30	1.500000e+00	5.445867e-06	
31	1.550000e+00	5.474864e-06	
32	1.600000e+00	5.503813e-06	
33	1.650000e+00	5.532723e-06	
34	1.700000e+00	5.561603e-06	
35	1.750000e+00	5.590462e-06	
36	1.800000e+00	5.619310e-06	
37	1.850000e+00	5.648157e-06	
38	1.900000e+00	5.677017e-06	
39	1.950000e+00	5.705903e-06	
40	2.000000e+00	5.734829e-06	
41	2.050000e+00	5.763814e-06	
42	2.100000e+00	5.792878e-06	
43	2.150000e+00	5.822042e-06	
44	2.200000e+00	5.851333e-06	
45	2.250000e+00	5.880780e-06	
46	2.300000e+00	5.910414e-06	
47	2.350000e+00	5.940272e-06	
48	2.400000e+00	5.970394e-06	
49	2.450000e+00	6.000825e-06	
50	2.500000e+00	6.031614e-06	
51	2.550000e+00	6.062816e-06	
52	2.600000e+00	6.094491e-06	
53	2.650000e+00	6.126704e-06	
54	2.700000e+00	6.159527e-06	

Index   v-sweep         -i(vds)         
--------------------------------------------------------------------------------
55	2.750000e+00	6.193037e-06	
56	2.800000e+00	6.227319e-06	
57	2.850000e+00	6.262462e-06	
58	2.900000e+00	6.298565e-06	
59	2.950000e+00	6.335732e-06	
60	3.000000e+00	6.374076e-06	
61	3.050000e+00	6.413717e-06	
62	3.100000e+00	6.454782e-06	
63	3.150000e+00	6.497407e-06	
64	3.200000e+00	6.541737e-06	
65	3.250000e+00	6.587925e-06	
66	3.300000e+00	6.636130e-06	
67	0.000000e+00	-0.000000e+00	
68	5.000000e-02	4.843362e-05	
69	1.000000e-01	8.999145e-05	
70	1.500000e-01	1.251063e-04	
71	2.000000e-01	1.541737e-04	
72	2.500000e-01	1.775556e-04	
73	3.000000e-01	1.955922e-04	
74	3.500000e-01	2.086588e-04	
75	4.000000e-01	2.173598e-04	
76	4.500000e-01	2.227680e-04	
77	5.000000e-01	2.261493e-04	
78	5.500000e-01	2.284194e-04	
79	6.000000e-01	2.300751e-04	
80	6.500000e-01	2.313676e-04	
81	7.000000e-01	2.324291e-04	
82	7.500000e-01	2.333340e-04	
83	8.000000e-01	2.341271e-04	
84	8.500000e-01	2.348371e-04	
85	9.000000e-01	2.354832e-04	
86	9.500000e-01	2.360787e-04	
87	1.000000e+00	2.366334e-04	
88	1.050000e+00	2.371546e-04	
89	1.100000e+00	2.376476e-04	
90	1.150000e+00	2.381167e-04	
91	1.200000e+00	2.385655e-04	
92	1.250000e+00	2.389965e-04	
93	1.300000e+00	2.394119e-04	
94	1.350000e+00	2.398138e-04	
95	1.400000e+00	2.402034e-04	
96	1.450000e+00	2.405823e-04	
97	1.500000e+00	2.409514e-04	
98	1.550000e+00	2.413117e-04	
99	1.600000e+00	2.416640e-04	
100	1.650000e+00	2.420090e-04	
101	1.700000e+00	2.423475e-04	
102	1.750000e+00	2.426798e-04	
103	1.800000e+00	2.430066e-04	
104	1.850000e+00	2.433284e-04	
105	1.900000e+00	2.436455e-04	
106	1.950000e+00	2.439584e-04	
107	2.000000e+00	2.442675e-04	
108	2.050000e+00	2.445732e-04	
109	2.100000e+00	2.448761e-04	
110	2.150000e+00	2.451766e-04	
111	2.200000e+00	2.454751e-04	
112	2.250000e+00	2.457724e-04	

Index   v-sweep         -i(vds)         
--------------------------------------------------------------------------------
113	2.300000e+00	2.460690e-04	
114	2.350000e+00	2.463656e-04	
115	2.400000e+00	2.466630e-04	
116	2.450000e+00	2.469621e-04	
117	2.500000e+00	2.472640e-04	
118	2.550000e+00	2.475697e-04	
119	2.600000e+00	2.478804e-04	
120	2.650000e+00	2.481976e-04	
121	2.700000e+00	2.485227e-04	
122	2.750000e+00	2.488575e-04	
123	2.800000e+00	2.492038e-04	
124	2.850000e+00	2.495636e-04	
125	2.900000e+00	2.499391e-04	
126	2.950000e+00	2.503328e-04	
127	3.000000e+00	2.507471e-04	
128	3.050000e+00	2.511850e-04	
129	3.100000e+00	2.516494e-04	
130	3.150000e+00	2.521436e-04	
131	3.200000e+00	2.526711e-04	
132	3.250000e+00	2.532355e-04	
133	3.300000e+00	2.538409e-04	
134	0.000000e+00	-0.000000e+00	
135	5.000000e-02	8.286231e-05	
136	1.000000e-01	1.585751e-04	
137	1.500000e-01	2.275132e-04	
138	2.000000e-01	2.900239e-04	
139	2.500000e-01	3.464291e-04	
140	3.000000e-01	3.970252e-04	
141	3.500000e-01	4.420830e-04	
142	4.000000e-01	4.818449e-04	
143	4.500000e-01	5.165192e-04	
144	5.000000e-01	5.462689e-04	
145	5.500000e-01	5.712006e-04	
146	6.000000e-01	5.913768e-04	
147	6.500000e-01	6.069316e-04	
148	7.000000e-01	6.183217e-04	
149	7.500000e-01	6.264287e-04	
150	8.000000e-01	6.322553e-04	
151	8.500000e-01	6.365947e-04	
152	9.000000e-01	6.399671e-04	
153	9.500000e-01	6.426924e-04	
154	1.000000e+00	6.449679e-04	
155	1.050000e+00	6.469189e-04	
156	1.100000e+00	6.486275e-04	
157	1.150000e+00	6.501500e-04	
158	1.200000e+00	6.515258e-04	
159	1.250000e+00	6.527835e-04	
160	1.300000e+00	6.539446e-04	
161	1.350000e+00	6.550251e-04	
162	1.400000e+00	6.560377e-04	
163	1.450000e+00	6.569923e-04	
164	1.500000e+00	6.578968e-04	
165	1.550000e+00	6.587578e-04	
166	1.600000e+00	6.595805e-04	
167	1.650000e+00	6.603694e-04	
168	1.700000e+00	6.611282e-04	
169	1.750000e+00	6.618599e-04	
170	1.800000e+00	6.625675e-04	

Index   v-sweep         -i(vds)         
--------------------------------------------------------------------------------
171	1.850000e+00	6.632530e-04	
172	1.900000e+00	6.639187e-04	
173	1.950000e+00	6.645661e-04	
174	2.000000e+00	6.651971e-04	
175	2.050000e+00	6.658128e-04	
176	2.100000e+00	6.664147e-04	
177	2.150000e+00	6.670040e-04	
178	2.200000e+00	6.675819e-04	
179	2.250000e+00	6.681494e-04	
180	2.300000e+00	6.687078e-04	
181	2.350000e+00	6.692583e-04	
182	2.400000e+00	6.698021e-04	
183	2.450000e+00	6.703406e-04	
184	2.500000e+00	6.708754e-04	
185	2.550000e+00	6.714080e-04	
186	2.600000e+00	6.719404e-04	
187	2.650000e+00	6.724746e-04	
188	2.700000e+00	6.730130e-04	
189	2.750000e+00	6.735581e-04	
190	2.800000e+00	6.741129e-04	
191	2.850000e+00	6.746806e-04	
192	2.900000e+00	6.752649e-04	
193	2.950000e+00	6.758696e-04	
194	3.000000e+00	6.764994e-04	
195	3.050000e+00	6.771589e-04	
196	3.100000e+00	6.778535e-04	
197	3.150000e+00	6.785890e-04	
198	3.200000e+00	6.793717e-04	
199	3.250000e+00	6.802083e-04	
200	3.300000e+00	6.811064e-04	
201	0.000000e+00	-0.000000e+00	
202	5.000000e-02	1.060154e-04	
203	1.000000e-01	2.052139e-04	
204	1.500000e-01	2.978997e-04	
205	2.000000e-01	3.843585e-04	
206	2.500000e-01	4.648589e-04	
207	3.000000e-01	5.396529e-04	
208	3.500000e-01	6.089767e-04	
209	4.000000e-01	6.730514e-04	
210	4.500000e-01	7.320818e-04	
211	5.000000e-01	7.862564e-04	
212	5.500000e-01	8.357445e-04	
213	6.000000e-01	8.806918e-04	
214	6.500000e-01	9.212121e-04	
215	7.000000e-01	9.573745e-04	
216	7.500000e-01	9.891849e-04	
217	8.000000e-01	1.016574e-03	
218	8.500000e-01	1.039431e-03	
219	9.000000e-01	1.057756e-03	
220	9.500000e-01	1.071887e-03	
221	1.000000e+00	1.082557e-03	
222	1.050000e+00	1.090644e-03	
223	1.100000e+00	1.096907e-03	
224	1.150000e+00	1.101900e-03	
225	1.200000e+00	1.105996e-03	
226	1.250000e+00	1.109444e-03	
227	1.300000e+00	1.112410e-03	
228	1.350000e+00	1.115009e-03	

Index   v-sweep         -i(vds)         
--------------------------------------------------------------------------------
229	1.400000e+00	1.117321e-03	
230	1.450000e+00	1.119405e-03	
231	1.500000e+00	1.121303e-03	
232	1.550000e+00	1.123048e-03	
233	1.600000e+00	1.124666e-03	
234	1.650000e+00	1.126174e-03	
235	1.700000e+00	1.127590e-03	
236	1.750000e+00	1.128925e-03	
237	1.800000e+00	1.130191e-03	
238	1.850000e+00	1.131394e-03	
239	1.900000e+00	1.132543e-03	
240	1.950000e+00	1.133643e-03	
241	2.000000e+00	1.134700e-03	
242	2.050000e+00	1.135717e-03	
243	2.100000e+00	1.136699e-03	
244	2.150000e+00	1.137649e-03	
245	2.200000e+00	1.138569e-03	
246	2.250000e+00	1.139462e-03	
247	2.300000e+00	1.140331e-03	
248	2.350000e+00	1.141177e-03	
249	2.400000e+00	1.142004e-03	
250	2.450000e+00	1.142811e-03	
251	2.500000e+00	1.143603e-03	
252	2.550000e+00	1.144380e-03	
253	2.600000e+00	1.145144e-03	
254	2.650000e+00	1.145898e-03	
255	2.700000e+00	1.146645e-03	
256	2.750000e+00	1.147386e-03	
257	2.800000e+00	1.148125e-03	
258	2.850000e+00	1.148865e-03	
259	2.900000e+00	1.149609e-03	
260	2.950000e+00	1.150362e-03	
261	3.000000e+00	1.151128e-03	
262	3.050000e+00	1.151913e-03	
263	3.100000e+00	1.152721e-03	
264	3.150000e+00	1.153560e-03	
265	3.200000e+00	1.154436e-03	
266	3.250000e+00	1.155358e-03	
267	3.300000e+00	1.156332e-03	
268	0.000000e+00	-0.000000e+00	
269	5.000000e-02	1.214950e-04	
270	1.000000e-01	2.367118e-04	
271	1.500000e-01	3.458915e-04	
272	2.000000e-01	4.492631e-04	
273	2.500000e-01	5.470437e-04	
274	3.000000e-01	6.394392e-04	
275	3.500000e-01	7.266451e-04	
276	4.000000e-01	8.088467e-04	
277	4.500000e-01	8.862193e-04	
278	5.000000e-01	9.589286e-04	
279	5.500000e-01	1.027131e-03	
280	6.000000e-01	1.090971e-03	
281	6.500000e-01	1.150585e-03	
282	7.000000e-01	1.206095e-03	
283	7.500000e-01	1.257606e-03	
284	8.000000e-01	1.305205e-03	
285	8.500000e-01	1.348948e-03	
286	9.000000e-01	1.388853e-03	

Index   v-sweep         -i(vds)         
--------------------------------------------------------------------------------
287	9.500000e-01	1.424875e-03	
288	1.000000e+00	1.456898e-03	
289	1.050000e+00	1.484736e-03	
290	1.100000e+00	1.508213e-03	
291	1.150000e+00	1.527344e-03	
292	1.200000e+00	1.542494e-03	
293	1.250000e+00	1.554338e-03	
294	1.300000e+00	1.563644e-03	
295	1.350000e+00	1.571079e-03	
296	1.400000e+00	1.577153e-03	
297	1.450000e+00	1.582225e-03	
298	1.500000e+00	1.586550e-03	
299	1.550000e+00	1.590303e-03	
300	1.600000e+00	1.593612e-03	
301	1.650000e+00	1.596568e-03	
302	1.700000e+00	1.599238e-03	
303	1.750000e+00	1.601674e-03	
304	1.800000e+00	1.603915e-03	
305	1.850000e+00	1.605991e-03	
306	1.900000e+00	1.607927e-03	
307	1.950000e+00	1.609742e-03	
308	2.000000e+00	1.611451e-03	
309	2.050000e+00	1.613069e-03	
310	2.100000e+00	1.614606e-03	
311	2.150000e+00	1.616070e-03	
312	2.200000e+00	1.617470e-03	
313	2.250000e+00	1.618812e-03	
314	2.300000e+00	1.620102e-03	
315	2.350000e+00	1.621345e-03	
316	2.400000e+00	1.622545e-03	
317	2.450000e+00	1.623705e-03	
318	2.500000e+00	1.624830e-03	
319	2.550000e+00	1.625922e-03	
320	2.600000e+00	1.626984e-03	
321	2.650000e+00	1.628019e-03	
322	2.700000e+00	1.629030e-03	
323	2.750000e+00	1.630019e-03	
324	2.800000e+00	1.630990e-03	
325	2.850000e+00	1.631945e-03	
326	2.900000e+00	1.632888e-03	
327	2.950000e+00	1.633821e-03	
328	3.000000e+00	1.634749e-03	
329	3.050000e+00	1.635676e-03	
330	3.100000e+00	1.636608e-03	
331	3.150000e+00	1.637548e-03	
332	3.200000e+00	1.638505e-03	
333	3.250000e+00	1.639483e-03	
334	3.300000e+00	1.640491e-03	
335	0.000000e+00	-0.000000e+00	
336	5.000000e-02	1.317030e-04	
337	1.000000e-01	2.577150e-04	
338	1.500000e-01	3.782264e-04	
339	2.000000e-01	4.934191e-04	
340	2.500000e-01	6.034668e-04	
341	3.000000e-01	7.085356e-04	
342	3.500000e-01	8.087844e-04	
343	4.000000e-01	9.043648e-04	
344	4.500000e-01	9.954221e-04	

Index   v-sweep         -i(vds)         
--------------------------------------------------------------------------------
345	5.000000e-01	1.082095e-03	
346	5.500000e-01	1.164515e-03	
347	6.000000e-01	1.242809e-03	
348	6.500000e-01	1.317097e-03	
349	7.000000e-01	1.387493e-03	
350	7.500000e-01	1.454102e-03	
351	8.000000e-01	1.517024e-03	
352	8.500000e-01	1.576352e-03	
353	9.000000e-01	1.632164e-03	
354	9.500000e-01	1.684529e-03	
355	1.000000e+00	1.733496e-03	
356	1.050000e+00	1.779091e-03	
357	1.100000e+00	1.821302e-03	
358	1.150000e+00	1.860068e-03	
359	1.200000e+00	1.895262e-03	
360	1.250000e+00	1.926686e-03	
361	1.300000e+00	1.954105e-03	
362	1.350000e+00	1.977362e-03	
363	1.400000e+00	1.996537e-03	
364	1.450000e+00	2.012025e-03	
365	1.500000e+00	2.024448e-03	
366	1.550000e+00	2.034471e-03	
367	1.600000e+00	2.042674e-03	
368	1.650000e+00	2.049506e-03	
369	1.700000e+00	2.055300e-03	
370	1.750000e+00	2.060299e-03	
371	1.800000e+00	2.064677e-03	
372	1.850000e+00	2.068562e-03	
373	1.900000e+00	2.072050e-03	
374	1.950000e+00	2.075212e-03	
375	2.000000e+00	2.078105e-03	
376	2.050000e+00	2.080772e-03	
377	2.100000e+00	2.083245e-03	
378	2.150000e+00	2.085554e-03	
379	2.200000e+00	2.087719e-03	
380	2.250000e+00	2.089759e-03	
381	2.300000e+00	2.091689e-03	
382	2.350000e+00	2.093521e-03	
383	2.400000e+00	2.095267e-03	
384	2.450000e+00	2.096935e-03	
385	2.500000e+00	2.098533e-03	
386	2.550000e+00	2.100067e-03	
387	2.600000e+00	2.101544e-03	
388	2.650000e+00	2.102969e-03	
389	2.700000e+00	2.104346e-03	
390	2.750000e+00	2.105679e-03	
391	2.800000e+00	2.106973e-03	
392	2.850000e+00	2.108231e-03	
393	2.900000e+00	2.109456e-03	
394	2.950000e+00	2.110651e-03	
395	3.000000e+00	2.111821e-03	
396	3.050000e+00	2.112969e-03	
397	3.100000e+00	2.114099e-03	
398	3.150000e+00	2.115216e-03	
399	3.200000e+00	2.116323e-03	
400	3.250000e+00	2.117426e-03	
401	3.300000e+00	2.118532e-03	
Note: No ".plot", ".print", or ".fourier" lines; no simulations run
