
Note: Compatibility modes selected: hs

Warning: m=xx on .subckt line will override multiplier m hierarchy!


Circuit: ***************************

Doing analysis at TEMP = 125.000000 and TNOM = 125.000000


No. of Data Rows : 402
                          ***************************
                          DC transfer characteristic  Mon Jan  9 13:57:18  2023
--------------------------------------------------------------------------------
Index   v-sweep         -i(vds)         
--------------------------------------------------------------------------------
0	0.000000e+00	-0.000000e+00	
1	5.000000e-02	4.852863e-06	
2	1.000000e-01	8.532933e-06	
3	1.500000e-01	1.110377e-05	
4	2.000000e-01	1.263033e-05	
5	2.500000e-01	1.329991e-05	
6	3.000000e-01	1.352452e-05	
7	3.500000e-01	1.361735e-05	
8	4.000000e-01	1.367249e-05	
9	4.500000e-01	1.371294e-05	
10	5.000000e-01	1.374597e-05	
11	5.500000e-01	1.377459e-05	
12	6.000000e-01	1.380029e-05	
13	6.500000e-01	1.382390e-05	
14	7.000000e-01	1.384596e-05	
15	7.500000e-01	1.386681e-05	
16	8.000000e-01	1.388669e-05	
17	8.500000e-01	1.390577e-05	
18	9.000000e-01	1.392419e-05	
19	9.500000e-01	1.394205e-05	
20	1.000000e+00	1.395943e-05	
21	1.050000e+00	1.397639e-05	
22	1.100000e+00	1.399298e-05	
23	1.150000e+00	1.400924e-05	
24	1.200000e+00	1.402522e-05	
25	1.250000e+00	1.404094e-05	
26	1.300000e+00	1.405643e-05	
27	1.350000e+00	1.407171e-05	
28	1.400000e+00	1.408679e-05	
29	1.450000e+00	1.410170e-05	
30	1.500000e+00	1.411645e-05	
31	1.550000e+00	1.413105e-05	
32	1.600000e+00	1.414552e-05	
33	1.650000e+00	1.415987e-05	
34	1.700000e+00	1.417411e-05	
35	1.750000e+00	1.418825e-05	
36	1.800000e+00	1.420231e-05	
37	1.850000e+00	1.421630e-05	
38	1.900000e+00	1.423023e-05	
39	1.950000e+00	1.424412e-05	
40	2.000000e+00	1.425799e-05	
41	2.050000e+00	1.427187e-05	
42	2.100000e+00	1.428579e-05	
43	2.150000e+00	1.429977e-05	
44	2.200000e+00	1.431385e-05	
45	2.250000e+00	1.432807e-05	
46	2.300000e+00	1.434248e-05	
47	2.350000e+00	1.435713e-05	
48	2.400000e+00	1.437209e-05	
49	2.450000e+00	1.438741e-05	
50	2.500000e+00	1.440318e-05	
51	2.550000e+00	1.441948e-05	
52	2.600000e+00	1.443639e-05	
53	2.650000e+00	1.445402e-05	
54	2.700000e+00	1.447247e-05	

Index   v-sweep         -i(vds)         
--------------------------------------------------------------------------------
55	2.750000e+00	1.449185e-05	
56	2.800000e+00	1.451230e-05	
57	2.850000e+00	1.453395e-05	
58	2.900000e+00	1.455694e-05	
59	2.950000e+00	1.458142e-05	
60	3.000000e+00	1.460756e-05	
61	3.050000e+00	1.463554e-05	
62	3.100000e+00	1.466552e-05	
63	3.150000e+00	1.469770e-05	
64	3.200000e+00	1.473229e-05	
65	3.250000e+00	1.476949e-05	
66	3.300000e+00	1.480952e-05	
67	0.000000e+00	-0.000000e+00	
68	5.000000e-02	1.594429e-05	
69	1.000000e-01	3.047732e-05	
70	1.500000e-01	4.365669e-05	
71	2.000000e-01	5.551405e-05	
72	2.500000e-01	6.607462e-05	
73	3.000000e-01	7.536179e-05	
74	3.500000e-01	8.339839e-05	
75	4.000000e-01	9.020732e-05	
76	4.500000e-01	9.581250e-05	
77	5.000000e-01	1.002417e-04	
78	5.500000e-01	1.035355e-04	
79	6.000000e-01	1.057770e-04	
80	6.500000e-01	1.071516e-04	
81	7.000000e-01	1.079538e-04	
82	7.500000e-01	1.084489e-04	
83	8.000000e-01	1.087883e-04	
84	8.500000e-01	1.090433e-04	
85	9.000000e-01	1.092480e-04	
86	9.500000e-01	1.094200e-04	
87	1.000000e+00	1.095694e-04	
88	1.050000e+00	1.097022e-04	
89	1.100000e+00	1.098226e-04	
90	1.150000e+00	1.099331e-04	
91	1.200000e+00	1.100357e-04	
92	1.250000e+00	1.101318e-04	
93	1.300000e+00	1.102225e-04	
94	1.350000e+00	1.103087e-04	
95	1.400000e+00	1.103909e-04	
96	1.450000e+00	1.104697e-04	
97	1.500000e+00	1.105456e-04	
98	1.550000e+00	1.106188e-04	
99	1.600000e+00	1.106897e-04	
100	1.650000e+00	1.107585e-04	
101	1.700000e+00	1.108255e-04	
102	1.750000e+00	1.108907e-04	
103	1.800000e+00	1.109544e-04	
104	1.850000e+00	1.110167e-04	
105	1.900000e+00	1.110777e-04	
106	1.950000e+00	1.111375e-04	
107	2.000000e+00	1.111963e-04	
108	2.050000e+00	1.112541e-04	
109	2.100000e+00	1.113110e-04	
110	2.150000e+00	1.113671e-04	
111	2.200000e+00	1.114226e-04	
112	2.250000e+00	1.114776e-04	

Index   v-sweep         -i(vds)         
--------------------------------------------------------------------------------
113	2.300000e+00	1.115321e-04	
114	2.350000e+00	1.115863e-04	
115	2.400000e+00	1.116404e-04	
116	2.450000e+00	1.116946e-04	
117	2.500000e+00	1.117490e-04	
118	2.550000e+00	1.118041e-04	
119	2.600000e+00	1.118599e-04	
120	2.650000e+00	1.119170e-04	
121	2.700000e+00	1.119755e-04	
122	2.750000e+00	1.120361e-04	
123	2.800000e+00	1.120991e-04	
124	2.850000e+00	1.121651e-04	
125	2.900000e+00	1.122347e-04	
126	2.950000e+00	1.123086e-04	
127	3.000000e+00	1.123873e-04	
128	3.050000e+00	1.124718e-04	
129	3.100000e+00	1.125629e-04	
130	3.150000e+00	1.126614e-04	
131	3.200000e+00	1.127684e-04	
132	3.250000e+00	1.128848e-04	
133	3.300000e+00	1.130119e-04	
134	0.000000e+00	-0.000000e+00	
135	5.000000e-02	2.547876e-05	
136	1.000000e-01	4.952268e-05	
137	1.500000e-01	7.218775e-05	
138	2.000000e-01	9.350407e-05	
139	2.500000e-01	1.134953e-04	
140	3.000000e-01	1.321831e-04	
141	3.500000e-01	1.495885e-04	
142	4.000000e-01	1.657319e-04	
143	4.500000e-01	1.806332e-04	
144	5.000000e-01	1.943120e-04	
145	5.500000e-01	2.067873e-04	
146	6.000000e-01	2.180778e-04	
147	6.500000e-01	2.282016e-04	
148	7.000000e-01	2.371763e-04	
149	7.500000e-01	2.450190e-04	
150	8.000000e-01	2.517463e-04	
151	8.500000e-01	2.573749e-04	
152	9.000000e-01	2.619251e-04	
153	9.500000e-01	2.654331e-04	
154	1.000000e+00	2.679850e-04	
155	1.050000e+00	2.697543e-04	
156	1.100000e+00	2.709725e-04	
157	1.150000e+00	2.718420e-04	
158	1.200000e+00	2.724965e-04	
159	1.250000e+00	2.730145e-04	
160	1.300000e+00	2.734414e-04	
161	1.350000e+00	2.738047e-04	
162	1.400000e+00	2.741215e-04	
163	1.450000e+00	2.744032e-04	
164	1.500000e+00	2.746575e-04	
165	1.550000e+00	2.748900e-04	
166	1.600000e+00	2.751046e-04	
167	1.650000e+00	2.753045e-04	
168	1.700000e+00	2.754920e-04	
169	1.750000e+00	2.756689e-04	
170	1.800000e+00	2.758366e-04	

Index   v-sweep         -i(vds)         
--------------------------------------------------------------------------------
171	1.850000e+00	2.759964e-04	
172	1.900000e+00	2.761492e-04	
173	1.950000e+00	2.762958e-04	
174	2.000000e+00	2.764369e-04	
175	2.050000e+00	2.765731e-04	
176	2.100000e+00	2.767048e-04	
177	2.150000e+00	2.768325e-04	
178	2.200000e+00	2.769565e-04	
179	2.250000e+00	2.770773e-04	
180	2.300000e+00	2.771950e-04	
181	2.350000e+00	2.773099e-04	
182	2.400000e+00	2.774223e-04	
183	2.450000e+00	2.775324e-04	
184	2.500000e+00	2.776405e-04	
185	2.550000e+00	2.777469e-04	
186	2.600000e+00	2.778517e-04	
187	2.650000e+00	2.779554e-04	
188	2.700000e+00	2.780582e-04	
189	2.750000e+00	2.781606e-04	
190	2.800000e+00	2.782630e-04	
191	2.850000e+00	2.783660e-04	
192	2.900000e+00	2.784700e-04	
193	2.950000e+00	2.785759e-04	
194	3.000000e+00	2.786845e-04	
195	3.050000e+00	2.787965e-04	
196	3.100000e+00	2.789131e-04	
197	3.150000e+00	2.790353e-04	
198	3.200000e+00	2.791645e-04	
199	3.250000e+00	2.793021e-04	
200	3.300000e+00	2.794495e-04	
201	0.000000e+00	-0.000000e+00	
202	5.000000e-02	3.332420e-05	
203	1.000000e-01	6.524544e-05	
204	1.500000e-01	9.581745e-05	
205	2.000000e-01	1.250682e-04	
206	2.500000e-01	1.530192e-04	
207	3.000000e-01	1.796903e-04	
208	3.500000e-01	2.051003e-04	
209	4.000000e-01	2.292680e-04	
210	4.500000e-01	2.522115e-04	
211	5.000000e-01	2.739485e-04	
212	5.500000e-01	2.944966e-04	
213	6.000000e-01	3.138728e-04	
214	6.500000e-01	3.320939e-04	
215	7.000000e-01	3.491762e-04	
216	7.500000e-01	3.651357e-04	
217	8.000000e-01	3.799881e-04	
218	8.500000e-01	3.937484e-04	
219	9.000000e-01	4.064314e-04	
220	9.500000e-01	4.180510e-04	
221	1.000000e+00	4.286205e-04	
222	1.050000e+00	4.381519e-04	
223	1.100000e+00	4.466554e-04	
224	1.150000e+00	4.541387e-04	
225	1.200000e+00	4.606059e-04	
226	1.250000e+00	4.660581e-04	
227	1.300000e+00	4.705018e-04	
228	1.350000e+00	4.739752e-04	

Index   v-sweep         -i(vds)         
--------------------------------------------------------------------------------
229	1.400000e+00	4.765867e-04	
230	1.450000e+00	4.785166e-04	
231	1.500000e+00	4.799599e-04	
232	1.550000e+00	4.810726e-04	
233	1.600000e+00	4.819612e-04	
234	1.650000e+00	4.826942e-04	
235	1.700000e+00	4.833159e-04	
236	1.750000e+00	4.838551e-04	
237	1.800000e+00	4.843313e-04	
238	1.850000e+00	4.847584e-04	
239	1.900000e+00	4.851462e-04	
240	1.950000e+00	4.855018e-04	
241	2.000000e+00	4.858308e-04	
242	2.050000e+00	4.861374e-04	
243	2.100000e+00	4.864250e-04	
244	2.150000e+00	4.866961e-04	
245	2.200000e+00	4.869529e-04	
246	2.250000e+00	4.871973e-04	
247	2.300000e+00	4.874305e-04	
248	2.350000e+00	4.876539e-04	
249	2.400000e+00	4.878685e-04	
250	2.450000e+00	4.880752e-04	
251	2.500000e+00	4.882747e-04	
252	2.550000e+00	4.884678e-04	
253	2.600000e+00	4.886549e-04	
254	2.650000e+00	4.888366e-04	
255	2.700000e+00	4.890134e-04	
256	2.750000e+00	4.891858e-04	
257	2.800000e+00	4.893541e-04	
258	2.850000e+00	4.895188e-04	
259	2.900000e+00	4.896804e-04	
260	2.950000e+00	4.898394e-04	
261	3.000000e+00	4.899963e-04	
262	3.050000e+00	4.901516e-04	
263	3.100000e+00	4.903062e-04	
264	3.150000e+00	4.904607e-04	
265	3.200000e+00	4.906161e-04	
266	3.250000e+00	4.907735e-04	
267	3.300000e+00	4.909339e-04	
268	0.000000e+00	-0.000000e+00	
269	5.000000e-02	3.963416e-05	
270	1.000000e-01	7.792468e-05	
271	1.500000e-01	1.149229e-04	
272	2.000000e-01	1.506544e-04	
273	2.500000e-01	1.851385e-04	
274	3.000000e-01	2.183927e-04	
275	3.500000e-01	2.504340e-04	
276	4.000000e-01	2.812787e-04	
277	4.500000e-01	3.109432e-04	
278	5.000000e-01	3.394434e-04	
279	5.500000e-01	3.667947e-04	
280	6.000000e-01	3.930126e-04	
281	6.500000e-01	4.181121e-04	
282	7.000000e-01	4.421079e-04	
283	7.500000e-01	4.650145e-04	
284	8.000000e-01	4.868461e-04	
285	8.500000e-01	5.076167e-04	
286	9.000000e-01	5.273399e-04	

Index   v-sweep         -i(vds)         
--------------------------------------------------------------------------------
287	9.500000e-01	5.460291e-04	
288	1.000000e+00	5.636973e-04	
289	1.050000e+00	5.803572e-04	
290	1.100000e+00	5.960213e-04	
291	1.150000e+00	6.107014e-04	
292	1.200000e+00	6.244090e-04	
293	1.250000e+00	6.371547e-04	
294	1.300000e+00	6.489483e-04	
295	1.350000e+00	6.597981e-04	
296	1.400000e+00	6.697104e-04	
297	1.450000e+00	6.786883e-04	
298	1.500000e+00	6.867297e-04	
299	1.550000e+00	6.938259e-04	
300	1.600000e+00	6.999609e-04	
301	1.650000e+00	7.051189e-04	
302	1.700000e+00	7.093099e-04	
303	1.750000e+00	7.126064e-04	
304	1.800000e+00	7.151532e-04	
305	1.850000e+00	7.171263e-04	
306	1.900000e+00	7.186839e-04	
307	1.950000e+00	7.199453e-04	
308	2.000000e+00	7.209935e-04	
309	2.050000e+00	7.218850e-04	
310	2.100000e+00	7.226586e-04	
311	2.150000e+00	7.233412e-04	
312	2.200000e+00	7.239521e-04	
313	2.250000e+00	7.245052e-04	
314	2.300000e+00	7.250110e-04	
315	2.350000e+00	7.254774e-04	
316	2.400000e+00	7.259108e-04	
317	2.450000e+00	7.263159e-04	
318	2.500000e+00	7.266966e-04	
319	2.550000e+00	7.270562e-04	
320	2.600000e+00	7.273972e-04	
321	2.650000e+00	7.277218e-04	
322	2.700000e+00	7.280317e-04	
323	2.750000e+00	7.283287e-04	
324	2.800000e+00	7.286138e-04	
325	2.850000e+00	7.288884e-04	
326	2.900000e+00	7.291533e-04	
327	2.950000e+00	7.294094e-04	
328	3.000000e+00	7.296576e-04	
329	3.050000e+00	7.298985e-04	
330	3.100000e+00	7.301329e-04	
331	3.150000e+00	7.303612e-04	
332	3.200000e+00	7.305843e-04	
333	3.250000e+00	7.308028e-04	
334	3.300000e+00	7.310174e-04	
335	0.000000e+00	-0.000000e+00	
336	5.000000e-02	4.460586e-05	
337	1.000000e-01	8.794210e-05	
338	1.500000e-01	1.300577e-04	
339	2.000000e-01	1.709760e-04	
340	2.500000e-01	2.107139e-04	
341	3.000000e-01	2.492870e-04	
342	3.500000e-01	2.867100e-04	
343	4.000000e-01	3.229973e-04	
344	4.500000e-01	3.581631e-04	

Index   v-sweep         -i(vds)         
--------------------------------------------------------------------------------
345	5.000000e-01	3.922215e-04	
346	5.500000e-01	4.251862e-04	
347	6.000000e-01	4.570706e-04	
348	6.500000e-01	4.878880e-04	
349	7.000000e-01	5.176515e-04	
350	7.500000e-01	5.463739e-04	
351	8.000000e-01	5.740678e-04	
352	8.500000e-01	6.007457e-04	
353	9.000000e-01	6.264197e-04	
354	9.500000e-01	6.511018e-04	
355	1.000000e+00	6.748038e-04	
356	1.050000e+00	6.975373e-04	
357	1.100000e+00	7.193137e-04	
358	1.150000e+00	7.401440e-04	
359	1.200000e+00	7.600392e-04	
360	1.250000e+00	7.790100e-04	
361	1.300000e+00	7.970667e-04	
362	1.350000e+00	8.142196e-04	
363	1.400000e+00	8.304783e-04	
364	1.450000e+00	8.458523e-04	
365	1.500000e+00	8.603505e-04	
366	1.550000e+00	8.739809e-04	
367	1.600000e+00	8.867508e-04	
368	1.650000e+00	8.986662e-04	
369	1.700000e+00	9.097308e-04	
370	1.750000e+00	9.199455e-04	
371	1.800000e+00	9.293065e-04	
372	1.850000e+00	9.378030e-04	
373	1.900000e+00	9.454151e-04	
374	1.950000e+00	9.521129e-04	
375	2.000000e+00	9.578650e-04	
376	2.050000e+00	9.626624e-04	
377	2.100000e+00	9.665527e-04	
378	2.150000e+00	9.696524e-04	
379	2.200000e+00	9.721181e-04	
380	2.250000e+00	9.741025e-04	
381	2.300000e+00	9.757300e-04	
382	2.350000e+00	9.770931e-04	
383	2.400000e+00	9.782574e-04	
384	2.450000e+00	9.792697e-04	
385	2.500000e+00	9.801633e-04	
386	2.550000e+00	9.809627e-04	
387	2.600000e+00	9.816857e-04	
388	2.650000e+00	9.823460e-04	
389	2.700000e+00	9.829539e-04	
390	2.750000e+00	9.835176e-04	
391	2.800000e+00	9.840435e-04	
392	2.850000e+00	9.845368e-04	
393	2.900000e+00	9.850017e-04	
394	2.950000e+00	9.854417e-04	
395	3.000000e+00	9.858597e-04	
396	3.050000e+00	9.862581e-04	
397	3.100000e+00	9.866390e-04	
398	3.150000e+00	9.870041e-04	
399	3.200000e+00	9.873549e-04	
400	3.250000e+00	9.876929e-04	
401	3.300000e+00	9.880190e-04	
Note: No ".plot", ".print", or ".fourier" lines; no simulations run
