
Note: Compatibility modes selected: hs

Warning: m=xx on .subckt line will override multiplier m hierarchy!


Circuit: ***************************

Doing analysis at TEMP = -40.000000 and TNOM = -40.000000


No. of Data Rows : 402
                          ***************************
                          DC transfer characteristic  Mon Jan  9 13:57:17  2023
--------------------------------------------------------------------------------
Index   v-sweep         -i(vds)         
--------------------------------------------------------------------------------
0	0.000000e+00	-0.000000e+00	
1	5.000000e-02	2.103999e-06	
2	1.000000e-01	3.118018e-06	
3	1.500000e-01	3.541577e-06	
4	2.000000e-01	3.766964e-06	
5	2.500000e-01	3.932224e-06	
6	3.000000e-01	4.074864e-06	
7	3.500000e-01	4.207082e-06	
8	4.000000e-01	4.333873e-06	
9	4.500000e-01	4.457672e-06	
10	5.000000e-01	4.579826e-06	
11	5.500000e-01	4.701150e-06	
12	6.000000e-01	4.822173e-06	
13	6.500000e-01	4.943256e-06	
14	7.000000e-01	5.064655e-06	
15	7.500000e-01	5.186559e-06	
16	8.000000e-01	5.309111e-06	
17	8.500000e-01	5.432421e-06	
18	9.000000e-01	5.556575e-06	
19	9.500000e-01	5.681644e-06	
20	1.000000e+00	5.807684e-06	
21	1.050000e+00	5.934741e-06	
22	1.100000e+00	6.062854e-06	
23	1.150000e+00	6.192056e-06	
24	1.200000e+00	6.322373e-06	
25	1.250000e+00	6.453829e-06	
26	1.300000e+00	6.586444e-06	
27	1.350000e+00	6.720235e-06	
28	1.400000e+00	6.855217e-06	
29	1.450000e+00	6.991404e-06	
30	1.500000e+00	7.128808e-06	
31	1.550000e+00	7.267441e-06	
32	1.600000e+00	7.407314e-06	
33	1.650000e+00	7.548438e-06	
34	1.700000e+00	7.690826e-06	
35	1.750000e+00	7.834490e-06	
36	1.800000e+00	7.979446e-06	
37	1.850000e+00	8.125710e-06	
38	1.900000e+00	8.273303e-06	
39	1.950000e+00	8.422250e-06	
40	2.000000e+00	8.572578e-06	
41	2.050000e+00	8.724322e-06	
42	2.100000e+00	8.877522e-06	
43	2.150000e+00	9.032227e-06	
44	2.200000e+00	9.188491e-06	
45	2.250000e+00	9.346380e-06	
46	2.300000e+00	9.505970e-06	
47	2.350000e+00	9.667348e-06	
48	2.400000e+00	9.830614e-06	
49	2.450000e+00	9.995884e-06	
50	2.500000e+00	1.016329e-05	
51	2.550000e+00	1.033297e-05	
52	2.600000e+00	1.050509e-05	
53	2.650000e+00	1.067985e-05	
54	2.700000e+00	1.085745e-05	

Index   v-sweep         -i(vds)         
--------------------------------------------------------------------------------
55	2.750000e+00	1.103811e-05	
56	2.800000e+00	1.122210e-05	
57	2.850000e+00	1.140969e-05	
58	2.900000e+00	1.160119e-05	
59	2.950000e+00	1.179695e-05	
60	3.000000e+00	1.199734e-05	
61	3.050000e+00	1.220276e-05	
62	3.100000e+00	1.241366e-05	
63	3.150000e+00	1.263051e-05	
64	3.200000e+00	1.285384e-05	
65	3.250000e+00	1.308421e-05	
66	3.300000e+00	1.332221e-05	
67	0.000000e+00	-0.000000e+00	
68	5.000000e-02	1.534411e-05	
69	1.000000e-01	2.849652e-05	
70	1.500000e-01	3.964423e-05	
71	2.000000e-01	4.895176e-05	
72	2.500000e-01	5.656389e-05	
73	3.000000e-01	6.261156e-05	
74	3.500000e-01	6.723151e-05	
75	4.000000e-01	7.061276e-05	
76	4.500000e-01	7.303184e-05	
77	5.000000e-01	7.479568e-05	
78	5.500000e-01	7.614785e-05	
79	6.000000e-01	7.724388e-05	
80	6.500000e-01	7.817535e-05	
81	7.000000e-01	7.899620e-05	
82	7.500000e-01	7.973932e-05	
83	8.000000e-01	8.042566e-05	
84	8.500000e-01	8.106912e-05	
85	9.000000e-01	8.167932e-05	
86	9.500000e-01	8.226309e-05	
87	1.000000e+00	8.282547e-05	
88	1.050000e+00	8.337022e-05	
89	1.100000e+00	8.390027e-05	
90	1.150000e+00	8.441788e-05	
91	1.200000e+00	8.492487e-05	
92	1.250000e+00	8.542271e-05	
93	1.300000e+00	8.591259e-05	
94	1.350000e+00	8.639551e-05	
95	1.400000e+00	8.687230e-05	
96	1.450000e+00	8.734366e-05	
97	1.500000e+00	8.781019e-05	
98	1.550000e+00	8.827239e-05	
99	1.600000e+00	8.873073e-05	
100	1.650000e+00	8.918558e-05	
101	1.700000e+00	8.963729e-05	
102	1.750000e+00	9.008616e-05	
103	1.800000e+00	9.053248e-05	
104	1.850000e+00	9.097650e-05	
105	1.900000e+00	9.141847e-05	
106	1.950000e+00	9.185863e-05	
107	2.000000e+00	9.229720e-05	
108	2.050000e+00	9.273445e-05	
109	2.100000e+00	9.317060e-05	
110	2.150000e+00	9.360595e-05	
111	2.200000e+00	9.404079e-05	
112	2.250000e+00	9.447544e-05	

Index   v-sweep         -i(vds)         
--------------------------------------------------------------------------------
113	2.300000e+00	9.491029e-05	
114	2.350000e+00	9.534573e-05	
115	2.400000e+00	9.578224e-05	
116	2.450000e+00	9.622035e-05	
117	2.500000e+00	9.666064e-05	
118	2.550000e+00	9.710379e-05	
119	2.600000e+00	9.755055e-05	
120	2.650000e+00	9.800174e-05	
121	2.700000e+00	9.845831e-05	
122	2.750000e+00	9.892129e-05	
123	2.800000e+00	9.939182e-05	
124	2.850000e+00	9.987118e-05	
125	2.900000e+00	1.003607e-04	
126	2.950000e+00	1.008620e-04	
127	3.000000e+00	1.013767e-04	
128	3.050000e+00	1.019066e-04	
129	3.100000e+00	1.024536e-04	
130	3.150000e+00	1.030199e-04	
131	3.200000e+00	1.036078e-04	
132	3.250000e+00	1.042198e-04	
133	3.300000e+00	1.048584e-04	
134	0.000000e+00	-0.000000e+00	
135	5.000000e-02	2.432737e-05	
136	1.000000e-01	4.638587e-05	
137	1.500000e-01	6.633384e-05	
138	2.000000e-01	8.431399e-05	
139	2.500000e-01	1.004545e-04	
140	3.000000e-01	1.148694e-04	
141	3.500000e-01	1.276584e-04	
142	4.000000e-01	1.389052e-04	
143	4.500000e-01	1.486754e-04	
144	5.000000e-01	1.570154e-04	
145	5.500000e-01	1.639616e-04	
146	6.000000e-01	1.695720e-04	
147	6.500000e-01	1.739772e-04	
148	7.000000e-01	1.773939e-04	
149	7.500000e-01	1.800708e-04	
150	8.000000e-01	1.822237e-04	
151	8.500000e-01	1.840104e-04	
152	9.000000e-01	1.855385e-04	
153	9.500000e-01	1.868798e-04	
154	1.000000e+00	1.880823e-04	
155	1.050000e+00	1.891791e-04	
156	1.100000e+00	1.901936e-04	
157	1.150000e+00	1.911425e-04	
158	1.200000e+00	1.920383e-04	
159	1.250000e+00	1.928903e-04	
160	1.300000e+00	1.937056e-04	
161	1.350000e+00	1.944900e-04	
162	1.400000e+00	1.952480e-04	
163	1.450000e+00	1.959830e-04	
164	1.500000e+00	1.966982e-04	
165	1.550000e+00	1.973958e-04	
166	1.600000e+00	1.980781e-04	
167	1.650000e+00	1.987466e-04	
168	1.700000e+00	1.994028e-04	
169	1.750000e+00	2.000479e-04	
170	1.800000e+00	2.006832e-04	

Index   v-sweep         -i(vds)         
--------------------------------------------------------------------------------
171	1.850000e+00	2.013094e-04	
172	1.900000e+00	2.019274e-04	
173	1.950000e+00	2.025379e-04	
174	2.000000e+00	2.031417e-04	
175	2.050000e+00	2.037392e-04	
176	2.100000e+00	2.043311e-04	
177	2.150000e+00	2.049180e-04	
178	2.200000e+00	2.055003e-04	
179	2.250000e+00	2.060786e-04	
180	2.300000e+00	2.066535e-04	
181	2.350000e+00	2.072256e-04	
182	2.400000e+00	2.077955e-04	
183	2.450000e+00	2.083639e-04	
184	2.500000e+00	2.089317e-04	
185	2.550000e+00	2.094996e-04	
186	2.600000e+00	2.100687e-04	
187	2.650000e+00	2.106401e-04	
188	2.700000e+00	2.112150e-04	
189	2.750000e+00	2.117949e-04	
190	2.800000e+00	2.123812e-04	
191	2.850000e+00	2.129757e-04	
192	2.900000e+00	2.135803e-04	
193	2.950000e+00	2.141972e-04	
194	3.000000e+00	2.148287e-04	
195	3.050000e+00	2.154774e-04	
196	3.100000e+00	2.161461e-04	
197	3.150000e+00	2.168380e-04	
198	3.200000e+00	2.175563e-04	
199	3.250000e+00	2.183049e-04	
200	3.300000e+00	2.190876e-04	
201	0.000000e+00	-0.000000e+00	
202	5.000000e-02	3.034740e-05	
203	1.000000e-01	5.852576e-05	
204	1.500000e-01	8.466323e-05	
205	2.000000e-01	1.088776e-04	
206	2.500000e-01	1.312769e-04	
207	3.000000e-01	1.519603e-04	
208	3.500000e-01	1.710182e-04	
209	4.000000e-01	1.885321e-04	
210	4.500000e-01	2.045747e-04	
211	5.000000e-01	2.192081e-04	
212	5.500000e-01	2.324824e-04	
213	6.000000e-01	2.444320e-04	
214	6.500000e-01	2.550729e-04	
215	7.000000e-01	2.644016e-04	
216	7.500000e-01	2.724068e-04	
217	8.000000e-01	2.791016e-04	
218	8.500000e-01	2.845678e-04	
219	9.000000e-01	2.889712e-04	
220	9.500000e-01	2.925251e-04	
221	1.000000e+00	2.954357e-04	
222	1.050000e+00	2.978705e-04	
223	1.100000e+00	2.999540e-04	
224	1.150000e+00	3.017751e-04	
225	1.200000e+00	3.033966e-04	
226	1.250000e+00	3.048634e-04	
227	1.300000e+00	3.062082e-04	
228	1.350000e+00	3.074547e-04	

Index   v-sweep         -i(vds)         
--------------------------------------------------------------------------------
229	1.400000e+00	3.086211e-04	
230	1.450000e+00	3.097211e-04	
231	1.500000e+00	3.107653e-04	
232	1.550000e+00	3.117623e-04	
233	1.600000e+00	3.127186e-04	
234	1.650000e+00	3.136398e-04	
235	1.700000e+00	3.145304e-04	
236	1.750000e+00	3.153940e-04	
237	1.800000e+00	3.162338e-04	
238	1.850000e+00	3.170523e-04	
239	1.900000e+00	3.178518e-04	
240	1.950000e+00	3.186342e-04	
241	2.000000e+00	3.194012e-04	
242	2.050000e+00	3.201541e-04	
243	2.100000e+00	3.208943e-04	
244	2.150000e+00	3.216228e-04	
245	2.200000e+00	3.223407e-04	
246	2.250000e+00	3.230490e-04	
247	2.300000e+00	3.237485e-04	
248	2.350000e+00	3.244400e-04	
249	2.400000e+00	3.251245e-04	
250	2.450000e+00	3.258027e-04	
251	2.500000e+00	3.264756e-04	
252	2.550000e+00	3.271441e-04	
253	2.600000e+00	3.278092e-04	
254	2.650000e+00	3.284721e-04	
255	2.700000e+00	3.291339e-04	
256	2.750000e+00	3.297961e-04	
257	2.800000e+00	3.304603e-04	
258	2.850000e+00	3.311281e-04	
259	2.900000e+00	3.318015e-04	
260	2.950000e+00	3.324828e-04	
261	3.000000e+00	3.331744e-04	
262	3.050000e+00	3.338789e-04	
263	3.100000e+00	3.345995e-04	
264	3.150000e+00	3.353395e-04	
265	3.200000e+00	3.361024e-04	
266	3.250000e+00	3.368925e-04	
267	3.300000e+00	3.377141e-04	
268	0.000000e+00	-0.000000e+00	
269	5.000000e-02	3.453580e-05	
270	1.000000e-01	6.705277e-05	
271	1.500000e-01	9.765398e-05	
272	2.000000e-01	1.264353e-04	
273	2.500000e-01	1.534861e-04	
274	3.000000e-01	1.788894e-04	
275	3.500000e-01	2.027224e-04	
276	4.000000e-01	2.250568e-04	
277	4.500000e-01	2.459588e-04	
278	5.000000e-01	2.654887e-04	
279	5.500000e-01	2.837012e-04	
280	6.000000e-01	3.006443e-04	
281	6.500000e-01	3.163579e-04	
282	7.000000e-01	3.308725e-04	
283	7.500000e-01	3.442057e-04	
284	8.000000e-01	3.563588e-04	
285	8.500000e-01	3.673147e-04	
286	9.000000e-01	3.770404e-04	

Index   v-sweep         -i(vds)         
--------------------------------------------------------------------------------
287	9.500000e-01	3.855030e-04	
288	1.000000e+00	3.927027e-04	
289	1.050000e+00	3.987081e-04	
290	1.100000e+00	4.036624e-04	
291	1.150000e+00	4.077515e-04	
292	1.200000e+00	4.111613e-04	
293	1.250000e+00	4.140499e-04	
294	1.300000e+00	4.165407e-04	
295	1.350000e+00	4.187262e-04	
296	1.400000e+00	4.206743e-04	
297	1.450000e+00	4.224351e-04	
298	1.500000e+00	4.240459e-04	
299	1.550000e+00	4.255348e-04	
300	1.600000e+00	4.269232e-04	
301	1.650000e+00	4.282277e-04	
302	1.700000e+00	4.294613e-04	
303	1.750000e+00	4.306346e-04	
304	1.800000e+00	4.317558e-04	
305	1.850000e+00	4.328317e-04	
306	1.900000e+00	4.338681e-04	
307	1.950000e+00	4.348696e-04	
308	2.000000e+00	4.358402e-04	
309	2.050000e+00	4.367831e-04	
310	2.100000e+00	4.377013e-04	
311	2.150000e+00	4.385971e-04	
312	2.200000e+00	4.394727e-04	
313	2.250000e+00	4.403300e-04	
314	2.300000e+00	4.411706e-04	
315	2.350000e+00	4.419959e-04	
316	2.400000e+00	4.428074e-04	
317	2.450000e+00	4.436062e-04	
318	2.500000e+00	4.443935e-04	
319	2.550000e+00	4.451705e-04	
320	2.600000e+00	4.459383e-04	
321	2.650000e+00	4.466980e-04	
322	2.700000e+00	4.474509e-04	
323	2.750000e+00	4.481983e-04	
324	2.800000e+00	4.489416e-04	
325	2.850000e+00	4.496823e-04	
326	2.900000e+00	4.504222e-04	
327	2.950000e+00	4.511633e-04	
328	3.000000e+00	4.519077e-04	
329	3.050000e+00	4.526578e-04	
330	3.100000e+00	4.534165e-04	
331	3.150000e+00	4.541867e-04	
332	3.200000e+00	4.549719e-04	
333	3.250000e+00	4.557759e-04	
334	3.300000e+00	4.566029e-04	
335	0.000000e+00	-0.000000e+00	
336	5.000000e-02	3.752475e-05	
337	1.000000e-01	7.318916e-05	
338	1.500000e-01	1.070765e-04	
339	2.000000e-01	1.392650e-04	
340	2.500000e-01	1.698283e-04	
341	3.000000e-01	1.988356e-04	
342	3.500000e-01	2.263519e-04	
343	4.000000e-01	2.524382e-04	
344	4.500000e-01	2.771521e-04	

Index   v-sweep         -i(vds)         
--------------------------------------------------------------------------------
345	5.000000e-01	3.005469e-04	
346	5.500000e-01	3.226729e-04	
347	6.000000e-01	3.435762e-04	
348	6.500000e-01	3.632990e-04	
349	7.000000e-01	3.818793e-04	
350	7.500000e-01	3.993499e-04	
351	8.000000e-01	4.157372e-04	
352	8.500000e-01	4.310598e-04	
353	9.000000e-01	4.453259e-04	
354	9.500000e-01	4.585302e-04	
355	1.000000e+00	4.706511e-04	
356	1.050000e+00	4.816500e-04	
357	1.100000e+00	4.914787e-04	
358	1.150000e+00	5.000985e-04	
359	1.200000e+00	5.075115e-04	
360	1.250000e+00	5.137851e-04	
361	1.300000e+00	5.190500e-04	
362	1.350000e+00	5.234715e-04	
363	1.400000e+00	5.272151e-04	
364	1.450000e+00	5.304251e-04	
365	1.500000e+00	5.332177e-04	
366	1.550000e+00	5.356827e-04	
367	1.600000e+00	5.378880e-04	
368	1.650000e+00	5.398854e-04	
369	1.700000e+00	5.417139e-04	
370	1.750000e+00	5.434036e-04	
371	1.800000e+00	5.449779e-04	
372	1.850000e+00	5.464552e-04	
373	1.900000e+00	5.478500e-04	
374	1.950000e+00	5.491740e-04	
375	2.000000e+00	5.504367e-04	
376	2.050000e+00	5.516461e-04	
377	2.100000e+00	5.528085e-04	
378	2.150000e+00	5.539294e-04	
379	2.200000e+00	5.550134e-04	
380	2.250000e+00	5.560643e-04	
381	2.300000e+00	5.570856e-04	
382	2.350000e+00	5.580802e-04	
383	2.400000e+00	5.590504e-04	
384	2.450000e+00	5.599985e-04	
385	2.500000e+00	5.609265e-04	
386	2.550000e+00	5.618362e-04	
387	2.600000e+00	5.627292e-04	
388	2.650000e+00	5.636069e-04	
389	2.700000e+00	5.644708e-04	
390	2.750000e+00	5.653224e-04	
391	2.800000e+00	5.661630e-04	
392	2.850000e+00	5.669942e-04	
393	2.900000e+00	5.678174e-04	
394	2.950000e+00	5.686344e-04	
395	3.000000e+00	5.694470e-04	
396	3.050000e+00	5.702572e-04	
397	3.100000e+00	5.710674e-04	
398	3.150000e+00	5.718799e-04	
399	3.200000e+00	5.726978e-04	
400	3.250000e+00	5.735242e-04	
401	3.300000e+00	5.743626e-04	
Note: No ".plot", ".print", or ".fourier" lines; no simulations run
