
Note: Compatibility modes selected: hs

Warning: m=xx on .subckt line will override multiplier m hierarchy!


Circuit: ***************************

Doing analysis at TEMP = -40.000000 and TNOM = -40.000000


No. of Data Rows : 402
                          ***************************
                          DC transfer characteristic  Mon Jan  9 13:57:17  2023
--------------------------------------------------------------------------------
Index   v-sweep         -i(vds)         
--------------------------------------------------------------------------------
0	0.000000e+00	-0.000000e+00	
1	5.000000e-02	6.485860e-08	
2	1.000000e-01	8.370027e-08	
3	1.500000e-01	8.520532e-08	
4	2.000000e-01	8.548697e-08	
5	2.500000e-01	8.564362e-08	
6	3.000000e-01	8.576558e-08	
7	3.500000e-01	8.587226e-08	
8	4.000000e-01	8.597041e-08	
9	4.500000e-01	8.606312e-08	
10	5.000000e-01	8.615203e-08	
11	5.500000e-01	8.623812e-08	
12	6.000000e-01	8.632204e-08	
13	6.500000e-01	8.640423e-08	
14	7.000000e-01	8.648500e-08	
15	7.500000e-01	8.656460e-08	
16	8.000000e-01	8.664319e-08	
17	8.500000e-01	8.672093e-08	
18	9.000000e-01	8.679793e-08	
19	9.500000e-01	8.687428e-08	
20	1.000000e+00	8.695005e-08	
21	1.050000e+00	8.702530e-08	
22	1.100000e+00	8.710010e-08	
23	1.150000e+00	8.717449e-08	
24	1.200000e+00	8.724850e-08	
25	1.250000e+00	8.732217e-08	
26	1.300000e+00	8.739553e-08	
27	1.350000e+00	8.746861e-08	
28	1.400000e+00	8.754143e-08	
29	1.450000e+00	8.761402e-08	
30	1.500000e+00	8.768640e-08	
31	1.550000e+00	8.775860e-08	
32	1.600000e+00	8.783066e-08	
33	1.650000e+00	8.790261e-08	
34	1.700000e+00	8.797451e-08	
35	1.750000e+00	8.804642e-08	
36	1.800000e+00	8.811842e-08	
37	1.850000e+00	8.819062e-08	
38	1.900000e+00	8.826314e-08	
39	1.950000e+00	8.833615e-08	
40	2.000000e+00	8.840984e-08	
41	2.050000e+00	8.848446e-08	
42	2.100000e+00	8.856029e-08	
43	2.150000e+00	8.863766e-08	
44	2.200000e+00	8.871699e-08	
45	2.250000e+00	8.879873e-08	
46	2.300000e+00	8.888342e-08	
47	2.350000e+00	8.897166e-08	
48	2.400000e+00	8.906414e-08	
49	2.450000e+00	8.916163e-08	
50	2.500000e+00	8.926498e-08	
51	2.550000e+00	8.937513e-08	
52	2.600000e+00	8.949313e-08	
53	2.650000e+00	8.962010e-08	
54	2.700000e+00	8.975728e-08	

Index   v-sweep         -i(vds)         
--------------------------------------------------------------------------------
55	2.750000e+00	8.990600e-08	
56	2.800000e+00	9.006766e-08	
57	2.850000e+00	9.024382e-08	
58	2.900000e+00	9.043607e-08	
59	2.950000e+00	9.064615e-08	
60	3.000000e+00	9.087588e-08	
61	3.050000e+00	9.112715e-08	
62	3.100000e+00	9.140199e-08	
63	3.150000e+00	9.170248e-08	
64	3.200000e+00	9.203082e-08	
65	3.250000e+00	9.238926e-08	
66	3.300000e+00	9.278016e-08	
67	0.000000e+00	-0.000000e+00	
68	5.000000e-02	5.404504e-07	
69	1.000000e-01	1.014012e-06	
70	1.500000e-01	1.421112e-06	
71	2.000000e-01	1.762186e-06	
72	2.500000e-01	2.037698e-06	
73	3.000000e-01	2.248211e-06	
74	3.500000e-01	2.394685e-06	
75	4.000000e-01	2.480086e-06	
76	4.500000e-01	2.516374e-06	
77	5.000000e-01	2.528507e-06	
78	5.500000e-01	2.533562e-06	
79	6.000000e-01	2.536502e-06	
80	6.500000e-01	2.538595e-06	
81	7.000000e-01	2.540256e-06	
82	7.500000e-01	2.541661e-06	
83	8.000000e-01	2.542898e-06	
84	8.500000e-01	2.544015e-06	
85	9.000000e-01	2.545044e-06	
86	9.500000e-01	2.546004e-06	
87	1.000000e+00	2.546909e-06	
88	1.050000e+00	2.547770e-06	
89	1.100000e+00	2.548594e-06	
90	1.150000e+00	2.549386e-06	
91	1.200000e+00	2.550151e-06	
92	1.250000e+00	2.550894e-06	
93	1.300000e+00	2.551616e-06	
94	1.350000e+00	2.552320e-06	
95	1.400000e+00	2.553008e-06	
96	1.450000e+00	2.553682e-06	
97	1.500000e+00	2.554343e-06	
98	1.550000e+00	2.554992e-06	
99	1.600000e+00	2.555631e-06	
100	1.650000e+00	2.556261e-06	
101	1.700000e+00	2.556881e-06	
102	1.750000e+00	2.557494e-06	
103	1.800000e+00	2.558100e-06	
104	1.850000e+00	2.558699e-06	
105	1.900000e+00	2.559293e-06	
106	1.950000e+00	2.559882e-06	
107	2.000000e+00	2.560468e-06	
108	2.050000e+00	2.561053e-06	
109	2.100000e+00	2.561638e-06	
110	2.150000e+00	2.562225e-06	
111	2.200000e+00	2.562819e-06	
112	2.250000e+00	2.563422e-06	

Index   v-sweep         -i(vds)         
--------------------------------------------------------------------------------
113	2.300000e+00	2.564040e-06	
114	2.350000e+00	2.564678e-06	
115	2.400000e+00	2.565344e-06	
116	2.450000e+00	2.566046e-06	
117	2.500000e+00	2.566794e-06	
118	2.550000e+00	2.567600e-06	
119	2.600000e+00	2.568477e-06	
120	2.650000e+00	2.569441e-06	
121	2.700000e+00	2.570510e-06	
122	2.750000e+00	2.571703e-06	
123	2.800000e+00	2.573043e-06	
124	2.850000e+00	2.574555e-06	
125	2.900000e+00	2.576266e-06	
126	2.950000e+00	2.578205e-06	
127	3.000000e+00	2.580406e-06	
128	3.050000e+00	2.582903e-06	
129	3.100000e+00	2.585736e-06	
130	3.150000e+00	2.588943e-06	
131	3.200000e+00	2.592570e-06	
132	3.250000e+00	2.596662e-06	
133	3.300000e+00	2.601268e-06	
134	0.000000e+00	-0.000000e+00	
135	5.000000e-02	9.869405e-07	
136	1.000000e-01	1.909361e-06	
137	1.500000e-01	2.767644e-06	
138	2.000000e-01	3.562168e-06	
139	2.500000e-01	4.293310e-06	
140	3.000000e-01	4.961444e-06	
141	3.500000e-01	5.566942e-06	
142	4.000000e-01	6.110177e-06	
143	4.500000e-01	6.591520e-06	
144	5.000000e-01	7.011350e-06	
145	5.500000e-01	7.370056e-06	
146	6.000000e-01	7.668064e-06	
147	6.500000e-01	7.905903e-06	
148	7.000000e-01	8.084444e-06	
149	7.500000e-01	8.205834e-06	
150	8.000000e-01	8.276688e-06	
151	8.500000e-01	8.312305e-06	
152	9.000000e-01	8.330355e-06	
153	9.500000e-01	8.340988e-06	
154	1.000000e+00	8.348254e-06	
155	1.050000e+00	8.353758e-06	
156	1.100000e+00	8.358216e-06	
157	1.150000e+00	8.361994e-06	
158	1.200000e+00	8.365298e-06	
159	1.250000e+00	8.368254e-06	
160	1.300000e+00	8.370944e-06	
161	1.350000e+00	8.373426e-06	
162	1.400000e+00	8.375739e-06	
163	1.450000e+00	8.377913e-06	
164	1.500000e+00	8.379971e-06	
165	1.550000e+00	8.381930e-06	
166	1.600000e+00	8.383804e-06	
167	1.650000e+00	8.385605e-06	
168	1.700000e+00	8.387340e-06	
169	1.750000e+00	8.389019e-06	
170	1.800000e+00	8.390647e-06	

Index   v-sweep         -i(vds)         
--------------------------------------------------------------------------------
171	1.850000e+00	8.392229e-06	
172	1.900000e+00	8.393770e-06	
173	1.950000e+00	8.395274e-06	
174	2.000000e+00	8.396744e-06	
175	2.050000e+00	8.398183e-06	
176	2.100000e+00	8.399595e-06	
177	2.150000e+00	8.400981e-06	
178	2.200000e+00	8.402345e-06	
179	2.250000e+00	8.403689e-06	
180	2.300000e+00	8.405016e-06	
181	2.350000e+00	8.406331e-06	
182	2.400000e+00	8.407638e-06	
183	2.450000e+00	8.408943e-06	
184	2.500000e+00	8.410254e-06	
185	2.550000e+00	8.411579e-06	
186	2.600000e+00	8.412931e-06	
187	2.650000e+00	8.414325e-06	
188	2.700000e+00	8.415777e-06	
189	2.750000e+00	8.417310e-06	
190	2.800000e+00	8.418950e-06	
191	2.850000e+00	8.420727e-06	
192	2.900000e+00	8.422679e-06	
193	2.950000e+00	8.424847e-06	
194	3.000000e+00	8.427279e-06	
195	3.050000e+00	8.430031e-06	
196	3.100000e+00	8.433165e-06	
197	3.150000e+00	8.436752e-06	
198	3.200000e+00	8.440868e-06	
199	3.250000e+00	8.445601e-06	
200	3.300000e+00	8.451045e-06	
201	0.000000e+00	-0.000000e+00	
202	5.000000e-02	1.357728e-06	
203	1.000000e-01	2.655841e-06	
204	1.500000e-01	3.894671e-06	
205	2.000000e-01	5.074548e-06	
206	2.500000e-01	6.195797e-06	
207	3.000000e-01	7.258744e-06	
208	3.500000e-01	8.263709e-06	
209	4.000000e-01	9.211013e-06	
210	4.500000e-01	1.010097e-05	
211	5.000000e-01	1.093390e-05	
212	5.500000e-01	1.171012e-05	
213	6.000000e-01	1.242992e-05	
214	6.500000e-01	1.309363e-05	
215	7.000000e-01	1.370155e-05	
216	7.500000e-01	1.425399e-05	
217	8.000000e-01	1.475124e-05	
218	8.500000e-01	1.519362e-05	
219	9.000000e-01	1.558142e-05	
220	9.500000e-01	1.591497e-05	
221	1.000000e+00	1.619462e-05	
222	1.050000e+00	1.642082e-05	
223	1.100000e+00	1.659443e-05	
224	1.150000e+00	1.671767e-05	
225	1.200000e+00	1.679671e-05	
226	1.250000e+00	1.684367e-05	
227	1.300000e+00	1.687195e-05	
228	1.350000e+00	1.689050e-05	

Index   v-sweep         -i(vds)         
--------------------------------------------------------------------------------
229	1.400000e+00	1.690384e-05	
230	1.450000e+00	1.691414e-05	
231	1.500000e+00	1.692253e-05	
232	1.550000e+00	1.692963e-05	
233	1.600000e+00	1.693581e-05	
234	1.650000e+00	1.694130e-05	
235	1.700000e+00	1.694626e-05	
236	1.750000e+00	1.695080e-05	
237	1.800000e+00	1.695500e-05	
238	1.850000e+00	1.695892e-05	
239	1.900000e+00	1.696261e-05	
240	1.950000e+00	1.696610e-05	
241	2.000000e+00	1.696941e-05	
242	2.050000e+00	1.697257e-05	
243	2.100000e+00	1.697560e-05	
244	2.150000e+00	1.697852e-05	
245	2.200000e+00	1.698133e-05	
246	2.250000e+00	1.698405e-05	
247	2.300000e+00	1.698669e-05	
248	2.350000e+00	1.698925e-05	
249	2.400000e+00	1.699174e-05	
250	2.450000e+00	1.699417e-05	
251	2.500000e+00	1.699655e-05	
252	2.550000e+00	1.699887e-05	
253	2.600000e+00	1.700115e-05	
254	2.650000e+00	1.700338e-05	
255	2.700000e+00	1.700559e-05	
256	2.750000e+00	1.700777e-05	
257	2.800000e+00	1.700994e-05	
258	2.850000e+00	1.701211e-05	
259	2.900000e+00	1.701429e-05	
260	2.950000e+00	1.701650e-05	
261	3.000000e+00	1.701878e-05	
262	3.050000e+00	1.702114e-05	
263	3.100000e+00	1.702364e-05	
264	3.150000e+00	1.702631e-05	
265	3.200000e+00	1.702920e-05	
266	3.250000e+00	1.703240e-05	
267	3.300000e+00	1.703596e-05	
268	0.000000e+00	-0.000000e+00	
269	5.000000e-02	1.645600e-06	
270	1.000000e-01	3.237477e-06	
271	1.500000e-01	4.775907e-06	
272	2.000000e-01	6.261167e-06	
273	2.500000e-01	7.693530e-06	
274	3.000000e-01	9.073268e-06	
275	3.500000e-01	1.040065e-05	
276	4.000000e-01	1.167595e-05	
277	4.500000e-01	1.289943e-05	
278	5.000000e-01	1.407135e-05	
279	5.500000e-01	1.519197e-05	
280	6.000000e-01	1.626157e-05	
281	6.500000e-01	1.728039e-05	
282	7.000000e-01	1.824870e-05	
283	7.500000e-01	1.916675e-05	
284	8.000000e-01	2.003479e-05	
285	8.500000e-01	2.085307e-05	
286	9.000000e-01	2.162185e-05	

Index   v-sweep         -i(vds)         
--------------------------------------------------------------------------------
287	9.500000e-01	2.234138e-05	
288	1.000000e+00	2.301189e-05	
289	1.050000e+00	2.363363e-05	
290	1.100000e+00	2.420684e-05	
291	1.150000e+00	2.473176e-05	
292	1.200000e+00	2.520863e-05	
293	1.250000e+00	2.563766e-05	
294	1.300000e+00	2.601908e-05	
295	1.350000e+00	2.635310e-05	
296	1.400000e+00	2.663991e-05	
297	1.450000e+00	2.687976e-05	
298	1.500000e+00	2.707300e-05	
299	1.550000e+00	2.722068e-05	
300	1.600000e+00	2.732604e-05	
301	1.650000e+00	2.739652e-05	
302	1.700000e+00	2.744277e-05	
303	1.750000e+00	2.747426e-05	
304	1.800000e+00	2.749706e-05	
305	1.850000e+00	2.751457e-05	
306	1.900000e+00	2.752869e-05	
307	1.950000e+00	2.754049e-05	
308	2.000000e+00	2.755064e-05	
309	2.050000e+00	2.755956e-05	
310	2.100000e+00	2.756755e-05	
311	2.150000e+00	2.757479e-05	
312	2.200000e+00	2.758143e-05	
313	2.250000e+00	2.758758e-05	
314	2.300000e+00	2.759332e-05	
315	2.350000e+00	2.759871e-05	
316	2.400000e+00	2.760380e-05	
317	2.450000e+00	2.760863e-05	
318	2.500000e+00	2.761323e-05	
319	2.550000e+00	2.761764e-05	
320	2.600000e+00	2.762187e-05	
321	2.650000e+00	2.762594e-05	
322	2.700000e+00	2.762987e-05	
323	2.750000e+00	2.763367e-05	
324	2.800000e+00	2.763735e-05	
325	2.850000e+00	2.764093e-05	
326	2.900000e+00	2.764441e-05	
327	2.950000e+00	2.764781e-05	
328	3.000000e+00	2.765112e-05	
329	3.050000e+00	2.765437e-05	
330	3.100000e+00	2.765757e-05	
331	3.150000e+00	2.766072e-05	
332	3.200000e+00	2.766384e-05	
333	3.250000e+00	2.766695e-05	
334	3.300000e+00	2.767008e-05	
335	0.000000e+00	-0.000000e+00	
336	5.000000e-02	1.854876e-06	
337	1.000000e-01	3.662182e-06	
338	1.500000e-01	5.422146e-06	
339	2.000000e-01	7.134992e-06	
340	2.500000e-01	8.800944e-06	
341	3.000000e-01	1.042022e-05	
342	3.500000e-01	1.199305e-05	
343	4.000000e-01	1.351965e-05	
344	4.500000e-01	1.500023e-05	

Index   v-sweep         -i(vds)         
--------------------------------------------------------------------------------
345	5.000000e-01	1.643501e-05	
346	5.500000e-01	1.782421e-05	
347	6.000000e-01	1.916804e-05	
348	6.500000e-01	2.046671e-05	
349	7.000000e-01	2.172044e-05	
350	7.500000e-01	2.292943e-05	
351	8.000000e-01	2.409390e-05	
352	8.500000e-01	2.521404e-05	
353	9.000000e-01	2.629007e-05	
354	9.500000e-01	2.732219e-05	
355	1.000000e+00	2.831060e-05	
356	1.050000e+00	2.925550e-05	
357	1.100000e+00	3.015710e-05	
358	1.150000e+00	3.101559e-05	
359	1.200000e+00	3.183117e-05	
360	1.250000e+00	3.260404e-05	
361	1.300000e+00	3.333439e-05	
362	1.350000e+00	3.402240e-05	
363	1.400000e+00	3.466828e-05	
364	1.450000e+00	3.527221e-05	
365	1.500000e+00	3.583437e-05	
366	1.550000e+00	3.635494e-05	
367	1.600000e+00	3.683409e-05	
368	1.650000e+00	3.727198e-05	
369	1.700000e+00	3.766877e-05	
370	1.750000e+00	3.802457e-05	
371	1.800000e+00	3.833949e-05	
372	1.850000e+00	3.861357e-05	
373	1.900000e+00	3.884680e-05	
374	1.950000e+00	3.903923e-05	
375	2.000000e+00	3.919138e-05	
376	2.050000e+00	3.930550e-05	
377	2.100000e+00	3.938707e-05	
378	2.150000e+00	3.944436e-05	
379	2.200000e+00	3.948545e-05	
380	2.250000e+00	3.951617e-05	
381	2.300000e+00	3.954020e-05	
382	2.350000e+00	3.955974e-05	
383	2.400000e+00	3.957613e-05	
384	2.450000e+00	3.959025e-05	
385	2.500000e+00	3.960265e-05	
386	2.550000e+00	3.961373e-05	
387	2.600000e+00	3.962375e-05	
388	2.650000e+00	3.963292e-05	
389	2.700000e+00	3.964138e-05	
390	2.750000e+00	3.964926e-05	
391	2.800000e+00	3.965663e-05	
392	2.850000e+00	3.966358e-05	
393	2.900000e+00	3.967015e-05	
394	2.950000e+00	3.967640e-05	
395	3.000000e+00	3.968236e-05	
396	3.050000e+00	3.968806e-05	
397	3.100000e+00	3.969354e-05	
398	3.150000e+00	3.969882e-05	
399	3.200000e+00	3.970391e-05	
400	3.250000e+00	3.970883e-05	
401	3.300000e+00	3.971360e-05	
Note: No ".plot", ".print", or ".fourier" lines; no simulations run
