
Note: Compatibility modes selected: hs

Warning: m=xx on .subckt line will override multiplier m hierarchy!


Circuit: ***************************

Doing analysis at TEMP = -40.000000 and TNOM = -40.000000


No. of Data Rows : 402
                          ***************************
                          DC transfer characteristic  Mon Jan  9 13:57:17  2023
--------------------------------------------------------------------------------
Index   v-sweep         -i(vds)         
--------------------------------------------------------------------------------
0	0.000000e+00	-0.000000e+00	
1	5.000000e-02	1.167990e-05	
2	1.000000e-01	1.724036e-05	
3	1.500000e-01	1.951654e-05	
4	2.000000e-01	2.070196e-05	
5	2.500000e-01	2.156040e-05	
6	3.000000e-01	2.229798e-05	
7	3.500000e-01	2.298103e-05	
8	4.000000e-01	2.363632e-05	
9	4.500000e-01	2.427670e-05	
10	5.000000e-01	2.490915e-05	
11	5.500000e-01	2.553784e-05	
12	6.000000e-01	2.616543e-05	
13	6.500000e-01	2.679371e-05	
14	7.000000e-01	2.742396e-05	
15	7.500000e-01	2.805708e-05	
16	8.000000e-01	2.869377e-05	
17	8.500000e-01	2.933456e-05	
18	9.000000e-01	2.997986e-05	
19	9.500000e-01	3.063000e-05	
20	1.000000e+00	3.128525e-05	
21	1.050000e+00	3.194581e-05	
22	1.100000e+00	3.261188e-05	
23	1.150000e+00	3.328359e-05	
24	1.200000e+00	3.396108e-05	
25	1.250000e+00	3.464444e-05	
26	1.300000e+00	3.533378e-05	
27	1.350000e+00	3.602916e-05	
28	1.400000e+00	3.673065e-05	
29	1.450000e+00	3.743833e-05	
30	1.500000e+00	3.815222e-05	
31	1.550000e+00	3.887240e-05	
32	1.600000e+00	3.959891e-05	
33	1.650000e+00	4.033180e-05	
34	1.700000e+00	4.107112e-05	
35	1.750000e+00	4.181692e-05	
36	1.800000e+00	4.256929e-05	
37	1.850000e+00	4.332829e-05	
38	1.900000e+00	4.409401e-05	
39	1.950000e+00	4.486658e-05	
40	2.000000e+00	4.564613e-05	
41	2.050000e+00	4.643282e-05	
42	2.100000e+00	4.722683e-05	
43	2.150000e+00	4.802841e-05	
44	2.200000e+00	4.883783e-05	
45	2.250000e+00	4.965539e-05	
46	2.300000e+00	5.048148e-05	
47	2.350000e+00	5.131653e-05	
48	2.400000e+00	5.216104e-05	
49	2.450000e+00	5.301557e-05	
50	2.500000e+00	5.388078e-05	
51	2.550000e+00	5.475741e-05	
52	2.600000e+00	5.564629e-05	
53	2.650000e+00	5.654836e-05	
54	2.700000e+00	5.746467e-05	

Index   v-sweep         -i(vds)         
--------------------------------------------------------------------------------
55	2.750000e+00	5.839639e-05	
56	2.800000e+00	5.934483e-05	
57	2.850000e+00	6.031142e-05	
58	2.900000e+00	6.129776e-05	
59	2.950000e+00	6.230559e-05	
60	3.000000e+00	6.333682e-05	
61	3.050000e+00	6.439354e-05	
62	3.100000e+00	6.547805e-05	
63	3.150000e+00	6.659281e-05	
64	3.200000e+00	6.774051e-05	
65	3.250000e+00	6.892405e-05	
66	3.300000e+00	7.014657e-05	
67	0.000000e+00	-0.000000e+00	
68	5.000000e-02	8.251794e-05	
69	1.000000e-01	1.527282e-04	
70	1.500000e-01	2.117681e-04	
71	2.000000e-01	2.606110e-04	
72	2.500000e-01	3.000831e-04	
73	3.000000e-01	3.309069e-04	
74	3.500000e-01	3.538687e-04	
75	4.000000e-01	3.701641e-04	
76	4.500000e-01	3.815208e-04	
77	5.000000e-01	3.896843e-04	
78	5.500000e-01	3.959136e-04	
79	6.000000e-01	4.009642e-04	
80	6.500000e-01	4.052665e-04	
81	7.000000e-01	4.090698e-04	
82	7.500000e-01	4.125249e-04	
83	8.000000e-01	4.157270e-04	
84	8.500000e-01	4.187393e-04	
85	9.000000e-01	4.216051e-04	
86	9.500000e-01	4.243551e-04	
87	1.000000e+00	4.270117e-04	
88	1.050000e+00	4.295920e-04	
89	1.100000e+00	4.321086e-04	
90	1.150000e+00	4.345718e-04	
91	1.200000e+00	4.369895e-04	
92	1.250000e+00	4.393681e-04	
93	1.300000e+00	4.417130e-04	
94	1.350000e+00	4.440283e-04	
95	1.400000e+00	4.463178e-04	
96	1.450000e+00	4.485845e-04	
97	1.500000e+00	4.508310e-04	
98	1.550000e+00	4.530594e-04	
99	1.600000e+00	4.552717e-04	
100	1.650000e+00	4.574696e-04	
101	1.700000e+00	4.596546e-04	
102	1.750000e+00	4.618278e-04	
103	1.800000e+00	4.639907e-04	
104	1.850000e+00	4.661442e-04	
105	1.900000e+00	4.682895e-04	
106	1.950000e+00	4.704275e-04	
107	2.000000e+00	4.725593e-04	
108	2.050000e+00	4.746860e-04	
109	2.100000e+00	4.768088e-04	
110	2.150000e+00	4.789288e-04	
111	2.200000e+00	4.810475e-04	
112	2.250000e+00	4.831665e-04	

Index   v-sweep         -i(vds)         
--------------------------------------------------------------------------------
113	2.300000e+00	4.852873e-04	
114	2.350000e+00	4.874121e-04	
115	2.400000e+00	4.895430e-04	
116	2.450000e+00	4.916827e-04	
117	2.500000e+00	4.938339e-04	
118	2.550000e+00	4.960000e-04	
119	2.600000e+00	4.981847e-04	
120	2.650000e+00	5.003920e-04	
121	2.700000e+00	5.026266e-04	
122	2.750000e+00	5.048937e-04	
123	2.800000e+00	5.071990e-04	
124	2.850000e+00	5.095488e-04	
125	2.900000e+00	5.119500e-04	
126	2.950000e+00	5.144104e-04	
127	3.000000e+00	5.169384e-04	
128	3.050000e+00	5.195430e-04	
129	3.100000e+00	5.222343e-04	
130	3.150000e+00	5.250229e-04	
131	3.200000e+00	5.279206e-04	
132	3.250000e+00	5.309400e-04	
133	3.300000e+00	5.340944e-04	
134	0.000000e+00	-0.000000e+00	
135	5.000000e-02	1.284737e-04	
136	1.000000e-01	2.444208e-04	
137	1.500000e-01	3.487833e-04	
138	2.000000e-01	4.423989e-04	
139	2.500000e-01	5.260083e-04	
140	3.000000e-01	6.002561e-04	
141	3.500000e-01	6.656866e-04	
142	4.000000e-01	7.227307e-04	
143	4.500000e-01	7.716924e-04	
144	5.000000e-01	8.127611e-04	
145	5.500000e-01	8.461269e-04	
146	6.000000e-01	8.722627e-04	
147	6.500000e-01	8.921868e-04	
148	7.000000e-01	9.073245e-04	
149	7.500000e-01	9.190674e-04	
150	8.000000e-01	9.284882e-04	
151	8.500000e-01	9.363191e-04	
152	9.000000e-01	9.430390e-04	
153	9.500000e-01	9.489605e-04	
154	1.000000e+00	9.542917e-04	
155	1.050000e+00	9.591747e-04	
156	1.100000e+00	9.637091e-04	
157	1.150000e+00	9.679668e-04	
158	1.200000e+00	9.720006e-04	
159	1.250000e+00	9.758503e-04	
160	1.300000e+00	9.795468e-04	
161	1.350000e+00	9.831137e-04	
162	1.400000e+00	9.865703e-04	
163	1.450000e+00	9.899317e-04	
164	1.500000e+00	9.932105e-04	
165	1.550000e+00	9.964169e-04	
166	1.600000e+00	9.995594e-04	
167	1.650000e+00	1.002645e-03	
168	1.700000e+00	1.005681e-03	
169	1.750000e+00	1.008671e-03	
170	1.800000e+00	1.011620e-03	

Index   v-sweep         -i(vds)         
--------------------------------------------------------------------------------
171	1.850000e+00	1.014533e-03	
172	1.900000e+00	1.017412e-03	
173	1.950000e+00	1.020261e-03	
174	2.000000e+00	1.023082e-03	
175	2.050000e+00	1.025878e-03	
176	2.100000e+00	1.028652e-03	
177	2.150000e+00	1.031406e-03	
178	2.200000e+00	1.034142e-03	
179	2.250000e+00	1.036862e-03	
180	2.300000e+00	1.039569e-03	
181	2.350000e+00	1.042267e-03	
182	2.400000e+00	1.044957e-03	
183	2.450000e+00	1.047643e-03	
184	2.500000e+00	1.050329e-03	
185	2.550000e+00	1.053019e-03	
186	2.600000e+00	1.055718e-03	
187	2.650000e+00	1.058431e-03	
188	2.700000e+00	1.061164e-03	
189	2.750000e+00	1.063924e-03	
190	2.800000e+00	1.066719e-03	
191	2.850000e+00	1.069557e-03	
192	2.900000e+00	1.072447e-03	
193	2.950000e+00	1.075401e-03	
194	3.000000e+00	1.078430e-03	
195	3.050000e+00	1.081547e-03	
196	3.100000e+00	1.084766e-03	
197	3.150000e+00	1.088103e-03	
198	3.200000e+00	1.091575e-03	
199	3.250000e+00	1.095200e-03	
200	3.300000e+00	1.098999e-03	
201	0.000000e+00	-0.000000e+00	
202	5.000000e-02	1.577274e-04	
203	1.000000e-01	3.037256e-04	
204	1.500000e-01	4.387329e-04	
205	2.000000e-01	5.634227e-04	
206	2.500000e-01	6.784078e-04	
207	3.000000e-01	7.842440e-04	
208	3.500000e-01	8.814319e-04	
209	4.000000e-01	9.704155e-04	
210	4.500000e-01	1.051578e-03	
211	5.000000e-01	1.125234e-03	
212	5.500000e-01	1.191609e-03	
213	6.000000e-01	1.250828e-03	
214	6.500000e-01	1.302895e-03	
215	7.000000e-01	1.347723e-03	
216	7.500000e-01	1.385274e-03	
217	8.000000e-01	1.415809e-03	
218	8.500000e-01	1.440087e-03	
219	9.000000e-01	1.459267e-03	
220	9.500000e-01	1.474579e-03	
221	1.000000e+00	1.487068e-03	
222	1.050000e+00	1.497516e-03	
223	1.100000e+00	1.506477e-03	
224	1.150000e+00	1.514334e-03	
225	1.200000e+00	1.521356e-03	
226	1.250000e+00	1.527732e-03	
227	1.300000e+00	1.533600e-03	
228	1.350000e+00	1.539060e-03	

Index   v-sweep         -i(vds)         
--------------------------------------------------------------------------------
229	1.400000e+00	1.544186e-03	
230	1.450000e+00	1.549038e-03	
231	1.500000e+00	1.553659e-03	
232	1.550000e+00	1.558085e-03	
233	1.600000e+00	1.562343e-03	
234	1.650000e+00	1.566457e-03	
235	1.700000e+00	1.570445e-03	
236	1.750000e+00	1.574323e-03	
237	1.800000e+00	1.578103e-03	
238	1.850000e+00	1.581796e-03	
239	1.900000e+00	1.585412e-03	
240	1.950000e+00	1.588958e-03	
241	2.000000e+00	1.592441e-03	
242	2.050000e+00	1.595867e-03	
243	2.100000e+00	1.599242e-03	
244	2.150000e+00	1.602570e-03	
245	2.200000e+00	1.605855e-03	
246	2.250000e+00	1.609101e-03	
247	2.300000e+00	1.612313e-03	
248	2.350000e+00	1.615493e-03	
249	2.400000e+00	1.618646e-03	
250	2.450000e+00	1.621775e-03	
251	2.500000e+00	1.624884e-03	
252	2.550000e+00	1.627978e-03	
253	2.600000e+00	1.631060e-03	
254	2.650000e+00	1.634138e-03	
255	2.700000e+00	1.637215e-03	
256	2.750000e+00	1.640299e-03	
257	2.800000e+00	1.643398e-03	
258	2.850000e+00	1.646520e-03	
259	2.900000e+00	1.649674e-03	
260	2.950000e+00	1.652871e-03	
261	3.000000e+00	1.656124e-03	
262	3.050000e+00	1.659445e-03	
263	3.100000e+00	1.662849e-03	
264	3.150000e+00	1.666354e-03	
265	3.200000e+00	1.669977e-03	
266	3.250000e+00	1.673739e-03	
267	3.300000e+00	1.677661e-03	
268	0.000000e+00	-0.000000e+00	
269	5.000000e-02	1.769454e-04	
270	1.000000e-01	3.432000e-04	
271	1.500000e-01	4.993382e-04	
272	2.000000e-01	6.458922e-04	
273	2.500000e-01	7.833548e-04	
274	3.000000e-01	9.121820e-04	
275	3.500000e-01	1.032795e-03	
276	4.000000e-01	1.145581e-03	
277	4.500000e-01	1.250894e-03	
278	5.000000e-01	1.349052e-03	
279	5.500000e-01	1.440339e-03	
280	6.000000e-01	1.524991e-03	
281	6.500000e-01	1.603197e-03	
282	7.000000e-01	1.675075e-03	
283	7.500000e-01	1.740664e-03	
284	8.000000e-01	1.799899e-03	
285	8.500000e-01	1.852612e-03	
286	9.000000e-01	1.898591e-03	

Index   v-sweep         -i(vds)         
--------------------------------------------------------------------------------
287	9.500000e-01	1.937727e-03	
288	1.000000e+00	1.970228e-03	
289	1.050000e+00	1.996744e-03	
290	1.100000e+00	2.018260e-03	
291	1.150000e+00	2.035840e-03	
292	1.200000e+00	2.050429e-03	
293	1.250000e+00	2.062772e-03	
294	1.300000e+00	2.073424e-03	
295	1.350000e+00	2.082788e-03	
296	1.400000e+00	2.091156e-03	
297	1.450000e+00	2.098741e-03	
298	1.500000e+00	2.105701e-03	
299	1.550000e+00	2.112154e-03	
300	1.600000e+00	2.118189e-03	
301	1.650000e+00	2.123877e-03	
302	1.700000e+00	2.129271e-03	
303	1.750000e+00	2.134417e-03	
304	1.800000e+00	2.139347e-03	
305	1.850000e+00	2.144092e-03	
306	1.900000e+00	2.148674e-03	
307	1.950000e+00	2.153113e-03	
308	2.000000e+00	2.157425e-03	
309	2.050000e+00	2.161625e-03	
310	2.100000e+00	2.165723e-03	
311	2.150000e+00	2.169730e-03	
312	2.200000e+00	2.173656e-03	
313	2.250000e+00	2.177507e-03	
314	2.300000e+00	2.181290e-03	
315	2.350000e+00	2.185012e-03	
316	2.400000e+00	2.188678e-03	
317	2.450000e+00	2.192294e-03	
318	2.500000e+00	2.195864e-03	
319	2.550000e+00	2.199393e-03	
320	2.600000e+00	2.202886e-03	
321	2.650000e+00	2.206349e-03	
322	2.700000e+00	2.209787e-03	
323	2.750000e+00	2.213205e-03	
324	2.800000e+00	2.216611e-03	
325	2.850000e+00	2.220011e-03	
326	2.900000e+00	2.223415e-03	
327	2.950000e+00	2.226830e-03	
328	3.000000e+00	2.230268e-03	
329	3.050000e+00	2.233740e-03	
330	3.100000e+00	2.237260e-03	
331	3.150000e+00	2.240842e-03	
332	3.200000e+00	2.244503e-03	
333	3.250000e+00	2.248263e-03	
334	3.300000e+00	2.252140e-03	
335	0.000000e+00	-0.000000e+00	
336	5.000000e-02	1.897712e-04	
337	1.000000e-01	3.698872e-04	
338	1.500000e-01	5.407977e-04	
339	2.000000e-01	7.029241e-04	
340	2.500000e-01	8.566613e-04	
341	3.000000e-01	1.002379e-03	
342	3.500000e-01	1.140424e-03	
343	4.000000e-01	1.271121e-03	
344	4.500000e-01	1.394772e-03	

Index   v-sweep         -i(vds)         
--------------------------------------------------------------------------------
345	5.000000e-01	1.511657e-03	
346	5.500000e-01	1.622039e-03	
347	6.000000e-01	1.726153e-03	
348	6.500000e-01	1.824215e-03	
349	7.000000e-01	1.916411e-03	
350	7.500000e-01	2.002897e-03	
351	8.000000e-01	2.083787e-03	
352	8.500000e-01	2.159145e-03	
353	9.000000e-01	2.228969e-03	
354	9.500000e-01	2.293176e-03	
355	1.000000e+00	2.351588e-03	
356	1.050000e+00	2.403951e-03	
357	1.100000e+00	2.450011e-03	
358	1.150000e+00	2.489656e-03	
359	1.200000e+00	2.523086e-03	
360	1.250000e+00	2.550882e-03	
361	1.300000e+00	2.573893e-03	
362	1.350000e+00	2.593042e-03	
363	1.400000e+00	2.609170e-03	
364	1.450000e+00	2.622965e-03	
365	1.500000e+00	2.634957e-03	
366	1.550000e+00	2.645547e-03	
367	1.600000e+00	2.655033e-03	
368	1.650000e+00	2.663638e-03	
369	1.700000e+00	2.671530e-03	
370	1.750000e+00	2.678838e-03	
371	1.800000e+00	2.685663e-03	
372	1.850000e+00	2.692081e-03	
373	1.900000e+00	2.698154e-03	
374	1.950000e+00	2.703933e-03	
375	2.000000e+00	2.709457e-03	
376	2.050000e+00	2.714760e-03	
377	2.100000e+00	2.719868e-03	
378	2.150000e+00	2.724805e-03	
379	2.200000e+00	2.729590e-03	
380	2.250000e+00	2.734239e-03	
381	2.300000e+00	2.738766e-03	
382	2.350000e+00	2.743183e-03	
383	2.400000e+00	2.747501e-03	
384	2.450000e+00	2.751729e-03	
385	2.500000e+00	2.755875e-03	
386	2.550000e+00	2.759946e-03	
387	2.600000e+00	2.763950e-03	
388	2.650000e+00	2.767892e-03	
389	2.700000e+00	2.771780e-03	
390	2.750000e+00	2.775618e-03	
391	2.800000e+00	2.779414e-03	
392	2.850000e+00	2.783173e-03	
393	2.900000e+00	2.786904e-03	
394	2.950000e+00	2.790612e-03	
395	3.000000e+00	2.794308e-03	
396	3.050000e+00	2.797999e-03	
397	3.100000e+00	2.801698e-03	
398	3.150000e+00	2.805415e-03	
399	3.200000e+00	2.809165e-03	
400	3.250000e+00	2.812962e-03	
401	3.300000e+00	2.816824e-03	
Note: No ".plot", ".print", or ".fourier" lines; no simulations run
