
Note: Compatibility modes selected: hs

Warning: m=xx on .subckt line will override multiplier m hierarchy!


Circuit: ***************************

Doing analysis at TEMP = 125.000000 and TNOM = 125.000000


No. of Data Rows : 402
                          ***************************
                          DC transfer characteristic  Mon Jan  9 13:57:18  2023
--------------------------------------------------------------------------------
Index   v-sweep         -i(vds)         
--------------------------------------------------------------------------------
0	0.000000e+00	-0.000000e+00	
1	5.000000e-02	1.175674e-06	
2	1.000000e-01	2.032514e-06	
3	1.500000e-01	2.605950e-06	
4	2.000000e-01	2.912223e-06	
5	2.500000e-01	3.008040e-06	
6	3.000000e-01	3.026234e-06	
7	3.500000e-01	3.032119e-06	
8	4.000000e-01	3.035543e-06	
9	4.500000e-01	3.038121e-06	
10	5.000000e-01	3.040290e-06	
11	5.500000e-01	3.042219e-06	
12	6.000000e-01	3.043991e-06	
13	6.500000e-01	3.045649e-06	
14	7.000000e-01	3.047222e-06	
15	7.500000e-01	3.048729e-06	
16	8.000000e-01	3.050182e-06	
17	8.500000e-01	3.051590e-06	
18	9.000000e-01	3.052961e-06	
19	9.500000e-01	3.054300e-06	
20	1.000000e+00	3.055612e-06	
21	1.050000e+00	3.056900e-06	
22	1.100000e+00	3.058167e-06	
23	1.150000e+00	3.059415e-06	
24	1.200000e+00	3.060646e-06	
25	1.250000e+00	3.061863e-06	
26	1.300000e+00	3.063065e-06	
27	1.350000e+00	3.064256e-06	
28	1.400000e+00	3.065435e-06	
29	1.450000e+00	3.066604e-06	
30	1.500000e+00	3.067763e-06	
31	1.550000e+00	3.068914e-06	
32	1.600000e+00	3.070057e-06	
33	1.650000e+00	3.071193e-06	
34	1.700000e+00	3.072324e-06	
35	1.750000e+00	3.073450e-06	
36	1.800000e+00	3.074572e-06	
37	1.850000e+00	3.075694e-06	
38	1.900000e+00	3.076816e-06	
39	1.950000e+00	3.077943e-06	
40	2.000000e+00	3.079077e-06	
41	2.050000e+00	3.080223e-06	
42	2.100000e+00	3.081388e-06	
43	2.150000e+00	3.082578e-06	
44	2.200000e+00	3.083803e-06	
45	2.250000e+00	3.085071e-06	
46	2.300000e+00	3.086396e-06	
47	2.350000e+00	3.087791e-06	
48	2.400000e+00	3.089273e-06	
49	2.450000e+00	3.090861e-06	
50	2.500000e+00	3.092576e-06	
51	2.550000e+00	3.094442e-06	
52	2.600000e+00	3.096486e-06	
53	2.650000e+00	3.098737e-06	
54	2.700000e+00	3.101229e-06	

Index   v-sweep         -i(vds)         
--------------------------------------------------------------------------------
55	2.750000e+00	3.103997e-06	
56	2.800000e+00	3.107081e-06	
57	2.850000e+00	3.110522e-06	
58	2.900000e+00	3.114367e-06	
59	2.950000e+00	3.118665e-06	
60	3.000000e+00	3.123467e-06	
61	3.050000e+00	3.128829e-06	
62	3.100000e+00	3.134810e-06	
63	3.150000e+00	3.141472e-06	
64	3.200000e+00	3.148879e-06	
65	3.250000e+00	3.157099e-06	
66	3.300000e+00	3.166203e-06	
67	0.000000e+00	-0.000000e+00	
68	5.000000e-02	3.480195e-06	
69	1.000000e-01	6.616910e-06	
70	1.500000e-01	9.444445e-06	
71	2.000000e-01	1.197173e-05	
72	2.500000e-01	1.420169e-05	
73	3.000000e-01	1.613591e-05	
74	3.500000e-01	1.777567e-05	
75	4.000000e-01	1.912238e-05	
76	4.500000e-01	2.017797e-05	
77	5.000000e-01	2.094612e-05	
78	5.500000e-01	2.143751e-05	
79	6.000000e-01	2.168951e-05	
80	6.500000e-01	2.179183e-05	
81	7.000000e-01	2.183539e-05	
82	7.500000e-01	2.185967e-05	
83	8.000000e-01	2.187641e-05	
84	8.500000e-01	2.188946e-05	
85	9.000000e-01	2.190037e-05	
86	9.500000e-01	2.190988e-05	
87	1.000000e+00	2.191842e-05	
88	1.050000e+00	2.192623e-05	
89	1.100000e+00	2.193347e-05	
90	1.150000e+00	2.194027e-05	
91	1.200000e+00	2.194670e-05	
92	1.250000e+00	2.195282e-05	
93	1.300000e+00	2.195869e-05	
94	1.350000e+00	2.196433e-05	
95	1.400000e+00	2.196978e-05	
96	1.450000e+00	2.197507e-05	
97	1.500000e+00	2.198020e-05	
98	1.550000e+00	2.198521e-05	
99	1.600000e+00	2.199009e-05	
100	1.650000e+00	2.199487e-05	
101	1.700000e+00	2.199954e-05	
102	1.750000e+00	2.200414e-05	
103	1.800000e+00	2.200865e-05	
104	1.850000e+00	2.201308e-05	
105	1.900000e+00	2.201746e-05	
106	1.950000e+00	2.202177e-05	
107	2.000000e+00	2.202602e-05	
108	2.050000e+00	2.203023e-05	
109	2.100000e+00	2.203440e-05	
110	2.150000e+00	2.203854e-05	
111	2.200000e+00	2.204267e-05	
112	2.250000e+00	2.204679e-05	

Index   v-sweep         -i(vds)         
--------------------------------------------------------------------------------
113	2.300000e+00	2.205093e-05	
114	2.350000e+00	2.205512e-05	
115	2.400000e+00	2.205938e-05	
116	2.450000e+00	2.206376e-05	
117	2.500000e+00	2.206829e-05	
118	2.550000e+00	2.207305e-05	
119	2.600000e+00	2.207810e-05	
120	2.650000e+00	2.208351e-05	
121	2.700000e+00	2.208940e-05	
122	2.750000e+00	2.209587e-05	
123	2.800000e+00	2.210305e-05	
124	2.850000e+00	2.211109e-05	
125	2.900000e+00	2.212015e-05	
126	2.950000e+00	2.213043e-05	
127	3.000000e+00	2.214212e-05	
128	3.050000e+00	2.215547e-05	
129	3.100000e+00	2.217071e-05	
130	3.150000e+00	2.218812e-05	
131	3.200000e+00	2.220801e-05	
132	3.250000e+00	2.223070e-05	
133	3.300000e+00	2.225652e-05	
134	0.000000e+00	-0.000000e+00	
135	5.000000e-02	5.539200e-06	
136	1.000000e-01	1.074964e-05	
137	1.500000e-01	1.566551e-05	
138	2.000000e-01	2.029561e-05	
139	2.500000e-01	2.464272e-05	
140	3.000000e-01	2.870823e-05	
141	3.500000e-01	3.249318e-05	
142	4.000000e-01	3.599854e-05	
143	4.500000e-01	3.922524e-05	
144	5.000000e-01	4.217423e-05	
145	5.500000e-01	4.484646e-05	
146	6.000000e-01	4.724289e-05	
147	6.500000e-01	4.936453e-05	
148	7.000000e-01	5.121245e-05	
149	7.500000e-01	5.278787e-05	
150	8.000000e-01	5.409238e-05	
151	8.500000e-01	5.512847e-05	
152	9.000000e-01	5.590135e-05	
153	9.500000e-01	5.642452e-05	
154	1.000000e+00	5.673387e-05	
155	1.050000e+00	5.689778e-05	
156	1.100000e+00	5.698728e-05	
157	1.150000e+00	5.704336e-05	
158	1.200000e+00	5.708341e-05	
159	1.250000e+00	5.711471e-05	
160	1.300000e+00	5.714065e-05	
161	1.350000e+00	5.716300e-05	
162	1.400000e+00	5.718279e-05	
163	1.450000e+00	5.720067e-05	
164	1.500000e+00	5.721705e-05	
165	1.550000e+00	5.723224e-05	
166	1.600000e+00	5.724646e-05	
167	1.650000e+00	5.725986e-05	
168	1.700000e+00	5.727258e-05	
169	1.750000e+00	5.728471e-05	
170	1.800000e+00	5.729633e-05	

Index   v-sweep         -i(vds)         
--------------------------------------------------------------------------------
171	1.850000e+00	5.730749e-05	
172	1.900000e+00	5.731827e-05	
173	1.950000e+00	5.732869e-05	
174	2.000000e+00	5.733880e-05	
175	2.050000e+00	5.734863e-05	
176	2.100000e+00	5.735819e-05	
177	2.150000e+00	5.736753e-05	
178	2.200000e+00	5.737665e-05	
179	2.250000e+00	5.738558e-05	
180	2.300000e+00	5.739433e-05	
181	2.350000e+00	5.740293e-05	
182	2.400000e+00	5.741138e-05	
183	2.450000e+00	5.741970e-05	
184	2.500000e+00	5.742793e-05	
185	2.550000e+00	5.743608e-05	
186	2.600000e+00	5.744418e-05	
187	2.650000e+00	5.745229e-05	
188	2.700000e+00	5.746044e-05	
189	2.750000e+00	5.746871e-05	
190	2.800000e+00	5.747718e-05	
191	2.850000e+00	5.748595e-05	
192	2.900000e+00	5.749515e-05	
193	2.950000e+00	5.750492e-05	
194	3.000000e+00	5.751546e-05	
195	3.050000e+00	5.752698e-05	
196	3.100000e+00	5.753974e-05	
197	3.150000e+00	5.755402e-05	
198	3.200000e+00	5.757017e-05	
199	3.250000e+00	5.758857e-05	
200	3.300000e+00	5.760967e-05	
201	0.000000e+00	-0.000000e+00	
202	5.000000e-02	7.275872e-06	
203	1.000000e-01	1.424559e-05	
204	1.500000e-01	2.094322e-05	
205	2.000000e-01	2.737742e-05	
206	2.500000e-01	3.355087e-05	
207	3.000000e-01	3.946481e-05	
208	3.500000e-01	4.512017e-05	
209	4.000000e-01	5.051776e-05	
210	4.500000e-01	5.565841e-05	
211	5.000000e-01	6.054292e-05	
212	5.500000e-01	6.517208e-05	
213	6.000000e-01	6.954669e-05	
214	6.500000e-01	7.366754e-05	
215	7.000000e-01	7.753543e-05	
216	7.500000e-01	8.115116e-05	
217	8.000000e-01	8.451550e-05	
218	8.500000e-01	8.762926e-05	
219	9.000000e-01	9.049323e-05	
220	9.500000e-01	9.310822e-05	
221	1.000000e+00	9.547507e-05	
222	1.050000e+00	9.759462e-05	
223	1.100000e+00	9.946781e-05	
224	1.150000e+00	1.010957e-04	
225	1.200000e+00	1.024796e-04	
226	1.250000e+00	1.036216e-04	
227	1.300000e+00	1.045253e-04	
228	1.350000e+00	1.051990e-04	

Index   v-sweep         -i(vds)         
--------------------------------------------------------------------------------
229	1.400000e+00	1.056623e-04	
230	1.450000e+00	1.059556e-04	
231	1.500000e+00	1.061357e-04	
232	1.550000e+00	1.062521e-04	
233	1.600000e+00	1.063341e-04	
234	1.650000e+00	1.063968e-04	
235	1.700000e+00	1.064475e-04	
236	1.750000e+00	1.064902e-04	
237	1.800000e+00	1.065273e-04	
238	1.850000e+00	1.065604e-04	
239	1.900000e+00	1.065902e-04	
240	1.950000e+00	1.066175e-04	
241	2.000000e+00	1.066428e-04	
242	2.050000e+00	1.066664e-04	
243	2.100000e+00	1.066886e-04	
244	2.150000e+00	1.067096e-04	
245	2.200000e+00	1.067296e-04	
246	2.250000e+00	1.067487e-04	
247	2.300000e+00	1.067669e-04	
248	2.350000e+00	1.067845e-04	
249	2.400000e+00	1.068014e-04	
250	2.450000e+00	1.068177e-04	
251	2.500000e+00	1.068336e-04	
252	2.550000e+00	1.068490e-04	
253	2.600000e+00	1.068640e-04	
254	2.650000e+00	1.068785e-04	
255	2.700000e+00	1.068928e-04	
256	2.750000e+00	1.069067e-04	
257	2.800000e+00	1.069203e-04	
258	2.850000e+00	1.069337e-04	
259	2.900000e+00	1.069469e-04	
260	2.950000e+00	1.069599e-04	
261	3.000000e+00	1.069728e-04	
262	3.050000e+00	1.069856e-04	
263	3.100000e+00	1.069985e-04	
264	3.150000e+00	1.070116e-04	
265	3.200000e+00	1.070249e-04	
266	3.250000e+00	1.070387e-04	
267	3.300000e+00	1.070531e-04	
268	0.000000e+00	-0.000000e+00	
269	5.000000e-02	8.686318e-06	
270	1.000000e-01	1.709144e-05	
271	1.500000e-01	2.524928e-05	
272	2.000000e-01	3.316840e-05	
273	2.500000e-01	4.085135e-05	
274	3.000000e-01	4.829924e-05	
275	3.500000e-01	5.551288e-05	
276	4.000000e-01	6.249296e-05	
277	4.500000e-01	6.924019e-05	
278	5.000000e-01	7.575524e-05	
279	5.500000e-01	8.203878e-05	
280	6.000000e-01	8.809150e-05	
281	6.500000e-01	9.391406e-05	
282	7.000000e-01	9.950713e-05	
283	7.500000e-01	1.048714e-04	
284	8.000000e-01	1.100075e-04	
285	8.500000e-01	1.149161e-04	
286	9.000000e-01	1.195979e-04	

Index   v-sweep         -i(vds)         
--------------------------------------------------------------------------------
287	9.500000e-01	1.240535e-04	
288	1.000000e+00	1.282836e-04	
289	1.050000e+00	1.322888e-04	
290	1.100000e+00	1.360699e-04	
291	1.150000e+00	1.396274e-04	
292	1.200000e+00	1.429619e-04	
293	1.250000e+00	1.460743e-04	
294	1.300000e+00	1.489650e-04	
295	1.350000e+00	1.516348e-04	
296	1.400000e+00	1.540844e-04	
297	1.450000e+00	1.563144e-04	
298	1.500000e+00	1.583255e-04	
299	1.550000e+00	1.601186e-04	
300	1.600000e+00	1.616945e-04	
301	1.650000e+00	1.630545e-04	
302	1.700000e+00	1.642001e-04	
303	1.750000e+00	1.651345e-04	
304	1.800000e+00	1.658640e-04	
305	1.850000e+00	1.664026e-04	
306	1.900000e+00	1.667782e-04	
307	1.950000e+00	1.670324e-04	
308	2.000000e+00	1.672078e-04	
309	2.050000e+00	1.673354e-04	
310	2.100000e+00	1.674337e-04	
311	2.150000e+00	1.675133e-04	
312	2.200000e+00	1.675801e-04	
313	2.250000e+00	1.676379e-04	
314	2.300000e+00	1.676889e-04	
315	2.350000e+00	1.677347e-04	
316	2.400000e+00	1.677764e-04	
317	2.450000e+00	1.678148e-04	
318	2.500000e+00	1.678505e-04	
319	2.550000e+00	1.678839e-04	
320	2.600000e+00	1.679153e-04	
321	2.650000e+00	1.679450e-04	
322	2.700000e+00	1.679732e-04	
323	2.750000e+00	1.680002e-04	
324	2.800000e+00	1.680260e-04	
325	2.850000e+00	1.680508e-04	
326	2.900000e+00	1.680747e-04	
327	2.950000e+00	1.680978e-04	
328	3.000000e+00	1.681201e-04	
329	3.050000e+00	1.681418e-04	
330	3.100000e+00	1.681628e-04	
331	3.150000e+00	1.681833e-04	
332	3.200000e+00	1.682033e-04	
333	3.250000e+00	1.682228e-04	
334	3.300000e+00	1.682419e-04	
335	0.000000e+00	-0.000000e+00	
336	5.000000e-02	9.792066e-06	
337	1.000000e-01	1.932800e-05	
338	1.500000e-01	2.864163e-05	
339	2.000000e-01	3.774137e-05	
340	2.500000e-01	4.662966e-05	
341	3.000000e-01	5.530752e-05	
342	3.500000e-01	6.377563e-05	
343	4.000000e-01	7.203457e-05	
344	4.500000e-01	8.008493e-05	

Index   v-sweep         -i(vds)         
--------------------------------------------------------------------------------
345	5.000000e-01	8.792728e-05	
346	5.500000e-01	9.556218e-05	
347	6.000000e-01	1.029902e-04	
348	6.500000e-01	1.102119e-04	
349	7.000000e-01	1.172278e-04	
350	7.500000e-01	1.240386e-04	
351	8.000000e-01	1.306447e-04	
352	8.500000e-01	1.370467e-04	
353	9.000000e-01	1.432451e-04	
354	9.500000e-01	1.492406e-04	
355	1.000000e+00	1.550336e-04	
356	1.050000e+00	1.606248e-04	
357	1.100000e+00	1.660146e-04	
358	1.150000e+00	1.712036e-04	
359	1.200000e+00	1.761923e-04	
360	1.250000e+00	1.809813e-04	
361	1.300000e+00	1.855711e-04	
362	1.350000e+00	1.899622e-04	
363	1.400000e+00	1.941553e-04	
364	1.450000e+00	1.981507e-04	
365	1.500000e+00	2.019491e-04	
366	1.550000e+00	2.055510e-04	
367	1.600000e+00	2.089569e-04	
368	1.650000e+00	2.121673e-04	
369	1.700000e+00	2.151828e-04	
370	1.750000e+00	2.180039e-04	
371	1.800000e+00	2.206311e-04	
372	1.850000e+00	2.230650e-04	
373	1.900000e+00	2.253061e-04	
374	1.950000e+00	2.273549e-04	
375	2.000000e+00	2.292121e-04	
376	2.050000e+00	2.308783e-04	
377	2.100000e+00	2.323542e-04	
378	2.150000e+00	2.336408e-04	
379	2.200000e+00	2.347396e-04	
380	2.250000e+00	2.356531e-04	
381	2.300000e+00	2.363868e-04	
382	2.350000e+00	2.369519e-04	
383	2.400000e+00	2.373700e-04	
384	2.450000e+00	2.376727e-04	
385	2.500000e+00	2.378941e-04	
386	2.550000e+00	2.380616e-04	
387	2.600000e+00	2.381937e-04	
388	2.650000e+00	2.383019e-04	
389	2.700000e+00	2.383933e-04	
390	2.750000e+00	2.384726e-04	
391	2.800000e+00	2.385426e-04	
392	2.850000e+00	2.386055e-04	
393	2.900000e+00	2.386626e-04	
394	2.950000e+00	2.387151e-04	
395	3.000000e+00	2.387638e-04	
396	3.050000e+00	2.388092e-04	
397	3.100000e+00	2.388519e-04	
398	3.150000e+00	2.388922e-04	
399	3.200000e+00	2.389304e-04	
400	3.250000e+00	2.389668e-04	
401	3.300000e+00	2.390016e-04	
Note: No ".plot", ".print", or ".fourier" lines; no simulations run
