
Note: Compatibility modes selected: hs

Warning: m=xx on .subckt line will override multiplier m hierarchy!


Circuit: ***************************

Doing analysis at TEMP = -40.000000 and TNOM = -40.000000


No. of Data Rows : 402
                          ***************************
                          DC transfer characteristic  Mon Jan  9 13:57:17  2023
--------------------------------------------------------------------------------
Index   v-sweep         -i(vds)         
--------------------------------------------------------------------------------
0	0.000000e+00	-0.000000e+00	
1	5.000000e-02	1.864971e-08	
2	1.000000e-01	2.574362e-08	
3	1.500000e-01	2.653144e-08	
4	2.000000e-01	2.661919e-08	
5	2.500000e-01	2.665648e-08	
6	3.000000e-01	2.668313e-08	
7	3.500000e-01	2.670581e-08	
8	4.000000e-01	2.672651e-08	
9	4.500000e-01	2.674603e-08	
10	5.000000e-01	2.676476e-08	
11	5.500000e-01	2.678294e-08	
12	6.000000e-01	2.680069e-08	
13	6.500000e-01	2.681812e-08	
14	7.000000e-01	2.683529e-08	
15	7.500000e-01	2.685224e-08	
16	8.000000e-01	2.686901e-08	
17	8.500000e-01	2.688563e-08	
18	9.000000e-01	2.690211e-08	
19	9.500000e-01	2.691848e-08	
20	1.000000e+00	2.693475e-08	
21	1.050000e+00	2.695092e-08	
22	1.100000e+00	2.696702e-08	
23	1.150000e+00	2.698304e-08	
24	1.200000e+00	2.699900e-08	
25	1.250000e+00	2.701490e-08	
26	1.300000e+00	2.703075e-08	
27	1.350000e+00	2.704654e-08	
28	1.400000e+00	2.706229e-08	
29	1.450000e+00	2.707800e-08	
30	1.500000e+00	2.709368e-08	
31	1.550000e+00	2.710932e-08	
32	1.600000e+00	2.712493e-08	
33	1.650000e+00	2.714053e-08	
34	1.700000e+00	2.715611e-08	
35	1.750000e+00	2.717169e-08	
36	1.800000e+00	2.718727e-08	
37	1.850000e+00	2.720289e-08	
38	1.900000e+00	2.721854e-08	
39	1.950000e+00	2.723427e-08	
40	2.000000e+00	2.725010e-08	
41	2.050000e+00	2.726608e-08	
42	2.100000e+00	2.728224e-08	
43	2.150000e+00	2.729865e-08	
44	2.200000e+00	2.731536e-08	
45	2.250000e+00	2.733247e-08	
46	2.300000e+00	2.735007e-08	
47	2.350000e+00	2.736824e-08	
48	2.400000e+00	2.738713e-08	
49	2.450000e+00	2.740685e-08	
50	2.500000e+00	2.742757e-08	
51	2.550000e+00	2.744944e-08	
52	2.600000e+00	2.747266e-08	
53	2.650000e+00	2.749743e-08	
54	2.700000e+00	2.752397e-08	

Index   v-sweep         -i(vds)         
--------------------------------------------------------------------------------
55	2.750000e+00	2.755252e-08	
56	2.800000e+00	2.758335e-08	
57	2.850000e+00	2.761673e-08	
58	2.900000e+00	2.765297e-08	
59	2.950000e+00	2.769239e-08	
60	3.000000e+00	2.773532e-08	
61	3.050000e+00	2.778213e-08	
62	3.100000e+00	2.783318e-08	
63	3.150000e+00	2.788889e-08	
64	3.200000e+00	2.794966e-08	
65	3.250000e+00	2.801592e-08	
66	3.300000e+00	2.808813e-08	
67	0.000000e+00	-0.000000e+00	
68	5.000000e-02	1.259307e-07	
69	1.000000e-01	2.370112e-07	
70	1.500000e-01	3.332934e-07	
71	2.000000e-01	4.148309e-07	
72	2.500000e-01	4.816824e-07	
73	3.000000e-01	5.339205e-07	
74	3.500000e-01	5.716694e-07	
75	4.000000e-01	5.952949e-07	
76	4.500000e-01	6.064225e-07	
77	5.000000e-01	6.100031e-07	
78	5.500000e-01	6.111696e-07	
79	6.000000e-01	6.117290e-07	
80	6.500000e-01	6.120898e-07	
81	7.000000e-01	6.123636e-07	
82	7.500000e-01	6.125906e-07	
83	8.000000e-01	6.127890e-07	
84	8.500000e-01	6.129680e-07	
85	9.000000e-01	6.131332e-07	
86	9.500000e-01	6.132879e-07	
87	1.000000e+00	6.134345e-07	
88	1.050000e+00	6.135747e-07	
89	1.100000e+00	6.137094e-07	
90	1.150000e+00	6.138397e-07	
91	1.200000e+00	6.139662e-07	
92	1.250000e+00	6.140894e-07	
93	1.300000e+00	6.142098e-07	
94	1.350000e+00	6.143277e-07	
95	1.400000e+00	6.144435e-07	
96	1.450000e+00	6.145572e-07	
97	1.500000e+00	6.146692e-07	
98	1.550000e+00	6.147797e-07	
99	1.600000e+00	6.148887e-07	
100	1.650000e+00	6.149963e-07	
101	1.700000e+00	6.151028e-07	
102	1.750000e+00	6.152083e-07	
103	1.800000e+00	6.153127e-07	
104	1.850000e+00	6.154163e-07	
105	1.900000e+00	6.155191e-07	
106	1.950000e+00	6.156212e-07	
107	2.000000e+00	6.157228e-07	
108	2.050000e+00	6.158241e-07	
109	2.100000e+00	6.159253e-07	
110	2.150000e+00	6.160267e-07	
111	2.200000e+00	6.161286e-07	
112	2.250000e+00	6.162316e-07	

Index   v-sweep         -i(vds)         
--------------------------------------------------------------------------------
113	2.300000e+00	6.163361e-07	
114	2.350000e+00	6.164430e-07	
115	2.400000e+00	6.165531e-07	
116	2.450000e+00	6.166674e-07	
117	2.500000e+00	6.167873e-07	
118	2.550000e+00	6.169143e-07	
119	2.600000e+00	6.170501e-07	
120	2.650000e+00	6.171967e-07	
121	2.700000e+00	6.173567e-07	
122	2.750000e+00	6.175325e-07	
123	2.800000e+00	6.177274e-07	
124	2.850000e+00	6.179445e-07	
125	2.900000e+00	6.181878e-07	
126	2.950000e+00	6.184614e-07	
127	3.000000e+00	6.187698e-07	
128	3.050000e+00	6.191181e-07	
129	3.100000e+00	6.195116e-07	
130	3.150000e+00	6.199561e-07	
131	3.200000e+00	6.204580e-07	
132	3.250000e+00	6.210239e-07	
133	3.300000e+00	6.216609e-07	
134	0.000000e+00	-0.000000e+00	
135	5.000000e-02	2.268196e-07	
136	1.000000e-01	4.393917e-07	
137	1.500000e-01	6.377624e-07	
138	2.000000e-01	8.219779e-07	
139	2.500000e-01	9.920842e-07	
140	3.000000e-01	1.148127e-06	
141	3.500000e-01	1.290153e-06	
142	4.000000e-01	1.418208e-06	
143	4.500000e-01	1.532338e-06	
144	5.000000e-01	1.632592e-06	
145	5.500000e-01	1.719021e-06	
146	6.000000e-01	1.791681e-06	
147	6.500000e-01	1.850646e-06	
148	7.000000e-01	1.896038e-06	
149	7.500000e-01	1.928143e-06	
150	8.000000e-01	1.947847e-06	
151	8.500000e-01	1.957738e-06	
152	9.000000e-01	1.962130e-06	
153	9.500000e-01	1.964298e-06	
154	1.000000e+00	1.965603e-06	
155	1.050000e+00	1.966521e-06	
156	1.100000e+00	1.967235e-06	
157	1.150000e+00	1.967827e-06	
158	1.200000e+00	1.968338e-06	
159	1.250000e+00	1.968793e-06	
160	1.300000e+00	1.969207e-06	
161	1.350000e+00	1.969589e-06	
162	1.400000e+00	1.969946e-06	
163	1.450000e+00	1.970282e-06	
164	1.500000e+00	1.970602e-06	
165	1.550000e+00	1.970908e-06	
166	1.600000e+00	1.971201e-06	
167	1.650000e+00	1.971485e-06	
168	1.700000e+00	1.971759e-06	
169	1.750000e+00	1.972025e-06	
170	1.800000e+00	1.972284e-06	

Index   v-sweep         -i(vds)         
--------------------------------------------------------------------------------
171	1.850000e+00	1.972537e-06	
172	1.900000e+00	1.972785e-06	
173	1.950000e+00	1.973027e-06	
174	2.000000e+00	1.973265e-06	
175	2.050000e+00	1.973499e-06	
176	2.100000e+00	1.973728e-06	
177	2.150000e+00	1.973955e-06	
178	2.200000e+00	1.974178e-06	
179	2.250000e+00	1.974398e-06	
180	2.300000e+00	1.974617e-06	
181	2.350000e+00	1.974833e-06	
182	2.400000e+00	1.975047e-06	
183	2.450000e+00	1.975261e-06	
184	2.500000e+00	1.975475e-06	
185	2.550000e+00	1.975690e-06	
186	2.600000e+00	1.975907e-06	
187	2.650000e+00	1.976129e-06	
188	2.700000e+00	1.976356e-06	
189	2.750000e+00	1.976592e-06	
190	2.800000e+00	1.976840e-06	
191	2.850000e+00	1.977103e-06	
192	2.900000e+00	1.977386e-06	
193	2.950000e+00	1.977694e-06	
194	3.000000e+00	1.978034e-06	
195	3.050000e+00	1.978411e-06	
196	3.100000e+00	1.978835e-06	
197	3.150000e+00	1.979314e-06	
198	3.200000e+00	1.979859e-06	
199	3.250000e+00	1.980480e-06	
200	3.300000e+00	1.981192e-06	
201	0.000000e+00	-0.000000e+00	
202	5.000000e-02	3.119050e-07	
203	1.000000e-01	6.106915e-07	
204	1.500000e-01	8.963995e-07	
205	2.000000e-01	1.169069e-06	
206	2.500000e-01	1.428741e-06	
207	3.000000e-01	1.675453e-06	
208	3.500000e-01	1.909247e-06	
209	4.000000e-01	2.130161e-06	
210	4.500000e-01	2.338235e-06	
211	5.000000e-01	2.533507e-06	
212	5.500000e-01	2.716018e-06	
213	6.000000e-01	2.885806e-06	
214	6.500000e-01	3.042910e-06	
215	7.000000e-01	3.187369e-06	
216	7.500000e-01	3.319223e-06	
217	8.000000e-01	3.438511e-06	
218	8.500000e-01	3.545272e-06	
219	9.000000e-01	3.639551e-06	
220	9.500000e-01	3.721390e-06	
221	1.000000e+00	3.790845e-06	
222	1.050000e+00	3.847988e-06	
223	1.100000e+00	3.892945e-06	
224	1.150000e+00	3.926010e-06	
225	1.200000e+00	3.947985e-06	
226	1.250000e+00	3.960859e-06	
227	1.300000e+00	3.967843e-06	
228	1.350000e+00	3.971810e-06	

Index   v-sweep         -i(vds)         
--------------------------------------------------------------------------------
229	1.400000e+00	3.974344e-06	
230	1.450000e+00	3.976151e-06	
231	1.500000e+00	3.977549e-06	
232	1.550000e+00	3.978694e-06	
233	1.600000e+00	3.979671e-06	
234	1.650000e+00	3.980528e-06	
235	1.700000e+00	3.981297e-06	
236	1.750000e+00	3.981998e-06	
237	1.800000e+00	3.982645e-06	
238	1.850000e+00	3.983249e-06	
239	1.900000e+00	3.983818e-06	
240	1.950000e+00	3.984356e-06	
241	2.000000e+00	3.984869e-06	
242	2.050000e+00	3.985360e-06	
243	2.100000e+00	3.985832e-06	
244	2.150000e+00	3.986287e-06	
245	2.200000e+00	3.986728e-06	
246	2.250000e+00	3.987155e-06	
247	2.300000e+00	3.987570e-06	
248	2.350000e+00	3.987975e-06	
249	2.400000e+00	3.988370e-06	
250	2.450000e+00	3.988757e-06	
251	2.500000e+00	3.989136e-06	
252	2.550000e+00	3.989507e-06	
253	2.600000e+00	3.989872e-06	
254	2.650000e+00	3.990231e-06	
255	2.700000e+00	3.990585e-06	
256	2.750000e+00	3.990935e-06	
257	2.800000e+00	3.991282e-06	
258	2.850000e+00	3.991627e-06	
259	2.900000e+00	3.991972e-06	
260	2.950000e+00	3.992319e-06	
261	3.000000e+00	3.992670e-06	
262	3.050000e+00	3.993030e-06	
263	3.100000e+00	3.993401e-06	
264	3.150000e+00	3.993790e-06	
265	3.200000e+00	3.994202e-06	
266	3.250000e+00	3.994644e-06	
267	3.300000e+00	3.995127e-06	
268	0.000000e+00	-0.000000e+00	
269	5.000000e-02	3.788726e-07	
270	1.000000e-01	7.459582e-07	
271	1.500000e-01	1.101290e-06	
272	2.000000e-01	1.444903e-06	
273	2.500000e-01	1.776829e-06	
274	3.000000e-01	2.097103e-06	
275	3.500000e-01	2.405757e-06	
276	4.000000e-01	2.702824e-06	
277	4.500000e-01	2.988338e-06	
278	5.000000e-01	3.262331e-06	
279	5.500000e-01	3.524837e-06	
280	6.000000e-01	3.775887e-06	
281	6.500000e-01	4.015515e-06	
282	7.000000e-01	4.243752e-06	
283	7.500000e-01	4.460631e-06	
284	8.000000e-01	4.666185e-06	
285	8.500000e-01	4.860444e-06	
286	9.000000e-01	5.043442e-06	

Index   v-sweep         -i(vds)         
--------------------------------------------------------------------------------
287	9.500000e-01	5.215210e-06	
288	1.000000e+00	5.375780e-06	
289	1.050000e+00	5.525184e-06	
290	1.100000e+00	5.663453e-06	
291	1.150000e+00	5.790619e-06	
292	1.200000e+00	5.906715e-06	
293	1.250000e+00	6.011772e-06	
294	1.300000e+00	6.105823e-06	
295	1.350000e+00	6.188905e-06	
296	1.400000e+00	6.261056e-06	
297	1.450000e+00	6.322324e-06	
298	1.500000e+00	6.372787e-06	
299	1.550000e+00	6.412594e-06	
300	1.600000e+00	6.442113e-06	
301	1.650000e+00	6.462273e-06	
302	1.700000e+00	6.474972e-06	
303	1.750000e+00	6.482752e-06	
304	1.800000e+00	6.487739e-06	
305	1.850000e+00	6.491201e-06	
306	1.900000e+00	6.493792e-06	
307	1.950000e+00	6.495849e-06	
308	2.000000e+00	6.497556e-06	
309	2.050000e+00	6.499021e-06	
310	2.100000e+00	6.500308e-06	
311	2.150000e+00	6.501462e-06	
312	2.200000e+00	6.502512e-06	
313	2.250000e+00	6.503479e-06	
314	2.300000e+00	6.504378e-06	
315	2.350000e+00	6.505220e-06	
316	2.400000e+00	6.506015e-06	
317	2.450000e+00	6.506770e-06	
318	2.500000e+00	6.507490e-06	
319	2.550000e+00	6.508179e-06	
320	2.600000e+00	6.508842e-06	
321	2.650000e+00	6.509481e-06	
322	2.700000e+00	6.510098e-06	
323	2.750000e+00	6.510697e-06	
324	2.800000e+00	6.511279e-06	
325	2.850000e+00	6.511845e-06	
326	2.900000e+00	6.512397e-06	
327	2.950000e+00	6.512936e-06	
328	3.000000e+00	6.513464e-06	
329	3.050000e+00	6.513981e-06	
330	3.100000e+00	6.514490e-06	
331	3.150000e+00	6.514990e-06	
332	3.200000e+00	6.515484e-06	
333	3.250000e+00	6.515973e-06	
334	3.300000e+00	6.516461e-06	
335	0.000000e+00	-0.000000e+00	
336	5.000000e-02	4.281222e-07	
337	1.000000e-01	8.458371e-07	
338	1.500000e-01	1.253172e-06	
339	2.000000e-01	1.650155e-06	
340	2.500000e-01	2.036812e-06	
341	3.000000e-01	2.413172e-06	
342	3.500000e-01	2.779261e-06	
343	4.000000e-01	3.135107e-06	
344	4.500000e-01	3.480736e-06	

Index   v-sweep         -i(vds)         
--------------------------------------------------------------------------------
345	5.000000e-01	3.816175e-06	
346	5.500000e-01	4.141451e-06	
347	6.000000e-01	4.456591e-06	
348	6.500000e-01	4.761621e-06	
349	7.000000e-01	5.056568e-06	
350	7.500000e-01	5.341458e-06	
351	8.000000e-01	5.616317e-06	
352	8.500000e-01	5.881173e-06	
353	9.000000e-01	6.136050e-06	
354	9.500000e-01	6.380975e-06	
355	1.000000e+00	6.615974e-06	
356	1.050000e+00	6.841073e-06	
357	1.100000e+00	7.056297e-06	
358	1.150000e+00	7.261672e-06	
359	1.200000e+00	7.457224e-06	
360	1.250000e+00	7.642978e-06	
361	1.300000e+00	7.818960e-06	
362	1.350000e+00	7.985195e-06	
363	1.400000e+00	8.141708e-06	
364	1.450000e+00	8.288524e-06	
365	1.500000e+00	8.425668e-06	
366	1.550000e+00	8.553166e-06	
367	1.600000e+00	8.671042e-06	
368	1.650000e+00	8.779320e-06	
369	1.700000e+00	8.878026e-06	
370	1.750000e+00	8.967185e-06	
371	1.800000e+00	9.046821e-06	
372	1.850000e+00	9.116963e-06	
373	1.900000e+00	9.177643e-06	
374	1.950000e+00	9.228907e-06	
375	2.000000e+00	9.270845e-06	
376	2.050000e+00	9.303666e-06	
377	2.100000e+00	9.327901e-06	
378	2.150000e+00	9.344705e-06	
379	2.200000e+00	9.355906e-06	
380	2.250000e+00	9.363437e-06	
381	2.300000e+00	9.368744e-06	
382	2.350000e+00	9.372707e-06	
383	2.400000e+00	9.375824e-06	
384	2.450000e+00	9.378383e-06	
385	2.500000e+00	9.380552e-06	
386	2.550000e+00	9.382439e-06	
387	2.600000e+00	9.384113e-06	
388	2.650000e+00	9.385623e-06	
389	2.700000e+00	9.387001e-06	
390	2.750000e+00	9.388274e-06	
391	2.800000e+00	9.389458e-06	
392	2.850000e+00	9.390568e-06	
393	2.900000e+00	9.391616e-06	
394	2.950000e+00	9.392610e-06	
395	3.000000e+00	9.393557e-06	
396	3.050000e+00	9.394463e-06	
397	3.100000e+00	9.395332e-06	
398	3.150000e+00	9.396169e-06	
399	3.200000e+00	9.396978e-06	
400	3.250000e+00	9.397760e-06	
401	3.300000e+00	9.398519e-06	
Note: No ".plot", ".print", or ".fourier" lines; no simulations run
