
Note: Compatibility modes selected: hs

Warning: m=xx on .subckt line will override multiplier m hierarchy!


Circuit: ***************************

Doing analysis at TEMP = 125.000000 and TNOM = 125.000000


No. of Data Rows : 402
                          ***************************
                          DC transfer characteristic  Mon Jan  9 13:57:19  2023
--------------------------------------------------------------------------------
Index   v-sweep         -i(vds)         
--------------------------------------------------------------------------------
0	0.000000e+00	-0.000000e+00	
1	5.000000e-02	1.845575e-05	
2	1.000000e-01	3.293510e-05	
3	1.500000e-01	4.377996e-05	
4	2.000000e-01	5.137409e-05	
5	2.500000e-01	5.628445e-05	
6	3.000000e-01	5.933292e-05	
7	3.500000e-01	6.134191e-05	
8	4.000000e-01	6.283567e-05	
9	4.500000e-01	6.406813e-05	
10	5.000000e-01	6.515596e-05	
11	5.500000e-01	6.615627e-05	
12	6.000000e-01	6.709964e-05	
13	6.500000e-01	6.800387e-05	
14	7.000000e-01	6.888006e-05	
15	7.500000e-01	6.973553e-05	
16	8.000000e-01	7.057536e-05	
17	8.500000e-01	7.140317e-05	
18	9.000000e-01	7.222165e-05	
19	9.500000e-01	7.303283e-05	
20	1.000000e+00	7.383830e-05	
21	1.050000e+00	7.463930e-05	
22	1.100000e+00	7.543684e-05	
23	1.150000e+00	7.623172e-05	
24	1.200000e+00	7.702463e-05	
25	1.250000e+00	7.781613e-05	
26	1.300000e+00	7.860667e-05	
27	1.350000e+00	7.939668e-05	
28	1.400000e+00	8.018648e-05	
29	1.450000e+00	8.097637e-05	
30	1.500000e+00	8.176662e-05	
31	1.550000e+00	8.255744e-05	
32	1.600000e+00	8.334905e-05	
33	1.650000e+00	8.414161e-05	
34	1.700000e+00	8.493530e-05	
35	1.750000e+00	8.573029e-05	
36	1.800000e+00	8.652672e-05	
37	1.850000e+00	8.732476e-05	
38	1.900000e+00	8.812456e-05	
39	1.950000e+00	8.892631e-05	
40	2.000000e+00	8.973019e-05	
41	2.050000e+00	9.053642e-05	
42	2.100000e+00	9.134525e-05	
43	2.150000e+00	9.215696e-05	
44	2.200000e+00	9.297187e-05	
45	2.250000e+00	9.379037e-05	
46	2.300000e+00	9.461288e-05	
47	2.350000e+00	9.543991e-05	
48	2.400000e+00	9.627203e-05	
49	2.450000e+00	9.710991e-05	
50	2.500000e+00	9.795428e-05	
51	2.550000e+00	9.880601e-05	
52	2.600000e+00	9.966605e-05	
53	2.650000e+00	1.005355e-04	
54	2.700000e+00	1.014155e-04	

Index   v-sweep         -i(vds)         
--------------------------------------------------------------------------------
55	2.750000e+00	1.023074e-04	
56	2.800000e+00	1.032128e-04	
57	2.850000e+00	1.041333e-04	
58	2.900000e+00	1.050707e-04	
59	2.950000e+00	1.060270e-04	
60	3.000000e+00	1.070044e-04	
61	3.050000e+00	1.080053e-04	
62	3.100000e+00	1.090322e-04	
63	3.150000e+00	1.100881e-04	
64	3.200000e+00	1.111760e-04	
65	3.250000e+00	1.122991e-04	
66	3.300000e+00	1.134610e-04	
67	0.000000e+00	-0.000000e+00	
68	5.000000e-02	5.179300e-05	
69	1.000000e-01	9.838129e-05	
70	1.500000e-01	1.400826e-04	
71	2.000000e-01	1.771686e-04	
72	2.500000e-01	2.098857e-04	
73	3.000000e-01	2.384616e-04	
74	3.500000e-01	2.631081e-04	
75	4.000000e-01	2.840250e-04	
76	4.500000e-01	3.014104e-04	
77	5.000000e-01	3.154892e-04	
78	5.500000e-01	3.265704e-04	
79	6.000000e-01	3.351107e-04	
80	6.500000e-01	3.416893e-04	
81	7.000000e-01	3.468761e-04	
82	7.500000e-01	3.511181e-04	
83	8.000000e-01	3.547209e-04	
84	8.500000e-01	3.578819e-04	
85	9.000000e-01	3.607282e-04	
86	9.500000e-01	3.633432e-04	
87	1.000000e+00	3.657831e-04	
88	1.050000e+00	3.680871e-04	
89	1.100000e+00	3.702832e-04	
90	1.150000e+00	3.723920e-04	
91	1.200000e+00	3.744290e-04	
92	1.250000e+00	3.764062e-04	
93	1.300000e+00	3.783328e-04	
94	1.350000e+00	3.802163e-04	
95	1.400000e+00	3.820627e-04	
96	1.450000e+00	3.838767e-04	
97	1.500000e+00	3.856625e-04	
98	1.550000e+00	3.874235e-04	
99	1.600000e+00	3.891625e-04	
100	1.650000e+00	3.908818e-04	
101	1.700000e+00	3.925837e-04	
102	1.750000e+00	3.942698e-04	
103	1.800000e+00	3.959418e-04	
104	1.850000e+00	3.976010e-04	
105	1.900000e+00	3.992487e-04	
106	1.950000e+00	4.008859e-04	
107	2.000000e+00	4.025137e-04	
108	2.050000e+00	4.041330e-04	
109	2.100000e+00	4.057448e-04	
110	2.150000e+00	4.073499e-04	
111	2.200000e+00	4.089492e-04	
112	2.250000e+00	4.105437e-04	

Index   v-sweep         -i(vds)         
--------------------------------------------------------------------------------
113	2.300000e+00	4.121344e-04	
114	2.350000e+00	4.137224e-04	
115	2.400000e+00	4.153089e-04	
116	2.450000e+00	4.168952e-04	
117	2.500000e+00	4.184829e-04	
118	2.550000e+00	4.200737e-04	
119	2.600000e+00	4.216695e-04	
120	2.650000e+00	4.232726e-04	
121	2.700000e+00	4.248855e-04	
122	2.750000e+00	4.265110e-04	
123	2.800000e+00	4.281522e-04	
124	2.850000e+00	4.298128e-04	
125	2.900000e+00	4.314967e-04	
126	2.950000e+00	4.332084e-04	
127	3.000000e+00	4.349527e-04	
128	3.050000e+00	4.367350e-04	
129	3.100000e+00	4.385614e-04	
130	3.150000e+00	4.404383e-04	
131	3.200000e+00	4.423728e-04	
132	3.250000e+00	4.443728e-04	
133	3.300000e+00	4.464466e-04	
134	0.000000e+00	-0.000000e+00	
135	5.000000e-02	7.696392e-05	
136	1.000000e-01	1.484527e-04	
137	1.500000e-01	2.147593e-04	
138	2.000000e-01	2.761349e-04	
139	2.500000e-01	3.328086e-04	
140	3.000000e-01	3.849934e-04	
141	3.500000e-01	4.328878e-04	
142	4.000000e-01	4.766763e-04	
143	4.500000e-01	5.165291e-04	
144	5.000000e-01	5.526017e-04	
145	5.500000e-01	5.850326e-04	
146	6.000000e-01	6.139418e-04	
147	6.500000e-01	6.394285e-04	
148	7.000000e-01	6.615756e-04	
149	7.500000e-01	6.804712e-04	
150	8.000000e-01	6.962600e-04	
151	8.500000e-01	7.092121e-04	
152	9.000000e-01	7.197445e-04	
153	9.500000e-01	7.283533e-04	
154	1.000000e+00	7.355084e-04	
155	1.050000e+00	7.415902e-04	
156	1.100000e+00	7.468807e-04	
157	1.150000e+00	7.515807e-04	
158	1.200000e+00	7.558324e-04	
159	1.250000e+00	7.597367e-04	
160	1.300000e+00	7.633667e-04	
161	1.350000e+00	7.667763e-04	
162	1.400000e+00	7.700058e-04	
163	1.450000e+00	7.730860e-04	
164	1.500000e+00	7.760408e-04	
165	1.550000e+00	7.788893e-04	
166	1.600000e+00	7.816464e-04	
167	1.650000e+00	7.843245e-04	
168	1.700000e+00	7.869336e-04	
169	1.750000e+00	7.894820e-04	
170	1.800000e+00	7.919767e-04	

Index   v-sweep         -i(vds)         
--------------------------------------------------------------------------------
171	1.850000e+00	7.944236e-04	
172	1.900000e+00	7.968277e-04	
173	1.950000e+00	7.991934e-04	
174	2.000000e+00	8.015243e-04	
175	2.050000e+00	8.038237e-04	
176	2.100000e+00	8.060944e-04	
177	2.150000e+00	8.083391e-04	
178	2.200000e+00	8.105599e-04	
179	2.250000e+00	8.127591e-04	
180	2.300000e+00	8.149386e-04	
181	2.350000e+00	8.171002e-04	
182	2.400000e+00	8.192458e-04	
183	2.450000e+00	8.213773e-04	
184	2.500000e+00	8.234967e-04	
185	2.550000e+00	8.256060e-04	
186	2.600000e+00	8.277073e-04	
187	2.650000e+00	8.298033e-04	
188	2.700000e+00	8.318966e-04	
189	2.750000e+00	8.339902e-04	
190	2.800000e+00	8.360878e-04	
191	2.850000e+00	8.381931e-04	
192	2.900000e+00	8.403105e-04	
193	2.950000e+00	8.424452e-04	
194	3.000000e+00	8.446026e-04	
195	3.050000e+00	8.467890e-04	
196	3.100000e+00	8.490115e-04	
197	3.150000e+00	8.512778e-04	
198	3.200000e+00	8.535966e-04	
199	3.250000e+00	8.559775e-04	
200	3.300000e+00	8.584310e-04	
201	0.000000e+00	-0.000000e+00	
202	5.000000e-02	9.596477e-05	
203	1.000000e-01	1.864975e-04	
204	1.500000e-01	2.718592e-04	
205	2.000000e-01	3.522727e-04	
206	2.500000e-01	4.279426e-04	
207	3.000000e-01	4.990607e-04	
208	3.500000e-01	5.658076e-04	
209	4.000000e-01	6.283534e-04	
210	4.500000e-01	6.868581e-04	
211	5.000000e-01	7.414718e-04	
212	5.500000e-01	7.923343e-04	
213	6.000000e-01	8.395747e-04	
214	6.500000e-01	8.833103e-04	
215	7.000000e-01	9.236442e-04	
216	7.500000e-01	9.606630e-04	
217	8.000000e-01	9.944317e-04	
218	8.500000e-01	1.024990e-03	
219	9.000000e-01	1.052352e-03	
220	9.500000e-01	1.076515e-03	
221	1.000000e+00	1.097497e-03	
222	1.050000e+00	1.115395e-03	
223	1.100000e+00	1.130449e-03	
224	1.150000e+00	1.143035e-03	
225	1.200000e+00	1.153598e-03	
226	1.250000e+00	1.162569e-03	
227	1.300000e+00	1.170312e-03	
228	1.350000e+00	1.177110e-03	

Index   v-sweep         -i(vds)         
--------------------------------------------------------------------------------
229	1.400000e+00	1.183178e-03	
230	1.450000e+00	1.188673e-03	
231	1.500000e+00	1.193713e-03	
232	1.550000e+00	1.198388e-03	
233	1.600000e+00	1.202762e-03	
234	1.650000e+00	1.206889e-03	
235	1.700000e+00	1.210807e-03	
236	1.750000e+00	1.214549e-03	
237	1.800000e+00	1.218139e-03	
238	1.850000e+00	1.221599e-03	
239	1.900000e+00	1.224945e-03	
240	1.950000e+00	1.228191e-03	
241	2.000000e+00	1.231349e-03	
242	2.050000e+00	1.234429e-03	
243	2.100000e+00	1.237438e-03	
244	2.150000e+00	1.240384e-03	
245	2.200000e+00	1.243272e-03	
246	2.250000e+00	1.246110e-03	
247	2.300000e+00	1.248900e-03	
248	2.350000e+00	1.251648e-03	
249	2.400000e+00	1.254356e-03	
250	2.450000e+00	1.257029e-03	
251	2.500000e+00	1.259669e-03	
252	2.550000e+00	1.262280e-03	
253	2.600000e+00	1.264864e-03	
254	2.650000e+00	1.267424e-03	
255	2.700000e+00	1.269963e-03	
256	2.750000e+00	1.272484e-03	
257	2.800000e+00	1.274991e-03	
258	2.850000e+00	1.277487e-03	
259	2.900000e+00	1.279976e-03	
260	2.950000e+00	1.282463e-03	
261	3.000000e+00	1.284952e-03	
262	3.050000e+00	1.287449e-03	
263	3.100000e+00	1.289961e-03	
264	3.150000e+00	1.292495e-03	
265	3.200000e+00	1.295059e-03	
266	3.250000e+00	1.297662e-03	
267	3.300000e+00	1.300315e-03	
268	0.000000e+00	-0.000000e+00	
269	5.000000e-02	1.105192e-04	
270	1.000000e-01	2.157881e-04	
271	1.500000e-01	3.160366e-04	
272	2.000000e-01	4.114595e-04	
273	2.500000e-01	5.022360e-04	
274	3.000000e-01	5.885350e-04	
275	3.500000e-01	6.705171e-04	
276	4.000000e-01	7.483342e-04	
277	4.500000e-01	8.221311e-04	
278	5.000000e-01	8.920448e-04	
279	5.500000e-01	9.582053e-04	
280	6.000000e-01	1.020735e-03	
281	6.500000e-01	1.079750e-03	
282	7.000000e-01	1.135358e-03	
283	7.500000e-01	1.187658e-03	
284	8.000000e-01	1.236740e-03	
285	8.500000e-01	1.282684e-03	
286	9.000000e-01	1.325554e-03	

Index   v-sweep         -i(vds)         
--------------------------------------------------------------------------------
287	9.500000e-01	1.365398e-03	
288	1.000000e+00	1.402241e-03	
289	1.050000e+00	1.436082e-03	
290	1.100000e+00	1.466887e-03	
291	1.150000e+00	1.494605e-03	
292	1.200000e+00	1.519189e-03	
293	1.250000e+00	1.540651e-03	
294	1.300000e+00	1.559123e-03	
295	1.350000e+00	1.574875e-03	
296	1.400000e+00	1.588287e-03	
297	1.450000e+00	1.599769e-03	
298	1.500000e+00	1.609705e-03	
299	1.550000e+00	1.618416e-03	
300	1.600000e+00	1.626159e-03	
301	1.650000e+00	1.633132e-03	
302	1.700000e+00	1.639487e-03	
303	1.750000e+00	1.645341e-03	
304	1.800000e+00	1.650783e-03	
305	1.850000e+00	1.655882e-03	
306	1.900000e+00	1.660694e-03	
307	1.950000e+00	1.665260e-03	
308	2.000000e+00	1.669618e-03	
309	2.050000e+00	1.673794e-03	
310	2.100000e+00	1.677812e-03	
311	2.150000e+00	1.681692e-03	
312	2.200000e+00	1.685449e-03	
313	2.250000e+00	1.689098e-03	
314	2.300000e+00	1.692649e-03	
315	2.350000e+00	1.696112e-03	
316	2.400000e+00	1.699497e-03	
317	2.450000e+00	1.702810e-03	
318	2.500000e+00	1.706058e-03	
319	2.550000e+00	1.709247e-03	
320	2.600000e+00	1.712382e-03	
321	2.650000e+00	1.715467e-03	
322	2.700000e+00	1.718507e-03	
323	2.750000e+00	1.721506e-03	
324	2.800000e+00	1.724468e-03	
325	2.850000e+00	1.727396e-03	
326	2.900000e+00	1.730295e-03	
327	2.950000e+00	1.733169e-03	
328	3.000000e+00	1.736021e-03	
329	3.050000e+00	1.738858e-03	
330	3.100000e+00	1.741684e-03	
331	3.150000e+00	1.744505e-03	
332	3.200000e+00	1.747327e-03	
333	3.250000e+00	1.750159e-03	
334	3.300000e+00	1.753009e-03	
335	0.000000e+00	-0.000000e+00	
336	5.000000e-02	1.217966e-04	
337	1.000000e-01	2.385859e-04	
338	1.500000e-01	3.505704e-04	
339	2.000000e-01	4.579194e-04	
340	2.500000e-01	5.607887e-04	
341	3.000000e-01	6.593261e-04	
342	3.500000e-01	7.536725e-04	
343	4.000000e-01	8.439621e-04	
344	4.500000e-01	9.303236e-04	

Index   v-sweep         -i(vds)         
--------------------------------------------------------------------------------
345	5.000000e-01	1.012880e-03	
346	5.500000e-01	1.091747e-03	
347	6.000000e-01	1.167039e-03	
348	6.500000e-01	1.238860e-03	
349	7.000000e-01	1.307313e-03	
350	7.500000e-01	1.372494e-03	
351	8.000000e-01	1.434492e-03	
352	8.500000e-01	1.493393e-03	
353	9.000000e-01	1.549274e-03	
354	9.500000e-01	1.602207e-03	
355	1.000000e+00	1.652252e-03	
356	1.050000e+00	1.699461e-03	
357	1.100000e+00	1.743870e-03	
358	1.150000e+00	1.785497e-03	
359	1.200000e+00	1.824337e-03	
360	1.250000e+00	1.860358e-03	
361	1.300000e+00	1.893496e-03	
362	1.350000e+00	1.923666e-03	
363	1.400000e+00	1.950787e-03	
364	1.450000e+00	1.974824e-03	
365	1.500000e+00	1.995845e-03	
366	1.550000e+00	2.014050e-03	
367	1.600000e+00	2.029753e-03	
368	1.650000e+00	2.043327e-03	
369	1.700000e+00	2.055141e-03	
370	1.750000e+00	2.065528e-03	
371	1.800000e+00	2.074764e-03	
372	1.850000e+00	2.083071e-03	
373	1.900000e+00	2.090623e-03	
374	1.950000e+00	2.097557e-03	
375	2.000000e+00	2.103979e-03	
376	2.050000e+00	2.109975e-03	
377	2.100000e+00	2.115610e-03	
378	2.150000e+00	2.120938e-03	
379	2.200000e+00	2.126003e-03	
380	2.250000e+00	2.130840e-03	
381	2.300000e+00	2.135477e-03	
382	2.350000e+00	2.139940e-03	
383	2.400000e+00	2.144247e-03	
384	2.450000e+00	2.148417e-03	
385	2.500000e+00	2.152464e-03	
386	2.550000e+00	2.156401e-03	
387	2.600000e+00	2.160237e-03	
388	2.650000e+00	2.163983e-03	
389	2.700000e+00	2.167647e-03	
390	2.750000e+00	2.171236e-03	
391	2.800000e+00	2.174756e-03	
392	2.850000e+00	2.178213e-03	
393	2.900000e+00	2.181613e-03	
394	2.950000e+00	2.184961e-03	
395	3.000000e+00	2.188262e-03	
396	3.050000e+00	2.191520e-03	
397	3.100000e+00	2.194741e-03	
398	3.150000e+00	2.197929e-03	
399	3.200000e+00	2.201091e-03	
400	3.250000e+00	2.204231e-03	
401	3.300000e+00	2.207358e-03	
Note: No ".plot", ".print", or ".fourier" lines; no simulations run
