
Note: Compatibility modes selected: hs

Warning: m=xx on .subckt line will override multiplier m hierarchy!


Circuit: ***************************

Doing analysis at TEMP = 125.000000 and TNOM = 125.000000


No. of Data Rows : 402
                          ***************************
                          DC transfer characteristic  Mon Jan  9 13:57:19  2023
--------------------------------------------------------------------------------
Index   v-sweep         -i(vds)         
--------------------------------------------------------------------------------
0	0.000000e+00	-0.000000e+00	
1	5.000000e-02	5.884516e-08	
2	1.000000e-01	1.041407e-07	
3	1.500000e-01	1.374146e-07	
4	2.000000e-01	1.591450e-07	
5	2.500000e-01	1.700145e-07	
6	3.000000e-01	1.731854e-07	
7	3.500000e-01	1.739057e-07	
8	4.000000e-01	1.741964e-07	
9	4.500000e-01	1.743812e-07	
10	5.000000e-01	1.745246e-07	
11	5.500000e-01	1.746463e-07	
12	6.000000e-01	1.747546e-07	
13	6.500000e-01	1.748538e-07	
14	7.000000e-01	1.749463e-07	
15	7.500000e-01	1.750337e-07	
16	8.000000e-01	1.751170e-07	
17	8.500000e-01	1.751970e-07	
18	9.000000e-01	1.752742e-07	
19	9.500000e-01	1.753491e-07	
20	1.000000e+00	1.754220e-07	
21	1.050000e+00	1.754932e-07	
22	1.100000e+00	1.755628e-07	
23	1.150000e+00	1.756311e-07	
24	1.200000e+00	1.756982e-07	
25	1.250000e+00	1.757642e-07	
26	1.300000e+00	1.758292e-07	
27	1.350000e+00	1.758934e-07	
28	1.400000e+00	1.759567e-07	
29	1.450000e+00	1.760194e-07	
30	1.500000e+00	1.760813e-07	
31	1.550000e+00	1.761427e-07	
32	1.600000e+00	1.762035e-07	
33	1.650000e+00	1.762638e-07	
34	1.700000e+00	1.763236e-07	
35	1.750000e+00	1.763831e-07	
36	1.800000e+00	1.764423e-07	
37	1.850000e+00	1.765013e-07	
38	1.900000e+00	1.765602e-07	
39	1.950000e+00	1.766192e-07	
40	2.000000e+00	1.766786e-07	
41	2.050000e+00	1.767384e-07	
42	2.100000e+00	1.767991e-07	
43	2.150000e+00	1.768611e-07	
44	2.200000e+00	1.769249e-07	
45	2.250000e+00	1.769910e-07	
46	2.300000e+00	1.770601e-07	
47	2.350000e+00	1.771332e-07	
48	2.400000e+00	1.772111e-07	
49	2.450000e+00	1.772949e-07	
50	2.500000e+00	1.773860e-07	
51	2.550000e+00	1.774859e-07	
52	2.600000e+00	1.775961e-07	
53	2.650000e+00	1.777185e-07	
54	2.700000e+00	1.778552e-07	

Index   v-sweep         -i(vds)         
--------------------------------------------------------------------------------
55	2.750000e+00	1.780084e-07	
56	2.800000e+00	1.781806e-07	
57	2.850000e+00	1.783745e-07	
58	2.900000e+00	1.785929e-07	
59	2.950000e+00	1.788391e-07	
60	3.000000e+00	1.791164e-07	
61	3.050000e+00	1.794283e-07	
62	3.100000e+00	1.797787e-07	
63	3.150000e+00	1.801716e-07	
64	3.200000e+00	1.806113e-07	
65	3.250000e+00	1.811022e-07	
66	3.300000e+00	1.816491e-07	
67	0.000000e+00	-0.000000e+00	
68	5.000000e-02	1.546399e-07	
69	1.000000e-01	2.949550e-07	
70	1.500000e-01	4.224539e-07	
71	2.000000e-01	5.375285e-07	
72	2.500000e-01	6.403068e-07	
73	3.000000e-01	7.308556e-07	
74	3.500000e-01	8.092286e-07	
75	4.000000e-01	8.754797e-07	
76	4.500000e-01	9.296721e-07	
77	5.000000e-01	9.718966e-07	
78	5.500000e-01	1.002338e-06	
79	6.000000e-01	1.021539e-06	
80	6.500000e-01	1.031297e-06	
81	7.000000e-01	1.035409e-06	
82	7.500000e-01	1.037312e-06	
83	8.000000e-01	1.038444e-06	
84	8.500000e-01	1.039253e-06	
85	9.000000e-01	1.039895e-06	
86	9.500000e-01	1.040436e-06	
87	1.000000e+00	1.040911e-06	
88	1.050000e+00	1.041337e-06	
89	1.100000e+00	1.041727e-06	
90	1.150000e+00	1.042088e-06	
91	1.200000e+00	1.042426e-06	
92	1.250000e+00	1.042746e-06	
93	1.300000e+00	1.043050e-06	
94	1.350000e+00	1.043340e-06	
95	1.400000e+00	1.043619e-06	
96	1.450000e+00	1.043887e-06	
97	1.500000e+00	1.044147e-06	
98	1.550000e+00	1.044399e-06	
99	1.600000e+00	1.044644e-06	
100	1.650000e+00	1.044882e-06	
101	1.700000e+00	1.045115e-06	
102	1.750000e+00	1.045343e-06	
103	1.800000e+00	1.045566e-06	
104	1.850000e+00	1.045784e-06	
105	1.900000e+00	1.045999e-06	
106	1.950000e+00	1.046210e-06	
107	2.000000e+00	1.046418e-06	
108	2.050000e+00	1.046623e-06	
109	2.100000e+00	1.046826e-06	
110	2.150000e+00	1.047026e-06	
111	2.200000e+00	1.047225e-06	
112	2.250000e+00	1.047423e-06	

Index   v-sweep         -i(vds)         
--------------------------------------------------------------------------------
113	2.300000e+00	1.047621e-06	
114	2.350000e+00	1.047820e-06	
115	2.400000e+00	1.048021e-06	
116	2.450000e+00	1.048227e-06	
117	2.500000e+00	1.048439e-06	
118	2.550000e+00	1.048660e-06	
119	2.600000e+00	1.048894e-06	
120	2.650000e+00	1.049143e-06	
121	2.700000e+00	1.049413e-06	
122	2.750000e+00	1.049709e-06	
123	2.800000e+00	1.050038e-06	
124	2.850000e+00	1.050406e-06	
125	2.900000e+00	1.050822e-06	
126	2.950000e+00	1.051295e-06	
127	3.000000e+00	1.051836e-06	
128	3.050000e+00	1.052456e-06	
129	3.100000e+00	1.053168e-06	
130	3.150000e+00	1.053987e-06	
131	3.200000e+00	1.054927e-06	
132	3.250000e+00	1.056005e-06	
133	3.300000e+00	1.057240e-06	
134	0.000000e+00	-0.000000e+00	
135	5.000000e-02	2.421935e-07	
136	1.000000e-01	4.705386e-07	
137	1.500000e-01	6.865398e-07	
138	2.000000e-01	8.905848e-07	
139	2.500000e-01	1.082797e-06	
140	3.000000e-01	1.263238e-06	
141	3.500000e-01	1.431954e-06	
142	4.000000e-01	1.588988e-06	
143	4.500000e-01	1.734381e-06	
144	5.000000e-01	1.868176e-06	
145	5.500000e-01	1.990413e-06	
146	6.000000e-01	2.101136e-06	
147	6.500000e-01	2.200387e-06	
148	7.000000e-01	2.288210e-06	
149	7.500000e-01	2.364655e-06	
150	8.000000e-01	2.429775e-06	
151	8.500000e-01	2.483643e-06	
152	9.000000e-01	2.526375e-06	
153	9.500000e-01	2.558212e-06	
154	1.000000e+00	2.579776e-06	
155	1.050000e+00	2.592648e-06	
156	1.100000e+00	2.599676e-06	
157	1.150000e+00	2.603686e-06	
158	1.200000e+00	2.606294e-06	
159	1.250000e+00	2.608203e-06	
160	1.300000e+00	2.609717e-06	
161	1.350000e+00	2.610982e-06	
162	1.400000e+00	2.612077e-06	
163	1.450000e+00	2.613050e-06	
164	1.500000e+00	2.613929e-06	
165	1.550000e+00	2.614735e-06	
166	1.600000e+00	2.615482e-06	
167	1.650000e+00	2.616180e-06	
168	1.700000e+00	2.616838e-06	
169	1.750000e+00	2.617462e-06	
170	1.800000e+00	2.618055e-06	

Index   v-sweep         -i(vds)         
--------------------------------------------------------------------------------
171	1.850000e+00	2.618623e-06	
172	1.900000e+00	2.619168e-06	
173	1.950000e+00	2.619693e-06	
174	2.000000e+00	2.620200e-06	
175	2.050000e+00	2.620691e-06	
176	2.100000e+00	2.621167e-06	
177	2.150000e+00	2.621630e-06	
178	2.200000e+00	2.622081e-06	
179	2.250000e+00	2.622521e-06	
180	2.300000e+00	2.622951e-06	
181	2.350000e+00	2.623372e-06	
182	2.400000e+00	2.623785e-06	
183	2.450000e+00	2.624191e-06	
184	2.500000e+00	2.624590e-06	
185	2.550000e+00	2.624983e-06	
186	2.600000e+00	2.625373e-06	
187	2.650000e+00	2.625761e-06	
188	2.700000e+00	2.626148e-06	
189	2.750000e+00	2.626538e-06	
190	2.800000e+00	2.626934e-06	
191	2.850000e+00	2.627341e-06	
192	2.900000e+00	2.627763e-06	
193	2.950000e+00	2.628208e-06	
194	3.000000e+00	2.628684e-06	
195	3.050000e+00	2.629199e-06	
196	3.100000e+00	2.629767e-06	
197	3.150000e+00	2.630400e-06	
198	3.200000e+00	2.631113e-06	
199	3.250000e+00	2.631926e-06	
200	3.300000e+00	2.632859e-06	
201	0.000000e+00	-0.000000e+00	
202	5.000000e-02	3.188883e-07	
203	1.000000e-01	6.247014e-07	
204	1.500000e-01	9.189394e-07	
205	2.000000e-01	1.201985e-06	
206	2.500000e-01	1.473959e-06	
207	3.000000e-01	1.734916e-06	
208	3.500000e-01	1.984899e-06	
209	4.000000e-01	2.223945e-06	
210	4.500000e-01	2.452093e-06	
211	5.000000e-01	2.669378e-06	
212	5.500000e-01	2.875838e-06	
213	6.000000e-01	3.071509e-06	
214	6.500000e-01	3.256427e-06	
215	7.000000e-01	3.430629e-06	
216	7.500000e-01	3.594150e-06	
217	8.000000e-01	3.747028e-06	
218	8.500000e-01	3.889297e-06	
219	9.000000e-01	4.020995e-06	
220	9.500000e-01	4.142157e-06	
221	1.000000e+00	4.252821e-06	
222	1.050000e+00	4.353024e-06	
223	1.100000e+00	4.442805e-06	
224	1.150000e+00	4.522206e-06	
225	1.200000e+00	4.591276e-06	
226	1.250000e+00	4.650075e-06	
227	1.300000e+00	4.698692e-06	
228	1.350000e+00	4.737294e-06	

Index   v-sweep         -i(vds)         
--------------------------------------------------------------------------------
229	1.400000e+00	4.766238e-06	
230	1.450000e+00	4.786364e-06	
231	1.500000e+00	4.799360e-06	
232	1.550000e+00	4.807565e-06	
233	1.600000e+00	4.813012e-06	
234	1.650000e+00	4.816933e-06	
235	1.700000e+00	4.819968e-06	
236	1.750000e+00	4.822445e-06	
237	1.800000e+00	4.824545e-06	
238	1.850000e+00	4.826378e-06	
239	1.900000e+00	4.828009e-06	
240	1.950000e+00	4.829484e-06	
241	2.000000e+00	4.830836e-06	
242	2.050000e+00	4.832087e-06	
243	2.100000e+00	4.833254e-06	
244	2.150000e+00	4.834350e-06	
245	2.200000e+00	4.835385e-06	
246	2.250000e+00	4.836369e-06	
247	2.300000e+00	4.837306e-06	
248	2.350000e+00	4.838203e-06	
249	2.400000e+00	4.839064e-06	
250	2.450000e+00	4.839894e-06	
251	2.500000e+00	4.840695e-06	
252	2.550000e+00	4.841469e-06	
253	2.600000e+00	4.842221e-06	
254	2.650000e+00	4.842950e-06	
255	2.700000e+00	4.843660e-06	
256	2.750000e+00	4.844353e-06	
257	2.800000e+00	4.845029e-06	
258	2.850000e+00	4.845690e-06	
259	2.900000e+00	4.846338e-06	
260	2.950000e+00	4.846976e-06	
261	3.000000e+00	4.847604e-06	
262	3.050000e+00	4.848227e-06	
263	3.100000e+00	4.848846e-06	
264	3.150000e+00	4.849468e-06	
265	3.200000e+00	4.850097e-06	
266	3.250000e+00	4.850741e-06	
267	3.300000e+00	4.851408e-06	
268	0.000000e+00	-0.000000e+00	
269	5.000000e-02	3.840554e-07	
270	1.000000e-01	7.559213e-07	
271	1.500000e-01	1.117093e-06	
272	2.000000e-01	1.467949e-06	
273	2.500000e-01	1.808605e-06	
274	3.000000e-01	2.139111e-06	
275	3.500000e-01	2.459505e-06	
276	4.000000e-01	2.769821e-06	
277	4.500000e-01	3.070091e-06	
278	5.000000e-01	3.360349e-06	
279	5.500000e-01	3.640624e-06	
280	6.000000e-01	3.910951e-06	
281	6.500000e-01	4.171360e-06	
282	7.000000e-01	4.421883e-06	
283	7.500000e-01	4.662552e-06	
284	8.000000e-01	4.893398e-06	
285	8.500000e-01	5.114453e-06	
286	9.000000e-01	5.325747e-06	

Index   v-sweep         -i(vds)         
--------------------------------------------------------------------------------
287	9.500000e-01	5.527313e-06	
288	1.000000e+00	5.719180e-06	
289	1.050000e+00	5.901379e-06	
290	1.100000e+00	6.073943e-06	
291	1.150000e+00	6.236900e-06	
292	1.200000e+00	6.390282e-06	
293	1.250000e+00	6.534120e-06	
294	1.300000e+00	6.668444e-06	
295	1.350000e+00	6.793284e-06	
296	1.400000e+00	6.908673e-06	
297	1.450000e+00	7.014640e-06	
298	1.500000e+00	7.111219e-06	
299	1.550000e+00	7.198442e-06	
300	1.600000e+00	7.276345e-06	
301	1.650000e+00	7.344971e-06	
302	1.700000e+00	7.404369e-06	
303	1.750000e+00	7.454615e-06	
304	1.800000e+00	7.495839e-06	
305	1.850000e+00	7.528306e-06	
306	1.900000e+00	7.552594e-06	
307	1.950000e+00	7.569844e-06	
308	2.000000e+00	7.581775e-06	
309	2.050000e+00	7.590174e-06	
310	2.100000e+00	7.596379e-06	
311	2.150000e+00	7.601214e-06	
312	2.200000e+00	7.605154e-06	
313	2.250000e+00	7.608479e-06	
314	2.300000e+00	7.611361e-06	
315	2.350000e+00	7.613912e-06	
316	2.400000e+00	7.616205e-06	
317	2.450000e+00	7.618293e-06	
318	2.500000e+00	7.620214e-06	
319	2.550000e+00	7.621998e-06	
320	2.600000e+00	7.623665e-06	
321	2.650000e+00	7.625233e-06	
322	2.700000e+00	7.626715e-06	
323	2.750000e+00	7.628123e-06	
324	2.800000e+00	7.629464e-06	
325	2.850000e+00	7.630748e-06	
326	2.900000e+00	7.631980e-06	
327	2.950000e+00	7.633165e-06	
328	3.000000e+00	7.634308e-06	
329	3.050000e+00	7.635413e-06	
330	3.100000e+00	7.636483e-06	
331	3.150000e+00	7.637522e-06	
332	3.200000e+00	7.638531e-06	
333	3.250000e+00	7.639515e-06	
334	3.300000e+00	7.640474e-06	
335	0.000000e+00	-0.000000e+00	
336	5.000000e-02	4.378903e-07	
337	1.000000e-01	8.645120e-07	
338	1.500000e-01	1.281356e-06	
339	2.000000e-01	1.688796e-06	
340	2.500000e-01	2.086943e-06	
341	3.000000e-01	2.475843e-06	
342	3.500000e-01	2.855530e-06	
343	4.000000e-01	3.226032e-06	
344	4.500000e-01	3.587378e-06	

Index   v-sweep         -i(vds)         
--------------------------------------------------------------------------------
345	5.000000e-01	3.939596e-06	
346	5.500000e-01	4.282714e-06	
347	6.000000e-01	4.616758e-06	
348	6.500000e-01	4.941758e-06	
349	7.000000e-01	5.257739e-06	
350	7.500000e-01	5.564729e-06	
351	8.000000e-01	5.862756e-06	
352	8.500000e-01	6.151846e-06	
353	9.000000e-01	6.432026e-06	
354	9.500000e-01	6.703324e-06	
355	1.000000e+00	6.965766e-06	
356	1.050000e+00	7.219378e-06	
357	1.100000e+00	7.464188e-06	
358	1.150000e+00	7.700221e-06	
359	1.200000e+00	7.927504e-06	
360	1.250000e+00	8.146064e-06	
361	1.300000e+00	8.355925e-06	
362	1.350000e+00	8.557115e-06	
363	1.400000e+00	8.749659e-06	
364	1.450000e+00	8.933584e-06	
365	1.500000e+00	9.108914e-06	
366	1.550000e+00	9.275676e-06	
367	1.600000e+00	9.433895e-06	
368	1.650000e+00	9.583596e-06	
369	1.700000e+00	9.724806e-06	
370	1.750000e+00	9.857550e-06	
371	1.800000e+00	9.981853e-06	
372	1.850000e+00	1.009774e-05	
373	1.900000e+00	1.020524e-05	
374	1.950000e+00	1.030437e-05	
375	2.000000e+00	1.039517e-05	
376	2.050000e+00	1.047766e-05	
377	2.100000e+00	1.055186e-05	
378	2.150000e+00	1.061782e-05	
379	2.200000e+00	1.067557e-05	
380	2.250000e+00	1.072518e-05	
381	2.300000e+00	1.076675e-05	
382	2.350000e+00	1.080049e-05	
383	2.400000e+00	1.082685e-05	
384	2.450000e+00	1.084669e-05	
385	2.500000e+00	1.086132e-05	
386	2.550000e+00	1.087219e-05	
387	2.600000e+00	1.088052e-05	
388	2.650000e+00	1.088714e-05	
389	2.700000e+00	1.089259e-05	
390	2.750000e+00	1.089721e-05	
391	2.800000e+00	1.090122e-05	
392	2.850000e+00	1.090477e-05	
393	2.900000e+00	1.090796e-05	
394	2.950000e+00	1.091087e-05	
395	3.000000e+00	1.091353e-05	
396	3.050000e+00	1.091600e-05	
397	3.100000e+00	1.091830e-05	
398	3.150000e+00	1.092046e-05	
399	3.200000e+00	1.092250e-05	
400	3.250000e+00	1.092443e-05	
401	3.300000e+00	1.092627e-05	
Note: No ".plot", ".print", or ".fourier" lines; no simulations run
