
Note: Compatibility modes selected: hs

Warning: m=xx on .subckt line will override multiplier m hierarchy!


Circuit: ***************************

Doing analysis at TEMP = -40.000000 and TNOM = -40.000000


No. of Data Rows : 402
                          ***************************
                          DC transfer characteristic  Mon Jan  9 13:57:17  2023
--------------------------------------------------------------------------------
Index   v-sweep         -i(vds)         
--------------------------------------------------------------------------------
0	0.000000e+00	-0.000000e+00	
1	5.000000e-02	2.665602e-06	
2	1.000000e-01	3.479060e-06	
3	1.500000e-01	3.599360e-06	
4	2.000000e-01	3.634677e-06	
5	2.500000e-01	3.655811e-06	
6	3.000000e-01	3.672255e-06	
7	3.500000e-01	3.686472e-06	
8	4.000000e-01	3.699403e-06	
9	4.500000e-01	3.711498e-06	
10	5.000000e-01	3.723005e-06	
11	5.500000e-01	3.734076e-06	
12	6.000000e-01	3.744810e-06	
13	6.500000e-01	3.755277e-06	
14	7.000000e-01	3.765525e-06	
15	7.500000e-01	3.775592e-06	
16	8.000000e-01	3.785506e-06	
17	8.500000e-01	3.795289e-06	
18	9.000000e-01	3.804959e-06	
19	9.500000e-01	3.814530e-06	
20	1.000000e+00	3.824014e-06	
21	1.050000e+00	3.833421e-06	
22	1.100000e+00	3.842759e-06	
23	1.150000e+00	3.852034e-06	
24	1.200000e+00	3.861254e-06	
25	1.250000e+00	3.870422e-06	
26	1.300000e+00	3.879545e-06	
27	1.350000e+00	3.888625e-06	
28	1.400000e+00	3.897667e-06	
29	1.450000e+00	3.906673e-06	
30	1.500000e+00	3.915648e-06	
31	1.550000e+00	3.924595e-06	
32	1.600000e+00	3.933516e-06	
33	1.650000e+00	3.942416e-06	
34	1.700000e+00	3.951297e-06	
35	1.750000e+00	3.960166e-06	
36	1.800000e+00	3.969025e-06	
37	1.850000e+00	3.977883e-06	
38	1.900000e+00	3.986744e-06	
39	1.950000e+00	3.995616e-06	
40	2.000000e+00	4.004510e-06	
41	2.050000e+00	4.013435e-06	
42	2.100000e+00	4.022402e-06	
43	2.150000e+00	4.031427e-06	
44	2.200000e+00	4.040523e-06	
45	2.250000e+00	4.049709e-06	
46	2.300000e+00	4.059004e-06	
47	2.350000e+00	4.068430e-06	
48	2.400000e+00	4.078010e-06	
49	2.450000e+00	4.087771e-06	
50	2.500000e+00	4.097743e-06	
51	2.550000e+00	4.107956e-06	
52	2.600000e+00	4.118444e-06	
53	2.650000e+00	4.129246e-06	
54	2.700000e+00	4.140399e-06	

Index   v-sweep         -i(vds)         
--------------------------------------------------------------------------------
55	2.750000e+00	4.151948e-06	
56	2.800000e+00	4.163938e-06	
57	2.850000e+00	4.176417e-06	
58	2.900000e+00	4.189436e-06	
59	2.950000e+00	4.203051e-06	
60	3.000000e+00	4.217318e-06	
61	3.050000e+00	4.232298e-06	
62	3.100000e+00	4.248054e-06	
63	3.150000e+00	4.264653e-06	
64	3.200000e+00	4.282165e-06	
65	3.250000e+00	4.300661e-06	
66	3.300000e+00	4.320218e-06	
67	0.000000e+00	-0.000000e+00	
68	5.000000e-02	2.803296e-05	
69	1.000000e-01	5.257372e-05	
70	1.500000e-01	7.374103e-05	
71	2.000000e-01	9.164821e-05	
72	2.500000e-01	1.064035e-04	
73	3.000000e-01	1.181109e-04	
74	3.500000e-01	1.268766e-04	
75	4.000000e-01	1.328448e-04	
76	4.500000e-01	1.363610e-04	
77	5.000000e-01	1.381910e-04	
78	5.500000e-01	1.391750e-04	
79	6.000000e-01	1.397830e-04	
80	6.500000e-01	1.402100e-04	
81	7.000000e-01	1.405381e-04	
82	7.500000e-01	1.408061e-04	
83	8.000000e-01	1.410344e-04	
84	8.500000e-01	1.412348e-04	
85	9.000000e-01	1.414148e-04	
86	9.500000e-01	1.415790e-04	
87	1.000000e+00	1.417310e-04	
88	1.050000e+00	1.418730e-04	
89	1.100000e+00	1.420069e-04	
90	1.150000e+00	1.421340e-04	
91	1.200000e+00	1.422553e-04	
92	1.250000e+00	1.423717e-04	
93	1.300000e+00	1.424838e-04	
94	1.350000e+00	1.425922e-04	
95	1.400000e+00	1.426972e-04	
96	1.450000e+00	1.427994e-04	
97	1.500000e+00	1.428989e-04	
98	1.550000e+00	1.429960e-04	
99	1.600000e+00	1.430910e-04	
100	1.650000e+00	1.431841e-04	
101	1.700000e+00	1.432754e-04	
102	1.750000e+00	1.433652e-04	
103	1.800000e+00	1.434535e-04	
104	1.850000e+00	1.435404e-04	
105	1.900000e+00	1.436262e-04	
106	1.950000e+00	1.437109e-04	
107	2.000000e+00	1.437948e-04	
108	2.050000e+00	1.438778e-04	
109	2.100000e+00	1.439603e-04	
110	2.150000e+00	1.440423e-04	
111	2.200000e+00	1.441241e-04	
112	2.250000e+00	1.442059e-04	

Index   v-sweep         -i(vds)         
--------------------------------------------------------------------------------
113	2.300000e+00	1.442881e-04	
114	2.350000e+00	1.443709e-04	
115	2.400000e+00	1.444546e-04	
116	2.450000e+00	1.445398e-04	
117	2.500000e+00	1.446269e-04	
118	2.550000e+00	1.447164e-04	
119	2.600000e+00	1.448089e-04	
120	2.650000e+00	1.449051e-04	
121	2.700000e+00	1.450058e-04	
122	2.750000e+00	1.451118e-04	
123	2.800000e+00	1.452239e-04	
124	2.850000e+00	1.453432e-04	
125	2.900000e+00	1.454707e-04	
126	2.950000e+00	1.456076e-04	
127	3.000000e+00	1.457552e-04	
128	3.050000e+00	1.459148e-04	
129	3.100000e+00	1.460877e-04	
130	3.150000e+00	1.462757e-04	
131	3.200000e+00	1.464802e-04	
132	3.250000e+00	1.467029e-04	
133	3.300000e+00	1.469458e-04	
134	0.000000e+00	-0.000000e+00	
135	5.000000e-02	4.886842e-05	
136	1.000000e-01	9.419373e-05	
137	1.500000e-01	1.360817e-04	
138	2.000000e-01	1.746339e-04	
139	2.500000e-01	2.099474e-04	
140	3.000000e-01	2.421155e-04	
141	3.500000e-01	2.712270e-04	
142	4.000000e-01	2.973664e-04	
143	4.500000e-01	3.206132e-04	
144	5.000000e-01	3.410408e-04	
145	5.500000e-01	3.587136e-04	
146	6.000000e-01	3.736825e-04	
147	6.500000e-01	3.859776e-04	
148	7.000000e-01	3.956078e-04	
149	7.500000e-01	4.026224e-04	
150	8.000000e-01	4.073101e-04	
151	8.500000e-01	4.102985e-04	
152	9.000000e-01	4.122525e-04	
153	9.500000e-01	4.136163e-04	
154	1.000000e+00	4.146340e-04	
155	1.050000e+00	4.154362e-04	
156	1.100000e+00	4.160960e-04	
157	1.150000e+00	4.166565e-04	
158	1.200000e+00	4.171446e-04	
159	1.250000e+00	4.175782e-04	
160	1.300000e+00	4.179694e-04	
161	1.350000e+00	4.183268e-04	
162	1.400000e+00	4.186568e-04	
163	1.450000e+00	4.189641e-04	
164	1.500000e+00	4.192524e-04	
165	1.550000e+00	4.195245e-04	
166	1.600000e+00	4.197827e-04	
167	1.650000e+00	4.200288e-04	
168	1.700000e+00	4.202644e-04	
169	1.750000e+00	4.204906e-04	
170	1.800000e+00	4.207085e-04	

Index   v-sweep         -i(vds)         
--------------------------------------------------------------------------------
171	1.850000e+00	4.209191e-04	
172	1.900000e+00	4.211229e-04	
173	1.950000e+00	4.213208e-04	
174	2.000000e+00	4.215132e-04	
175	2.050000e+00	4.217007e-04	
176	2.100000e+00	4.218837e-04	
177	2.150000e+00	4.220626e-04	
178	2.200000e+00	4.222379e-04	
179	2.250000e+00	4.224099e-04	
180	2.300000e+00	4.225790e-04	
181	2.350000e+00	4.227457e-04	
182	2.400000e+00	4.229104e-04	
183	2.450000e+00	4.230736e-04	
184	2.500000e+00	4.232360e-04	
185	2.550000e+00	4.233981e-04	
186	2.600000e+00	4.235608e-04	
187	2.650000e+00	4.237249e-04	
188	2.700000e+00	4.238915e-04	
189	2.750000e+00	4.240617e-04	
190	2.800000e+00	4.242368e-04	
191	2.850000e+00	4.244184e-04	
192	2.900000e+00	4.246080e-04	
193	2.950000e+00	4.248076e-04	
194	3.000000e+00	4.250193e-04	
195	3.050000e+00	4.252454e-04	
196	3.100000e+00	4.254883e-04	
197	3.150000e+00	4.257510e-04	
198	3.200000e+00	4.260364e-04	
199	3.250000e+00	4.263478e-04	
200	3.300000e+00	4.266886e-04	
201	0.000000e+00	-0.000000e+00	
202	5.000000e-02	6.397194e-05	
203	1.000000e-01	1.245761e-04	
204	1.500000e-01	1.819011e-04	
205	2.000000e-01	2.360325e-04	
206	2.500000e-01	2.870528e-04	
207	3.000000e-01	3.350416e-04	
208	3.500000e-01	3.800756e-04	
209	4.000000e-01	4.222288e-04	
210	4.500000e-01	4.615723e-04	
211	5.000000e-01	4.981744e-04	
212	5.500000e-01	5.321005e-04	
213	6.000000e-01	5.634130e-04	
214	6.500000e-01	5.921704e-04	
215	7.000000e-01	6.184267e-04	
216	7.500000e-01	6.422297e-04	
217	8.000000e-01	6.636179e-04	
218	8.500000e-01	6.826147e-04	
219	9.000000e-01	6.992191e-04	
220	9.500000e-01	7.133911e-04	
221	1.000000e+00	7.250471e-04	
222	1.050000e+00	7.341183e-04	
223	1.100000e+00	7.407328e-04	
224	1.150000e+00	7.453486e-04	
225	1.200000e+00	7.485739e-04	
226	1.250000e+00	7.509084e-04	
227	1.300000e+00	7.526773e-04	
228	1.350000e+00	7.540765e-04	

Index   v-sweep         -i(vds)         
--------------------------------------------------------------------------------
229	1.400000e+00	7.552236e-04	
230	1.450000e+00	7.561920e-04	
231	1.500000e+00	7.570289e-04	
232	1.550000e+00	7.577659e-04	
233	1.600000e+00	7.584251e-04	
234	1.650000e+00	7.590222e-04	
235	1.700000e+00	7.595688e-04	
236	1.750000e+00	7.600737e-04	
237	1.800000e+00	7.605436e-04	
238	1.850000e+00	7.609839e-04	
239	1.900000e+00	7.613986e-04	
240	1.950000e+00	7.617913e-04	
241	2.000000e+00	7.621646e-04	
242	2.050000e+00	7.625209e-04	
243	2.100000e+00	7.628620e-04	
244	2.150000e+00	7.631898e-04	
245	2.200000e+00	7.635054e-04	
246	2.250000e+00	7.638101e-04	
247	2.300000e+00	7.641050e-04	
248	2.350000e+00	7.643909e-04	
249	2.400000e+00	7.646687e-04	
250	2.450000e+00	7.649392e-04	
251	2.500000e+00	7.652031e-04	
252	2.550000e+00	7.654611e-04	
253	2.600000e+00	7.657139e-04	
254	2.650000e+00	7.659624e-04	
255	2.700000e+00	7.662073e-04	
256	2.750000e+00	7.664497e-04	
257	2.800000e+00	7.666904e-04	
258	2.850000e+00	7.669309e-04	
259	2.900000e+00	7.671723e-04	
260	2.950000e+00	7.674165e-04	
261	3.000000e+00	7.676651e-04	
262	3.050000e+00	7.679202e-04	
263	3.100000e+00	7.681844e-04	
264	3.150000e+00	7.684601e-04	
265	3.200000e+00	7.687506e-04	
266	3.250000e+00	7.690592e-04	
267	3.300000e+00	7.693895e-04	
268	0.000000e+00	-0.000000e+00	
269	5.000000e-02	7.445336e-05	
270	1.000000e-01	1.458094e-04	
271	1.500000e-01	2.141399e-04	
272	2.000000e-01	2.795148e-04	
273	2.500000e-01	3.420015e-04	
274	3.000000e-01	4.016655e-04	
275	3.500000e-01	4.585702e-04	
276	4.000000e-01	5.127772e-04	
277	4.500000e-01	5.643460e-04	
278	5.000000e-01	6.133344e-04	
279	5.500000e-01	6.597981e-04	
280	6.000000e-01	7.037914e-04	
281	6.500000e-01	7.453664e-04	
282	7.000000e-01	7.845735e-04	
283	7.500000e-01	8.214609e-04	
284	8.000000e-01	8.560749e-04	
285	8.500000e-01	8.884591e-04	
286	9.000000e-01	9.186540e-04	

Index   v-sweep         -i(vds)         
--------------------------------------------------------------------------------
287	9.500000e-01	9.466963e-04	
288	1.000000e+00	9.726168e-04	
289	1.050000e+00	9.964382e-04	
290	1.100000e+00	1.018170e-03	
291	1.150000e+00	1.037800e-03	
292	1.200000e+00	1.055284e-03	
293	1.250000e+00	1.070525e-03	
294	1.300000e+00	1.083381e-03	
295	1.350000e+00	1.093727e-03	
296	1.400000e+00	1.101624e-03	
297	1.450000e+00	1.107433e-03	
298	1.500000e+00	1.111683e-03	
299	1.550000e+00	1.114861e-03	
300	1.600000e+00	1.117316e-03	
301	1.650000e+00	1.119279e-03	
302	1.700000e+00	1.120897e-03	
303	1.750000e+00	1.122264e-03	
304	1.800000e+00	1.123445e-03	
305	1.850000e+00	1.124482e-03	
306	1.900000e+00	1.125408e-03	
307	1.950000e+00	1.126243e-03	
308	2.000000e+00	1.127005e-03	
309	2.050000e+00	1.127706e-03	
310	2.100000e+00	1.128356e-03	
311	2.150000e+00	1.128963e-03	
312	2.200000e+00	1.129532e-03	
313	2.250000e+00	1.130069e-03	
314	2.300000e+00	1.130578e-03	
315	2.350000e+00	1.131062e-03	
316	2.400000e+00	1.131523e-03	
317	2.450000e+00	1.131965e-03	
318	2.500000e+00	1.132390e-03	
319	2.550000e+00	1.132798e-03	
320	2.600000e+00	1.133192e-03	
321	2.650000e+00	1.133572e-03	
322	2.700000e+00	1.133941e-03	
323	2.750000e+00	1.134300e-03	
324	2.800000e+00	1.134648e-03	
325	2.850000e+00	1.134988e-03	
326	2.900000e+00	1.135321e-03	
327	2.950000e+00	1.135647e-03	
328	3.000000e+00	1.135968e-03	
329	3.050000e+00	1.136286e-03	
330	3.100000e+00	1.136601e-03	
331	3.150000e+00	1.136916e-03	
332	3.200000e+00	1.137233e-03	
333	3.250000e+00	1.137555e-03	
334	3.300000e+00	1.137883e-03	
335	0.000000e+00	-0.000000e+00	
336	5.000000e-02	8.139697e-05	
337	1.000000e-01	1.599988e-04	
338	1.500000e-01	2.358628e-04	
339	2.000000e-01	3.090447e-04	
340	2.500000e-01	3.795990e-04	
341	3.000000e-01	4.475783e-04	
342	3.500000e-01	5.130341e-04	
343	4.000000e-01	5.760163e-04	
344	4.500000e-01	6.365736e-04	

Index   v-sweep         -i(vds)         
--------------------------------------------------------------------------------
345	5.000000e-01	6.947534e-04	
346	5.500000e-01	7.506016e-04	
347	6.000000e-01	8.041633e-04	
348	6.500000e-01	8.554818e-04	
349	7.000000e-01	9.045997e-04	
350	7.500000e-01	9.515581e-04	
351	8.000000e-01	9.963970e-04	
352	8.500000e-01	1.039155e-03	
353	9.000000e-01	1.079870e-03	
354	9.500000e-01	1.118578e-03	
355	1.000000e+00	1.155314e-03	
356	1.050000e+00	1.190110e-03	
357	1.100000e+00	1.222998e-03	
358	1.150000e+00	1.254006e-03	
359	1.200000e+00	1.283160e-03	
360	1.250000e+00	1.310481e-03	
361	1.300000e+00	1.335982e-03	
362	1.350000e+00	1.359669e-03	
363	1.400000e+00	1.381529e-03	
364	1.450000e+00	1.401528e-03	
365	1.500000e+00	1.419590e-03	
366	1.550000e+00	1.435593e-03	
367	1.600000e+00	1.449364e-03	
368	1.650000e+00	1.460750e-03	
369	1.700000e+00	1.469754e-03	
370	1.750000e+00	1.476639e-03	
371	1.800000e+00	1.481851e-03	
372	1.850000e+00	1.485843e-03	
373	1.900000e+00	1.488975e-03	
374	1.950000e+00	1.491500e-03	
375	2.000000e+00	1.493589e-03	
376	2.050000e+00	1.495358e-03	
377	2.100000e+00	1.496886e-03	
378	2.150000e+00	1.498226e-03	
379	2.200000e+00	1.499420e-03	
380	2.250000e+00	1.500495e-03	
381	2.300000e+00	1.501473e-03	
382	2.350000e+00	1.502370e-03	
383	2.400000e+00	1.503200e-03	
384	2.450000e+00	1.503973e-03	
385	2.500000e+00	1.504696e-03	
386	2.550000e+00	1.505376e-03	
387	2.600000e+00	1.506018e-03	
388	2.650000e+00	1.506628e-03	
389	2.700000e+00	1.507208e-03	
390	2.750000e+00	1.507762e-03	
391	2.800000e+00	1.508292e-03	
392	2.850000e+00	1.508802e-03	
393	2.900000e+00	1.509292e-03	
394	2.950000e+00	1.509765e-03	
395	3.000000e+00	1.510222e-03	
396	3.050000e+00	1.510665e-03	
397	3.100000e+00	1.511096e-03	
398	3.150000e+00	1.511515e-03	
399	3.200000e+00	1.511924e-03	
400	3.250000e+00	1.512325e-03	
401	3.300000e+00	1.512719e-03	
Note: No ".plot", ".print", or ".fourier" lines; no simulations run
