
Note: Compatibility modes selected: hs

Warning: m=xx on .subckt line will override multiplier m hierarchy!


Circuit: ***************************

Doing analysis at TEMP = 25.000000 and TNOM = 25.000000


No. of Data Rows : 402
                          ***************************
                          DC transfer characteristic  Mon Jan  9 13:57:17  2023
--------------------------------------------------------------------------------
Index   v-sweep         -i(vds)         
--------------------------------------------------------------------------------
0	0.000000e+00	-0.000000e+00	
1	5.000000e-02	5.995900e-06	
2	1.000000e-01	9.241036e-06	
3	1.500000e-01	1.049057e-05	
4	2.000000e-01	1.090425e-05	
5	2.500000e-01	1.109727e-05	
6	3.000000e-01	1.122347e-05	
7	3.500000e-01	1.132168e-05	
8	4.000000e-01	1.140512e-05	
9	4.500000e-01	1.147953e-05	
10	5.000000e-01	1.154787e-05	
11	5.500000e-01	1.161186e-05	
12	6.000000e-01	1.167258e-05	
13	6.500000e-01	1.173075e-05	
14	7.000000e-01	1.178688e-05	
15	7.500000e-01	1.184135e-05	
16	8.000000e-01	1.189443e-05	
17	8.500000e-01	1.194633e-05	
18	9.000000e-01	1.199724e-05	
19	9.500000e-01	1.204728e-05	
20	1.000000e+00	1.209656e-05	
21	1.050000e+00	1.214519e-05	
22	1.100000e+00	1.219323e-05	
23	1.150000e+00	1.224076e-05	
24	1.200000e+00	1.228782e-05	
25	1.250000e+00	1.233446e-05	
26	1.300000e+00	1.238073e-05	
27	1.350000e+00	1.242666e-05	
28	1.400000e+00	1.247228e-05	
29	1.450000e+00	1.251762e-05	
30	1.500000e+00	1.256271e-05	
31	1.550000e+00	1.260757e-05	
32	1.600000e+00	1.265222e-05	
33	1.650000e+00	1.269669e-05	
34	1.700000e+00	1.274098e-05	
35	1.750000e+00	1.278514e-05	
36	1.800000e+00	1.282917e-05	
37	1.850000e+00	1.287310e-05	
38	1.900000e+00	1.291695e-05	
39	1.950000e+00	1.296076e-05	
40	2.000000e+00	1.300456e-05	
41	2.050000e+00	1.304837e-05	
42	2.100000e+00	1.309224e-05	
43	2.150000e+00	1.313621e-05	
44	2.200000e+00	1.318034e-05	
45	2.250000e+00	1.322468e-05	
46	2.300000e+00	1.326929e-05	
47	2.350000e+00	1.331424e-05	
48	2.400000e+00	1.335961e-05	
49	2.450000e+00	1.340550e-05	
50	2.500000e+00	1.345199e-05	
51	2.550000e+00	1.349919e-05	
52	2.600000e+00	1.354722e-05	
53	2.650000e+00	1.359622e-05	
54	2.700000e+00	1.364631e-05	

Index   v-sweep         -i(vds)         
--------------------------------------------------------------------------------
55	2.750000e+00	1.369766e-05	
56	2.800000e+00	1.375042e-05	
57	2.850000e+00	1.380477e-05	
58	2.900000e+00	1.386091e-05	
59	2.950000e+00	1.391905e-05	
60	3.000000e+00	1.397940e-05	
61	3.050000e+00	1.404220e-05	
62	3.100000e+00	1.410769e-05	
63	3.150000e+00	1.417616e-05	
64	3.200000e+00	1.424788e-05	
65	3.250000e+00	1.432314e-05	
66	3.300000e+00	1.440227e-05	
67	0.000000e+00	-0.000000e+00	
68	5.000000e-02	3.862333e-05	
69	1.000000e-01	7.265666e-05	
70	1.500000e-01	1.023210e-04	
71	2.000000e-01	1.278238e-04	
72	2.500000e-01	1.493603e-04	
73	3.000000e-01	1.671166e-04	
74	3.500000e-01	1.812761e-04	
75	4.000000e-01	1.920438e-04	
76	4.500000e-01	1.997220e-04	
77	5.000000e-01	2.048453e-04	
78	5.500000e-01	2.081764e-04	
79	6.000000e-01	2.104231e-04	
80	6.500000e-01	2.120454e-04	
81	7.000000e-01	2.132962e-04	
82	7.500000e-01	2.143122e-04	
83	8.000000e-01	2.151704e-04	
84	8.500000e-01	2.159169e-04	
85	9.000000e-01	2.165808e-04	
86	9.500000e-01	2.171817e-04	
87	1.000000e+00	2.177329e-04	
88	1.050000e+00	2.182442e-04	
89	1.100000e+00	2.187226e-04	
90	1.150000e+00	2.191736e-04	
91	1.200000e+00	2.196015e-04	
92	1.250000e+00	2.200094e-04	
93	1.300000e+00	2.204001e-04	
94	1.350000e+00	2.207759e-04	
95	1.400000e+00	2.211383e-04	
96	1.450000e+00	2.214890e-04	
97	1.500000e+00	2.218292e-04	
98	1.550000e+00	2.221600e-04	
99	1.600000e+00	2.224823e-04	
100	1.650000e+00	2.227968e-04	
101	1.700000e+00	2.231043e-04	
102	1.750000e+00	2.234054e-04	
103	1.800000e+00	2.237006e-04	
104	1.850000e+00	2.239904e-04	
105	1.900000e+00	2.242753e-04	
106	1.950000e+00	2.245557e-04	
107	2.000000e+00	2.248319e-04	
108	2.050000e+00	2.251044e-04	
109	2.100000e+00	2.253736e-04	
110	2.150000e+00	2.256398e-04	
111	2.200000e+00	2.259035e-04	
112	2.250000e+00	2.261652e-04	

Index   v-sweep         -i(vds)         
--------------------------------------------------------------------------------
113	2.300000e+00	2.264253e-04	
114	2.350000e+00	2.266844e-04	
115	2.400000e+00	2.269431e-04	
116	2.450000e+00	2.272022e-04	
117	2.500000e+00	2.274624e-04	
118	2.550000e+00	2.277245e-04	
119	2.600000e+00	2.279895e-04	
120	2.650000e+00	2.282585e-04	
121	2.700000e+00	2.285327e-04	
122	2.750000e+00	2.288135e-04	
123	2.800000e+00	2.291022e-04	
124	2.850000e+00	2.294006e-04	
125	2.900000e+00	2.297104e-04	
126	2.950000e+00	2.300335e-04	
127	3.000000e+00	2.303721e-04	
128	3.050000e+00	2.307283e-04	
129	3.100000e+00	2.311049e-04	
130	3.150000e+00	2.315043e-04	
131	3.200000e+00	2.319294e-04	
132	3.250000e+00	2.323835e-04	
133	3.300000e+00	2.328696e-04	
134	0.000000e+00	-0.000000e+00	
135	5.000000e-02	6.422102e-05	
136	1.000000e-01	1.236215e-04	
137	1.500000e-01	1.784008e-04	
138	2.000000e-01	2.287471e-04	
139	2.500000e-01	2.748383e-04	
140	3.000000e-01	3.168418e-04	
141	3.500000e-01	3.549153e-04	
142	4.000000e-01	3.892063e-04	
143	4.500000e-01	4.198518e-04	
144	5.000000e-01	4.469765e-04	
145	5.500000e-01	4.706900e-04	
146	6.000000e-01	4.910827e-04	
147	6.500000e-01	5.082247e-04	
148	7.000000e-01	5.221835e-04	
149	7.500000e-01	5.330963e-04	
150	8.000000e-01	5.412945e-04	
151	8.500000e-01	5.473322e-04	
152	9.000000e-01	5.518226e-04	
153	9.500000e-01	5.552644e-04	
154	1.000000e+00	5.579997e-04	
155	1.050000e+00	5.602481e-04	
156	1.100000e+00	5.621501e-04	
157	1.150000e+00	5.637974e-04	
158	1.200000e+00	5.652515e-04	
159	1.250000e+00	5.665554e-04	
160	1.300000e+00	5.677397e-04	
161	1.350000e+00	5.688267e-04	
162	1.400000e+00	5.698335e-04	
163	1.450000e+00	5.707729e-04	
164	1.500000e+00	5.716553e-04	
165	1.550000e+00	5.724885e-04	
166	1.600000e+00	5.732793e-04	
167	1.650000e+00	5.740328e-04	
168	1.700000e+00	5.747535e-04	
169	1.750000e+00	5.754452e-04	
170	1.800000e+00	5.761108e-04	

Index   v-sweep         -i(vds)         
--------------------------------------------------------------------------------
171	1.850000e+00	5.767530e-04	
172	1.900000e+00	5.773741e-04	
173	1.950000e+00	5.779762e-04	
174	2.000000e+00	5.785608e-04	
175	2.050000e+00	5.791295e-04	
176	2.100000e+00	5.796837e-04	
177	2.150000e+00	5.802246e-04	
178	2.200000e+00	5.807533e-04	
179	2.250000e+00	5.812708e-04	
180	2.300000e+00	5.817782e-04	
181	2.350000e+00	5.822765e-04	
182	2.400000e+00	5.827667e-04	
183	2.450000e+00	5.832498e-04	
184	2.500000e+00	5.837269e-04	
185	2.550000e+00	5.841993e-04	
186	2.600000e+00	5.846683e-04	
187	2.650000e+00	5.851353e-04	
188	2.700000e+00	5.856020e-04	
189	2.750000e+00	5.860702e-04	
190	2.800000e+00	5.865419e-04	
191	2.850000e+00	5.870194e-04	
192	2.900000e+00	5.875052e-04	
193	2.950000e+00	5.880023e-04	
194	3.000000e+00	5.885137e-04	
195	3.050000e+00	5.890430e-04	
196	3.100000e+00	5.895939e-04	
197	3.150000e+00	5.901709e-04	
198	3.200000e+00	5.907784e-04	
199	3.250000e+00	5.914216e-04	
200	3.300000e+00	5.921059e-04	
201	0.000000e+00	-0.000000e+00	
202	5.000000e-02	8.280937e-05	
203	1.000000e-01	1.609132e-04	
204	1.500000e-01	2.344817e-04	
205	2.000000e-01	3.036765e-04	
206	2.500000e-01	3.686518e-04	
207	3.000000e-01	4.295542e-04	
208	3.500000e-01	4.865231e-04	
209	4.000000e-01	5.396912e-04	
210	4.500000e-01	5.891842e-04	
211	5.000000e-01	6.351212e-04	
212	5.500000e-01	6.776143e-04	
213	6.000000e-01	7.167678e-04	
214	6.500000e-01	7.526771e-04	
215	7.000000e-01	7.854267e-04	
216	7.500000e-01	8.150861e-04	
217	8.000000e-01	8.417042e-04	
218	8.500000e-01	8.653010e-04	
219	9.000000e-01	8.858616e-04	
220	9.500000e-01	9.033486e-04	
221	1.000000e+00	9.177632e-04	
222	1.050000e+00	9.292605e-04	
223	1.100000e+00	9.382233e-04	
224	1.150000e+00	9.451827e-04	
225	1.200000e+00	9.506595e-04	
226	1.250000e+00	9.550690e-04	
227	1.300000e+00	9.587092e-04	
228	1.350000e+00	9.617859e-04	

Index   v-sweep         -i(vds)         
--------------------------------------------------------------------------------
229	1.400000e+00	9.644404e-04	
230	1.450000e+00	9.667712e-04	
231	1.500000e+00	9.688484e-04	
232	1.550000e+00	9.707227e-04	
233	1.600000e+00	9.724318e-04	
234	1.650000e+00	9.740044e-04	
235	1.700000e+00	9.754625e-04	
236	1.750000e+00	9.768235e-04	
237	1.800000e+00	9.781011e-04	
238	1.850000e+00	9.793064e-04	
239	1.900000e+00	9.804487e-04	
240	1.950000e+00	9.815353e-04	
241	2.000000e+00	9.825727e-04	
242	2.050000e+00	9.835662e-04	
243	2.100000e+00	9.845202e-04	
244	2.150000e+00	9.854386e-04	
245	2.200000e+00	9.863249e-04	
246	2.250000e+00	9.871818e-04	
247	2.300000e+00	9.880121e-04	
248	2.350000e+00	9.888179e-04	
249	2.400000e+00	9.896013e-04	
250	2.450000e+00	9.903644e-04	
251	2.500000e+00	9.911087e-04	
252	2.550000e+00	9.918361e-04	
253	2.600000e+00	9.925482e-04	
254	2.650000e+00	9.932468e-04	
255	2.700000e+00	9.939334e-04	
256	2.750000e+00	9.946102e-04	
257	2.800000e+00	9.952789e-04	
258	2.850000e+00	9.959419e-04	
259	2.900000e+00	9.966016e-04	
260	2.950000e+00	9.972606e-04	
261	3.000000e+00	9.979221e-04	
262	3.050000e+00	9.985894e-04	
263	3.100000e+00	9.992664e-04	
264	3.150000e+00	9.999572e-04	
265	3.200000e+00	1.000667e-03	
266	3.250000e+00	1.001400e-03	
267	3.300000e+00	1.002163e-03	
268	0.000000e+00	-0.000000e+00	
269	5.000000e-02	9.616956e-05	
270	1.000000e-01	1.878955e-04	
271	1.500000e-01	2.753192e-04	
272	2.000000e-01	3.585762e-04	
273	2.500000e-01	4.377962e-04	
274	3.000000e-01	5.131035e-04	
275	3.500000e-01	5.846172e-04	
276	4.000000e-01	6.524513e-04	
277	4.500000e-01	7.167150e-04	
278	5.000000e-01	7.775130e-04	
279	5.500000e-01	8.349452e-04	
280	6.000000e-01	8.891071e-04	
281	6.500000e-01	9.400893e-04	
282	7.000000e-01	9.879779e-04	
283	7.500000e-01	1.032853e-03	
284	8.000000e-01	1.074790e-03	
285	8.500000e-01	1.113855e-03	
286	9.000000e-01	1.150105e-03	

Index   v-sweep         -i(vds)         
--------------------------------------------------------------------------------
287	9.500000e-01	1.183586e-03	
288	1.000000e+00	1.214322e-03	
289	1.050000e+00	1.242313e-03	
290	1.100000e+00	1.267522e-03	
291	1.150000e+00	1.289872e-03	
292	1.200000e+00	1.309265e-03	
293	1.250000e+00	1.325644e-03	
294	1.300000e+00	1.339104e-03	
295	1.350000e+00	1.349946e-03	
296	1.400000e+00	1.358628e-03	
297	1.450000e+00	1.365631e-03	
298	1.500000e+00	1.371371e-03	
299	1.550000e+00	1.376166e-03	
300	1.600000e+00	1.380247e-03	
301	1.650000e+00	1.383784e-03	
302	1.700000e+00	1.386895e-03	
303	1.750000e+00	1.389669e-03	
304	1.800000e+00	1.392170e-03	
305	1.850000e+00	1.394449e-03	
306	1.900000e+00	1.396542e-03	
307	1.950000e+00	1.398479e-03	
308	2.000000e+00	1.400283e-03	
309	2.050000e+00	1.401973e-03	
310	2.100000e+00	1.403563e-03	
311	2.150000e+00	1.405066e-03	
312	2.200000e+00	1.406493e-03	
313	2.250000e+00	1.407852e-03	
314	2.300000e+00	1.409150e-03	
315	2.350000e+00	1.410393e-03	
316	2.400000e+00	1.411588e-03	
317	2.450000e+00	1.412738e-03	
318	2.500000e+00	1.413847e-03	
319	2.550000e+00	1.414919e-03	
320	2.600000e+00	1.415958e-03	
321	2.650000e+00	1.416965e-03	
322	2.700000e+00	1.417945e-03	
323	2.750000e+00	1.418898e-03	
324	2.800000e+00	1.419828e-03	
325	2.850000e+00	1.420737e-03	
326	2.900000e+00	1.421628e-03	
327	2.950000e+00	1.422502e-03	
328	3.000000e+00	1.423363e-03	
329	3.050000e+00	1.424213e-03	
330	3.100000e+00	1.425056e-03	
331	3.150000e+00	1.425895e-03	
332	3.200000e+00	1.426734e-03	
333	3.250000e+00	1.427577e-03	
334	3.300000e+00	1.428430e-03	
335	0.000000e+00	-0.000000e+00	
336	5.000000e-02	1.056545e-04	
337	1.000000e-01	2.071856e-04	
338	1.500000e-01	3.047097e-04	
339	2.000000e-01	3.983386e-04	
340	2.500000e-01	4.881804e-04	
341	3.000000e-01	5.743387e-04	
342	3.500000e-01	6.569136e-04	
343	4.000000e-01	7.360014e-04	
344	4.500000e-01	8.116949e-04	

Index   v-sweep         -i(vds)         
--------------------------------------------------------------------------------
345	5.000000e-01	8.840833e-04	
346	5.500000e-01	9.532528e-04	
347	6.000000e-01	1.019286e-03	
348	6.500000e-01	1.082263e-03	
349	7.000000e-01	1.142260e-03	
350	7.500000e-01	1.199351e-03	
351	8.000000e-01	1.253605e-03	
352	8.500000e-01	1.305090e-03	
353	9.000000e-01	1.353868e-03	
354	9.500000e-01	1.399999e-03	
355	1.000000e+00	1.443536e-03	
356	1.050000e+00	1.484527e-03	
357	1.100000e+00	1.523012e-03	
358	1.150000e+00	1.559020e-03	
359	1.200000e+00	1.592563e-03	
360	1.250000e+00	1.623631e-03	
361	1.300000e+00	1.652185e-03	
362	1.350000e+00	1.678146e-03	
363	1.400000e+00	1.701396e-03	
364	1.450000e+00	1.721805e-03	
365	1.500000e+00	1.739299e-03	
366	1.550000e+00	1.753949e-03	
367	1.600000e+00	1.766016e-03	
368	1.650000e+00	1.775899e-03	
369	1.700000e+00	1.784033e-03	
370	1.750000e+00	1.790806e-03	
371	1.800000e+00	1.796533e-03	
372	1.850000e+00	1.801450e-03	
373	1.900000e+00	1.805737e-03	
374	1.950000e+00	1.809524e-03	
375	2.000000e+00	1.812910e-03	
376	2.050000e+00	1.815969e-03	
377	2.100000e+00	1.818757e-03	
378	2.150000e+00	1.821320e-03	
379	2.200000e+00	1.823691e-03	
380	2.250000e+00	1.825899e-03	
381	2.300000e+00	1.827965e-03	
382	2.350000e+00	1.829908e-03	
383	2.400000e+00	1.831744e-03	
384	2.450000e+00	1.833484e-03	
385	2.500000e+00	1.835139e-03	
386	2.550000e+00	1.836718e-03	
387	2.600000e+00	1.838229e-03	
388	2.650000e+00	1.839679e-03	
389	2.700000e+00	1.841073e-03	
390	2.750000e+00	1.842416e-03	
391	2.800000e+00	1.843712e-03	
392	2.850000e+00	1.844966e-03	
393	2.900000e+00	1.846181e-03	
394	2.950000e+00	1.847361e-03	
395	3.000000e+00	1.848509e-03	
396	3.050000e+00	1.849627e-03	
397	3.100000e+00	1.850719e-03	
398	3.150000e+00	1.851788e-03	
399	3.200000e+00	1.852837e-03	
400	3.250000e+00	1.853869e-03	
401	3.300000e+00	1.854889e-03	
Note: No ".plot", ".print", or ".fourier" lines; no simulations run
