
Note: Compatibility modes selected: hs

Warning: m=xx on .subckt line will override multiplier m hierarchy!


Circuit: ***************************

Doing analysis at TEMP = 125.000000 and TNOM = 125.000000


No. of Data Rows : 402
                          ***************************
                          DC transfer characteristic  Mon Jan  9 13:57:19  2023
--------------------------------------------------------------------------------
Index   v-sweep         -i(vds)         
--------------------------------------------------------------------------------
0	0.000000e+00	-0.000000e+00	
1	5.000000e-02	5.105206e-07	
2	1.000000e-01	9.081900e-07	
3	1.500000e-01	1.198801e-06	
4	2.000000e-01	1.387064e-06	
5	2.500000e-01	1.484213e-06	
6	3.000000e-01	1.521651e-06	
7	3.500000e-01	1.536732e-06	
8	4.000000e-01	1.545342e-06	
9	4.500000e-01	1.551551e-06	
10	5.000000e-01	1.556562e-06	
11	5.500000e-01	1.560853e-06	
12	6.000000e-01	1.564659e-06	
13	6.500000e-01	1.568113e-06	
14	7.000000e-01	1.571299e-06	
15	7.500000e-01	1.574274e-06	
16	8.000000e-01	1.577078e-06	
17	8.500000e-01	1.579740e-06	
18	9.000000e-01	1.582282e-06	
19	9.500000e-01	1.584723e-06	
20	1.000000e+00	1.587075e-06	
21	1.050000e+00	1.589350e-06	
22	1.100000e+00	1.591558e-06	
23	1.150000e+00	1.593705e-06	
24	1.200000e+00	1.595798e-06	
25	1.250000e+00	1.597843e-06	
26	1.300000e+00	1.599844e-06	
27	1.350000e+00	1.601805e-06	
28	1.400000e+00	1.603730e-06	
29	1.450000e+00	1.605622e-06	
30	1.500000e+00	1.607483e-06	
31	1.550000e+00	1.609317e-06	
32	1.600000e+00	1.611124e-06	
33	1.650000e+00	1.612908e-06	
34	1.700000e+00	1.614670e-06	
35	1.750000e+00	1.616412e-06	
36	1.800000e+00	1.618135e-06	
37	1.850000e+00	1.619843e-06	
38	1.900000e+00	1.621537e-06	
39	1.950000e+00	1.623218e-06	
40	2.000000e+00	1.624890e-06	
41	2.050000e+00	1.626556e-06	
42	2.100000e+00	1.628218e-06	
43	2.150000e+00	1.629879e-06	
44	2.200000e+00	1.631545e-06	
45	2.250000e+00	1.633218e-06	
46	2.300000e+00	1.634905e-06	
47	2.350000e+00	1.636612e-06	
48	2.400000e+00	1.638344e-06	
49	2.450000e+00	1.640108e-06	
50	2.500000e+00	1.641913e-06	
51	2.550000e+00	1.643768e-06	
52	2.600000e+00	1.645682e-06	
53	2.650000e+00	1.647665e-06	
54	2.700000e+00	1.649730e-06	

Index   v-sweep         -i(vds)         
--------------------------------------------------------------------------------
55	2.750000e+00	1.651888e-06	
56	2.800000e+00	1.654153e-06	
57	2.850000e+00	1.656541e-06	
58	2.900000e+00	1.659065e-06	
59	2.950000e+00	1.661743e-06	
60	3.000000e+00	1.664592e-06	
61	3.050000e+00	1.667632e-06	
62	3.100000e+00	1.670881e-06	
63	3.150000e+00	1.674361e-06	
64	3.200000e+00	1.678094e-06	
65	3.250000e+00	1.682102e-06	
66	3.300000e+00	1.686411e-06	
67	0.000000e+00	-0.000000e+00	
68	5.000000e-02	1.522924e-06	
69	1.000000e-01	2.913999e-06	
70	1.500000e-01	4.178652e-06	
71	2.000000e-01	5.319733e-06	
72	2.500000e-01	6.339460e-06	
73	3.000000e-01	7.239881e-06	
74	3.500000e-01	8.023008e-06	
75	4.000000e-01	8.690875e-06	
76	4.500000e-01	9.245644e-06	
77	5.000000e-01	9.689855e-06	
78	5.500000e-01	1.002719e-05	
79	6.000000e-01	1.026473e-05	
80	6.500000e-01	1.041777e-05	
81	7.000000e-01	1.051192e-05	
82	7.500000e-01	1.057277e-05	
83	8.000000e-01	1.061605e-05	
84	8.500000e-01	1.064949e-05	
85	9.000000e-01	1.067686e-05	
86	9.500000e-01	1.070015e-05	
87	1.000000e+00	1.072053e-05	
88	1.050000e+00	1.073873e-05	
89	1.100000e+00	1.075524e-05	
90	1.150000e+00	1.077039e-05	
91	1.200000e+00	1.078444e-05	
92	1.250000e+00	1.079756e-05	
93	1.300000e+00	1.080990e-05	
94	1.350000e+00	1.082158e-05	
95	1.400000e+00	1.083268e-05	
96	1.450000e+00	1.084327e-05	
97	1.500000e+00	1.085341e-05	
98	1.550000e+00	1.086315e-05	
99	1.600000e+00	1.087254e-05	
100	1.650000e+00	1.088162e-05	
101	1.700000e+00	1.089040e-05	
102	1.750000e+00	1.089891e-05	
103	1.800000e+00	1.090719e-05	
104	1.850000e+00	1.091525e-05	
105	1.900000e+00	1.092311e-05	
106	1.950000e+00	1.093078e-05	
107	2.000000e+00	1.093828e-05	
108	2.050000e+00	1.094562e-05	
109	2.100000e+00	1.095282e-05	
110	2.150000e+00	1.095989e-05	
111	2.200000e+00	1.096684e-05	
112	2.250000e+00	1.097369e-05	

Index   v-sweep         -i(vds)         
--------------------------------------------------------------------------------
113	2.300000e+00	1.098044e-05	
114	2.350000e+00	1.098712e-05	
115	2.400000e+00	1.099374e-05	
116	2.450000e+00	1.100033e-05	
117	2.500000e+00	1.100689e-05	
118	2.550000e+00	1.101347e-05	
119	2.600000e+00	1.102008e-05	
120	2.650000e+00	1.102676e-05	
121	2.700000e+00	1.103354e-05	
122	2.750000e+00	1.104047e-05	
123	2.800000e+00	1.104758e-05	
124	2.850000e+00	1.105493e-05	
125	2.900000e+00	1.106258e-05	
126	2.950000e+00	1.107058e-05	
127	3.000000e+00	1.107900e-05	
128	3.050000e+00	1.108792e-05	
129	3.100000e+00	1.109742e-05	
130	3.150000e+00	1.110757e-05	
131	3.200000e+00	1.111847e-05	
132	3.250000e+00	1.113023e-05	
133	3.300000e+00	1.114294e-05	
134	0.000000e+00	-0.000000e+00	
135	5.000000e-02	2.423227e-06	
136	1.000000e-01	4.711625e-06	
137	1.500000e-01	6.870533e-06	
138	2.000000e-01	8.902710e-06	
139	2.500000e-01	1.081028e-05	
140	3.000000e-01	1.259517e-05	
141	3.500000e-01	1.425927e-05	
142	4.000000e-01	1.580439e-05	
143	4.500000e-01	1.723233e-05	
144	5.000000e-01	1.854484e-05	
145	5.500000e-01	1.974365e-05	
146	6.000000e-01	2.083046e-05	
147	6.500000e-01	2.180695e-05	
148	7.000000e-01	2.267479e-05	
149	7.500000e-01	2.343567e-05	
150	8.000000e-01	2.409134e-05	
151	8.500000e-01	2.464377e-05	
152	9.000000e-01	2.509551e-05	
153	9.500000e-01	2.545076e-05	
154	1.000000e+00	2.571773e-05	
155	1.050000e+00	2.591132e-05	
156	1.100000e+00	2.605134e-05	
157	1.150000e+00	2.615592e-05	
158	1.200000e+00	2.623763e-05	
159	1.250000e+00	2.630420e-05	
160	1.300000e+00	2.636029e-05	
161	1.350000e+00	2.640879e-05	
162	1.400000e+00	2.645160e-05	
163	1.450000e+00	2.648999e-05	
164	1.500000e+00	2.652484e-05	
165	1.550000e+00	2.655683e-05	
166	1.600000e+00	2.658644e-05	
167	1.650000e+00	2.661405e-05	
168	1.700000e+00	2.663995e-05	
169	1.750000e+00	2.666436e-05	
170	1.800000e+00	2.668749e-05	

Index   v-sweep         -i(vds)         
--------------------------------------------------------------------------------
171	1.850000e+00	2.670949e-05	
172	1.900000e+00	2.673049e-05	
173	1.950000e+00	2.675059e-05	
174	2.000000e+00	2.676989e-05	
175	2.050000e+00	2.678847e-05	
176	2.100000e+00	2.680639e-05	
177	2.150000e+00	2.682371e-05	
178	2.200000e+00	2.684048e-05	
179	2.250000e+00	2.685675e-05	
180	2.300000e+00	2.687256e-05	
181	2.350000e+00	2.688795e-05	
182	2.400000e+00	2.690294e-05	
183	2.450000e+00	2.691759e-05	
184	2.500000e+00	2.693190e-05	
185	2.550000e+00	2.694592e-05	
186	2.600000e+00	2.695968e-05	
187	2.650000e+00	2.697321e-05	
188	2.700000e+00	2.698655e-05	
189	2.750000e+00	2.699974e-05	
190	2.800000e+00	2.701282e-05	
191	2.850000e+00	2.702585e-05	
192	2.900000e+00	2.703888e-05	
193	2.950000e+00	2.705199e-05	
194	3.000000e+00	2.706524e-05	
195	3.050000e+00	2.707872e-05	
196	3.100000e+00	2.709252e-05	
197	3.150000e+00	2.710675e-05	
198	3.200000e+00	2.712153e-05	
199	3.250000e+00	2.713700e-05	
200	3.300000e+00	2.715329e-05	
201	0.000000e+00	-0.000000e+00	
202	5.000000e-02	3.199617e-06	
203	1.000000e-01	6.265708e-06	
204	1.500000e-01	9.203473e-06	
205	2.000000e-01	1.201554e-05	
206	2.500000e-01	1.470390e-05	
207	3.000000e-01	1.727036e-05	
208	3.500000e-01	1.971668e-05	
209	4.000000e-01	2.204457e-05	
210	4.500000e-01	2.425570e-05	
211	5.000000e-01	2.635170e-05	
212	5.500000e-01	2.833420e-05	
213	6.000000e-01	3.020476e-05	
214	6.500000e-01	3.196495e-05	
215	7.000000e-01	3.361629e-05	
216	7.500000e-01	3.516027e-05	
217	8.000000e-01	3.659835e-05	
218	8.500000e-01	3.793197e-05	
219	9.000000e-01	3.916255e-05	
220	9.500000e-01	4.029144e-05	
221	1.000000e+00	4.132000e-05	
222	1.050000e+00	4.224953e-05	
223	1.100000e+00	4.308128e-05	
224	1.150000e+00	4.381644e-05	
225	1.200000e+00	4.445618e-05	
226	1.250000e+00	4.500174e-05	
227	1.300000e+00	4.545505e-05	
228	1.350000e+00	4.582023e-05	

Index   v-sweep         -i(vds)         
--------------------------------------------------------------------------------
229	1.400000e+00	4.610619e-05	
230	1.450000e+00	4.632728e-05	
231	1.500000e+00	4.649983e-05	
232	1.550000e+00	4.663783e-05	
233	1.600000e+00	4.675138e-05	
234	1.650000e+00	4.684732e-05	
235	1.700000e+00	4.693021e-05	
236	1.750000e+00	4.700317e-05	
237	1.800000e+00	4.706835e-05	
238	1.850000e+00	4.712731e-05	
239	1.900000e+00	4.718119e-05	
240	1.950000e+00	4.723085e-05	
241	2.000000e+00	4.727697e-05	
242	2.050000e+00	4.732005e-05	
243	2.100000e+00	4.736052e-05	
244	2.150000e+00	4.739872e-05	
245	2.200000e+00	4.743492e-05	
246	2.250000e+00	4.746934e-05	
247	2.300000e+00	4.750219e-05	
248	2.350000e+00	4.753362e-05	
249	2.400000e+00	4.756378e-05	
250	2.450000e+00	4.759278e-05	
251	2.500000e+00	4.762073e-05	
252	2.550000e+00	4.764772e-05	
253	2.600000e+00	4.767383e-05	
254	2.650000e+00	4.769913e-05	
255	2.700000e+00	4.772369e-05	
256	2.750000e+00	4.774757e-05	
257	2.800000e+00	4.777082e-05	
258	2.850000e+00	4.779350e-05	
259	2.900000e+00	4.781567e-05	
260	2.950000e+00	4.783737e-05	
261	3.000000e+00	4.785868e-05	
262	3.050000e+00	4.787965e-05	
263	3.100000e+00	4.790036e-05	
264	3.150000e+00	4.792089e-05	
265	3.200000e+00	4.794132e-05	
266	3.250000e+00	4.796176e-05	
267	3.300000e+00	4.798232e-05	
268	0.000000e+00	-0.000000e+00	
269	5.000000e-02	3.858783e-06	
270	1.000000e-01	7.587584e-06	
271	1.500000e-01	1.119145e-05	
272	2.000000e-01	1.467284e-05	
273	2.500000e-01	1.803361e-05	
274	3.000000e-01	2.127543e-05	
275	3.500000e-01	2.439990e-05	
276	4.000000e-01	2.740860e-05	
277	4.500000e-01	3.030307e-05	
278	5.000000e-01	3.308482e-05	
279	5.500000e-01	3.575533e-05	
280	6.000000e-01	3.831608e-05	
281	6.500000e-01	4.076850e-05	
282	7.000000e-01	4.311398e-05	
283	7.500000e-01	4.535393e-05	
284	8.000000e-01	4.748971e-05	
285	8.500000e-01	4.952263e-05	
286	9.000000e-01	5.145403e-05	

Index   v-sweep         -i(vds)         
--------------------------------------------------------------------------------
287	9.500000e-01	5.328519e-05	
288	1.000000e+00	5.501737e-05	
289	1.050000e+00	5.665181e-05	
290	1.100000e+00	5.818973e-05	
291	1.150000e+00	5.963230e-05	
292	1.200000e+00	6.098069e-05	
293	1.250000e+00	6.223599e-05	
294	1.300000e+00	6.339929e-05	
295	1.350000e+00	6.447158e-05	
296	1.400000e+00	6.545376e-05	
297	1.450000e+00	6.634658e-05	
298	1.500000e+00	6.715059e-05	
299	1.550000e+00	6.786601e-05	
300	1.600000e+00	6.849270e-05	
301	1.650000e+00	6.903058e-05	
302	1.700000e+00	6.948090e-05	
303	1.750000e+00	6.984887e-05	
304	1.800000e+00	7.014512e-05	
305	1.850000e+00	7.038382e-05	
306	1.900000e+00	7.057880e-05	
307	1.950000e+00	7.074129e-05	
308	2.000000e+00	7.087951e-05	
309	2.050000e+00	7.099934e-05	
310	2.100000e+00	7.110492e-05	
311	2.150000e+00	7.119923e-05	
312	2.200000e+00	7.128447e-05	
313	2.250000e+00	7.136226e-05	
314	2.300000e+00	7.143385e-05	
315	2.350000e+00	7.150021e-05	
316	2.400000e+00	7.156208e-05	
317	2.450000e+00	7.162009e-05	
318	2.500000e+00	7.167474e-05	
319	2.550000e+00	7.172642e-05	
320	2.600000e+00	7.177548e-05	
321	2.650000e+00	7.182220e-05	
322	2.700000e+00	7.186682e-05	
323	2.750000e+00	7.190956e-05	
324	2.800000e+00	7.195058e-05	
325	2.850000e+00	7.199005e-05	
326	2.900000e+00	7.202809e-05	
327	2.950000e+00	7.206483e-05	
328	3.000000e+00	7.210037e-05	
329	3.050000e+00	7.213482e-05	
330	3.100000e+00	7.216826e-05	
331	3.150000e+00	7.220077e-05	
332	3.200000e+00	7.223244e-05	
333	3.250000e+00	7.226335e-05	
334	3.300000e+00	7.229358e-05	
335	0.000000e+00	-0.000000e+00	
336	5.000000e-02	4.410915e-06	
337	1.000000e-01	8.696766e-06	
338	1.500000e-01	1.286243e-05	
339	2.000000e-01	1.691021e-05	
340	2.500000e-01	2.084181e-05	
341	3.000000e-01	2.465873e-05	
342	3.500000e-01	2.836245e-05	
343	4.000000e-01	3.195438e-05	
344	4.500000e-01	3.543593e-05	

Index   v-sweep         -i(vds)         
--------------------------------------------------------------------------------
345	5.000000e-01	3.880848e-05	
346	5.500000e-01	4.207338e-05	
347	6.000000e-01	4.523197e-05	
348	6.500000e-01	4.828555e-05	
349	7.000000e-01	5.123543e-05	
350	7.500000e-01	5.408286e-05	
351	8.000000e-01	5.682909e-05	
352	8.500000e-01	5.947536e-05	
353	9.000000e-01	6.202285e-05	
354	9.500000e-01	6.447278e-05	
355	1.000000e+00	6.682629e-05	
356	1.050000e+00	6.908454e-05	
357	1.100000e+00	7.124865e-05	
358	1.150000e+00	7.331974e-05	
359	1.200000e+00	7.529890e-05	
360	1.250000e+00	7.718718e-05	
361	1.300000e+00	7.898565e-05	
362	1.350000e+00	8.069532e-05	
363	1.400000e+00	8.231719e-05	
364	1.450000e+00	8.385225e-05	
365	1.500000e+00	8.530143e-05	
366	1.550000e+00	8.666563e-05	
367	1.600000e+00	8.794571e-05	
368	1.650000e+00	8.914242e-05	
369	1.700000e+00	9.025644e-05	
370	1.750000e+00	9.128825e-05	
371	1.800000e+00	9.223811e-05	
372	1.850000e+00	9.310586e-05	
373	1.900000e+00	9.389076e-05	
374	1.950000e+00	9.459143e-05	
375	2.000000e+00	9.520605e-05	
376	2.050000e+00	9.573376e-05	
377	2.100000e+00	9.617712e-05	
378	2.150000e+00	9.654401e-05	
379	2.200000e+00	9.684658e-05	
380	2.250000e+00	9.709800e-05	
381	2.300000e+00	9.730990e-05	
382	2.350000e+00	9.749144e-05	
383	2.400000e+00	9.764946e-05	
384	2.450000e+00	9.778901e-05	
385	2.500000e+00	9.791379e-05	
386	2.550000e+00	9.802658e-05	
387	2.600000e+00	9.812949e-05	
388	2.650000e+00	9.822413e-05	
389	2.700000e+00	9.831177e-05	
390	2.750000e+00	9.839342e-05	
391	2.800000e+00	9.846988e-05	
392	2.850000e+00	9.854182e-05	
393	2.900000e+00	9.860978e-05	
394	2.950000e+00	9.867421e-05	
395	3.000000e+00	9.873550e-05	
396	3.050000e+00	9.879396e-05	
397	3.100000e+00	9.884988e-05	
398	3.150000e+00	9.890350e-05	
399	3.200000e+00	9.895501e-05	
400	3.250000e+00	9.900462e-05	
401	3.300000e+00	9.905246e-05	
Note: No ".plot", ".print", or ".fourier" lines; no simulations run
