
Note: Compatibility modes selected: hs

Warning: m=xx on .subckt line will override multiplier m hierarchy!


Circuit: ***************************

Doing analysis at TEMP = 25.000000 and TNOM = 25.000000


No. of Data Rows : 402
                          ***************************
                          DC transfer characteristic  Mon Jan  9 13:57:17  2023
--------------------------------------------------------------------------------
Index   v-sweep         -i(vds)         
--------------------------------------------------------------------------------
0	0.000000e+00	-0.000000e+00	
1	5.000000e-02	3.868342e-07	
2	1.000000e-01	6.208964e-07	
3	1.500000e-01	7.207655e-07	
4	2.000000e-01	7.468507e-07	
5	2.500000e-01	7.553210e-07	
6	3.000000e-01	7.601317e-07	
7	3.500000e-01	7.636828e-07	
8	4.000000e-01	7.666127e-07	
9	4.500000e-01	7.691697e-07	
10	5.000000e-01	7.714762e-07	
11	5.500000e-01	7.736018e-07	
12	6.000000e-01	7.755901e-07	
13	6.500000e-01	7.774704e-07	
14	7.000000e-01	7.792635e-07	
15	7.500000e-01	7.809846e-07	
16	8.000000e-01	7.826452e-07	
17	8.500000e-01	7.842542e-07	
18	9.000000e-01	7.858188e-07	
19	9.500000e-01	7.873446e-07	
20	1.000000e+00	7.888363e-07	
21	1.050000e+00	7.902978e-07	
22	1.100000e+00	7.917324e-07	
23	1.150000e+00	7.931428e-07	
24	1.200000e+00	7.945313e-07	
25	1.250000e+00	7.959000e-07	
26	1.300000e+00	7.972507e-07	
27	1.350000e+00	7.985848e-07	
28	1.400000e+00	7.999039e-07	
29	1.450000e+00	8.012090e-07	
30	1.500000e+00	8.025013e-07	
31	1.550000e+00	8.037819e-07	
32	1.600000e+00	8.050517e-07	
33	1.650000e+00	8.063118e-07	
34	1.700000e+00	8.075629e-07	
35	1.750000e+00	8.088062e-07	
36	1.800000e+00	8.100427e-07	
37	1.850000e+00	8.112735e-07	
38	1.900000e+00	8.124999e-07	
39	1.950000e+00	8.137233e-07	
40	2.000000e+00	8.149453e-07	
41	2.050000e+00	8.161677e-07	
42	2.100000e+00	8.173926e-07	
43	2.150000e+00	8.186223e-07	
44	2.200000e+00	8.198594e-07	
45	2.250000e+00	8.211069e-07	
46	2.300000e+00	8.223682e-07	
47	2.350000e+00	8.236469e-07	
48	2.400000e+00	8.249472e-07	
49	2.450000e+00	8.262736e-07	
50	2.500000e+00	8.276312e-07	
51	2.550000e+00	8.290254e-07	
52	2.600000e+00	8.304623e-07	
53	2.650000e+00	8.319482e-07	
54	2.700000e+00	8.334902e-07	

Index   v-sweep         -i(vds)         
--------------------------------------------------------------------------------
55	2.750000e+00	8.350957e-07	
56	2.800000e+00	8.367729e-07	
57	2.850000e+00	8.385304e-07	
58	2.900000e+00	8.403772e-07	
59	2.950000e+00	8.423232e-07	
60	3.000000e+00	8.443786e-07	
61	3.050000e+00	8.465543e-07	
62	3.100000e+00	8.488616e-07	
63	3.150000e+00	8.513126e-07	
64	3.200000e+00	8.539199e-07	
65	3.250000e+00	8.566964e-07	
66	3.300000e+00	8.596560e-07	
67	0.000000e+00	-0.000000e+00	
68	5.000000e-02	1.946906e-06	
69	1.000000e-01	3.689821e-06	
70	1.500000e-01	5.233377e-06	
71	2.000000e-01	6.582091e-06	
72	2.500000e-01	7.740398e-06	
73	3.000000e-01	8.712706e-06	
74	3.500000e-01	9.503564e-06	
75	4.000000e-01	1.011813e-05	
76	4.500000e-01	1.056386e-05	
77	5.000000e-01	1.085603e-05	
78	5.500000e-01	1.102825e-05	
79	6.000000e-01	1.112823e-05	
80	6.500000e-01	1.119220e-05	
81	7.000000e-01	1.123804e-05	
82	7.500000e-01	1.127373e-05	
83	8.000000e-01	1.130311e-05	
84	8.500000e-01	1.132822e-05	
85	9.000000e-01	1.135027e-05	
86	9.500000e-01	1.137002e-05	
87	1.000000e+00	1.138799e-05	
88	1.050000e+00	1.140453e-05	
89	1.100000e+00	1.141990e-05	
90	1.150000e+00	1.143430e-05	
91	1.200000e+00	1.144788e-05	
92	1.250000e+00	1.146075e-05	
93	1.300000e+00	1.147302e-05	
94	1.350000e+00	1.148475e-05	
95	1.400000e+00	1.149601e-05	
96	1.450000e+00	1.150686e-05	
97	1.500000e+00	1.151733e-05	
98	1.550000e+00	1.152747e-05	
99	1.600000e+00	1.153730e-05	
100	1.650000e+00	1.154686e-05	
101	1.700000e+00	1.155616e-05	
102	1.750000e+00	1.156524e-05	
103	1.800000e+00	1.157410e-05	
104	1.850000e+00	1.158278e-05	
105	1.900000e+00	1.159127e-05	
106	1.950000e+00	1.159960e-05	
107	2.000000e+00	1.160778e-05	
108	2.050000e+00	1.161583e-05	
109	2.100000e+00	1.162375e-05	
110	2.150000e+00	1.163157e-05	
111	2.200000e+00	1.163930e-05	
112	2.250000e+00	1.164696e-05	

Index   v-sweep         -i(vds)         
--------------------------------------------------------------------------------
113	2.300000e+00	1.165457e-05	
114	2.350000e+00	1.166214e-05	
115	2.400000e+00	1.166970e-05	
116	2.450000e+00	1.167729e-05	
117	2.500000e+00	1.168493e-05	
118	2.550000e+00	1.169266e-05	
119	2.600000e+00	1.170052e-05	
120	2.650000e+00	1.170856e-05	
121	2.700000e+00	1.171681e-05	
122	2.750000e+00	1.172535e-05	
123	2.800000e+00	1.173423e-05	
124	2.850000e+00	1.174352e-05	
125	2.900000e+00	1.175330e-05	
126	2.950000e+00	1.176364e-05	
127	3.000000e+00	1.177463e-05	
128	3.050000e+00	1.178636e-05	
129	3.100000e+00	1.179895e-05	
130	3.150000e+00	1.181249e-05	
131	3.200000e+00	1.182711e-05	
132	3.250000e+00	1.184292e-05	
133	3.300000e+00	1.186006e-05	
134	0.000000e+00	-0.000000e+00	
135	5.000000e-02	3.320167e-06	
136	1.000000e-01	6.430040e-06	
137	1.500000e-01	9.334009e-06	
138	2.000000e-01	1.203634e-05	
139	2.500000e-01	1.454119e-05	
140	3.000000e-01	1.685260e-05	
141	3.500000e-01	1.897449e-05	
142	4.000000e-01	2.091069e-05	
143	4.500000e-01	2.266492e-05	
144	5.000000e-01	2.424081e-05	
145	5.500000e-01	2.564188e-05	
146	6.000000e-01	2.687156e-05	
147	6.500000e-01	2.793318e-05	
148	7.000000e-01	2.883004e-05	
149	7.500000e-01	2.956564e-05	
150	8.000000e-01	3.014464e-05	
151	8.500000e-01	3.057642e-05	
152	9.000000e-01	3.088176e-05	
153	9.500000e-01	3.109370e-05	
154	1.000000e+00	3.124520e-05	
155	1.050000e+00	3.135927e-05	
156	1.100000e+00	3.144959e-05	
157	1.150000e+00	3.152408e-05	
158	1.200000e+00	3.158746e-05	
159	1.250000e+00	3.164270e-05	
160	1.300000e+00	3.169175e-05	
161	1.350000e+00	3.173595e-05	
162	1.400000e+00	3.177626e-05	
163	1.450000e+00	3.181339e-05	
164	1.500000e+00	3.184787e-05	
165	1.550000e+00	3.188010e-05	
166	1.600000e+00	3.191041e-05	
167	1.650000e+00	3.193906e-05	
168	1.700000e+00	3.196626e-05	
169	1.750000e+00	3.199218e-05	
170	1.800000e+00	3.201697e-05	

Index   v-sweep         -i(vds)         
--------------------------------------------------------------------------------
171	1.850000e+00	3.204074e-05	
172	1.900000e+00	3.206361e-05	
173	1.950000e+00	3.208565e-05	
174	2.000000e+00	3.210694e-05	
175	2.050000e+00	3.212756e-05	
176	2.100000e+00	3.214755e-05	
177	2.150000e+00	3.216697e-05	
178	2.200000e+00	3.218587e-05	
179	2.250000e+00	3.220429e-05	
180	2.300000e+00	3.222227e-05	
181	2.350000e+00	3.223985e-05	
182	2.400000e+00	3.225707e-05	
183	2.450000e+00	3.227397e-05	
184	2.500000e+00	3.229059e-05	
185	2.550000e+00	3.230696e-05	
186	2.600000e+00	3.232316e-05	
187	2.650000e+00	3.233921e-05	
188	2.700000e+00	3.235520e-05	
189	2.750000e+00	3.237118e-05	
190	2.800000e+00	3.238724e-05	
191	2.850000e+00	3.240346e-05	
192	2.900000e+00	3.241994e-05	
193	2.950000e+00	3.243680e-05	
194	3.000000e+00	3.245416e-05	
195	3.050000e+00	3.247216e-05	
196	3.100000e+00	3.249095e-05	
197	3.150000e+00	3.251072e-05	
198	3.200000e+00	3.253165e-05	
199	3.250000e+00	3.255394e-05	
200	3.300000e+00	3.257782e-05	
201	0.000000e+00	-0.000000e+00	
202	5.000000e-02	4.446984e-06	
203	1.000000e-01	8.687112e-06	
204	1.500000e-01	1.272437e-05	
205	2.000000e-01	1.656266e-05	
206	2.500000e-01	2.020576e-05	
207	3.000000e-01	2.365737e-05	
208	3.500000e-01	2.692109e-05	
209	4.000000e-01	3.000042e-05	
210	4.500000e-01	3.289880e-05	
211	5.000000e-01	3.561954e-05	
212	5.500000e-01	3.816591e-05	
213	6.000000e-01	4.054105e-05	
214	6.500000e-01	4.274806e-05	
215	7.000000e-01	4.478991e-05	
216	7.500000e-01	4.666950e-05	
217	8.000000e-01	4.838960e-05	
218	8.500000e-01	4.995288e-05	
219	9.000000e-01	5.136179e-05	
220	9.500000e-01	5.261852e-05	
221	1.000000e+00	5.372486e-05	
222	1.050000e+00	5.468195e-05	
223	1.100000e+00	5.549025e-05	
224	1.150000e+00	5.615054e-05	
225	1.200000e+00	5.666828e-05	
226	1.250000e+00	5.706013e-05	
227	1.300000e+00	5.735366e-05	
228	1.350000e+00	5.757750e-05	

Index   v-sweep         -i(vds)         
--------------------------------------------------------------------------------
229	1.400000e+00	5.775378e-05	
230	1.450000e+00	5.789735e-05	
231	1.500000e+00	5.801778e-05	
232	1.550000e+00	5.812128e-05	
233	1.600000e+00	5.821199e-05	
234	1.650000e+00	5.829277e-05	
235	1.700000e+00	5.836565e-05	
236	1.750000e+00	5.843212e-05	
237	1.800000e+00	5.849328e-05	
238	1.850000e+00	5.854999e-05	
239	1.900000e+00	5.860291e-05	
240	1.950000e+00	5.865258e-05	
241	2.000000e+00	5.869943e-05	
242	2.050000e+00	5.874379e-05	
243	2.100000e+00	5.878597e-05	
244	2.150000e+00	5.882620e-05	
245	2.200000e+00	5.886469e-05	
246	2.250000e+00	5.890162e-05	
247	2.300000e+00	5.893712e-05	
248	2.350000e+00	5.897134e-05	
249	2.400000e+00	5.900439e-05	
250	2.450000e+00	5.903636e-05	
251	2.500000e+00	5.906734e-05	
252	2.550000e+00	5.909743e-05	
253	2.600000e+00	5.912668e-05	
254	2.650000e+00	5.915519e-05	
255	2.700000e+00	5.918300e-05	
256	2.750000e+00	5.921021e-05	
257	2.800000e+00	5.923687e-05	
258	2.850000e+00	5.926307e-05	
259	2.900000e+00	5.928888e-05	
260	2.950000e+00	5.931442e-05	
261	3.000000e+00	5.933976e-05	
262	3.050000e+00	5.936504e-05	
263	3.100000e+00	5.939039e-05	
264	3.150000e+00	5.941596e-05	
265	3.200000e+00	5.944192e-05	
266	3.250000e+00	5.946846e-05	
267	3.300000e+00	5.949580e-05	
268	0.000000e+00	-0.000000e+00	
269	5.000000e-02	5.342756e-06	
270	1.000000e-01	1.048731e-05	
271	1.500000e-01	1.543720e-05	
272	2.000000e-01	2.019585e-05	
273	2.500000e-01	2.476664e-05	
274	3.000000e-01	2.915285e-05	
275	3.500000e-01	3.335767e-05	
276	4.000000e-01	3.738426e-05	
277	4.500000e-01	4.123566e-05	
278	5.000000e-01	4.491487e-05	
279	5.500000e-01	4.842480e-05	
280	6.000000e-01	5.176830e-05	
281	6.500000e-01	5.494818e-05	
282	7.000000e-01	5.796713e-05	
283	7.500000e-01	6.082783e-05	
284	8.000000e-01	6.353285e-05	
285	8.500000e-01	6.608473e-05	
286	9.000000e-01	6.848592e-05	

Index   v-sweep         -i(vds)         
--------------------------------------------------------------------------------
287	9.500000e-01	7.073879e-05	
288	1.000000e+00	7.284564e-05	
289	1.050000e+00	7.480867e-05	
290	1.100000e+00	7.662994e-05	
291	1.150000e+00	7.831134e-05	
292	1.200000e+00	7.985451e-05	
293	1.250000e+00	8.126067e-05	
294	1.300000e+00	8.253038e-05	
295	1.350000e+00	8.366317e-05	
296	1.400000e+00	8.465705e-05	
297	1.450000e+00	8.550870e-05	
298	1.500000e+00	8.621585e-05	
299	1.550000e+00	8.678342e-05	
300	1.600000e+00	8.722847e-05	
301	1.650000e+00	8.757662e-05	
302	1.700000e+00	8.785323e-05	
303	1.750000e+00	8.807835e-05	
304	1.800000e+00	8.826619e-05	
305	1.850000e+00	8.842650e-05	
306	1.900000e+00	8.856595e-05	
307	1.950000e+00	8.868924e-05	
308	2.000000e+00	8.879970e-05	
309	2.050000e+00	8.889979e-05	
310	2.100000e+00	8.899135e-05	
311	2.150000e+00	8.907577e-05	
312	2.200000e+00	8.915415e-05	
313	2.250000e+00	8.922736e-05	
314	2.300000e+00	8.929609e-05	
315	2.350000e+00	8.936091e-05	
316	2.400000e+00	8.942229e-05	
317	2.450000e+00	8.948062e-05	
318	2.500000e+00	8.953622e-05	
319	2.550000e+00	8.958938e-05	
320	2.600000e+00	8.964034e-05	
321	2.650000e+00	8.968929e-05	
322	2.700000e+00	8.973643e-05	
323	2.750000e+00	8.978191e-05	
324	2.800000e+00	8.982586e-05	
325	2.850000e+00	8.986842e-05	
326	2.900000e+00	8.990971e-05	
327	2.950000e+00	8.994983e-05	
328	3.000000e+00	8.998888e-05	
329	3.050000e+00	9.002699e-05	
330	3.100000e+00	9.006424e-05	
331	3.150000e+00	9.010075e-05	
332	3.200000e+00	9.013666e-05	
333	3.250000e+00	9.017208e-05	
334	3.300000e+00	9.020718e-05	
335	0.000000e+00	-0.000000e+00	
336	5.000000e-02	6.034483e-06	
337	1.000000e-01	1.188242e-05	
338	1.500000e-01	1.754686e-05	
339	2.000000e-01	2.303080e-05	
340	2.500000e-01	2.833716e-05	
341	3.000000e-01	3.346880e-05	
342	3.500000e-01	3.842851e-05	
343	4.000000e-01	4.321905e-05	
344	4.500000e-01	4.784308e-05	

Index   v-sweep         -i(vds)         
--------------------------------------------------------------------------------
345	5.000000e-01	5.230323e-05	
346	5.500000e-01	5.660207e-05	
347	6.000000e-01	6.074212e-05	
348	6.500000e-01	6.472584e-05	
349	7.000000e-01	6.855564e-05	
350	7.500000e-01	7.223387e-05	
351	8.000000e-01	7.576285e-05	
352	8.500000e-01	7.914483e-05	
353	9.000000e-01	8.238203e-05	
354	9.500000e-01	8.547661e-05	
355	1.000000e+00	8.843069e-05	
356	1.050000e+00	9.124632e-05	
357	1.100000e+00	9.392551e-05	
358	1.150000e+00	9.647024e-05	
359	1.200000e+00	9.888238e-05	
360	1.250000e+00	1.011638e-04	
361	1.300000e+00	1.033161e-04	
362	1.350000e+00	1.053412e-04	
363	1.400000e+00	1.072403e-04	
364	1.450000e+00	1.090149e-04	
365	1.500000e+00	1.106658e-04	
366	1.550000e+00	1.121937e-04	
367	1.600000e+00	1.135983e-04	
368	1.650000e+00	1.148782e-04	
369	1.700000e+00	1.160301e-04	
370	1.750000e+00	1.170488e-04	
371	1.800000e+00	1.179281e-04	
372	1.850000e+00	1.186651e-04	
373	1.900000e+00	1.192665e-04	
374	1.950000e+00	1.197501e-04	
375	2.000000e+00	1.201399e-04	
376	2.050000e+00	1.204585e-04	
377	2.100000e+00	1.207239e-04	
378	2.150000e+00	1.209494e-04	
379	2.200000e+00	1.211445e-04	
380	2.250000e+00	1.213159e-04	
381	2.300000e+00	1.214687e-04	
382	2.350000e+00	1.216064e-04	
383	2.400000e+00	1.217317e-04	
384	2.450000e+00	1.218468e-04	
385	2.500000e+00	1.219531e-04	
386	2.550000e+00	1.220520e-04	
387	2.600000e+00	1.221445e-04	
388	2.650000e+00	1.222315e-04	
389	2.700000e+00	1.223135e-04	
390	2.750000e+00	1.223913e-04	
391	2.800000e+00	1.224652e-04	
392	2.850000e+00	1.225356e-04	
393	2.900000e+00	1.226030e-04	
394	2.950000e+00	1.226676e-04	
395	3.000000e+00	1.227296e-04	
396	3.050000e+00	1.227892e-04	
397	3.100000e+00	1.228468e-04	
398	3.150000e+00	1.229024e-04	
399	3.200000e+00	1.229563e-04	
400	3.250000e+00	1.230085e-04	
401	3.300000e+00	1.230592e-04	
Note: No ".plot", ".print", or ".fourier" lines; no simulations run
