
Note: Compatibility modes selected: hs

Warning: m=xx on .subckt line will override multiplier m hierarchy!


Circuit: ***************************

Doing analysis at TEMP = 25.000000 and TNOM = 25.000000


No. of Data Rows : 402
                          ***************************
                          DC transfer characteristic  Mon Jan  9 13:57:17  2023
--------------------------------------------------------------------------------
Index   v-sweep         -i(vds)         
--------------------------------------------------------------------------------
0	0.000000e+00	-0.000000e+00	
1	5.000000e-02	5.151475e-07	
2	1.000000e-01	8.056690e-07	
3	1.500000e-01	8.971552e-07	
4	2.000000e-01	9.074036e-07	
5	2.500000e-01	9.093502e-07	
6	3.000000e-01	9.103274e-07	
7	3.500000e-01	9.110480e-07	
8	4.000000e-01	9.116626e-07	
9	4.500000e-01	9.122210e-07	
10	5.000000e-01	9.127447e-07	
11	5.500000e-01	9.132449e-07	
12	6.000000e-01	9.137281e-07	
13	6.500000e-01	9.141984e-07	
14	7.000000e-01	9.146584e-07	
15	7.500000e-01	9.151102e-07	
16	8.000000e-01	9.155551e-07	
17	8.500000e-01	9.159943e-07	
18	9.000000e-01	9.164285e-07	
19	9.500000e-01	9.168585e-07	
20	1.000000e+00	9.172847e-07	
21	1.050000e+00	9.177077e-07	
22	1.100000e+00	9.181277e-07	
23	1.150000e+00	9.185451e-07	
24	1.200000e+00	9.189602e-07	
25	1.250000e+00	9.193731e-07	
26	1.300000e+00	9.197841e-07	
27	1.350000e+00	9.201934e-07	
28	1.400000e+00	9.206010e-07	
29	1.450000e+00	9.210072e-07	
30	1.500000e+00	9.214120e-07	
31	1.550000e+00	9.218156e-07	
32	1.600000e+00	9.222182e-07	
33	1.650000e+00	9.226200e-07	
34	1.700000e+00	9.230210e-07	
35	1.750000e+00	9.234217e-07	
36	1.800000e+00	9.238224e-07	
37	1.850000e+00	9.242233e-07	
38	1.900000e+00	9.246252e-07	
39	1.950000e+00	9.250287e-07	
40	2.000000e+00	9.254345e-07	
41	2.050000e+00	9.258438e-07	
42	2.100000e+00	9.262577e-07	
43	2.150000e+00	9.266779e-07	
44	2.200000e+00	9.271060e-07	
45	2.250000e+00	9.275442e-07	
46	2.300000e+00	9.279949e-07	
47	2.350000e+00	9.284610e-07	
48	2.400000e+00	9.289458e-07	
49	2.450000e+00	9.294528e-07	
50	2.500000e+00	9.299862e-07	
51	2.550000e+00	9.305506e-07	
52	2.600000e+00	9.311511e-07	
53	2.650000e+00	9.317933e-07	
54	2.700000e+00	9.324834e-07	

Index   v-sweep         -i(vds)         
--------------------------------------------------------------------------------
55	2.750000e+00	9.332279e-07	
56	2.800000e+00	9.340342e-07	
57	2.850000e+00	9.349100e-07	
58	2.900000e+00	9.358636e-07	
59	2.950000e+00	9.369039e-07	
60	3.000000e+00	9.380404e-07	
61	3.050000e+00	9.392829e-07	
62	3.100000e+00	9.406420e-07	
63	3.150000e+00	9.421287e-07	
64	3.200000e+00	9.437546e-07	
65	3.250000e+00	9.455317e-07	
66	3.300000e+00	9.474725e-07	
67	0.000000e+00	-0.000000e+00	
68	5.000000e-02	2.448805e-06	
69	1.000000e-01	4.634523e-06	
70	1.500000e-01	6.557856e-06	
71	2.000000e-01	8.219525e-06	
72	2.500000e-01	9.620299e-06	
73	3.000000e-01	1.076107e-05	
74	3.500000e-01	1.164309e-05	
75	4.000000e-01	1.226900e-05	
76	4.500000e-01	1.264770e-05	
77	5.000000e-01	1.281722e-05	
78	5.500000e-01	1.287183e-05	
79	6.000000e-01	1.289129e-05	
80	6.500000e-01	1.290134e-05	
81	7.000000e-01	1.290809e-05	
82	7.500000e-01	1.291332e-05	
83	8.000000e-01	1.291771e-05	
84	8.500000e-01	1.292158e-05	
85	9.000000e-01	1.292509e-05	
86	9.500000e-01	1.292833e-05	
87	1.000000e+00	1.293138e-05	
88	1.050000e+00	1.293427e-05	
89	1.100000e+00	1.293703e-05	
90	1.150000e+00	1.293969e-05	
91	1.200000e+00	1.294226e-05	
92	1.250000e+00	1.294476e-05	
93	1.300000e+00	1.294719e-05	
94	1.350000e+00	1.294957e-05	
95	1.400000e+00	1.295190e-05	
96	1.450000e+00	1.295418e-05	
97	1.500000e+00	1.295643e-05	
98	1.550000e+00	1.295864e-05	
99	1.600000e+00	1.296082e-05	
100	1.650000e+00	1.296297e-05	
101	1.700000e+00	1.296509e-05	
102	1.750000e+00	1.296719e-05	
103	1.800000e+00	1.296927e-05	
104	1.850000e+00	1.297133e-05	
105	1.900000e+00	1.297337e-05	
106	1.950000e+00	1.297540e-05	
107	2.000000e+00	1.297741e-05	
108	2.050000e+00	1.297941e-05	
109	2.100000e+00	1.298141e-05	
110	2.150000e+00	1.298340e-05	
111	2.200000e+00	1.298540e-05	
112	2.250000e+00	1.298741e-05	

Index   v-sweep         -i(vds)         
--------------------------------------------------------------------------------
113	2.300000e+00	1.298944e-05	
114	2.350000e+00	1.299151e-05	
115	2.400000e+00	1.299362e-05	
116	2.450000e+00	1.299579e-05	
117	2.500000e+00	1.299805e-05	
118	2.550000e+00	1.300042e-05	
119	2.600000e+00	1.300293e-05	
120	2.650000e+00	1.300561e-05	
121	2.700000e+00	1.300851e-05	
122	2.750000e+00	1.301166e-05	
123	2.800000e+00	1.301511e-05	
124	2.850000e+00	1.301894e-05	
125	2.900000e+00	1.302319e-05	
126	2.950000e+00	1.302794e-05	
127	3.000000e+00	1.303327e-05	
128	3.050000e+00	1.303926e-05	
129	3.100000e+00	1.304600e-05	
130	3.150000e+00	1.305360e-05	
131	3.200000e+00	1.306215e-05	
132	3.250000e+00	1.307179e-05	
133	3.300000e+00	1.308262e-05	
134	0.000000e+00	-0.000000e+00	
135	5.000000e-02	4.204115e-06	
136	1.000000e-01	8.159867e-06	
137	1.500000e-01	1.186786e-05	
138	2.000000e-01	1.532871e-05	
139	2.500000e-01	1.854300e-05	
140	3.000000e-01	2.151136e-05	
141	3.500000e-01	2.423439e-05	
142	4.000000e-01	2.671269e-05	
143	4.500000e-01	2.894688e-05	
144	5.000000e-01	3.093760e-05	
145	5.500000e-01	3.268551e-05	
146	6.000000e-01	3.419133e-05	
147	6.500000e-01	3.545593e-05	
148	7.000000e-01	3.648052e-05	
149	7.500000e-01	3.726732e-05	
150	8.000000e-01	3.782185e-05	
151	8.500000e-01	3.816106e-05	
152	9.000000e-01	3.833179e-05	
153	9.500000e-01	3.840856e-05	
154	1.000000e+00	3.844701e-05	
155	1.050000e+00	3.847044e-05	
156	1.100000e+00	3.848709e-05	
157	1.150000e+00	3.850014e-05	
158	1.200000e+00	3.851102e-05	
159	1.250000e+00	3.852047e-05	
160	1.300000e+00	3.852892e-05	
161	1.350000e+00	3.853663e-05	
162	1.400000e+00	3.854376e-05	
163	1.450000e+00	3.855043e-05	
164	1.500000e+00	3.855674e-05	
165	1.550000e+00	3.856273e-05	
166	1.600000e+00	3.856847e-05	
167	1.650000e+00	3.857399e-05	
168	1.700000e+00	3.857932e-05	
169	1.750000e+00	3.858448e-05	
170	1.800000e+00	3.858949e-05	

Index   v-sweep         -i(vds)         
--------------------------------------------------------------------------------
171	1.850000e+00	3.859437e-05	
172	1.900000e+00	3.859914e-05	
173	1.950000e+00	3.860380e-05	
174	2.000000e+00	3.860837e-05	
175	2.050000e+00	3.861285e-05	
176	2.100000e+00	3.861726e-05	
177	2.150000e+00	3.862159e-05	
178	2.200000e+00	3.862586e-05	
179	2.250000e+00	3.863007e-05	
180	2.300000e+00	3.863422e-05	
181	2.350000e+00	3.863834e-05	
182	2.400000e+00	3.864241e-05	
183	2.450000e+00	3.864646e-05	
184	2.500000e+00	3.865049e-05	
185	2.550000e+00	3.865452e-05	
186	2.600000e+00	3.865857e-05	
187	2.650000e+00	3.866266e-05	
188	2.700000e+00	3.866682e-05	
189	2.750000e+00	3.867109e-05	
190	2.800000e+00	3.867551e-05	
191	2.850000e+00	3.868014e-05	
192	2.900000e+00	3.868504e-05	
193	2.950000e+00	3.869030e-05	
194	3.000000e+00	3.869599e-05	
195	3.050000e+00	3.870223e-05	
196	3.100000e+00	3.870915e-05	
197	3.150000e+00	3.871687e-05	
198	3.200000e+00	3.872555e-05	
199	3.250000e+00	3.873537e-05	
200	3.300000e+00	3.874653e-05	
201	0.000000e+00	-0.000000e+00	
202	5.000000e-02	5.650486e-06	
203	1.000000e-01	1.107557e-05	
204	1.500000e-01	1.627576e-05	
205	2.000000e-01	2.125157e-05	
206	2.500000e-01	2.600352e-05	
207	3.000000e-01	3.053212e-05	
208	3.500000e-01	3.483788e-05	
209	4.000000e-01	3.892129e-05	
210	4.500000e-01	4.278288e-05	
211	5.000000e-01	4.642315e-05	
212	5.500000e-01	4.984260e-05	
213	6.000000e-01	5.304173e-05	
214	6.500000e-01	5.602107e-05	
215	7.000000e-01	5.878110e-05	
216	7.500000e-01	6.132235e-05	
217	8.000000e-01	6.364532e-05	
218	8.500000e-01	6.575056e-05	
219	9.000000e-01	6.763859e-05	
220	9.500000e-01	6.931000e-05	
221	1.000000e+00	7.076545e-05	
222	1.050000e+00	7.200574e-05	
223	1.100000e+00	7.303205e-05	
224	1.150000e+00	7.384646e-05	
225	1.200000e+00	7.445369e-05	
226	1.250000e+00	7.486607e-05	
227	1.300000e+00	7.511393e-05	
228	1.350000e+00	7.524982e-05	

Index   v-sweep         -i(vds)         
--------------------------------------------------------------------------------
229	1.400000e+00	7.532601e-05	
230	1.450000e+00	7.537376e-05	
231	1.500000e+00	7.540737e-05	
232	1.550000e+00	7.543319e-05	
233	1.600000e+00	7.545427e-05	
234	1.650000e+00	7.547223e-05	
235	1.700000e+00	7.548799e-05	
236	1.750000e+00	7.550213e-05	
237	1.800000e+00	7.551503e-05	
238	1.850000e+00	7.552695e-05	
239	1.900000e+00	7.553809e-05	
240	1.950000e+00	7.554857e-05	
241	2.000000e+00	7.555850e-05	
242	2.050000e+00	7.556797e-05	
243	2.100000e+00	7.557704e-05	
244	2.150000e+00	7.558576e-05	
245	2.200000e+00	7.559417e-05	
246	2.250000e+00	7.560231e-05	
247	2.300000e+00	7.561021e-05	
248	2.350000e+00	7.561790e-05	
249	2.400000e+00	7.562539e-05	
250	2.450000e+00	7.563270e-05	
251	2.500000e+00	7.563986e-05	
252	2.550000e+00	7.564686e-05	
253	2.600000e+00	7.565374e-05	
254	2.650000e+00	7.566049e-05	
255	2.700000e+00	7.566714e-05	
256	2.750000e+00	7.567369e-05	
257	2.800000e+00	7.568016e-05	
258	2.850000e+00	7.568658e-05	
259	2.900000e+00	7.569295e-05	
260	2.950000e+00	7.569931e-05	
261	3.000000e+00	7.570569e-05	
262	3.050000e+00	7.571214e-05	
263	3.100000e+00	7.571871e-05	
264	3.150000e+00	7.572546e-05	
265	3.200000e+00	7.573249e-05	
266	3.250000e+00	7.573989e-05	
267	3.300000e+00	7.574779e-05	
268	0.000000e+00	-0.000000e+00	
269	5.000000e-02	6.772489e-06	
270	1.000000e-01	1.334480e-05	
271	1.500000e-01	1.971735e-05	
272	2.000000e-01	2.589056e-05	
273	2.500000e-01	3.186487e-05	
274	3.000000e-01	3.764068e-05	
275	3.500000e-01	4.321842e-05	
276	4.000000e-01	4.859851e-05	
277	4.500000e-01	5.378136e-05	
278	5.000000e-01	5.876740e-05	
279	5.500000e-01	6.355703e-05	
280	6.000000e-01	6.815067e-05	
281	6.500000e-01	7.254873e-05	
282	7.000000e-01	7.675163e-05	
283	7.500000e-01	8.075978e-05	
284	8.000000e-01	8.457359e-05	
285	8.500000e-01	8.819346e-05	
286	9.000000e-01	9.161981e-05	

Index   v-sweep         -i(vds)         
--------------------------------------------------------------------------------
287	9.500000e-01	9.485305e-05	
288	1.000000e+00	9.789358e-05	
289	1.050000e+00	1.007418e-04	
290	1.100000e+00	1.033982e-04	
291	1.150000e+00	1.058630e-04	
292	1.200000e+00	1.081369e-04	
293	1.250000e+00	1.102200e-04	
294	1.300000e+00	1.121130e-04	
295	1.350000e+00	1.138163e-04	
296	1.400000e+00	1.153303e-04	
297	1.450000e+00	1.166557e-04	
298	1.500000e+00	1.177932e-04	
299	1.550000e+00	1.187439e-04	
300	1.600000e+00	1.195100e-04	
301	1.650000e+00	1.200962e-04	
302	1.700000e+00	1.205137e-04	
303	1.750000e+00	1.207870e-04	
304	1.800000e+00	1.209556e-04	
305	1.850000e+00	1.210608e-04	
306	1.900000e+00	1.211312e-04	
307	1.950000e+00	1.211822e-04	
308	2.000000e+00	1.212220e-04	
309	2.050000e+00	1.212544e-04	
310	2.100000e+00	1.212820e-04	
311	2.150000e+00	1.213062e-04	
312	2.200000e+00	1.213277e-04	
313	2.250000e+00	1.213472e-04	
314	2.300000e+00	1.213651e-04	
315	2.350000e+00	1.213818e-04	
316	2.400000e+00	1.213974e-04	
317	2.450000e+00	1.214121e-04	
318	2.500000e+00	1.214260e-04	
319	2.550000e+00	1.214393e-04	
320	2.600000e+00	1.214520e-04	
321	2.650000e+00	1.214642e-04	
322	2.700000e+00	1.214760e-04	
323	2.750000e+00	1.214874e-04	
324	2.800000e+00	1.214984e-04	
325	2.850000e+00	1.215091e-04	
326	2.900000e+00	1.215196e-04	
327	2.950000e+00	1.215297e-04	
328	3.000000e+00	1.215397e-04	
329	3.050000e+00	1.215494e-04	
330	3.100000e+00	1.215589e-04	
331	3.150000e+00	1.215682e-04	
332	3.200000e+00	1.215774e-04	
333	3.250000e+00	1.215865e-04	
334	3.300000e+00	1.215955e-04	
335	0.000000e+00	-0.000000e+00	
336	5.000000e-02	7.593091e-06	
337	1.000000e-01	1.501098e-05	
338	1.500000e-01	2.225400e-05	
339	2.000000e-01	2.932251e-05	
340	2.500000e-01	3.621683e-05	
341	3.000000e-01	4.293731e-05	
342	3.500000e-01	4.948429e-05	
343	4.000000e-01	5.585811e-05	
344	4.500000e-01	6.205910e-05	

Index   v-sweep         -i(vds)         
--------------------------------------------------------------------------------
345	5.000000e-01	6.808759e-05	
346	5.500000e-01	7.394394e-05	
347	6.000000e-01	7.962846e-05	
348	6.500000e-01	8.514149e-05	
349	7.000000e-01	9.048336e-05	
350	7.500000e-01	9.565441e-05	
351	8.000000e-01	1.006550e-04	
352	8.500000e-01	1.054854e-04	
353	9.000000e-01	1.101459e-04	
354	9.500000e-01	1.146370e-04	
355	1.000000e+00	1.189589e-04	
356	1.050000e+00	1.231119e-04	
357	1.100000e+00	1.270964e-04	
358	1.150000e+00	1.309127e-04	
359	1.200000e+00	1.345612e-04	
360	1.250000e+00	1.380421e-04	
361	1.300000e+00	1.413557e-04	
362	1.350000e+00	1.445025e-04	
363	1.400000e+00	1.474827e-04	
364	1.450000e+00	1.502967e-04	
365	1.500000e+00	1.529447e-04	
366	1.550000e+00	1.554271e-04	
367	1.600000e+00	1.577442e-04	
368	1.650000e+00	1.598964e-04	
369	1.700000e+00	1.618839e-04	
370	1.750000e+00	1.637072e-04	
371	1.800000e+00	1.653666e-04	
372	1.850000e+00	1.668624e-04	
373	1.900000e+00	1.681950e-04	
374	1.950000e+00	1.693651e-04	
375	2.000000e+00	1.703733e-04	
376	2.050000e+00	1.712208e-04	
377	2.100000e+00	1.719097e-04	
378	2.150000e+00	1.724452e-04	
379	2.200000e+00	1.728379e-04	
380	2.250000e+00	1.731094e-04	
381	2.300000e+00	1.732907e-04	
382	2.350000e+00	1.734135e-04	
383	2.400000e+00	1.735009e-04	
384	2.450000e+00	1.735669e-04	
385	2.500000e+00	1.736193e-04	
386	2.550000e+00	1.736627e-04	
387	2.600000e+00	1.736998e-04	
388	2.650000e+00	1.737324e-04	
389	2.700000e+00	1.737614e-04	
390	2.750000e+00	1.737877e-04	
391	2.800000e+00	1.738119e-04	
392	2.850000e+00	1.738343e-04	
393	2.900000e+00	1.738552e-04	
394	2.950000e+00	1.738749e-04	
395	3.000000e+00	1.738935e-04	
396	3.050000e+00	1.739112e-04	
397	3.100000e+00	1.739281e-04	
398	3.150000e+00	1.739442e-04	
399	3.200000e+00	1.739598e-04	
400	3.250000e+00	1.739748e-04	
401	3.300000e+00	1.739894e-04	
Note: No ".plot", ".print", or ".fourier" lines; no simulations run
