
Note: Compatibility modes selected: hs

Warning: m=xx on .subckt line will override multiplier m hierarchy!


Circuit: ***************************

Doing analysis at TEMP = -40.000000 and TNOM = -40.000000


No. of Data Rows : 402
                          ***************************
                          DC transfer characteristic  Mon Jan  9 13:57:17  2023
--------------------------------------------------------------------------------
Index   v-sweep         -i(vds)         
--------------------------------------------------------------------------------
0	0.000000e+00	-0.000000e+00	
1	5.000000e-02	7.936835e-07	
2	1.000000e-01	1.008996e-06	
3	1.500000e-01	1.023209e-06	
4	2.000000e-01	1.025684e-06	
5	2.500000e-01	1.027041e-06	
6	3.000000e-01	1.028106e-06	
7	3.500000e-01	1.029050e-06	
8	4.000000e-01	1.029929e-06	
9	4.500000e-01	1.030768e-06	
10	5.000000e-01	1.031580e-06	
11	5.500000e-01	1.032373e-06	
12	6.000000e-01	1.033151e-06	
13	6.500000e-01	1.033916e-06	
14	7.000000e-01	1.034673e-06	
15	7.500000e-01	1.035422e-06	
16	8.000000e-01	1.036163e-06	
17	8.500000e-01	1.036900e-06	
18	9.000000e-01	1.037631e-06	
19	9.500000e-01	1.038358e-06	
20	1.000000e+00	1.039082e-06	
21	1.050000e+00	1.039802e-06	
22	1.100000e+00	1.040519e-06	
23	1.150000e+00	1.041234e-06	
24	1.200000e+00	1.041946e-06	
25	1.250000e+00	1.042656e-06	
26	1.300000e+00	1.043363e-06	
27	1.350000e+00	1.044069e-06	
28	1.400000e+00	1.044774e-06	
29	1.450000e+00	1.045477e-06	
30	1.500000e+00	1.046178e-06	
31	1.550000e+00	1.046878e-06	
32	1.600000e+00	1.047578e-06	
33	1.650000e+00	1.048276e-06	
34	1.700000e+00	1.048975e-06	
35	1.750000e+00	1.049673e-06	
36	1.800000e+00	1.050371e-06	
37	1.850000e+00	1.051071e-06	
38	1.900000e+00	1.051772e-06	
39	1.950000e+00	1.052476e-06	
40	2.000000e+00	1.053184e-06	
41	2.050000e+00	1.053898e-06	
42	2.100000e+00	1.054618e-06	
43	2.150000e+00	1.055348e-06	
44	2.200000e+00	1.056089e-06	
45	2.250000e+00	1.056844e-06	
46	2.300000e+00	1.057617e-06	
47	2.350000e+00	1.058411e-06	
48	2.400000e+00	1.059230e-06	
49	2.450000e+00	1.060080e-06	
50	2.500000e+00	1.060965e-06	
51	2.550000e+00	1.061891e-06	
52	2.600000e+00	1.062864e-06	
53	2.650000e+00	1.063893e-06	
54	2.700000e+00	1.064983e-06	

Index   v-sweep         -i(vds)         
--------------------------------------------------------------------------------
55	2.750000e+00	1.066144e-06	
56	2.800000e+00	1.067384e-06	
57	2.850000e+00	1.068713e-06	
58	2.900000e+00	1.070141e-06	
59	2.950000e+00	1.071679e-06	
60	3.000000e+00	1.073338e-06	
61	3.050000e+00	1.075131e-06	
62	3.100000e+00	1.077069e-06	
63	3.150000e+00	1.079166e-06	
64	3.200000e+00	1.081437e-06	
65	3.250000e+00	1.083895e-06	
66	3.300000e+00	1.086556e-06	
67	0.000000e+00	-0.000000e+00	
68	5.000000e-02	6.742583e-06	
69	1.000000e-01	1.264927e-05	
70	1.500000e-01	1.772328e-05	
71	2.000000e-01	2.196794e-05	
72	2.500000e-01	2.538697e-05	
73	3.000000e-01	2.798529e-05	
74	3.500000e-01	2.977280e-05	
75	4.000000e-01	3.078570e-05	
76	4.500000e-01	3.118424e-05	
77	5.000000e-01	3.130076e-05	
78	5.500000e-01	3.134425e-05	
79	6.000000e-01	3.136818e-05	
80	6.500000e-01	3.138487e-05	
81	7.000000e-01	3.139807e-05	
82	7.500000e-01	3.140929e-05	
83	8.000000e-01	3.141924e-05	
84	8.500000e-01	3.142832e-05	
85	9.000000e-01	3.143675e-05	
86	9.500000e-01	3.144470e-05	
87	1.000000e+00	3.145226e-05	
88	1.050000e+00	3.145951e-05	
89	1.100000e+00	3.146651e-05	
90	1.150000e+00	3.147328e-05	
91	1.200000e+00	3.147988e-05	
92	1.250000e+00	3.148631e-05	
93	1.300000e+00	3.149261e-05	
94	1.350000e+00	3.149879e-05	
95	1.400000e+00	3.150485e-05	
96	1.450000e+00	3.151082e-05	
97	1.500000e+00	3.151671e-05	
98	1.550000e+00	3.152252e-05	
99	1.600000e+00	3.152825e-05	
100	1.650000e+00	3.153392e-05	
101	1.700000e+00	3.153954e-05	
102	1.750000e+00	3.154510e-05	
103	1.800000e+00	3.155061e-05	
104	1.850000e+00	3.155608e-05	
105	1.900000e+00	3.156151e-05	
106	1.950000e+00	3.156691e-05	
107	2.000000e+00	3.157229e-05	
108	2.050000e+00	3.157765e-05	
109	2.100000e+00	3.158301e-05	
110	2.150000e+00	3.158838e-05	
111	2.200000e+00	3.159379e-05	
112	2.250000e+00	3.159925e-05	

Index   v-sweep         -i(vds)         
--------------------------------------------------------------------------------
113	2.300000e+00	3.160479e-05	
114	2.350000e+00	3.161046e-05	
115	2.400000e+00	3.161629e-05	
116	2.450000e+00	3.162234e-05	
117	2.500000e+00	3.162866e-05	
118	2.550000e+00	3.163534e-05	
119	2.600000e+00	3.164246e-05	
120	2.650000e+00	3.165011e-05	
121	2.700000e+00	3.165840e-05	
122	2.750000e+00	3.166747e-05	
123	2.800000e+00	3.167746e-05	
124	2.850000e+00	3.168851e-05	
125	2.900000e+00	3.170081e-05	
126	2.950000e+00	3.171455e-05	
127	3.000000e+00	3.172994e-05	
128	3.050000e+00	3.174719e-05	
129	3.100000e+00	3.176657e-05	
130	3.150000e+00	3.178833e-05	
131	3.200000e+00	3.181276e-05	
132	3.250000e+00	3.184016e-05	
133	3.300000e+00	3.187084e-05	
134	0.000000e+00	-0.000000e+00	
135	5.000000e-02	1.221041e-05	
136	1.000000e-01	2.363332e-05	
137	1.500000e-01	3.427146e-05	
138	2.000000e-01	4.412757e-05	
139	2.500000e-01	5.320437e-05	
140	3.000000e-01	6.150458e-05	
141	3.500000e-01	6.903093e-05	
142	4.000000e-01	7.578616e-05	
143	4.500000e-01	8.177304e-05	
144	5.000000e-01	8.699442e-05	
145	5.500000e-01	9.145335e-05	
146	6.000000e-01	9.515335e-05	
147	6.500000e-01	9.809919e-05	
148	7.000000e-01	1.002997e-04	
149	7.500000e-01	1.017789e-04	
150	8.000000e-01	1.026148e-04	
151	8.500000e-01	1.030020e-04	
152	9.000000e-01	1.031760e-04	
153	9.500000e-01	1.032689e-04	
154	1.000000e+00	1.033287e-04	
155	1.050000e+00	1.033727e-04	
156	1.100000e+00	1.034079e-04	
157	1.150000e+00	1.034375e-04	
158	1.200000e+00	1.034635e-04	
159	1.250000e+00	1.034868e-04	
160	1.300000e+00	1.035080e-04	
161	1.350000e+00	1.035278e-04	
162	1.400000e+00	1.035463e-04	
163	1.450000e+00	1.035638e-04	
164	1.500000e+00	1.035805e-04	
165	1.550000e+00	1.035965e-04	
166	1.600000e+00	1.036119e-04	
167	1.650000e+00	1.036267e-04	
168	1.700000e+00	1.036411e-04	
169	1.750000e+00	1.036551e-04	
170	1.800000e+00	1.036688e-04	

Index   v-sweep         -i(vds)         
--------------------------------------------------------------------------------
171	1.850000e+00	1.036821e-04	
172	1.900000e+00	1.036952e-04	
173	1.950000e+00	1.037080e-04	
174	2.000000e+00	1.037205e-04	
175	2.050000e+00	1.037329e-04	
176	2.100000e+00	1.037450e-04	
177	2.150000e+00	1.037570e-04	
178	2.200000e+00	1.037689e-04	
179	2.250000e+00	1.037806e-04	
180	2.300000e+00	1.037921e-04	
181	2.350000e+00	1.038036e-04	
182	2.400000e+00	1.038150e-04	
183	2.450000e+00	1.038264e-04	
184	2.500000e+00	1.038378e-04	
185	2.550000e+00	1.038492e-04	
186	2.600000e+00	1.038608e-04	
187	2.650000e+00	1.038726e-04	
188	2.700000e+00	1.038847e-04	
189	2.750000e+00	1.038973e-04	
190	2.800000e+00	1.039106e-04	
191	2.850000e+00	1.039246e-04	
192	2.900000e+00	1.039396e-04	
193	2.950000e+00	1.039559e-04	
194	3.000000e+00	1.039738e-04	
195	3.050000e+00	1.039936e-04	
196	3.100000e+00	1.040158e-04	
197	3.150000e+00	1.040406e-04	
198	3.200000e+00	1.040687e-04	
199	3.250000e+00	1.041006e-04	
200	3.300000e+00	1.041369e-04	
201	0.000000e+00	-0.000000e+00	
202	5.000000e-02	1.660874e-05	
203	1.000000e-01	3.250735e-05	
204	1.500000e-01	4.769811e-05	
205	2.000000e-01	6.218331e-05	
206	2.500000e-01	7.596522e-05	
207	3.000000e-01	8.904612e-05	
208	3.500000e-01	1.014283e-04	
209	4.000000e-01	1.131139e-04	
210	4.500000e-01	1.241052e-04	
211	5.000000e-01	1.344045e-04	
212	5.500000e-01	1.440140e-04	
213	6.000000e-01	1.529359e-04	
214	6.500000e-01	1.611724e-04	
215	7.000000e-01	1.687258e-04	
216	7.500000e-01	1.755982e-04	
217	8.000000e-01	1.817920e-04	
218	8.500000e-01	1.873093e-04	
219	9.000000e-01	1.921526e-04	
220	9.500000e-01	1.963245e-04	
221	1.000000e+00	1.998281e-04	
222	1.050000e+00	2.026680e-04	
223	1.100000e+00	2.048528e-04	
224	1.150000e+00	2.064048e-04	
225	1.200000e+00	2.073867e-04	
226	1.250000e+00	2.079371e-04	
227	1.300000e+00	2.082360e-04	
228	1.350000e+00	2.084127e-04	

Index   v-sweep         -i(vds)         
--------------------------------------------------------------------------------
229	1.400000e+00	2.085305e-04	
230	1.450000e+00	2.086173e-04	
231	1.500000e+00	2.086860e-04	
232	1.550000e+00	2.087431e-04	
233	1.600000e+00	2.087923e-04	
234	1.650000e+00	2.088358e-04	
235	1.700000e+00	2.088750e-04	
236	1.750000e+00	2.089110e-04	
237	1.800000e+00	2.089443e-04	
238	1.850000e+00	2.089755e-04	
239	1.900000e+00	2.090049e-04	
240	1.950000e+00	2.090328e-04	
241	2.000000e+00	2.090594e-04	
242	2.050000e+00	2.090849e-04	
243	2.100000e+00	2.091094e-04	
244	2.150000e+00	2.091332e-04	
245	2.200000e+00	2.091561e-04	
246	2.250000e+00	2.091784e-04	
247	2.300000e+00	2.092001e-04	
248	2.350000e+00	2.092213e-04	
249	2.400000e+00	2.092420e-04	
250	2.450000e+00	2.092622e-04	
251	2.500000e+00	2.092820e-04	
252	2.550000e+00	2.093015e-04	
253	2.600000e+00	2.093207e-04	
254	2.650000e+00	2.093395e-04	
255	2.700000e+00	2.093581e-04	
256	2.750000e+00	2.093765e-04	
257	2.800000e+00	2.093948e-04	
258	2.850000e+00	2.094129e-04	
259	2.900000e+00	2.094311e-04	
260	2.950000e+00	2.094494e-04	
261	3.000000e+00	2.094680e-04	
262	3.050000e+00	2.094870e-04	
263	3.100000e+00	2.095067e-04	
264	3.150000e+00	2.095272e-04	
265	3.200000e+00	2.095490e-04	
266	3.250000e+00	2.095723e-04	
267	3.300000e+00	2.095977e-04	
268	0.000000e+00	-0.000000e+00	
269	5.000000e-02	1.989142e-05	
270	1.000000e-01	3.915781e-05	
271	1.500000e-01	5.780105e-05	
272	2.000000e-01	7.582297e-05	
273	2.500000e-01	9.322541e-05	
274	3.000000e-01	1.100102e-04	
275	3.500000e-01	1.261792e-04	
276	4.000000e-01	1.417342e-04	
277	4.500000e-01	1.566770e-04	
278	5.000000e-01	1.710094e-04	
279	5.500000e-01	1.847333e-04	
280	6.000000e-01	1.978503e-04	
281	6.500000e-01	2.103624e-04	
282	7.000000e-01	2.222712e-04	
283	7.500000e-01	2.335785e-04	
284	8.000000e-01	2.442862e-04	
285	8.500000e-01	2.543959e-04	
286	9.000000e-01	2.639095e-04	

Index   v-sweep         -i(vds)         
--------------------------------------------------------------------------------
287	9.500000e-01	2.728286e-04	
288	1.000000e+00	2.811550e-04	
289	1.050000e+00	2.888904e-04	
290	1.100000e+00	2.960366e-04	
291	1.150000e+00	3.025953e-04	
292	1.200000e+00	3.085683e-04	
293	1.250000e+00	3.139572e-04	
294	1.300000e+00	3.187639e-04	
295	1.350000e+00	3.229903e-04	
296	1.400000e+00	3.266384e-04	
297	1.450000e+00	3.297109e-04	
298	1.500000e+00	3.322124e-04	
299	1.550000e+00	3.341524e-04	
300	1.600000e+00	3.355564e-04	
301	1.650000e+00	3.364880e-04	
302	1.700000e+00	3.370641e-04	
303	1.750000e+00	3.374194e-04	
304	1.800000e+00	3.376525e-04	
305	1.850000e+00	3.378182e-04	
306	1.900000e+00	3.379445e-04	
307	1.950000e+00	3.380462e-04	
308	2.000000e+00	3.381315e-04	
309	2.050000e+00	3.382051e-04	
310	2.100000e+00	3.382702e-04	
311	2.150000e+00	3.383288e-04	
312	2.200000e+00	3.383823e-04	
313	2.250000e+00	3.384317e-04	
314	2.300000e+00	3.384777e-04	
315	2.350000e+00	3.385209e-04	
316	2.400000e+00	3.385617e-04	
317	2.450000e+00	3.386006e-04	
318	2.500000e+00	3.386376e-04	
319	2.550000e+00	3.386731e-04	
320	2.600000e+00	3.387073e-04	
321	2.650000e+00	3.387403e-04	
322	2.700000e+00	3.387722e-04	
323	2.750000e+00	3.388031e-04	
324	2.800000e+00	3.388332e-04	
325	2.850000e+00	3.388625e-04	
326	2.900000e+00	3.388911e-04	
327	2.950000e+00	3.389190e-04	
328	3.000000e+00	3.389463e-04	
329	3.050000e+00	3.389732e-04	
330	3.100000e+00	3.389995e-04	
331	3.150000e+00	3.390255e-04	
332	3.200000e+00	3.390512e-04	
333	3.250000e+00	3.390766e-04	
334	3.300000e+00	3.391020e-04	
335	0.000000e+00	-0.000000e+00	
336	5.000000e-02	2.216402e-05	
337	1.000000e-01	4.378673e-05	
338	1.500000e-01	6.486958e-05	
339	2.000000e-01	8.541403e-05	
340	2.500000e-01	1.054215e-04	
341	3.000000e-01	1.248936e-04	
342	3.500000e-01	1.438315e-04	
343	4.000000e-01	1.622369e-04	
344	4.500000e-01	1.801110e-04	

Index   v-sweep         -i(vds)         
--------------------------------------------------------------------------------
345	5.000000e-01	1.974554e-04	
346	5.500000e-01	2.142715e-04	
347	6.000000e-01	2.305607e-04	
348	6.500000e-01	2.463243e-04	
349	7.000000e-01	2.615639e-04	
350	7.500000e-01	2.762807e-04	
351	8.000000e-01	2.904763e-04	
352	8.500000e-01	3.041519e-04	
353	9.000000e-01	3.173091e-04	
354	9.500000e-01	3.299491e-04	
355	1.000000e+00	3.420733e-04	
356	1.050000e+00	3.536831e-04	
357	1.100000e+00	3.647799e-04	
358	1.150000e+00	3.753650e-04	
359	1.200000e+00	3.854399e-04	
360	1.250000e+00	3.950057e-04	
361	1.300000e+00	4.040640e-04	
362	1.350000e+00	4.126160e-04	
363	1.400000e+00	4.206630e-04	
364	1.450000e+00	4.282064e-04	
365	1.500000e+00	4.352475e-04	
366	1.550000e+00	4.417876e-04	
367	1.600000e+00	4.478281e-04	
368	1.650000e+00	4.533701e-04	
369	1.700000e+00	4.584150e-04	
370	1.750000e+00	4.629640e-04	
371	1.800000e+00	4.670185e-04	
372	1.850000e+00	4.705797e-04	
373	1.900000e+00	4.736492e-04	
374	1.950000e+00	4.762293e-04	
375	2.000000e+00	4.783248e-04	
376	2.050000e+00	4.799481e-04	
377	2.100000e+00	4.811311e-04	
378	2.150000e+00	4.819420e-04	
379	2.200000e+00	4.824809e-04	
380	2.250000e+00	4.828457e-04	
381	2.300000e+00	4.831055e-04	
382	2.350000e+00	4.833016e-04	
383	2.400000e+00	4.834570e-04	
384	2.450000e+00	4.835854e-04	
385	2.500000e+00	4.836947e-04	
386	2.550000e+00	4.837901e-04	
387	2.600000e+00	4.838750e-04	
388	2.650000e+00	4.839516e-04	
389	2.700000e+00	4.840218e-04	
390	2.750000e+00	4.840866e-04	
391	2.800000e+00	4.841470e-04	
392	2.850000e+00	4.842036e-04	
393	2.900000e+00	4.842572e-04	
394	2.950000e+00	4.843079e-04	
395	3.000000e+00	4.843564e-04	
396	3.050000e+00	4.844027e-04	
397	3.100000e+00	4.844472e-04	
398	3.150000e+00	4.844901e-04	
399	3.200000e+00	4.845315e-04	
400	3.250000e+00	4.845716e-04	
401	3.300000e+00	4.846105e-04	
Note: No ".plot", ".print", or ".fourier" lines; no simulations run
