
Note: Compatibility modes selected: hs

Warning: m=xx on .subckt line will override multiplier m hierarchy!


Circuit: ***************************

Doing analysis at TEMP = 125.000000 and TNOM = 125.000000


No. of Data Rows : 402
                          ***************************
                          DC transfer characteristic  Mon Jan  9 13:57:19  2023
--------------------------------------------------------------------------------
Index   v-sweep         -i(vds)         
--------------------------------------------------------------------------------
0	0.000000e+00	-0.000000e+00	
1	5.000000e-02	9.576955e-07	
2	1.000000e-01	1.690677e-06	
3	1.500000e-01	2.210862e-06	
4	2.000000e-01	2.529472e-06	
5	2.500000e-01	2.677671e-06	
6	3.000000e-01	2.730419e-06	
7	3.500000e-01	2.753025e-06	
8	4.000000e-01	2.766917e-06	
9	4.500000e-01	2.777330e-06	
10	5.000000e-01	2.785913e-06	
11	5.500000e-01	2.793359e-06	
12	6.000000e-01	2.800021e-06	
13	6.500000e-01	2.806109e-06	
14	7.000000e-01	2.811754e-06	
15	7.500000e-01	2.817047e-06	
16	8.000000e-01	2.822054e-06	
17	8.500000e-01	2.826823e-06	
18	9.000000e-01	2.831390e-06	
19	9.500000e-01	2.835784e-06	
20	1.000000e+00	2.840028e-06	
21	1.050000e+00	2.844142e-06	
22	1.100000e+00	2.848139e-06	
23	1.150000e+00	2.852034e-06	
24	1.200000e+00	2.855837e-06	
25	1.250000e+00	2.859556e-06	
26	1.300000e+00	2.863201e-06	
27	1.350000e+00	2.866777e-06	
28	1.400000e+00	2.870291e-06	
29	1.450000e+00	2.873748e-06	
30	1.500000e+00	2.877153e-06	
31	1.550000e+00	2.880509e-06	
32	1.600000e+00	2.883821e-06	
33	1.650000e+00	2.887091e-06	
34	1.700000e+00	2.890325e-06	
35	1.750000e+00	2.893525e-06	
36	1.800000e+00	2.896693e-06	
37	1.850000e+00	2.899835e-06	
38	1.900000e+00	2.902954e-06	
39	1.950000e+00	2.906054e-06	
40	2.000000e+00	2.909140e-06	
41	2.050000e+00	2.912216e-06	
42	2.100000e+00	2.915290e-06	
43	2.150000e+00	2.918368e-06	
44	2.200000e+00	2.921457e-06	
45	2.250000e+00	2.924566e-06	
46	2.300000e+00	2.927706e-06	
47	2.350000e+00	2.930887e-06	
48	2.400000e+00	2.934122e-06	
49	2.450000e+00	2.937425e-06	
50	2.500000e+00	2.940811e-06	
51	2.550000e+00	2.944296e-06	
52	2.600000e+00	2.947901e-06	
53	2.650000e+00	2.951644e-06	
54	2.700000e+00	2.955548e-06	

Index   v-sweep         -i(vds)         
--------------------------------------------------------------------------------
55	2.750000e+00	2.959637e-06	
56	2.800000e+00	2.963936e-06	
57	2.850000e+00	2.968473e-06	
58	2.900000e+00	2.973277e-06	
59	2.950000e+00	2.978380e-06	
60	3.000000e+00	2.983815e-06	
61	3.050000e+00	2.989616e-06	
62	3.100000e+00	2.995822e-06	
63	3.150000e+00	3.002470e-06	
64	3.200000e+00	3.009604e-06	
65	3.250000e+00	3.017264e-06	
66	3.300000e+00	3.025497e-06	
67	0.000000e+00	-0.000000e+00	
68	5.000000e-02	2.997332e-06	
69	1.000000e-01	5.729115e-06	
70	1.500000e-01	8.206217e-06	
71	2.000000e-01	1.043436e-05	
72	2.500000e-01	1.241799e-05	
73	3.000000e-01	1.416124e-05	
74	3.500000e-01	1.566817e-05	
75	4.000000e-01	1.694295e-05	
76	4.500000e-01	1.799006e-05	
77	5.000000e-01	1.881507e-05	
78	5.500000e-01	1.942679e-05	
79	6.000000e-01	1.984338e-05	
80	6.500000e-01	2.010319e-05	
81	7.000000e-01	2.026201e-05	
82	7.500000e-01	2.036669e-05	
83	8.000000e-01	2.044292e-05	
84	8.500000e-01	2.050288e-05	
85	9.000000e-01	2.055257e-05	
86	9.500000e-01	2.059525e-05	
87	1.000000e+00	2.063284e-05	
88	1.050000e+00	2.066659e-05	
89	1.100000e+00	2.069733e-05	
90	1.150000e+00	2.072564e-05	
91	1.200000e+00	2.075196e-05	
92	1.250000e+00	2.077662e-05	
93	1.300000e+00	2.079986e-05	
94	1.350000e+00	2.082188e-05	
95	1.400000e+00	2.084285e-05	
96	1.450000e+00	2.086289e-05	
97	1.500000e+00	2.088211e-05	
98	1.550000e+00	2.090060e-05	
99	1.600000e+00	2.091844e-05	
100	1.650000e+00	2.093569e-05	
101	1.700000e+00	2.095240e-05	
102	1.750000e+00	2.096863e-05	
103	1.800000e+00	2.098442e-05	
104	1.850000e+00	2.099980e-05	
105	1.900000e+00	2.101480e-05	
106	1.950000e+00	2.102946e-05	
107	2.000000e+00	2.104381e-05	
108	2.050000e+00	2.105787e-05	
109	2.100000e+00	2.107166e-05	
110	2.150000e+00	2.108521e-05	
111	2.200000e+00	2.109855e-05	
112	2.250000e+00	2.111170e-05	

Index   v-sweep         -i(vds)         
--------------------------------------------------------------------------------
113	2.300000e+00	2.112469e-05	
114	2.350000e+00	2.113756e-05	
115	2.400000e+00	2.115033e-05	
116	2.450000e+00	2.116306e-05	
117	2.500000e+00	2.117578e-05	
118	2.550000e+00	2.118855e-05	
119	2.600000e+00	2.120143e-05	
120	2.650000e+00	2.121448e-05	
121	2.700000e+00	2.122777e-05	
122	2.750000e+00	2.124140e-05	
123	2.800000e+00	2.125546e-05	
124	2.850000e+00	2.127005e-05	
125	2.900000e+00	2.128528e-05	
126	2.950000e+00	2.130128e-05	
127	3.000000e+00	2.131819e-05	
128	3.050000e+00	2.133617e-05	
129	3.100000e+00	2.135536e-05	
130	3.150000e+00	2.137596e-05	
131	3.200000e+00	2.139814e-05	
132	3.250000e+00	2.142212e-05	
133	3.300000e+00	2.144809e-05	
134	0.000000e+00	-0.000000e+00	
135	5.000000e-02	4.799966e-06	
136	1.000000e-01	9.328852e-06	
137	1.500000e-01	1.359732e-05	
138	2.000000e-01	1.761088e-05	
139	2.500000e-01	2.137377e-05	
140	3.000000e-01	2.488985e-05	
141	3.500000e-01	2.816285e-05	
142	4.000000e-01	3.119642e-05	
143	4.500000e-01	3.399414e-05	
144	5.000000e-01	3.655951e-05	
145	5.500000e-01	3.889599e-05	
146	6.000000e-01	4.100698e-05	
147	6.500000e-01	4.289586e-05	
148	7.000000e-01	4.456600e-05	
149	7.500000e-01	4.602081e-05	
150	8.000000e-01	4.726396e-05	
151	8.500000e-01	4.829969e-05	
152	9.000000e-01	4.913401e-05	
153	9.500000e-01	4.977765e-05	
154	1.000000e+00	5.025176e-05	
155	1.050000e+00	5.059157e-05	
156	1.100000e+00	5.083792e-05	
157	1.150000e+00	5.102397e-05	
158	1.200000e+00	5.117118e-05	
159	1.250000e+00	5.129243e-05	
160	1.300000e+00	5.139549e-05	
161	1.350000e+00	5.148524e-05	
162	1.400000e+00	5.156489e-05	
163	1.450000e+00	5.163664e-05	
164	1.500000e+00	5.170204e-05	
165	1.550000e+00	5.176225e-05	
166	1.600000e+00	5.181812e-05	
167	1.650000e+00	5.187034e-05	
168	1.700000e+00	5.191942e-05	
169	1.750000e+00	5.196578e-05	
170	1.800000e+00	5.200977e-05	

Index   v-sweep         -i(vds)         
--------------------------------------------------------------------------------
171	1.850000e+00	5.205166e-05	
172	1.900000e+00	5.209170e-05	
173	1.950000e+00	5.213008e-05	
174	2.000000e+00	5.216696e-05	
175	2.050000e+00	5.220249e-05	
176	2.100000e+00	5.223680e-05	
177	2.150000e+00	5.226999e-05	
178	2.200000e+00	5.230216e-05	
179	2.250000e+00	5.233339e-05	
180	2.300000e+00	5.236376e-05	
181	2.350000e+00	5.239334e-05	
182	2.400000e+00	5.242219e-05	
183	2.450000e+00	5.245038e-05	
184	2.500000e+00	5.247796e-05	
185	2.550000e+00	5.250501e-05	
186	2.600000e+00	5.253158e-05	
187	2.650000e+00	5.255775e-05	
188	2.700000e+00	5.258359e-05	
189	2.750000e+00	5.260918e-05	
190	2.800000e+00	5.263464e-05	
191	2.850000e+00	5.266006e-05	
192	2.900000e+00	5.268556e-05	
193	2.950000e+00	5.271130e-05	
194	3.000000e+00	5.273743e-05	
195	3.050000e+00	5.276413e-05	
196	3.100000e+00	5.279159e-05	
197	3.150000e+00	5.282006e-05	
198	3.200000e+00	5.284977e-05	
199	3.250000e+00	5.288101e-05	
200	3.300000e+00	5.291409e-05	
201	0.000000e+00	-0.000000e+00	
202	5.000000e-02	6.340108e-06	
203	1.000000e-01	1.241265e-05	
204	1.500000e-01	1.822799e-05	
205	2.000000e-01	2.379133e-05	
206	2.500000e-01	2.910663e-05	
207	3.000000e-01	3.417748e-05	
208	3.500000e-01	3.900734e-05	
209	4.000000e-01	4.359960e-05	
210	4.500000e-01	4.795757e-05	
211	5.000000e-01	5.208451e-05	
212	5.500000e-01	5.598360e-05	
213	6.000000e-01	5.965799e-05	
214	6.500000e-01	6.311075e-05	
215	7.000000e-01	6.634490e-05	
216	7.500000e-01	6.936341e-05	
217	8.000000e-01	7.216918e-05	
218	8.500000e-01	7.476507e-05	
219	9.000000e-01	7.715387e-05	
220	9.500000e-01	7.933831e-05	
221	1.000000e+00	8.132106e-05	
222	1.050000e+00	8.310471e-05	
223	1.100000e+00	8.469175e-05	
224	1.150000e+00	8.608461e-05	
225	1.200000e+00	8.728573e-05	
226	1.250000e+00	8.829810e-05	
227	1.300000e+00	8.912707e-05	
228	1.350000e+00	8.978452e-05	

Index   v-sweep         -i(vds)         
--------------------------------------------------------------------------------
229	1.400000e+00	9.029341e-05	
230	1.450000e+00	9.068580e-05	
231	1.500000e+00	9.099364e-05	
232	1.550000e+00	9.124200e-05	
233	1.600000e+00	9.144824e-05	
234	1.650000e+00	9.162392e-05	
235	1.700000e+00	9.177677e-05	
236	1.750000e+00	9.191207e-05	
237	1.800000e+00	9.203353e-05	
238	1.850000e+00	9.214384e-05	
239	1.900000e+00	9.224499e-05	
240	1.950000e+00	9.233851e-05	
241	2.000000e+00	9.242555e-05	
242	2.050000e+00	9.250706e-05	
243	2.100000e+00	9.258378e-05	
244	2.150000e+00	9.265630e-05	
245	2.200000e+00	9.272514e-05	
246	2.250000e+00	9.279070e-05	
247	2.300000e+00	9.285333e-05	
248	2.350000e+00	9.291333e-05	
249	2.400000e+00	9.297096e-05	
250	2.450000e+00	9.302644e-05	
251	2.500000e+00	9.307995e-05	
252	2.550000e+00	9.313167e-05	
253	2.600000e+00	9.318174e-05	
254	2.650000e+00	9.323030e-05	
255	2.700000e+00	9.327747e-05	
256	2.750000e+00	9.332337e-05	
257	2.800000e+00	9.336811e-05	
258	2.850000e+00	9.341180e-05	
259	2.900000e+00	9.345454e-05	
260	2.950000e+00	9.349645e-05	
261	3.000000e+00	9.353766e-05	
262	3.050000e+00	9.357829e-05	
263	3.100000e+00	9.361851e-05	
264	3.150000e+00	9.365848e-05	
265	3.200000e+00	9.369840e-05	
266	3.250000e+00	9.373848e-05	
267	3.300000e+00	9.377898e-05	
268	0.000000e+00	-0.000000e+00	
269	5.000000e-02	7.633643e-06	
270	1.000000e-01	1.500786e-05	
271	1.500000e-01	2.213268e-05	
272	2.000000e-01	2.901297e-05	
273	2.500000e-01	3.565237e-05	
274	3.000000e-01	4.205414e-05	
275	3.500000e-01	4.822145e-05	
276	4.000000e-01	5.415739e-05	
277	4.500000e-01	5.986499e-05	
278	5.000000e-01	6.534722e-05	
279	5.500000e-01	7.060700e-05	
280	6.000000e-01	7.564723e-05	
281	6.500000e-01	8.047070e-05	
282	7.000000e-01	8.508021e-05	
283	7.500000e-01	8.947847e-05	
284	8.000000e-01	9.366818e-05	
285	8.500000e-01	9.765195e-05	
286	9.000000e-01	1.014324e-04	

Index   v-sweep         -i(vds)         
--------------------------------------------------------------------------------
287	9.500000e-01	1.050120e-04	
288	1.000000e+00	1.083933e-04	
289	1.050000e+00	1.115787e-04	
290	1.100000e+00	1.145707e-04	
291	1.150000e+00	1.173714e-04	
292	1.200000e+00	1.199833e-04	
293	1.250000e+00	1.224086e-04	
294	1.300000e+00	1.246492e-04	
295	1.350000e+00	1.267071e-04	
296	1.400000e+00	1.285841e-04	
297	1.450000e+00	1.302815e-04	
298	1.500000e+00	1.318004e-04	
299	1.550000e+00	1.331410e-04	
300	1.600000e+00	1.343033e-04	
301	1.650000e+00	1.352881e-04	
302	1.700000e+00	1.361013e-04	
303	1.750000e+00	1.367585e-04	
304	1.800000e+00	1.372853e-04	
305	1.850000e+00	1.377107e-04	
306	1.900000e+00	1.380605e-04	
307	1.950000e+00	1.383543e-04	
308	2.000000e+00	1.386061e-04	
309	2.050000e+00	1.388258e-04	
310	2.100000e+00	1.390206e-04	
311	2.150000e+00	1.391954e-04	
312	2.200000e+00	1.393542e-04	
313	2.250000e+00	1.394995e-04	
314	2.300000e+00	1.396337e-04	
315	2.350000e+00	1.397585e-04	
316	2.400000e+00	1.398751e-04	
317	2.450000e+00	1.399846e-04	
318	2.500000e+00	1.400880e-04	
319	2.550000e+00	1.401859e-04	
320	2.600000e+00	1.402790e-04	
321	2.650000e+00	1.403678e-04	
322	2.700000e+00	1.404528e-04	
323	2.750000e+00	1.405342e-04	
324	2.800000e+00	1.406124e-04	
325	2.850000e+00	1.406878e-04	
326	2.900000e+00	1.407605e-04	
327	2.950000e+00	1.408307e-04	
328	3.000000e+00	1.408988e-04	
329	3.050000e+00	1.409648e-04	
330	3.100000e+00	1.410289e-04	
331	3.150000e+00	1.410913e-04	
332	3.200000e+00	1.411521e-04	
333	3.250000e+00	1.412116e-04	
334	3.300000e+00	1.412699e-04	
335	0.000000e+00	-0.000000e+00	
336	5.000000e-02	8.704009e-06	
337	1.000000e-01	1.715948e-05	
338	1.500000e-01	2.537607e-05	
339	2.000000e-01	3.335833e-05	
340	2.500000e-01	4.110955e-05	
341	3.000000e-01	4.863268e-05	
342	3.500000e-01	5.593057e-05	
343	4.000000e-01	6.300601e-05	
344	4.500000e-01	6.986172e-05	

Index   v-sweep         -i(vds)         
--------------------------------------------------------------------------------
345	5.000000e-01	7.650038e-05	
346	5.500000e-01	8.292466e-05	
347	6.000000e-01	8.913714e-05	
348	6.500000e-01	9.514038e-05	
349	7.000000e-01	1.009369e-04	
350	7.500000e-01	1.065292e-04	
351	8.000000e-01	1.119197e-04	
352	8.500000e-01	1.171107e-04	
353	9.000000e-01	1.221047e-04	
354	9.500000e-01	1.269040e-04	
355	1.000000e+00	1.315109e-04	
356	1.050000e+00	1.359275e-04	
357	1.100000e+00	1.401561e-04	
358	1.150000e+00	1.441989e-04	
359	1.200000e+00	1.480580e-04	
360	1.250000e+00	1.517355e-04	
361	1.300000e+00	1.552335e-04	
362	1.350000e+00	1.585539e-04	
363	1.400000e+00	1.616987e-04	
364	1.450000e+00	1.646698e-04	
365	1.500000e+00	1.674691e-04	
366	1.550000e+00	1.700983e-04	
367	1.600000e+00	1.725590e-04	
368	1.650000e+00	1.748527e-04	
369	1.700000e+00	1.769807e-04	
370	1.750000e+00	1.789436e-04	
371	1.800000e+00	1.807420e-04	
372	1.850000e+00	1.823750e-04	
373	1.900000e+00	1.838409e-04	
374	1.950000e+00	1.851369e-04	
375	2.000000e+00	1.862603e-04	
376	2.050000e+00	1.872125e-04	
377	2.100000e+00	1.880039e-04	
378	2.150000e+00	1.886555e-04	
379	2.200000e+00	1.891931e-04	
380	2.250000e+00	1.896421e-04	
381	2.300000e+00	1.900231e-04	
382	2.350000e+00	1.903518e-04	
383	2.400000e+00	1.906398e-04	
384	2.450000e+00	1.908956e-04	
385	2.500000e+00	1.911256e-04	
386	2.550000e+00	1.913344e-04	
387	2.600000e+00	1.915256e-04	
388	2.650000e+00	1.917021e-04	
389	2.700000e+00	1.918660e-04	
390	2.750000e+00	1.920191e-04	
391	2.800000e+00	1.921628e-04	
392	2.850000e+00	1.922983e-04	
393	2.900000e+00	1.924265e-04	
394	2.950000e+00	1.925483e-04	
395	3.000000e+00	1.926643e-04	
396	3.050000e+00	1.927751e-04	
397	3.100000e+00	1.928812e-04	
398	3.150000e+00	1.929831e-04	
399	3.200000e+00	1.930811e-04	
400	3.250000e+00	1.931755e-04	
401	3.300000e+00	1.932667e-04	
Note: No ".plot", ".print", or ".fourier" lines; no simulations run
