
Note: Compatibility modes selected: hs

Warning: m=xx on .subckt line will override multiplier m hierarchy!


Circuit: ***************************

Doing analysis at TEMP = 125.000000 and TNOM = 125.000000


No. of Data Rows : 402
                          ***************************
                          DC transfer characteristic  Mon Jan  9 13:57:19  2023
--------------------------------------------------------------------------------
Index   v-sweep         -i(vds)         
--------------------------------------------------------------------------------
0	0.000000e+00	-0.000000e+00	
1	5.000000e-02	9.726468e-07	
2	1.000000e-01	1.741821e-06	
3	1.500000e-01	2.319225e-06	
4	2.000000e-01	2.717084e-06	
5	2.500000e-01	2.957300e-06	
6	3.000000e-01	3.083484e-06	
7	3.500000e-01	3.150147e-06	
8	4.000000e-01	3.191889e-06	
9	4.500000e-01	3.222599e-06	
10	5.000000e-01	3.247493e-06	
11	5.500000e-01	3.268825e-06	
12	6.000000e-01	3.287739e-06	
13	6.500000e-01	3.304893e-06	
14	7.000000e-01	3.320704e-06	
15	7.500000e-01	3.335453e-06	
16	8.000000e-01	3.349340e-06	
17	8.500000e-01	3.362511e-06	
18	9.000000e-01	3.375080e-06	
19	9.500000e-01	3.387134e-06	
20	1.000000e+00	3.398742e-06	
21	1.050000e+00	3.409961e-06	
22	1.100000e+00	3.420837e-06	
23	1.150000e+00	3.431409e-06	
24	1.200000e+00	3.441709e-06	
25	1.250000e+00	3.451764e-06	
26	1.300000e+00	3.461599e-06	
27	1.350000e+00	3.471233e-06	
28	1.400000e+00	3.480684e-06	
29	1.450000e+00	3.489969e-06	
30	1.500000e+00	3.499099e-06	
31	1.550000e+00	3.508089e-06	
32	1.600000e+00	3.516949e-06	
33	1.650000e+00	3.525689e-06	
34	1.700000e+00	3.534318e-06	
35	1.750000e+00	3.542846e-06	
36	1.800000e+00	3.551280e-06	
37	1.850000e+00	3.559629e-06	
38	1.900000e+00	3.567901e-06	
39	1.950000e+00	3.576105e-06	
40	2.000000e+00	3.584250e-06	
41	2.050000e+00	3.592346e-06	
42	2.100000e+00	3.600402e-06	
43	2.150000e+00	3.608431e-06	
44	2.200000e+00	3.616444e-06	
45	2.250000e+00	3.624456e-06	
46	2.300000e+00	3.632483e-06	
47	2.350000e+00	3.640540e-06	
48	2.400000e+00	3.648648e-06	
49	2.450000e+00	3.656826e-06	
50	2.500000e+00	3.665098e-06	
51	2.550000e+00	3.673490e-06	
52	2.600000e+00	3.682028e-06	
53	2.650000e+00	3.690744e-06	
54	2.700000e+00	3.699670e-06	

Index   v-sweep         -i(vds)         
--------------------------------------------------------------------------------
55	2.750000e+00	3.708842e-06	
56	2.800000e+00	3.718299e-06	
57	2.850000e+00	3.728084e-06	
58	2.900000e+00	3.738240e-06	
59	2.950000e+00	3.748817e-06	
60	3.000000e+00	3.759867e-06	
61	3.050000e+00	3.771445e-06	
62	3.100000e+00	3.783609e-06	
63	3.150000e+00	3.796423e-06	
64	3.200000e+00	3.809954e-06	
65	3.250000e+00	3.824270e-06	
66	3.300000e+00	3.839447e-06	
67	0.000000e+00	-0.000000e+00	
68	5.000000e-02	2.891210e-06	
69	1.000000e-01	5.529028e-06	
70	1.500000e-01	7.924170e-06	
71	2.000000e-01	1.008455e-05	
72	2.500000e-01	1.201727e-05	
73	3.000000e-01	1.372906e-05	
74	3.500000e-01	1.522655e-05	
75	4.000000e-01	1.651634e-05	
76	4.500000e-01	1.760533e-05	
77	5.000000e-01	1.850132e-05	
78	5.500000e-01	1.921446e-05	
79	6.000000e-01	1.976018e-05	
80	6.500000e-01	2.016312e-05	
81	7.000000e-01	2.045704e-05	
82	7.500000e-01	2.067627e-05	
83	8.000000e-01	2.084694e-05	
84	8.500000e-01	2.098574e-05	
85	9.000000e-01	2.110275e-05	
86	9.500000e-01	2.120416e-05	
87	1.000000e+00	2.129394e-05	
88	1.050000e+00	2.137474e-05	
89	1.100000e+00	2.144841e-05	
90	1.150000e+00	2.151629e-05	
91	1.200000e+00	2.157937e-05	
92	1.250000e+00	2.163843e-05	
93	1.300000e+00	2.169404e-05	
94	1.350000e+00	2.174669e-05	
95	1.400000e+00	2.179676e-05	
96	1.450000e+00	2.184455e-05	
97	1.500000e+00	2.189033e-05	
98	1.550000e+00	2.193432e-05	
99	1.600000e+00	2.197670e-05	
100	1.650000e+00	2.201763e-05	
101	1.700000e+00	2.205724e-05	
102	1.750000e+00	2.209565e-05	
103	1.800000e+00	2.213296e-05	
104	1.850000e+00	2.216927e-05	
105	1.900000e+00	2.220465e-05	
106	1.950000e+00	2.223918e-05	
107	2.000000e+00	2.227292e-05	
108	2.050000e+00	2.230593e-05	
109	2.100000e+00	2.233828e-05	
110	2.150000e+00	2.237000e-05	
111	2.200000e+00	2.240116e-05	
112	2.250000e+00	2.243181e-05	

Index   v-sweep         -i(vds)         
--------------------------------------------------------------------------------
113	2.300000e+00	2.246199e-05	
114	2.350000e+00	2.249178e-05	
115	2.400000e+00	2.252121e-05	
116	2.450000e+00	2.255036e-05	
117	2.500000e+00	2.257930e-05	
118	2.550000e+00	2.260810e-05	
119	2.600000e+00	2.263684e-05	
120	2.650000e+00	2.266562e-05	
121	2.700000e+00	2.269453e-05	
122	2.750000e+00	2.272369e-05	
123	2.800000e+00	2.275322e-05	
124	2.850000e+00	2.278326e-05	
125	2.900000e+00	2.281396e-05	
126	2.950000e+00	2.284548e-05	
127	3.000000e+00	2.287800e-05	
128	3.050000e+00	2.291172e-05	
129	3.100000e+00	2.294685e-05	
130	3.150000e+00	2.298361e-05	
131	3.200000e+00	2.302227e-05	
132	3.250000e+00	2.306307e-05	
133	3.300000e+00	2.310631e-05	
134	0.000000e+00	-0.000000e+00	
135	5.000000e-02	4.512271e-06	
136	1.000000e-01	8.756303e-06	
137	1.500000e-01	1.274252e-05	
138	2.000000e-01	1.647855e-05	
139	2.500000e-01	1.997120e-05	
140	3.000000e-01	2.322690e-05	
141	3.500000e-01	2.625181e-05	
142	4.000000e-01	2.905192e-05	
143	4.500000e-01	3.163298e-05	
144	5.000000e-01	3.400058e-05	
145	5.500000e-01	3.616014e-05	
146	6.000000e-01	3.811692e-05	
147	6.500000e-01	3.987607e-05	
148	7.000000e-01	4.144266e-05	
149	7.500000e-01	4.282175e-05	
150	8.000000e-01	4.401870e-05	
151	8.500000e-01	4.503961e-05	
152	9.000000e-01	4.589269e-05	
153	9.500000e-01	4.659046e-05	
154	1.000000e+00	4.715208e-05	
155	1.050000e+00	4.760248e-05	
156	1.100000e+00	4.796761e-05	
157	1.150000e+00	4.826952e-05	
158	1.200000e+00	4.852482e-05	
159	1.250000e+00	4.874525e-05	
160	1.300000e+00	4.893905e-05	
161	1.350000e+00	4.911204e-05	
162	1.400000e+00	4.926841e-05	
163	1.450000e+00	4.941126e-05	
164	1.500000e+00	4.954291e-05	
165	1.550000e+00	4.966515e-05	
166	1.600000e+00	4.977939e-05	
167	1.650000e+00	4.988674e-05	
168	1.700000e+00	4.998809e-05	
169	1.750000e+00	5.008420e-05	
170	1.800000e+00	5.017567e-05	

Index   v-sweep         -i(vds)         
--------------------------------------------------------------------------------
171	1.850000e+00	5.026300e-05	
172	1.900000e+00	5.034664e-05	
173	1.950000e+00	5.042695e-05	
174	2.000000e+00	5.050425e-05	
175	2.050000e+00	5.057881e-05	
176	2.100000e+00	5.065087e-05	
177	2.150000e+00	5.072063e-05	
178	2.200000e+00	5.078830e-05	
179	2.250000e+00	5.085402e-05	
180	2.300000e+00	5.091796e-05	
181	2.350000e+00	5.098025e-05	
182	2.400000e+00	5.104101e-05	
183	2.450000e+00	5.110037e-05	
184	2.500000e+00	5.115844e-05	
185	2.550000e+00	5.121535e-05	
186	2.600000e+00	5.127121e-05	
187	2.650000e+00	5.132613e-05	
188	2.700000e+00	5.138026e-05	
189	2.750000e+00	5.143372e-05	
190	2.800000e+00	5.148666e-05	
191	2.850000e+00	5.153926e-05	
192	2.900000e+00	5.159168e-05	
193	2.950000e+00	5.164413e-05	
194	3.000000e+00	5.169683e-05	
195	3.050000e+00	5.175002e-05	
196	3.100000e+00	5.180398e-05	
197	3.150000e+00	5.185899e-05	
198	3.200000e+00	5.191540e-05	
199	3.250000e+00	5.197355e-05	
200	3.300000e+00	5.203385e-05	
201	0.000000e+00	-0.000000e+00	
202	5.000000e-02	5.873425e-06	
203	1.000000e-01	1.147391e-05	
204	1.500000e-01	1.681143e-05	
205	2.000000e-01	2.189320e-05	
206	2.500000e-01	2.672562e-05	
207	3.000000e-01	3.131478e-05	
208	3.500000e-01	3.566649e-05	
209	4.000000e-01	3.978642e-05	
210	4.500000e-01	4.368003e-05	
211	5.000000e-01	4.735261e-05	
212	5.500000e-01	5.080929e-05	
213	6.000000e-01	5.405504e-05	
214	6.500000e-01	5.709466e-05	
215	7.000000e-01	5.993281e-05	
216	7.500000e-01	6.257399e-05	
217	8.000000e-01	6.502254e-05	
218	8.500000e-01	6.728261e-05	
219	9.000000e-01	6.935818e-05	
220	9.500000e-01	7.125302e-05	
221	1.000000e+00	7.297062e-05	
222	1.050000e+00	7.451414e-05	
223	1.100000e+00	7.588651e-05	
224	1.150000e+00	7.709067e-05	
225	1.200000e+00	7.813080e-05	
226	1.250000e+00	7.901451e-05	
227	1.300000e+00	7.975549e-05	
228	1.350000e+00	8.037355e-05	

Index   v-sweep         -i(vds)         
--------------------------------------------------------------------------------
229	1.400000e+00	8.089132e-05	
230	1.450000e+00	8.133007e-05	
231	1.500000e+00	8.170737e-05	
232	1.550000e+00	8.203677e-05	
233	1.600000e+00	8.232841e-05	
234	1.650000e+00	8.258983e-05	
235	1.700000e+00	8.282670e-05	
236	1.750000e+00	8.304331e-05	
237	1.800000e+00	8.324299e-05	
238	1.850000e+00	8.342832e-05	
239	1.900000e+00	8.360137e-05	
240	1.950000e+00	8.376379e-05	
241	2.000000e+00	8.391694e-05	
242	2.050000e+00	8.406193e-05	
243	2.100000e+00	8.419968e-05	
244	2.150000e+00	8.433099e-05	
245	2.200000e+00	8.445650e-05	
246	2.250000e+00	8.457680e-05	
247	2.300000e+00	8.469237e-05	
248	2.350000e+00	8.480362e-05	
249	2.400000e+00	8.491095e-05	
250	2.450000e+00	8.501467e-05	
251	2.500000e+00	8.511507e-05	
252	2.550000e+00	8.521241e-05	
253	2.600000e+00	8.530694e-05	
254	2.650000e+00	8.539886e-05	
255	2.700000e+00	8.548838e-05	
256	2.750000e+00	8.557570e-05	
257	2.800000e+00	8.566101e-05	
258	2.850000e+00	8.574449e-05	
259	2.900000e+00	8.582635e-05	
260	2.950000e+00	8.590678e-05	
261	3.000000e+00	8.598599e-05	
262	3.050000e+00	8.606423e-05	
263	3.100000e+00	8.614173e-05	
264	3.150000e+00	8.621879e-05	
265	3.200000e+00	8.629571e-05	
266	3.250000e+00	8.637283e-05	
267	3.300000e+00	8.645052e-05	
268	0.000000e+00	-0.000000e+00	
269	5.000000e-02	7.025796e-06	
270	1.000000e-01	1.377910e-05	
271	1.500000e-01	2.026939e-05	
272	2.000000e-01	2.650341e-05	
273	2.500000e-01	3.248713e-05	
274	3.000000e-01	3.822623e-05	
275	3.500000e-01	4.372614e-05	
276	4.000000e-01	4.899216e-05	
277	4.500000e-01	5.402941e-05	
278	5.000000e-01	5.884288e-05	
279	5.500000e-01	6.343740e-05	
280	6.000000e-01	6.781766e-05	
281	6.500000e-01	7.198822e-05	
282	7.000000e-01	7.595350e-05	
283	7.500000e-01	7.971779e-05	
284	8.000000e-01	8.328524e-05	
285	8.500000e-01	8.665990e-05	
286	9.000000e-01	8.984565e-05	

Index   v-sweep         -i(vds)         
--------------------------------------------------------------------------------
287	9.500000e-01	9.284627e-05	
288	1.000000e+00	9.566535e-05	
289	1.050000e+00	9.830635e-05	
290	1.100000e+00	1.007725e-04	
291	1.150000e+00	1.030668e-04	
292	1.200000e+00	1.051918e-04	
293	1.250000e+00	1.071498e-04	
294	1.300000e+00	1.089422e-04	
295	1.350000e+00	1.105698e-04	
296	1.400000e+00	1.120326e-04	
297	1.450000e+00	1.133306e-04	
298	1.500000e+00	1.144658e-04	
299	1.550000e+00	1.154449e-04	
300	1.600000e+00	1.162816e-04	
301	1.650000e+00	1.169952e-04	
302	1.700000e+00	1.176065e-04	
303	1.750000e+00	1.181354e-04	
304	1.800000e+00	1.185981e-04	
305	1.850000e+00	1.190077e-04	
306	1.900000e+00	1.193744e-04	
307	1.950000e+00	1.197060e-04	
308	2.000000e+00	1.200084e-04	
309	2.050000e+00	1.202865e-04	
310	2.100000e+00	1.205438e-04	
311	2.150000e+00	1.207835e-04	
312	2.200000e+00	1.210078e-04	
313	2.250000e+00	1.212188e-04	
314	2.300000e+00	1.214179e-04	
315	2.350000e+00	1.216067e-04	
316	2.400000e+00	1.217863e-04	
317	2.450000e+00	1.219575e-04	
318	2.500000e+00	1.221212e-04	
319	2.550000e+00	1.222781e-04	
320	2.600000e+00	1.224289e-04	
321	2.650000e+00	1.225740e-04	
322	2.700000e+00	1.227140e-04	
323	2.750000e+00	1.228492e-04	
324	2.800000e+00	1.229801e-04	
325	2.850000e+00	1.231070e-04	
326	2.900000e+00	1.232301e-04	
327	2.950000e+00	1.233498e-04	
328	3.000000e+00	1.234664e-04	
329	3.050000e+00	1.235801e-04	
330	3.100000e+00	1.236912e-04	
331	3.150000e+00	1.237999e-04	
332	3.200000e+00	1.239066e-04	
333	3.250000e+00	1.240115e-04	
334	3.300000e+00	1.241150e-04	
335	0.000000e+00	-0.000000e+00	
336	5.000000e-02	8.009114e-06	
337	1.000000e-01	1.574917e-05	
338	1.500000e-01	2.322916e-05	
339	2.000000e-01	3.045535e-05	
340	2.500000e-01	3.743330e-05	
341	3.000000e-01	4.416822e-05	
342	3.500000e-01	5.066520e-05	
343	4.000000e-01	5.692914e-05	
344	4.500000e-01	6.296482e-05	

Index   v-sweep         -i(vds)         
--------------------------------------------------------------------------------
345	5.000000e-01	6.877688e-05	
346	5.500000e-01	7.436986e-05	
347	6.000000e-01	7.974814e-05	
348	6.500000e-01	8.491600e-05	
349	7.000000e-01	8.987761e-05	
350	7.500000e-01	9.463702e-05	
351	8.000000e-01	9.919817e-05	
352	8.500000e-01	1.035649e-04	
353	9.000000e-01	1.077409e-04	
354	9.500000e-01	1.117298e-04	
355	1.000000e+00	1.155352e-04	
356	1.050000e+00	1.191604e-04	
357	1.100000e+00	1.226087e-04	
358	1.150000e+00	1.258833e-04	
359	1.200000e+00	1.289872e-04	
360	1.250000e+00	1.319233e-04	
361	1.300000e+00	1.346942e-04	
362	1.350000e+00	1.373024e-04	
363	1.400000e+00	1.397498e-04	
364	1.450000e+00	1.420381e-04	
365	1.500000e+00	1.441682e-04	
366	1.550000e+00	1.461400e-04	
367	1.600000e+00	1.479522e-04	
368	1.650000e+00	1.496026e-04	
369	1.700000e+00	1.510883e-04	
370	1.750000e+00	1.524082e-04	
371	1.800000e+00	1.535656e-04	
372	1.850000e+00	1.545709e-04	
373	1.900000e+00	1.554405e-04	
374	1.950000e+00	1.561943e-04	
375	2.000000e+00	1.568519e-04	
376	2.050000e+00	1.574307e-04	
377	2.100000e+00	1.579452e-04	
378	2.150000e+00	1.584069e-04	
379	2.200000e+00	1.588249e-04	
380	2.250000e+00	1.592065e-04	
381	2.300000e+00	1.595573e-04	
382	2.350000e+00	1.598821e-04	
383	2.400000e+00	1.601843e-04	
384	2.450000e+00	1.604671e-04	
385	2.500000e+00	1.607328e-04	
386	2.550000e+00	1.609835e-04	
387	2.600000e+00	1.612209e-04	
388	2.650000e+00	1.614464e-04	
389	2.700000e+00	1.616613e-04	
390	2.750000e+00	1.618666e-04	
391	2.800000e+00	1.620632e-04	
392	2.850000e+00	1.622519e-04	
393	2.900000e+00	1.624334e-04	
394	2.950000e+00	1.626082e-04	
395	3.000000e+00	1.627770e-04	
396	3.050000e+00	1.629401e-04	
397	3.100000e+00	1.630981e-04	
398	3.150000e+00	1.632514e-04	
399	3.200000e+00	1.634002e-04	
400	3.250000e+00	1.635450e-04	
401	3.300000e+00	1.636861e-04	
Note: No ".plot", ".print", or ".fourier" lines; no simulations run
