
Note: Compatibility modes selected: hs

Warning: m=xx on .subckt line will override multiplier m hierarchy!


Circuit: ***************************

Doing analysis at TEMP = 25.000000 and TNOM = 25.000000


No. of Data Rows : 402
                          ***************************
                          DC transfer characteristic  Mon Jan  9 13:57:17  2023
--------------------------------------------------------------------------------
Index   v-sweep         -i(vds)         
--------------------------------------------------------------------------------
0	0.000000e+00	-0.000000e+00	
1	5.000000e-02	2.492797e-07	
2	1.000000e-01	4.197174e-07	
3	1.500000e-01	5.160731e-07	
4	2.000000e-01	5.539047e-07	
5	2.500000e-01	5.657784e-07	
6	3.000000e-01	5.713246e-07	
7	3.500000e-01	5.750364e-07	
8	4.000000e-01	5.779388e-07	
9	4.500000e-01	5.803814e-07	
10	5.000000e-01	5.825236e-07	
11	5.500000e-01	5.844527e-07	
12	6.000000e-01	5.862220e-07	
13	6.500000e-01	5.878665e-07	
14	7.000000e-01	5.894109e-07	
15	7.500000e-01	5.908731e-07	
16	8.000000e-01	5.922665e-07	
17	8.500000e-01	5.936015e-07	
18	9.000000e-01	5.948862e-07	
19	9.500000e-01	5.961273e-07	
20	1.000000e+00	5.973300e-07	
21	1.050000e+00	5.984989e-07	
22	1.100000e+00	5.996375e-07	
23	1.150000e+00	6.007491e-07	
24	1.200000e+00	6.018363e-07	
25	1.250000e+00	6.029014e-07	
26	1.300000e+00	6.039464e-07	
27	1.350000e+00	6.049730e-07	
28	1.400000e+00	6.059827e-07	
29	1.450000e+00	6.069770e-07	
30	1.500000e+00	6.079570e-07	
31	1.550000e+00	6.089238e-07	
32	1.600000e+00	6.098786e-07	
33	1.650000e+00	6.108222e-07	
34	1.700000e+00	6.117558e-07	
35	1.750000e+00	6.126801e-07	
36	1.800000e+00	6.135962e-07	
37	1.850000e+00	6.145052e-07	
38	1.900000e+00	6.154081e-07	
39	1.950000e+00	6.163062e-07	
40	2.000000e+00	6.172009e-07	
41	2.050000e+00	6.180935e-07	
42	2.100000e+00	6.189858e-07	
43	2.150000e+00	6.198798e-07	
44	2.200000e+00	6.207774e-07	
45	2.250000e+00	6.216811e-07	
46	2.300000e+00	6.225935e-07	
47	2.350000e+00	6.235175e-07	
48	2.400000e+00	6.244564e-07	
49	2.450000e+00	6.254138e-07	
50	2.500000e+00	6.263935e-07	
51	2.550000e+00	6.273998e-07	
52	2.600000e+00	6.284374e-07	
53	2.650000e+00	6.295112e-07	
54	2.700000e+00	6.306268e-07	

Index   v-sweep         -i(vds)         
--------------------------------------------------------------------------------
55	2.750000e+00	6.317898e-07	
56	2.800000e+00	6.330066e-07	
57	2.850000e+00	6.342837e-07	
58	2.900000e+00	6.356282e-07	
59	2.950000e+00	6.370476e-07	
60	3.000000e+00	6.385497e-07	
61	3.050000e+00	6.401429e-07	
62	3.100000e+00	6.418359e-07	
63	3.150000e+00	6.436378e-07	
64	3.200000e+00	6.455582e-07	
65	3.250000e+00	6.476072e-07	
66	3.300000e+00	6.497951e-07	
67	0.000000e+00	-0.000000e+00	
68	5.000000e-02	1.017528e-06	
69	1.000000e-01	1.934085e-06	
70	1.500000e-01	2.752359e-06	
71	2.000000e-01	3.474951e-06	
72	2.500000e-01	4.104387e-06	
73	3.000000e-01	4.643136e-06	
74	3.500000e-01	5.093655e-06	
75	4.000000e-01	5.458490e-06	
76	4.500000e-01	5.740606e-06	
77	5.000000e-01	5.944500e-06	
78	5.500000e-01	6.079420e-06	
79	6.000000e-01	6.163162e-06	
80	6.500000e-01	6.216644e-06	
81	7.000000e-01	6.254054e-06	
82	7.500000e-01	6.282524e-06	
83	8.000000e-01	6.305531e-06	
84	8.500000e-01	6.324907e-06	
85	9.000000e-01	6.341708e-06	
86	9.500000e-01	6.356594e-06	
87	1.000000e+00	6.370002e-06	
88	1.050000e+00	6.382234e-06	
89	1.100000e+00	6.393509e-06	
90	1.150000e+00	6.403991e-06	
91	1.200000e+00	6.413804e-06	
92	1.250000e+00	6.423047e-06	
93	1.300000e+00	6.431796e-06	
94	1.350000e+00	6.440114e-06	
95	1.400000e+00	6.448054e-06	
96	1.450000e+00	6.455658e-06	
97	1.500000e+00	6.462962e-06	
98	1.550000e+00	6.469997e-06	
99	1.600000e+00	6.476788e-06	
100	1.650000e+00	6.483358e-06	
101	1.700000e+00	6.489727e-06	
102	1.750000e+00	6.495912e-06	
103	1.800000e+00	6.501928e-06	
104	1.850000e+00	6.507788e-06	
105	1.900000e+00	6.513506e-06	
106	1.950000e+00	6.519092e-06	
107	2.000000e+00	6.524558e-06	
108	2.050000e+00	6.529912e-06	
109	2.100000e+00	6.535167e-06	
110	2.150000e+00	6.540331e-06	
111	2.200000e+00	6.545415e-06	
112	2.250000e+00	6.550432e-06	

Index   v-sweep         -i(vds)         
--------------------------------------------------------------------------------
113	2.300000e+00	6.555394e-06	
114	2.350000e+00	6.560313e-06	
115	2.400000e+00	6.565206e-06	
116	2.450000e+00	6.570089e-06	
117	2.500000e+00	6.574982e-06	
118	2.550000e+00	6.579905e-06	
119	2.600000e+00	6.584882e-06	
120	2.650000e+00	6.589941e-06	
121	2.700000e+00	6.595110e-06	
122	2.750000e+00	6.600422e-06	
123	2.800000e+00	6.605913e-06	
124	2.850000e+00	6.611622e-06	
125	2.900000e+00	6.617594e-06	
126	2.950000e+00	6.623873e-06	
127	3.000000e+00	6.630511e-06	
128	3.050000e+00	6.637563e-06	
129	3.100000e+00	6.645086e-06	
130	3.150000e+00	6.653145e-06	
131	3.200000e+00	6.661805e-06	
132	3.250000e+00	6.671138e-06	
133	3.300000e+00	6.681218e-06	
134	0.000000e+00	-0.000000e+00	
135	5.000000e-02	1.691155e-06	
136	1.000000e-01	3.276401e-06	
137	1.500000e-01	4.758353e-06	
138	2.000000e-01	6.139541e-06	
139	2.500000e-01	7.422413e-06	
140	3.000000e-01	8.609337e-06	
141	3.500000e-01	9.702607e-06	
142	4.000000e-01	1.070445e-05	
143	4.500000e-01	1.161700e-05	
144	5.000000e-01	1.244236e-05	
145	5.500000e-01	1.318254e-05	
146	6.000000e-01	1.383949e-05	
147	6.500000e-01	1.441508e-05	
148	7.000000e-01	1.491114e-05	
149	7.500000e-01	1.532942e-05	
150	8.000000e-01	1.567179e-05	
151	8.500000e-01	1.594098e-05	
152	9.000000e-01	1.614292e-05	
153	9.500000e-01	1.628956e-05	
154	1.000000e+00	1.639664e-05	
155	1.050000e+00	1.647775e-05	
156	1.100000e+00	1.654193e-05	
157	1.150000e+00	1.659471e-05	
158	1.200000e+00	1.663946e-05	
159	1.250000e+00	1.667832e-05	
160	1.300000e+00	1.671268e-05	
161	1.350000e+00	1.674354e-05	
162	1.400000e+00	1.677158e-05	
163	1.450000e+00	1.679730e-05	
164	1.500000e+00	1.682110e-05	
165	1.550000e+00	1.684327e-05	
166	1.600000e+00	1.686405e-05	
167	1.650000e+00	1.688362e-05	
168	1.700000e+00	1.690214e-05	
169	1.750000e+00	1.691973e-05	
170	1.800000e+00	1.693649e-05	

Index   v-sweep         -i(vds)         
--------------------------------------------------------------------------------
171	1.850000e+00	1.695252e-05	
172	1.900000e+00	1.696788e-05	
173	1.950000e+00	1.698264e-05	
174	2.000000e+00	1.699687e-05	
175	2.050000e+00	1.701059e-05	
176	2.100000e+00	1.702387e-05	
177	2.150000e+00	1.703673e-05	
178	2.200000e+00	1.704920e-05	
179	2.250000e+00	1.706133e-05	
180	2.300000e+00	1.707313e-05	
181	2.350000e+00	1.708464e-05	
182	2.400000e+00	1.709588e-05	
183	2.450000e+00	1.710687e-05	
184	2.500000e+00	1.711765e-05	
185	2.550000e+00	1.712824e-05	
186	2.600000e+00	1.713867e-05	
187	2.650000e+00	1.714897e-05	
188	2.700000e+00	1.715919e-05	
189	2.750000e+00	1.716935e-05	
190	2.800000e+00	1.717952e-05	
191	2.850000e+00	1.718973e-05	
192	2.900000e+00	1.720005e-05	
193	2.950000e+00	1.721053e-05	
194	3.000000e+00	1.722126e-05	
195	3.050000e+00	1.723231e-05	
196	3.100000e+00	1.724376e-05	
197	3.150000e+00	1.725572e-05	
198	3.200000e+00	1.726828e-05	
199	3.250000e+00	1.728157e-05	
200	3.300000e+00	1.729570e-05	
201	0.000000e+00	-0.000000e+00	
202	5.000000e-02	2.252909e-06	
203	1.000000e-01	4.399724e-06	
204	1.500000e-01	6.442882e-06	
205	2.000000e-01	8.384747e-06	
206	2.500000e-01	1.022761e-05	
207	3.000000e-01	1.197369e-05	
208	3.500000e-01	1.362516e-05	
209	4.000000e-01	1.518409e-05	
210	4.500000e-01	1.665252e-05	
211	5.000000e-01	1.803242e-05	
212	5.500000e-01	1.932570e-05	
213	6.000000e-01	2.053422e-05	
214	6.500000e-01	2.165977e-05	
215	7.000000e-01	2.270409e-05	
216	7.500000e-01	2.366885e-05	
217	8.000000e-01	2.455568e-05	
218	8.500000e-01	2.536609e-05	
219	9.000000e-01	2.610154e-05	
220	9.500000e-01	2.676329e-05	
221	1.000000e+00	2.735241e-05	
222	1.050000e+00	2.786957e-05	
223	1.100000e+00	2.831492e-05	
224	1.150000e+00	2.868819e-05	
225	1.200000e+00	2.899028e-05	
226	1.250000e+00	2.922660e-05	
227	1.300000e+00	2.940868e-05	
228	1.350000e+00	2.955042e-05	

Index   v-sweep         -i(vds)         
--------------------------------------------------------------------------------
229	1.400000e+00	2.966364e-05	
230	1.450000e+00	2.975675e-05	
231	1.500000e+00	2.983537e-05	
232	1.550000e+00	2.990324e-05	
233	1.600000e+00	2.996291e-05	
234	1.650000e+00	3.001615e-05	
235	1.700000e+00	3.006424e-05	
236	1.750000e+00	3.010812e-05	
237	1.800000e+00	3.014850e-05	
238	1.850000e+00	3.018593e-05	
239	1.900000e+00	3.022084e-05	
240	1.950000e+00	3.025358e-05	
241	2.000000e+00	3.028442e-05	
242	2.050000e+00	3.031360e-05	
243	2.100000e+00	3.034130e-05	
244	2.150000e+00	3.036768e-05	
245	2.200000e+00	3.039289e-05	
246	2.250000e+00	3.041703e-05	
247	2.300000e+00	3.044020e-05	
248	2.350000e+00	3.046251e-05	
249	2.400000e+00	3.048400e-05	
250	2.450000e+00	3.050477e-05	
251	2.500000e+00	3.052486e-05	
252	2.550000e+00	3.054434e-05	
253	2.600000e+00	3.056324e-05	
254	2.650000e+00	3.058162e-05	
255	2.700000e+00	3.059953e-05	
256	2.750000e+00	3.061701e-05	
257	2.800000e+00	3.063410e-05	
258	2.850000e+00	3.065086e-05	
259	2.900000e+00	3.066734e-05	
260	2.950000e+00	3.068359e-05	
261	3.000000e+00	3.069968e-05	
262	3.050000e+00	3.071568e-05	
263	3.100000e+00	3.073166e-05	
264	3.150000e+00	3.074771e-05	
265	3.200000e+00	3.076394e-05	
266	3.250000e+00	3.078045e-05	
267	3.300000e+00	3.079737e-05	
268	0.000000e+00	-0.000000e+00	
269	5.000000e-02	2.709396e-06	
270	1.000000e-01	5.315333e-06	
271	1.500000e-01	7.820016e-06	
272	2.000000e-01	1.022559e-05	
273	2.500000e-01	1.253414e-05	
274	3.000000e-01	1.474770e-05	
275	3.500000e-01	1.686822e-05	
276	4.000000e-01	1.889764e-05	
277	4.500000e-01	2.083781e-05	
278	5.000000e-01	2.269054e-05	
279	5.500000e-01	2.445760e-05	
280	6.000000e-01	2.614070e-05	
281	6.500000e-01	2.774151e-05	
282	7.000000e-01	2.926165e-05	
283	7.500000e-01	3.070270e-05	
284	8.000000e-01	3.206619e-05	
285	8.500000e-01	3.335361e-05	
286	9.000000e-01	3.456640e-05	

Index   v-sweep         -i(vds)         
--------------------------------------------------------------------------------
287	9.500000e-01	3.570595e-05	
288	1.000000e+00	3.677360e-05	
289	1.050000e+00	3.777064e-05	
290	1.100000e+00	3.869825e-05	
291	1.150000e+00	3.955754e-05	
292	1.200000e+00	4.034944e-05	
293	1.250000e+00	4.107465e-05	
294	1.300000e+00	4.173343e-05	
295	1.350000e+00	4.232542e-05	
296	1.400000e+00	4.284922e-05	
297	1.450000e+00	4.330246e-05	
298	1.500000e+00	4.368319e-05	
299	1.550000e+00	4.399334e-05	
300	1.600000e+00	4.424122e-05	
301	1.650000e+00	4.443937e-05	
302	1.700000e+00	4.460021e-05	
303	1.750000e+00	4.473359e-05	
304	1.800000e+00	4.484663e-05	
305	1.850000e+00	4.494432e-05	
306	1.900000e+00	4.503017e-05	
307	1.950000e+00	4.510668e-05	
308	2.000000e+00	4.517566e-05	
309	2.050000e+00	4.523848e-05	
310	2.100000e+00	4.529617e-05	
311	2.150000e+00	4.534954e-05	
312	2.200000e+00	4.539921e-05	
313	2.250000e+00	4.544568e-05	
314	2.300000e+00	4.548938e-05	
315	2.350000e+00	4.553063e-05	
316	2.400000e+00	4.556972e-05	
317	2.450000e+00	4.560688e-05	
318	2.500000e+00	4.564232e-05	
319	2.550000e+00	4.567620e-05	
320	2.600000e+00	4.570867e-05	
321	2.650000e+00	4.573985e-05	
322	2.700000e+00	4.576986e-05	
323	2.750000e+00	4.579880e-05	
324	2.800000e+00	4.582676e-05	
325	2.850000e+00	4.585382e-05	
326	2.900000e+00	4.588004e-05	
327	2.950000e+00	4.590550e-05	
328	3.000000e+00	4.593027e-05	
329	3.050000e+00	4.595442e-05	
330	3.100000e+00	4.597800e-05	
331	3.150000e+00	4.600111e-05	
332	3.200000e+00	4.602380e-05	
333	3.250000e+00	4.604616e-05	
334	3.300000e+00	4.606830e-05	
335	0.000000e+00	-0.000000e+00	
336	5.000000e-02	3.071741e-06	
337	1.000000e-01	6.044454e-06	
338	1.500000e-01	8.920099e-06	
339	2.000000e-01	1.170058e-05	
340	2.500000e-01	1.438776e-05	
341	3.000000e-01	1.698345e-05	
342	3.500000e-01	1.948940e-05	
343	4.000000e-01	2.190734e-05	
344	4.500000e-01	2.423894e-05	

Index   v-sweep         -i(vds)         
--------------------------------------------------------------------------------
345	5.000000e-01	2.648583e-05	
346	5.500000e-01	2.864960e-05	
347	6.000000e-01	3.073180e-05	
348	6.500000e-01	3.273395e-05	
349	7.000000e-01	3.465751e-05	
350	7.500000e-01	3.650393e-05	
351	8.000000e-01	3.827461e-05	
352	8.500000e-01	3.997090e-05	
353	9.000000e-01	4.159415e-05	
354	9.500000e-01	4.314565e-05	
355	1.000000e+00	4.462666e-05	
356	1.050000e+00	4.603841e-05	
357	1.100000e+00	4.738209e-05	
358	1.150000e+00	4.865887e-05	
359	1.200000e+00	4.986985e-05	
360	1.250000e+00	5.101610e-05	
361	1.300000e+00	5.209864e-05	
362	1.350000e+00	5.311842e-05	
363	1.400000e+00	5.407626e-05	
364	1.450000e+00	5.497290e-05	
365	1.500000e+00	5.580880e-05	
366	1.550000e+00	5.658411e-05	
367	1.600000e+00	5.729840e-05	
368	1.650000e+00	5.795035e-05	
369	1.700000e+00	5.853735e-05	
370	1.750000e+00	5.905553e-05	
371	1.800000e+00	5.950117e-05	
372	1.850000e+00	5.987398e-05	
373	1.900000e+00	6.017984e-05	
374	1.950000e+00	6.042964e-05	
375	2.000000e+00	6.063544e-05	
376	2.050000e+00	6.080771e-05	
377	2.100000e+00	6.095452e-05	
378	2.150000e+00	6.108177e-05	
379	2.200000e+00	6.119374e-05	
380	2.250000e+00	6.129357e-05	
381	2.300000e+00	6.138356e-05	
382	2.350000e+00	6.146547e-05	
383	2.400000e+00	6.154063e-05	
384	2.450000e+00	6.161008e-05	
385	2.500000e+00	6.167465e-05	
386	2.550000e+00	6.173501e-05	
387	2.600000e+00	6.179169e-05	
388	2.650000e+00	6.184514e-05	
389	2.700000e+00	6.189573e-05	
390	2.750000e+00	6.194377e-05	
391	2.800000e+00	6.198952e-05	
392	2.850000e+00	6.203321e-05	
393	2.900000e+00	6.207504e-05	
394	2.950000e+00	6.211517e-05	
395	3.000000e+00	6.215375e-05	
396	3.050000e+00	6.219091e-05	
397	3.100000e+00	6.222677e-05	
398	3.150000e+00	6.226144e-05	
399	3.200000e+00	6.229501e-05	
400	3.250000e+00	6.232757e-05	
401	3.300000e+00	6.235922e-05	
Note: No ".plot", ".print", or ".fourier" lines; no simulations run
