
Note: Compatibility modes selected: hs

Warning: m=xx on .subckt line will override multiplier m hierarchy!


Circuit: ***************************

Doing analysis at TEMP = -40.000000 and TNOM = -40.000000


No. of Data Rows : 402
                          ***************************
                          DC transfer characteristic  Mon Jan  9 13:57:17  2023
--------------------------------------------------------------------------------
Index   v-sweep         -i(vds)         
--------------------------------------------------------------------------------
0	0.000000e+00	-0.000000e+00	
1	5.000000e-02	6.670541e-06	
2	1.000000e-01	8.525024e-06	
3	1.500000e-01	8.943069e-06	
4	2.000000e-01	9.123329e-06	
5	2.500000e-01	9.244647e-06	
6	3.000000e-01	9.342840e-06	
7	3.500000e-01	9.429185e-06	
8	4.000000e-01	9.508424e-06	
9	4.500000e-01	9.582958e-06	
10	5.000000e-01	9.654157e-06	
11	5.500000e-01	9.722879e-06	
12	6.000000e-01	9.789693e-06	
13	6.500000e-01	9.854998e-06	
14	7.000000e-01	9.919084e-06	
15	7.500000e-01	9.982167e-06	
16	8.000000e-01	1.004442e-05	
17	8.500000e-01	1.010596e-05	
18	9.000000e-01	1.016690e-05	
19	9.500000e-01	1.022734e-05	
20	1.000000e+00	1.028732e-05	
21	1.050000e+00	1.034693e-05	
22	1.100000e+00	1.040619e-05	
23	1.150000e+00	1.046517e-05	
24	1.200000e+00	1.052388e-05	
25	1.250000e+00	1.058237e-05	
26	1.300000e+00	1.064066e-05	
27	1.350000e+00	1.069878e-05	
28	1.400000e+00	1.075674e-05	
29	1.450000e+00	1.081456e-05	
30	1.500000e+00	1.087227e-05	
31	1.550000e+00	1.092988e-05	
32	1.600000e+00	1.098740e-05	
33	1.650000e+00	1.104486e-05	
34	1.700000e+00	1.110227e-05	
35	1.750000e+00	1.115964e-05	
36	1.800000e+00	1.121700e-05	
37	1.850000e+00	1.127437e-05	
38	1.900000e+00	1.133177e-05	
39	1.950000e+00	1.138922e-05	
40	2.000000e+00	1.144677e-05	
41	2.050000e+00	1.150443e-05	
42	2.100000e+00	1.156225e-05	
43	2.150000e+00	1.162028e-05	
44	2.200000e+00	1.167855e-05	
45	2.250000e+00	1.173714e-05	
46	2.300000e+00	1.179611e-05	
47	2.350000e+00	1.185551e-05	
48	2.400000e+00	1.191544e-05	
49	2.450000e+00	1.197599e-05	
50	2.500000e+00	1.203724e-05	
51	2.550000e+00	1.209931e-05	
52	2.600000e+00	1.216231e-05	
53	2.650000e+00	1.222638e-05	
54	2.700000e+00	1.229165e-05	

Index   v-sweep         -i(vds)         
--------------------------------------------------------------------------------
55	2.750000e+00	1.235828e-05	
56	2.800000e+00	1.242644e-05	
57	2.850000e+00	1.249630e-05	
58	2.900000e+00	1.256806e-05	
59	2.950000e+00	1.264193e-05	
60	3.000000e+00	1.271812e-05	
61	3.050000e+00	1.279688e-05	
62	3.100000e+00	1.287847e-05	
63	3.150000e+00	1.296314e-05	
64	3.200000e+00	1.305118e-05	
65	3.250000e+00	1.314291e-05	
66	3.300000e+00	1.323864e-05	
67	0.000000e+00	-0.000000e+00	
68	5.000000e-02	9.836547e-05	
69	1.000000e-01	1.826667e-04	
70	1.500000e-01	2.538007e-04	
71	2.000000e-01	3.125839e-04	
72	2.500000e-01	3.597591e-04	
73	3.000000e-01	3.960194e-04	
74	3.500000e-01	4.221317e-04	
75	4.000000e-01	4.393637e-04	
76	4.500000e-01	4.499725e-04	
77	5.000000e-01	4.565617e-04	
78	5.500000e-01	4.609691e-04	
79	6.000000e-01	4.641764e-04	
80	6.500000e-01	4.666766e-04	
81	7.000000e-01	4.687283e-04	
82	7.500000e-01	4.704767e-04	
83	8.000000e-01	4.720090e-04	
84	8.500000e-01	4.733810e-04	
85	9.000000e-01	4.746299e-04	
86	9.500000e-01	4.757817e-04	
87	1.000000e+00	4.768552e-04	
88	1.050000e+00	4.778643e-04	
89	1.100000e+00	4.788197e-04	
90	1.150000e+00	4.797295e-04	
91	1.200000e+00	4.806002e-04	
92	1.250000e+00	4.814371e-04	
93	1.300000e+00	4.822445e-04	
94	1.350000e+00	4.830259e-04	
95	1.400000e+00	4.837842e-04	
96	1.450000e+00	4.845219e-04	
97	1.500000e+00	4.852411e-04	
98	1.550000e+00	4.859437e-04	
99	1.600000e+00	4.866311e-04	
100	1.650000e+00	4.873047e-04	
101	1.700000e+00	4.879658e-04	
102	1.750000e+00	4.886154e-04	
103	1.800000e+00	4.892545e-04	
104	1.850000e+00	4.898840e-04	
105	1.900000e+00	4.905048e-04	
106	1.950000e+00	4.911177e-04	
107	2.000000e+00	4.917234e-04	
108	2.050000e+00	4.923230e-04	
109	2.100000e+00	4.929171e-04	
110	2.150000e+00	4.935068e-04	
111	2.200000e+00	4.940930e-04	
112	2.250000e+00	4.946770e-04	

Index   v-sweep         -i(vds)         
--------------------------------------------------------------------------------
113	2.300000e+00	4.952599e-04	
114	2.350000e+00	4.958431e-04	
115	2.400000e+00	4.964283e-04	
116	2.450000e+00	4.970171e-04	
117	2.500000e+00	4.976115e-04	
118	2.550000e+00	4.982138e-04	
119	2.600000e+00	4.988265e-04	
120	2.650000e+00	4.994521e-04	
121	2.700000e+00	5.000939e-04	
122	2.750000e+00	5.007551e-04	
123	2.800000e+00	5.014394e-04	
124	2.850000e+00	5.021508e-04	
125	2.900000e+00	5.028938e-04	
126	2.950000e+00	5.036731e-04	
127	3.000000e+00	5.044939e-04	
128	3.050000e+00	5.053619e-04	
129	3.100000e+00	5.062830e-04	
130	3.150000e+00	5.072638e-04	
131	3.200000e+00	5.083113e-04	
132	3.250000e+00	5.094327e-04	
133	3.300000e+00	5.106361e-04	
134	0.000000e+00	-0.000000e+00	
135	5.000000e-02	1.678876e-04	
136	1.000000e-01	3.212040e-04	
137	1.500000e-01	4.607211e-04	
138	2.000000e-01	5.871537e-04	
139	2.500000e-01	7.011626e-04	
140	3.000000e-01	8.033552e-04	
141	3.500000e-01	8.942841e-04	
142	4.000000e-01	9.744412e-04	
143	4.500000e-01	1.044244e-03	
144	5.000000e-01	1.104011e-03	
145	5.500000e-01	1.153938e-03	
146	6.000000e-01	1.194135e-03	
147	6.500000e-01	1.224892e-03	
148	7.000000e-01	1.247220e-03	
149	7.500000e-01	1.262997e-03	
150	8.000000e-01	1.274283e-03	
151	8.500000e-01	1.282663e-03	
152	9.000000e-01	1.289164e-03	
153	9.500000e-01	1.294411e-03	
154	1.000000e+00	1.298788e-03	
155	1.050000e+00	1.302538e-03	
156	1.100000e+00	1.305821e-03	
157	1.150000e+00	1.308745e-03	
158	1.200000e+00	1.311387e-03	
159	1.250000e+00	1.313803e-03	
160	1.300000e+00	1.316033e-03	
161	1.350000e+00	1.318109e-03	
162	1.400000e+00	1.320055e-03	
163	1.450000e+00	1.321890e-03	
164	1.500000e+00	1.323630e-03	
165	1.550000e+00	1.325286e-03	
166	1.600000e+00	1.326869e-03	
167	1.650000e+00	1.328388e-03	
168	1.700000e+00	1.329850e-03	
169	1.750000e+00	1.331260e-03	
170	1.800000e+00	1.332624e-03	

Index   v-sweep         -i(vds)         
--------------------------------------------------------------------------------
171	1.850000e+00	1.333946e-03	
172	1.900000e+00	1.335231e-03	
173	1.950000e+00	1.336481e-03	
174	2.000000e+00	1.337700e-03	
175	2.050000e+00	1.338890e-03	
176	2.100000e+00	1.340054e-03	
177	2.150000e+00	1.341194e-03	
178	2.200000e+00	1.342312e-03	
179	2.250000e+00	1.343411e-03	
180	2.300000e+00	1.344493e-03	
181	2.350000e+00	1.345560e-03	
182	2.400000e+00	1.346615e-03	
183	2.450000e+00	1.347660e-03	
184	2.500000e+00	1.348699e-03	
185	2.550000e+00	1.349734e-03	
186	2.600000e+00	1.350769e-03	
187	2.650000e+00	1.351809e-03	
188	2.700000e+00	1.352858e-03	
189	2.750000e+00	1.353921e-03	
190	2.800000e+00	1.355004e-03	
191	2.850000e+00	1.356113e-03	
192	2.900000e+00	1.357256e-03	
193	2.950000e+00	1.358440e-03	
194	3.000000e+00	1.359675e-03	
195	3.050000e+00	1.360970e-03	
196	3.100000e+00	1.362336e-03	
197	3.150000e+00	1.363783e-03	
198	3.200000e+00	1.365326e-03	
199	3.250000e+00	1.366977e-03	
200	3.300000e+00	1.368751e-03	
201	0.000000e+00	-0.000000e+00	
202	5.000000e-02	2.141566e-04	
203	1.000000e-01	4.144800e-04	
204	1.500000e-01	6.015923e-04	
205	2.000000e-01	7.760775e-04	
206	2.500000e-01	9.384839e-04	
207	3.000000e-01	1.089326e-03	
208	3.500000e-01	1.229084e-03	
209	4.000000e-01	1.358209e-03	
210	4.500000e-01	1.477116e-03	
211	5.000000e-01	1.586187e-03	
212	5.500000e-01	1.685761e-03	
213	6.000000e-01	1.776128e-03	
214	6.500000e-01	1.857510e-03	
215	7.000000e-01	1.930030e-03	
216	7.500000e-01	1.993677e-03	
217	8.000000e-01	2.048282e-03	
218	8.500000e-01	2.093611e-03	
219	9.000000e-01	2.129699e-03	
220	9.500000e-01	2.157326e-03	
221	1.000000e+00	2.178057e-03	
222	1.050000e+00	2.193701e-03	
223	1.100000e+00	2.205783e-03	
224	1.150000e+00	2.215395e-03	
225	1.200000e+00	2.223269e-03	
226	1.250000e+00	2.229889e-03	
227	1.300000e+00	2.235579e-03	
228	1.350000e+00	2.240561e-03	

Index   v-sweep         -i(vds)         
--------------------------------------------------------------------------------
229	1.400000e+00	2.244991e-03	
230	1.450000e+00	2.248982e-03	
231	1.500000e+00	2.252617e-03	
232	1.550000e+00	2.255959e-03	
233	1.600000e+00	2.259054e-03	
234	1.650000e+00	2.261943e-03	
235	1.700000e+00	2.264653e-03	
236	1.750000e+00	2.267210e-03	
237	1.800000e+00	2.269633e-03	
238	1.850000e+00	2.271938e-03	
239	1.900000e+00	2.274139e-03	
240	1.950000e+00	2.276248e-03	
241	2.000000e+00	2.278273e-03	
242	2.050000e+00	2.280224e-03	
243	2.100000e+00	2.282107e-03	
244	2.150000e+00	2.283929e-03	
245	2.200000e+00	2.285695e-03	
246	2.250000e+00	2.287410e-03	
247	2.300000e+00	2.289079e-03	
248	2.350000e+00	2.290706e-03	
249	2.400000e+00	2.292294e-03	
250	2.450000e+00	2.293847e-03	
251	2.500000e+00	2.295370e-03	
252	2.550000e+00	2.296866e-03	
253	2.600000e+00	2.298338e-03	
254	2.650000e+00	2.299791e-03	
255	2.700000e+00	2.301231e-03	
256	2.750000e+00	2.302661e-03	
257	2.800000e+00	2.304088e-03	
258	2.850000e+00	2.305518e-03	
259	2.900000e+00	2.306959e-03	
260	2.950000e+00	2.308418e-03	
261	3.000000e+00	2.309904e-03	
262	3.050000e+00	2.311428e-03	
263	3.100000e+00	2.313001e-03	
264	3.150000e+00	2.314635e-03	
265	3.200000e+00	2.316345e-03	
266	3.250000e+00	2.318145e-03	
267	3.300000e+00	2.320053e-03	
268	0.000000e+00	-0.000000e+00	
269	5.000000e-02	2.447508e-04	
270	1.000000e-01	4.768143e-04	
271	1.500000e-01	6.966806e-04	
272	2.000000e-01	9.048143e-04	
273	2.500000e-01	1.101656e-03	
274	3.000000e-01	1.287624e-03	
275	3.500000e-01	1.463113e-03	
276	4.000000e-01	1.628500e-03	
277	4.500000e-01	1.784140e-03	
278	5.000000e-01	1.930367e-03	
279	5.500000e-01	2.067496e-03	
280	6.000000e-01	2.195823e-03	
281	6.500000e-01	2.315616e-03	
282	7.000000e-01	2.427120e-03	
283	7.500000e-01	2.530547e-03	
284	8.000000e-01	2.626062e-03	
285	8.500000e-01	2.713770e-03	
286	9.000000e-01	2.793690e-03	

Index   v-sweep         -i(vds)         
--------------------------------------------------------------------------------
287	9.500000e-01	2.865713e-03	
288	1.000000e+00	2.929577e-03	
289	1.050000e+00	2.984887e-03	
290	1.100000e+00	3.031297e-03	
291	1.150000e+00	3.068887e-03	
292	1.200000e+00	3.098478e-03	
293	1.250000e+00	3.121497e-03	
294	1.300000e+00	3.139514e-03	
295	1.350000e+00	3.153871e-03	
296	1.400000e+00	3.165573e-03	
297	1.450000e+00	3.175329e-03	
298	1.500000e+00	3.183635e-03	
299	1.550000e+00	3.190836e-03	
300	1.600000e+00	3.197179e-03	
301	1.650000e+00	3.202840e-03	
302	1.700000e+00	3.207951e-03	
303	1.750000e+00	3.212612e-03	
304	1.800000e+00	3.216897e-03	
305	1.850000e+00	3.220867e-03	
306	1.900000e+00	3.224567e-03	
307	1.950000e+00	3.228036e-03	
308	2.000000e+00	3.231304e-03	
309	2.050000e+00	3.234396e-03	
310	2.100000e+00	3.237332e-03	
311	2.150000e+00	3.240131e-03	
312	2.200000e+00	3.242808e-03	
313	2.250000e+00	3.245374e-03	
314	2.300000e+00	3.247840e-03	
315	2.350000e+00	3.250217e-03	
316	2.400000e+00	3.252511e-03	
317	2.450000e+00	3.254731e-03	
318	2.500000e+00	3.256884e-03	
319	2.550000e+00	3.258974e-03	
320	2.600000e+00	3.261008e-03	
321	2.650000e+00	3.262991e-03	
322	2.700000e+00	3.264928e-03	
323	2.750000e+00	3.266825e-03	
324	2.800000e+00	3.268687e-03	
325	2.850000e+00	3.270519e-03	
326	2.900000e+00	3.272328e-03	
327	2.950000e+00	3.274122e-03	
328	3.000000e+00	3.275906e-03	
329	3.050000e+00	3.277691e-03	
330	3.100000e+00	3.279485e-03	
331	3.150000e+00	3.281300e-03	
332	3.200000e+00	3.283146e-03	
333	3.250000e+00	3.285039e-03	
334	3.300000e+00	3.286992e-03	
335	0.000000e+00	-0.000000e+00	
336	5.000000e-02	2.646692e-04	
337	1.000000e-01	5.178813e-04	
338	1.500000e-01	7.600205e-04	
339	2.000000e-01	9.914538e-04	
340	2.500000e-01	1.212532e-03	
341	3.000000e-01	1.423589e-03	
342	3.500000e-01	1.624947e-03	
343	4.000000e-01	1.816911e-03	
344	4.500000e-01	1.999773e-03	

Index   v-sweep         -i(vds)         
--------------------------------------------------------------------------------
345	5.000000e-01	2.173813e-03	
346	5.500000e-01	2.339297e-03	
347	6.000000e-01	2.496480e-03	
348	6.500000e-01	2.645601e-03	
349	7.000000e-01	2.786889e-03	
350	7.500000e-01	2.920558e-03	
351	8.000000e-01	3.046806e-03	
352	8.500000e-01	3.165816e-03	
353	9.000000e-01	3.277745e-03	
354	9.500000e-01	3.382727e-03	
355	1.000000e+00	3.480855e-03	
356	1.050000e+00	3.572171e-03	
357	1.100000e+00	3.656640e-03	
358	1.150000e+00	3.734123e-03	
359	1.200000e+00	3.804344e-03	
360	1.250000e+00	3.866883e-03	
361	1.300000e+00	3.921262e-03	
362	1.350000e+00	3.967186e-03	
363	1.400000e+00	4.004862e-03	
364	1.450000e+00	4.035150e-03	
365	1.500000e+00	4.059343e-03	
366	1.550000e+00	4.078796e-03	
367	1.600000e+00	4.094670e-03	
368	1.650000e+00	4.107861e-03	
369	1.700000e+00	4.119027e-03	
370	1.750000e+00	4.128644e-03	
371	1.800000e+00	4.137054e-03	
372	1.850000e+00	4.144509e-03	
373	1.900000e+00	4.151195e-03	
374	1.950000e+00	4.157253e-03	
375	2.000000e+00	4.162791e-03	
376	2.050000e+00	4.167891e-03	
377	2.100000e+00	4.172620e-03	
378	2.150000e+00	4.177032e-03	
379	2.200000e+00	4.181169e-03	
380	2.250000e+00	4.185066e-03	
381	2.300000e+00	4.188752e-03	
382	2.350000e+00	4.192251e-03	
383	2.400000e+00	4.195585e-03	
384	2.450000e+00	4.198770e-03	
385	2.500000e+00	4.201821e-03	
386	2.550000e+00	4.204751e-03	
387	2.600000e+00	4.207572e-03	
388	2.650000e+00	4.210293e-03	
389	2.700000e+00	4.212923e-03	
390	2.750000e+00	4.215470e-03	
391	2.800000e+00	4.217942e-03	
392	2.850000e+00	4.220345e-03	
393	2.900000e+00	4.222687e-03	
394	2.950000e+00	4.224973e-03	
395	3.000000e+00	4.227211e-03	
396	3.050000e+00	4.229408e-03	
397	3.100000e+00	4.231571e-03	
398	3.150000e+00	4.233710e-03	
399	3.200000e+00	4.235832e-03	
400	3.250000e+00	4.237949e-03	
401	3.300000e+00	4.240071e-03	
Note: No ".plot", ".print", or ".fourier" lines; no simulations run
