
Note: Compatibility modes selected: hs

Warning: m=xx on .subckt line will override multiplier m hierarchy!


Circuit: ***************************

Doing analysis at TEMP = -40.000000 and TNOM = -40.000000


No. of Data Rows : 402
                          ***************************
                          DC transfer characteristic  Mon Jan  9 13:57:17  2023
--------------------------------------------------------------------------------
Index   v-sweep         -i(vds)         
--------------------------------------------------------------------------------
0	0.000000e+00	-0.000000e+00	
1	5.000000e-02	7.316641e-07	
2	1.000000e-01	9.287786e-07	
3	1.500000e-01	9.434902e-07	
4	2.000000e-01	9.465316e-07	
5	2.500000e-01	9.482897e-07	
6	3.000000e-01	9.496762e-07	
7	3.500000e-01	9.508959e-07	
8	4.000000e-01	9.520216e-07	
9	4.500000e-01	9.530870e-07	
10	5.000000e-01	9.541102e-07	
11	5.500000e-01	9.551021e-07	
12	6.000000e-01	9.560699e-07	
13	6.500000e-01	9.570184e-07	
14	7.000000e-01	9.579512e-07	
15	7.500000e-01	9.588708e-07	
16	8.000000e-01	9.597794e-07	
17	8.500000e-01	9.606785e-07	
18	9.000000e-01	9.615693e-07	
19	9.500000e-01	9.624528e-07	
20	1.000000e+00	9.633300e-07	
21	1.050000e+00	9.642015e-07	
22	1.100000e+00	9.650679e-07	
23	1.150000e+00	9.659297e-07	
24	1.200000e+00	9.667874e-07	
25	1.250000e+00	9.676413e-07	
26	1.300000e+00	9.684917e-07	
27	1.350000e+00	9.693390e-07	
28	1.400000e+00	9.701835e-07	
29	1.450000e+00	9.710254e-07	
30	1.500000e+00	9.718650e-07	
31	1.550000e+00	9.727027e-07	
32	1.600000e+00	9.735388e-07	
33	1.650000e+00	9.743738e-07	
34	1.700000e+00	9.752083e-07	
35	1.750000e+00	9.760430e-07	
36	1.800000e+00	9.768788e-07	
37	1.850000e+00	9.777171e-07	
38	1.900000e+00	9.785591e-07	
39	1.950000e+00	9.794069e-07	
40	2.000000e+00	9.802626e-07	
41	2.050000e+00	9.811290e-07	
42	2.100000e+00	9.820095e-07	
43	2.150000e+00	9.829078e-07	
44	2.200000e+00	9.838286e-07	
45	2.250000e+00	9.847772e-07	
46	2.300000e+00	9.857595e-07	
47	2.350000e+00	9.867825e-07	
48	2.400000e+00	9.878541e-07	
49	2.450000e+00	9.889829e-07	
50	2.500000e+00	9.901786e-07	
51	2.550000e+00	9.914520e-07	
52	2.600000e+00	9.928148e-07	
53	2.650000e+00	9.942798e-07	
54	2.700000e+00	9.958610e-07	

Index   v-sweep         -i(vds)         
--------------------------------------------------------------------------------
55	2.750000e+00	9.975733e-07	
56	2.800000e+00	9.994328e-07	
57	2.850000e+00	1.001457e-06	
58	2.900000e+00	1.003663e-06	
59	2.950000e+00	1.006072e-06	
60	3.000000e+00	1.008704e-06	
61	3.050000e+00	1.011579e-06	
62	3.100000e+00	1.014722e-06	
63	3.150000e+00	1.018155e-06	
64	3.200000e+00	1.021902e-06	
65	3.250000e+00	1.025990e-06	
66	3.300000e+00	1.030445e-06	
67	0.000000e+00	-0.000000e+00	
68	5.000000e-02	6.473002e-06	
69	1.000000e-01	1.214442e-05	
70	1.500000e-01	1.702017e-05	
71	2.000000e-01	2.110625e-05	
72	2.500000e-01	2.440896e-05	
73	3.000000e-01	2.693570e-05	
74	3.500000e-01	2.869832e-05	
75	4.000000e-01	2.973167e-05	
76	4.500000e-01	3.017568e-05	
77	5.000000e-01	3.032632e-05	
78	5.500000e-01	3.038944e-05	
79	6.000000e-01	3.042605e-05	
80	6.500000e-01	3.045197e-05	
81	7.000000e-01	3.047245e-05	
82	7.500000e-01	3.048971e-05	
83	8.000000e-01	3.050485e-05	
84	8.500000e-01	3.051850e-05	
85	9.000000e-01	3.053104e-05	
86	9.500000e-01	3.054272e-05	
87	1.000000e+00	3.055373e-05	
88	1.050000e+00	3.056419e-05	
89	1.100000e+00	3.057419e-05	
90	1.150000e+00	3.058380e-05	
91	1.200000e+00	3.059309e-05	
92	1.250000e+00	3.060208e-05	
93	1.300000e+00	3.061083e-05	
94	1.350000e+00	3.061936e-05	
95	1.400000e+00	3.062770e-05	
96	1.450000e+00	3.063586e-05	
97	1.500000e+00	3.064386e-05	
98	1.550000e+00	3.065173e-05	
99	1.600000e+00	3.065946e-05	
100	1.650000e+00	3.066708e-05	
101	1.700000e+00	3.067460e-05	
102	1.750000e+00	3.068201e-05	
103	1.800000e+00	3.068934e-05	
104	1.850000e+00	3.069660e-05	
105	1.900000e+00	3.070379e-05	
106	1.950000e+00	3.071092e-05	
107	2.000000e+00	3.071802e-05	
108	2.050000e+00	3.072509e-05	
109	2.100000e+00	3.073218e-05	
110	2.150000e+00	3.073929e-05	
111	2.200000e+00	3.074649e-05	
112	2.250000e+00	3.075380e-05	

Index   v-sweep         -i(vds)         
--------------------------------------------------------------------------------
113	2.300000e+00	3.076129e-05	
114	2.350000e+00	3.076904e-05	
115	2.400000e+00	3.077713e-05	
116	2.450000e+00	3.078565e-05	
117	2.500000e+00	3.079475e-05	
118	2.550000e+00	3.080456e-05	
119	2.600000e+00	3.081524e-05	
120	2.650000e+00	3.082699e-05	
121	2.700000e+00	3.084001e-05	
122	2.750000e+00	3.085457e-05	
123	2.800000e+00	3.087092e-05	
124	2.850000e+00	3.088937e-05	
125	2.900000e+00	3.091025e-05	
126	2.950000e+00	3.093393e-05	
127	3.000000e+00	3.096080e-05	
128	3.050000e+00	3.099129e-05	
129	3.100000e+00	3.102587e-05	
130	3.150000e+00	3.106502e-05	
131	3.200000e+00	3.110928e-05	
132	3.250000e+00	3.115922e-05	
133	3.300000e+00	3.121541e-05	
134	0.000000e+00	-0.000000e+00	
135	5.000000e-02	1.168640e-05	
136	1.000000e-01	2.261053e-05	
137	1.500000e-01	3.277753e-05	
138	2.000000e-01	4.219251e-05	
139	2.500000e-01	5.086053e-05	
140	3.000000e-01	5.878661e-05	
141	3.500000e-01	6.597573e-05	
142	4.000000e-01	7.243286e-05	
143	4.500000e-01	7.816294e-05	
144	5.000000e-01	8.317094e-05	
145	5.500000e-01	8.746192e-05	
146	6.000000e-01	9.104121e-05	
147	6.500000e-01	9.391508e-05	
148	7.000000e-01	9.609292e-05	
149	7.500000e-01	9.759654e-05	
150	8.000000e-01	9.849420e-05	
151	8.500000e-01	9.895455e-05	
152	9.000000e-01	9.918839e-05	
153	9.500000e-01	9.932470e-05	
154	1.000000e+00	9.941672e-05	
155	1.050000e+00	9.948567e-05	
156	1.100000e+00	9.954106e-05	
157	1.150000e+00	9.958768e-05	
158	1.200000e+00	9.962823e-05	
159	1.250000e+00	9.966436e-05	
160	1.300000e+00	9.969714e-05	
161	1.350000e+00	9.972728e-05	
162	1.400000e+00	9.975531e-05	
163	1.450000e+00	9.978161e-05	
164	1.500000e+00	9.980646e-05	
165	1.550000e+00	9.983008e-05	
166	1.600000e+00	9.985265e-05	
167	1.650000e+00	9.987432e-05	
168	1.700000e+00	9.989518e-05	
169	1.750000e+00	9.991535e-05	
170	1.800000e+00	9.993488e-05	

Index   v-sweep         -i(vds)         
--------------------------------------------------------------------------------
171	1.850000e+00	9.995386e-05	
172	1.900000e+00	9.997234e-05	
173	1.950000e+00	9.999036e-05	
174	2.000000e+00	1.000080e-04	
175	2.050000e+00	1.000252e-04	
176	2.100000e+00	1.000421e-04	
177	2.150000e+00	1.000587e-04	
178	2.200000e+00	1.000750e-04	
179	2.250000e+00	1.000911e-04	
180	2.300000e+00	1.001070e-04	
181	2.350000e+00	1.001227e-04	
182	2.400000e+00	1.001383e-04	
183	2.450000e+00	1.001539e-04	
184	2.500000e+00	1.001696e-04	
185	2.550000e+00	1.001854e-04	
186	2.600000e+00	1.002016e-04	
187	2.650000e+00	1.002183e-04	
188	2.700000e+00	1.002356e-04	
189	2.750000e+00	1.002540e-04	
190	2.800000e+00	1.002736e-04	
191	2.850000e+00	1.002949e-04	
192	2.900000e+00	1.003183e-04	
193	2.950000e+00	1.003442e-04	
194	3.000000e+00	1.003734e-04	
195	3.050000e+00	1.004064e-04	
196	3.100000e+00	1.004440e-04	
197	3.150000e+00	1.004871e-04	
198	3.200000e+00	1.005365e-04	
199	3.250000e+00	1.005934e-04	
200	3.300000e+00	1.006588e-04	
201	0.000000e+00	-0.000000e+00	
202	5.000000e-02	1.582805e-05	
203	1.000000e-01	3.096282e-05	
204	1.500000e-01	4.540862e-05	
205	2.000000e-01	5.916973e-05	
206	2.500000e-01	7.225042e-05	
207	3.000000e-01	8.465489e-05	
208	3.500000e-01	9.638734e-05	
209	4.000000e-01	1.074519e-04	
210	4.500000e-01	1.178527e-04	
211	5.000000e-01	1.275938e-04	
212	5.500000e-01	1.366792e-04	
213	6.000000e-01	1.451130e-04	
214	6.500000e-01	1.528992e-04	
215	7.000000e-01	1.600416e-04	
216	7.500000e-01	1.665442e-04	
217	8.000000e-01	1.724108e-04	
218	8.500000e-01	1.776453e-04	
219	9.000000e-01	1.822514e-04	
220	9.500000e-01	1.862329e-04	
221	1.000000e+00	1.895936e-04	
222	1.050000e+00	1.923381e-04	
223	1.100000e+00	1.944735e-04	
224	1.150000e+00	1.960190e-04	
225	1.200000e+00	1.970330e-04	
226	1.250000e+00	1.976440e-04	
227	1.300000e+00	1.980112e-04	
228	1.350000e+00	1.982491e-04	

Index   v-sweep         -i(vds)         
--------------------------------------------------------------------------------
229	1.400000e+00	1.984178e-04	
230	1.450000e+00	1.985466e-04	
231	1.500000e+00	1.986504e-04	
232	1.550000e+00	1.987376e-04	
233	1.600000e+00	1.988130e-04	
234	1.650000e+00	1.988796e-04	
235	1.700000e+00	1.989396e-04	
236	1.750000e+00	1.989943e-04	
237	1.800000e+00	1.990447e-04	
238	1.850000e+00	1.990917e-04	
239	1.900000e+00	1.991357e-04	
240	1.950000e+00	1.991773e-04	
241	2.000000e+00	1.992167e-04	
242	2.050000e+00	1.992543e-04	
243	2.100000e+00	1.992903e-04	
244	2.150000e+00	1.993249e-04	
245	2.200000e+00	1.993582e-04	
246	2.250000e+00	1.993904e-04	
247	2.300000e+00	1.994216e-04	
248	2.350000e+00	1.994519e-04	
249	2.400000e+00	1.994813e-04	
250	2.450000e+00	1.995100e-04	
251	2.500000e+00	1.995380e-04	
252	2.550000e+00	1.995654e-04	
253	2.600000e+00	1.995923e-04	
254	2.650000e+00	1.996186e-04	
255	2.700000e+00	1.996446e-04	
256	2.750000e+00	1.996703e-04	
257	2.800000e+00	1.996958e-04	
258	2.850000e+00	1.997213e-04	
259	2.900000e+00	1.997469e-04	
260	2.950000e+00	1.997730e-04	
261	3.000000e+00	1.997997e-04	
262	3.050000e+00	1.998275e-04	
263	3.100000e+00	1.998568e-04	
264	3.150000e+00	1.998881e-04	
265	3.200000e+00	1.999221e-04	
266	3.250000e+00	1.999595e-04	
267	3.300000e+00	2.000013e-04	
268	0.000000e+00	-0.000000e+00	
269	5.000000e-02	1.889193e-05	
270	1.000000e-01	3.716871e-05	
271	1.500000e-01	5.483385e-05	
272	2.000000e-01	7.189084e-05	
273	2.500000e-01	8.834313e-05	
274	3.000000e-01	1.041941e-04	
275	3.500000e-01	1.194473e-04	
276	4.000000e-01	1.341059e-04	
277	4.500000e-01	1.481734e-04	
278	5.000000e-01	1.616531e-04	
279	5.500000e-01	1.745483e-04	
280	6.000000e-01	1.868623e-04	
281	6.500000e-01	1.985982e-04	
282	7.000000e-01	2.097594e-04	
283	7.500000e-01	2.203490e-04	
284	8.000000e-01	2.303702e-04	
285	8.500000e-01	2.398261e-04	
286	9.000000e-01	2.487200e-04	

Index   v-sweep         -i(vds)         
--------------------------------------------------------------------------------
287	9.500000e-01	2.570547e-04	
288	1.000000e+00	2.648335e-04	
289	1.050000e+00	2.720592e-04	
290	1.100000e+00	2.787350e-04	
291	1.150000e+00	2.848636e-04	
292	1.200000e+00	2.904480e-04	
293	1.250000e+00	2.954908e-04	
294	1.300000e+00	2.999946e-04	
295	1.350000e+00	3.039616e-04	
296	1.400000e+00	3.073939e-04	
297	1.450000e+00	3.102929e-04	
298	1.500000e+00	3.126604e-04	
299	1.550000e+00	3.145025e-04	
300	1.600000e+00	3.158444e-04	
301	1.650000e+00	3.167568e-04	
302	1.700000e+00	3.173572e-04	
303	1.750000e+00	3.177622e-04	
304	1.800000e+00	3.180513e-04	
305	1.850000e+00	3.182705e-04	
306	1.900000e+00	3.184450e-04	
307	1.950000e+00	3.185896e-04	
308	2.000000e+00	3.187129e-04	
309	2.050000e+00	3.188207e-04	
310	2.100000e+00	3.189166e-04	
311	2.150000e+00	3.190031e-04	
312	2.200000e+00	3.190823e-04	
313	2.250000e+00	3.191553e-04	
314	2.300000e+00	3.192232e-04	
315	2.350000e+00	3.192868e-04	
316	2.400000e+00	3.193468e-04	
317	2.450000e+00	3.194037e-04	
318	2.500000e+00	3.194577e-04	
319	2.550000e+00	3.195094e-04	
320	2.600000e+00	3.195589e-04	
321	2.650000e+00	3.196065e-04	
322	2.700000e+00	3.196524e-04	
323	2.750000e+00	3.196968e-04	
324	2.800000e+00	3.197398e-04	
325	2.850000e+00	3.197815e-04	
326	2.900000e+00	3.198220e-04	
327	2.950000e+00	3.198615e-04	
328	3.000000e+00	3.199001e-04	
329	3.050000e+00	3.199379e-04	
330	3.100000e+00	3.199750e-04	
331	3.150000e+00	3.200116e-04	
332	3.200000e+00	3.200478e-04	
333	3.250000e+00	3.200838e-04	
334	3.300000e+00	3.201201e-04	
335	0.000000e+00	-0.000000e+00	
336	5.000000e-02	2.100217e-05	
337	1.000000e-01	4.146743e-05	
338	1.500000e-01	6.139856e-05	
339	2.000000e-01	8.079832e-05	
340	2.500000e-01	9.966944e-05	
341	3.000000e-01	1.180147e-04	
342	3.500000e-01	1.358367e-04	
343	4.000000e-01	1.531382e-04	
344	4.500000e-01	1.699218e-04	

Index   v-sweep         -i(vds)         
--------------------------------------------------------------------------------
345	5.000000e-01	1.861903e-04	
346	5.500000e-01	2.019462e-04	
347	6.000000e-01	2.171921e-04	
348	6.500000e-01	2.319306e-04	
349	7.000000e-01	2.461644e-04	
350	7.500000e-01	2.598959e-04	
351	8.000000e-01	2.731278e-04	
352	8.500000e-01	2.858625e-04	
353	9.000000e-01	2.981025e-04	
354	9.500000e-01	3.098503e-04	
355	1.000000e+00	3.211085e-04	
356	1.050000e+00	3.318794e-04	
357	1.100000e+00	3.421654e-04	
358	1.150000e+00	3.519691e-04	
359	1.200000e+00	3.612927e-04	
360	1.250000e+00	3.701387e-04	
361	1.300000e+00	3.785093e-04	
362	1.350000e+00	3.864070e-04	
363	1.400000e+00	3.938339e-04	
364	1.450000e+00	4.007924e-04	
365	1.500000e+00	4.072847e-04	
366	1.550000e+00	4.133127e-04	
367	1.600000e+00	4.188787e-04	
368	1.650000e+00	4.239844e-04	
369	1.700000e+00	4.286316e-04	
370	1.750000e+00	4.328217e-04	
371	1.800000e+00	4.365553e-04	
372	1.850000e+00	4.398326e-04	
373	1.900000e+00	4.426524e-04	
374	1.950000e+00	4.450124e-04	
375	2.000000e+00	4.469128e-04	
376	2.050000e+00	4.483669e-04	
377	2.100000e+00	4.494221e-04	
378	2.150000e+00	4.501655e-04	
379	2.200000e+00	4.506941e-04	
380	2.250000e+00	4.510840e-04	
381	2.300000e+00	4.513847e-04	
382	2.350000e+00	4.516260e-04	
383	2.400000e+00	4.518265e-04	
384	2.450000e+00	4.519975e-04	
385	2.500000e+00	4.521466e-04	
386	2.550000e+00	4.522790e-04	
387	2.600000e+00	4.523981e-04	
388	2.650000e+00	4.525066e-04	
389	2.700000e+00	4.526064e-04	
390	2.750000e+00	4.526990e-04	
391	2.800000e+00	4.527854e-04	
392	2.850000e+00	4.528666e-04	
393	2.900000e+00	4.529432e-04	
394	2.950000e+00	4.530159e-04	
395	3.000000e+00	4.530852e-04	
396	3.050000e+00	4.531514e-04	
397	3.100000e+00	4.532148e-04	
398	3.150000e+00	4.532758e-04	
399	3.200000e+00	4.533346e-04	
400	3.250000e+00	4.533915e-04	
401	3.300000e+00	4.534465e-04	
Note: No ".plot", ".print", or ".fourier" lines; no simulations run
