
Note: Compatibility modes selected: hs

Warning: m=xx on .subckt line will override multiplier m hierarchy!


Circuit: ***************************

Doing analysis at TEMP = -40.000000 and TNOM = -40.000000


No. of Data Rows : 402
                          ***************************
                          DC transfer characteristic  Mon Jan  9 13:57:17  2023
--------------------------------------------------------------------------------
Index   v-sweep         -i(vds)         
--------------------------------------------------------------------------------
0	0.000000e+00	-0.000000e+00	
1	5.000000e-02	5.667779e-07	
2	1.000000e-01	9.141728e-07	
3	1.500000e-01	1.083244e-06	
4	2.000000e-01	1.151111e-06	
5	2.500000e-01	1.183582e-06	
6	3.000000e-01	1.204395e-06	
7	3.500000e-01	1.220170e-06	
8	4.000000e-01	1.233199e-06	
9	4.500000e-01	1.244501e-06	
10	5.000000e-01	1.254614e-06	
11	5.500000e-01	1.263857e-06	
12	6.000000e-01	1.272435e-06	
13	6.500000e-01	1.280488e-06	
14	7.000000e-01	1.288116e-06	
15	7.500000e-01	1.295392e-06	
16	8.000000e-01	1.302374e-06	
17	8.500000e-01	1.309105e-06	
18	9.000000e-01	1.315619e-06	
19	9.500000e-01	1.321946e-06	
20	1.000000e+00	1.328108e-06	
21	1.050000e+00	1.334124e-06	
22	1.100000e+00	1.340010e-06	
23	1.150000e+00	1.345780e-06	
24	1.200000e+00	1.351445e-06	
25	1.250000e+00	1.357016e-06	
26	1.300000e+00	1.362501e-06	
27	1.350000e+00	1.367908e-06	
28	1.400000e+00	1.373243e-06	
29	1.450000e+00	1.378513e-06	
30	1.500000e+00	1.383723e-06	
31	1.550000e+00	1.388877e-06	
32	1.600000e+00	1.393981e-06	
33	1.650000e+00	1.399037e-06	
34	1.700000e+00	1.404051e-06	
35	1.750000e+00	1.409026e-06	
36	1.800000e+00	1.413966e-06	
37	1.850000e+00	1.418874e-06	
38	1.900000e+00	1.423754e-06	
39	1.950000e+00	1.428611e-06	
40	2.000000e+00	1.433449e-06	
41	2.050000e+00	1.438273e-06	
42	2.100000e+00	1.443088e-06	
43	2.150000e+00	1.447899e-06	
44	2.200000e+00	1.452713e-06	
45	2.250000e+00	1.457537e-06	
46	2.300000e+00	1.462378e-06	
47	2.350000e+00	1.467245e-06	
48	2.400000e+00	1.472148e-06	
49	2.450000e+00	1.477095e-06	
50	2.500000e+00	1.482100e-06	
51	2.550000e+00	1.487174e-06	
52	2.600000e+00	1.492330e-06	
53	2.650000e+00	1.497584e-06	
54	2.700000e+00	1.502951e-06	

Index   v-sweep         -i(vds)         
--------------------------------------------------------------------------------
55	2.750000e+00	1.508449e-06	
56	2.800000e+00	1.514096e-06	
57	2.850000e+00	1.519912e-06	
58	2.900000e+00	1.525920e-06	
59	2.950000e+00	1.532141e-06	
60	3.000000e+00	1.538601e-06	
61	3.050000e+00	1.545327e-06	
62	3.100000e+00	1.552345e-06	
63	3.150000e+00	1.559687e-06	
64	3.200000e+00	1.567382e-06	
65	3.250000e+00	1.575465e-06	
66	3.300000e+00	1.583971e-06	
67	0.000000e+00	-0.000000e+00	
68	5.000000e-02	2.672014e-06	
69	1.000000e-01	5.023672e-06	
70	1.500000e-01	7.073967e-06	
71	2.000000e-01	8.840459e-06	
72	2.500000e-01	1.033943e-05	
73	3.000000e-01	1.158610e-05	
74	3.500000e-01	1.259498e-05	
75	4.000000e-01	1.338114e-05	
76	4.500000e-01	1.396428e-05	
77	5.000000e-01	1.437682e-05	
78	5.500000e-01	1.466481e-05	
79	6.000000e-01	1.487253e-05	
80	6.500000e-01	1.503047e-05	
81	7.000000e-01	1.515667e-05	
82	7.500000e-01	1.526156e-05	
83	8.000000e-01	1.535141e-05	
84	8.500000e-01	1.543018e-05	
85	9.000000e-01	1.550050e-05	
86	9.500000e-01	1.556417e-05	
87	1.000000e+00	1.562249e-05	
88	1.050000e+00	1.567641e-05	
89	1.100000e+00	1.572667e-05	
90	1.150000e+00	1.577383e-05	
91	1.200000e+00	1.581832e-05	
92	1.250000e+00	1.586050e-05	
93	1.300000e+00	1.590066e-05	
94	1.350000e+00	1.593904e-05	
95	1.400000e+00	1.597584e-05	
96	1.450000e+00	1.601123e-05	
97	1.500000e+00	1.604535e-05	
98	1.550000e+00	1.607833e-05	
99	1.600000e+00	1.611026e-05	
100	1.650000e+00	1.614124e-05	
101	1.700000e+00	1.617135e-05	
102	1.750000e+00	1.620066e-05	
103	1.800000e+00	1.622924e-05	
104	1.850000e+00	1.625714e-05	
105	1.900000e+00	1.628442e-05	
106	1.950000e+00	1.631112e-05	
107	2.000000e+00	1.633730e-05	
108	2.050000e+00	1.636298e-05	
109	2.100000e+00	1.638822e-05	
110	2.150000e+00	1.641306e-05	
111	2.200000e+00	1.643755e-05	
112	2.250000e+00	1.646172e-05	

Index   v-sweep         -i(vds)         
--------------------------------------------------------------------------------
113	2.300000e+00	1.648564e-05	
114	2.350000e+00	1.650934e-05	
115	2.400000e+00	1.653289e-05	
116	2.450000e+00	1.655635e-05	
117	2.500000e+00	1.657978e-05	
118	2.550000e+00	1.660327e-05	
119	2.600000e+00	1.662689e-05	
120	2.650000e+00	1.665073e-05	
121	2.700000e+00	1.667490e-05	
122	2.750000e+00	1.669950e-05	
123	2.800000e+00	1.672466e-05	
124	2.850000e+00	1.675049e-05	
125	2.900000e+00	1.677716e-05	
126	2.950000e+00	1.680480e-05	
127	3.000000e+00	1.683360e-05	
128	3.050000e+00	1.686372e-05	
129	3.100000e+00	1.689537e-05	
130	3.150000e+00	1.692876e-05	
131	3.200000e+00	1.696410e-05	
132	3.250000e+00	1.700165e-05	
133	3.300000e+00	1.704164e-05	
134	0.000000e+00	-0.000000e+00	
135	5.000000e-02	4.289642e-06	
136	1.000000e-01	8.236557e-06	
137	1.500000e-01	1.185841e-05	
138	2.000000e-01	1.517167e-05	
139	2.500000e-01	1.819165e-05	
140	3.000000e-01	2.093263e-05	
141	3.500000e-01	2.340786e-05	
142	4.000000e-01	2.562959e-05	
143	4.500000e-01	2.760896e-05	
144	5.000000e-01	2.935587e-05	
145	5.500000e-01	3.087852e-05	
146	6.000000e-01	3.218294e-05	
147	6.500000e-01	3.327306e-05	
148	7.000000e-01	3.415405e-05	
149	7.500000e-01	3.484131e-05	
150	8.000000e-01	3.536676e-05	
151	8.500000e-01	3.577081e-05	
152	9.000000e-01	3.608916e-05	
153	9.500000e-01	3.634769e-05	
154	1.000000e+00	3.656368e-05	
155	1.050000e+00	3.674858e-05	
156	1.100000e+00	3.691006e-05	
157	1.150000e+00	3.705342e-05	
158	1.200000e+00	3.718240e-05	
159	1.250000e+00	3.729976e-05	
160	1.300000e+00	3.740754e-05	
161	1.350000e+00	3.750730e-05	
162	1.400000e+00	3.760027e-05	
163	1.450000e+00	3.768740e-05	
164	1.500000e+00	3.776948e-05	
165	1.550000e+00	3.784715e-05	
166	1.600000e+00	3.792092e-05	
167	1.650000e+00	3.799123e-05	
168	1.700000e+00	3.805846e-05	
169	1.750000e+00	3.812291e-05	
170	1.800000e+00	3.818485e-05	

Index   v-sweep         -i(vds)         
--------------------------------------------------------------------------------
171	1.850000e+00	3.824452e-05	
172	1.900000e+00	3.830212e-05	
173	1.950000e+00	3.835782e-05	
174	2.000000e+00	3.841178e-05	
175	2.050000e+00	3.846414e-05	
176	2.100000e+00	3.851503e-05	
177	2.150000e+00	3.856457e-05	
178	2.200000e+00	3.861285e-05	
179	2.250000e+00	3.865999e-05	
180	2.300000e+00	3.870608e-05	
181	2.350000e+00	3.875121e-05	
182	2.400000e+00	3.879548e-05	
183	2.450000e+00	3.883900e-05	
184	2.500000e+00	3.888187e-05	
185	2.550000e+00	3.892420e-05	
186	2.600000e+00	3.896611e-05	
187	2.650000e+00	3.900773e-05	
188	2.700000e+00	3.904921e-05	
189	2.750000e+00	3.909071e-05	
190	2.800000e+00	3.913239e-05	
191	2.850000e+00	3.917446e-05	
192	2.900000e+00	3.921712e-05	
193	2.950000e+00	3.926062e-05	
194	3.000000e+00	3.930520e-05	
195	3.050000e+00	3.935115e-05	
196	3.100000e+00	3.939878e-05	
197	3.150000e+00	3.944841e-05	
198	3.200000e+00	3.950043e-05	
199	3.250000e+00	3.955521e-05	
200	3.300000e+00	3.961318e-05	
201	0.000000e+00	-0.000000e+00	
202	5.000000e-02	5.515308e-06	
203	1.000000e-01	1.068720e-05	
204	1.500000e-01	1.553138e-05	
205	2.000000e-01	2.006258e-05	
206	2.500000e-01	2.429464e-05	
207	3.000000e-01	2.824058e-05	
208	3.500000e-01	3.191264e-05	
209	4.000000e-01	3.532230e-05	
210	4.500000e-01	3.848032e-05	
211	5.000000e-01	4.139670e-05	
212	5.500000e-01	4.408069e-05	
213	6.000000e-01	4.654065e-05	
214	6.500000e-01	4.878379e-05	
215	7.000000e-01	5.081582e-05	
216	7.500000e-01	5.264019e-05	
217	8.000000e-01	5.425710e-05	
218	8.500000e-01	5.566304e-05	
219	9.000000e-01	5.685317e-05	
220	9.500000e-01	5.782953e-05	
221	1.000000e+00	5.861064e-05	
222	1.050000e+00	5.923051e-05	
223	1.100000e+00	5.972709e-05	
224	1.150000e+00	6.013273e-05	
225	1.200000e+00	6.047155e-05	
226	1.250000e+00	6.076059e-05	
227	1.300000e+00	6.101178e-05	
228	1.350000e+00	6.123353e-05	

Index   v-sweep         -i(vds)         
--------------------------------------------------------------------------------
229	1.400000e+00	6.143191e-05	
230	1.450000e+00	6.161140e-05	
231	1.500000e+00	6.177534e-05	
232	1.550000e+00	6.192629e-05	
233	1.600000e+00	6.206625e-05	
234	1.650000e+00	6.219682e-05	
235	1.700000e+00	6.231925e-05	
236	1.750000e+00	6.243460e-05	
237	1.800000e+00	6.254370e-05	
238	1.850000e+00	6.264729e-05	
239	1.900000e+00	6.274594e-05	
240	1.950000e+00	6.284018e-05	
241	2.000000e+00	6.293043e-05	
242	2.050000e+00	6.301708e-05	
243	2.100000e+00	6.310044e-05	
244	2.150000e+00	6.318081e-05	
245	2.200000e+00	6.325843e-05	
246	2.250000e+00	6.333352e-05	
247	2.300000e+00	6.340630e-05	
248	2.350000e+00	6.347694e-05	
249	2.400000e+00	6.354562e-05	
250	2.450000e+00	6.361248e-05	
251	2.500000e+00	6.367770e-05	
252	2.550000e+00	6.374142e-05	
253	2.600000e+00	6.380380e-05	
254	2.650000e+00	6.386499e-05	
255	2.700000e+00	6.392515e-05	
256	2.750000e+00	6.398447e-05	
257	2.800000e+00	6.404313e-05	
258	2.850000e+00	6.410135e-05	
259	2.900000e+00	6.415934e-05	
260	2.950000e+00	6.421736e-05	
261	3.000000e+00	6.427569e-05	
262	3.050000e+00	6.433463e-05	
263	3.100000e+00	6.439452e-05	
264	3.150000e+00	6.445573e-05	
265	3.200000e+00	6.451867e-05	
266	3.250000e+00	6.458380e-05	
267	3.300000e+00	6.465159e-05	
268	0.000000e+00	-0.000000e+00	
269	5.000000e-02	6.452701e-06	
270	1.000000e-01	1.257164e-05	
271	1.500000e-01	1.837046e-05	
272	2.000000e-01	2.386207e-05	
273	2.500000e-01	2.905870e-05	
274	3.000000e-01	3.397190e-05	
275	3.500000e-01	3.861262e-05	
276	4.000000e-01	4.299123e-05	
277	4.500000e-01	4.711755e-05	
278	5.000000e-01	5.100084e-05	
279	5.500000e-01	5.464985e-05	
280	6.000000e-01	5.807280e-05	
281	6.500000e-01	6.127736e-05	
282	7.000000e-01	6.427056e-05	
283	7.500000e-01	6.705873e-05	
284	8.000000e-01	6.964721e-05	
285	8.500000e-01	7.204008e-05	
286	9.000000e-01	7.423945e-05	

Index   v-sweep         -i(vds)         
--------------------------------------------------------------------------------
287	9.500000e-01	7.624457e-05	
288	1.000000e+00	7.805073e-05	
289	1.050000e+00	7.964900e-05	
290	1.100000e+00	8.102925e-05	
291	1.150000e+00	8.218846e-05	
292	1.200000e+00	8.313984e-05	
293	1.250000e+00	8.391287e-05	
294	1.300000e+00	8.454363e-05	
295	1.350000e+00	8.506539e-05	
296	1.400000e+00	8.550462e-05	
297	1.450000e+00	8.588100e-05	
298	1.500000e+00	8.620881e-05	
299	1.550000e+00	8.649845e-05	
300	1.600000e+00	8.675754e-05	
301	1.650000e+00	8.699178e-05	
302	1.700000e+00	8.720550e-05	
303	1.750000e+00	8.740202e-05	
304	1.800000e+00	8.758397e-05	
305	1.850000e+00	8.775343e-05	
306	1.900000e+00	8.791207e-05	
307	1.950000e+00	8.806128e-05	
308	2.000000e+00	8.820218e-05	
309	2.050000e+00	8.833571e-05	
310	2.100000e+00	8.846269e-05	
311	2.150000e+00	8.858377e-05	
312	2.200000e+00	8.869955e-05	
313	2.250000e+00	8.881052e-05	
314	2.300000e+00	8.891711e-05	
315	2.350000e+00	8.901971e-05	
316	2.400000e+00	8.911865e-05	
317	2.450000e+00	8.921423e-05	
318	2.500000e+00	8.930673e-05	
319	2.550000e+00	8.939638e-05	
320	2.600000e+00	8.948342e-05	
321	2.650000e+00	8.956806e-05	
322	2.700000e+00	8.965051e-05	
323	2.750000e+00	8.973099e-05	
324	2.800000e+00	8.980969e-05	
325	2.850000e+00	8.988684e-05	
326	2.900000e+00	8.996266e-05	
327	2.950000e+00	9.003740e-05	
328	3.000000e+00	9.011131e-05	
329	3.050000e+00	9.018469e-05	
330	3.100000e+00	9.025786e-05	
331	3.150000e+00	9.033116e-05	
332	3.200000e+00	9.040498e-05	
333	3.250000e+00	9.047975e-05	
334	3.300000e+00	9.055594e-05	
335	0.000000e+00	-0.000000e+00	
336	5.000000e-02	7.174571e-06	
337	1.000000e-01	1.403003e-05	
338	1.500000e-01	2.057817e-05	
339	2.000000e-01	2.683016e-05	
340	2.500000e-01	3.279669e-05	
341	3.000000e-01	3.848788e-05	
342	3.500000e-01	4.391339e-05	
343	4.000000e-01	4.908244e-05	
344	4.500000e-01	5.400378e-05	

Index   v-sweep         -i(vds)         
--------------------------------------------------------------------------------
345	5.000000e-01	5.868576e-05	
346	5.500000e-01	6.313634e-05	
347	6.000000e-01	6.736305e-05	
348	6.500000e-01	7.137308e-05	
349	7.000000e-01	7.517321e-05	
350	7.500000e-01	7.876983e-05	
351	8.000000e-01	8.216886e-05	
352	8.500000e-01	8.537576e-05	
353	9.000000e-01	8.839536e-05	
354	9.500000e-01	9.123169e-05	
355	1.000000e+00	9.388767e-05	
356	1.050000e+00	9.636463e-05	
357	1.100000e+00	9.866149e-05	
358	1.150000e+00	1.007737e-04	
359	1.200000e+00	1.026925e-04	
360	1.250000e+00	1.044050e-04	
361	1.300000e+00	1.058986e-04	
362	1.350000e+00	1.071692e-04	
363	1.400000e+00	1.082289e-04	
364	1.450000e+00	1.091049e-04	
365	1.500000e+00	1.098310e-04	
366	1.550000e+00	1.104394e-04	
367	1.600000e+00	1.109564e-04	
368	1.650000e+00	1.114026e-04	
369	1.700000e+00	1.117931e-04	
370	1.750000e+00	1.121393e-04	
371	1.800000e+00	1.124498e-04	
372	1.850000e+00	1.127308e-04	
373	1.900000e+00	1.129875e-04	
374	1.950000e+00	1.132237e-04	
375	2.000000e+00	1.134424e-04	
376	2.050000e+00	1.136461e-04	
377	2.100000e+00	1.138367e-04	
378	2.150000e+00	1.140160e-04	
379	2.200000e+00	1.141851e-04	
380	2.250000e+00	1.143454e-04	
381	2.300000e+00	1.144977e-04	
382	2.350000e+00	1.146428e-04	
383	2.400000e+00	1.147815e-04	
384	2.450000e+00	1.149143e-04	
385	2.500000e+00	1.150418e-04	
386	2.550000e+00	1.151645e-04	
387	2.600000e+00	1.152826e-04	
388	2.650000e+00	1.153967e-04	
389	2.700000e+00	1.155070e-04	
390	2.750000e+00	1.156138e-04	
391	2.800000e+00	1.157175e-04	
392	2.850000e+00	1.158182e-04	
393	2.900000e+00	1.159163e-04	
394	2.950000e+00	1.160120e-04	
395	3.000000e+00	1.161056e-04	
396	3.050000e+00	1.161973e-04	
397	3.100000e+00	1.162875e-04	
398	3.150000e+00	1.163764e-04	
399	3.200000e+00	1.164644e-04	
400	3.250000e+00	1.165519e-04	
401	3.300000e+00	1.166392e-04	
Note: No ".plot", ".print", or ".fourier" lines; no simulations run
