
Note: Compatibility modes selected: hs

Warning: m=xx on .subckt line will override multiplier m hierarchy!


Circuit: ***************************

Doing analysis at TEMP = -40.000000 and TNOM = -40.000000


No. of Data Rows : 402
                          ***************************
                          DC transfer characteristic  Mon Jan  9 13:57:17  2023
--------------------------------------------------------------------------------
Index   v-sweep         -i(vds)         
--------------------------------------------------------------------------------
0	0.000000e+00	-0.000000e+00	
1	5.000000e-02	3.314131e-08	
2	1.000000e-01	4.245435e-08	
3	1.500000e-01	4.308862e-08	
4	2.000000e-01	4.319229e-08	
5	2.500000e-01	4.324765e-08	
6	3.000000e-01	4.329078e-08	
7	3.500000e-01	4.332895e-08	
8	4.000000e-01	4.336452e-08	
9	4.500000e-01	4.339849e-08	
10	5.000000e-01	4.343139e-08	
11	5.500000e-01	4.346353e-08	
12	6.000000e-01	4.349507e-08	
13	6.500000e-01	4.352616e-08	
14	7.000000e-01	4.355688e-08	
15	7.500000e-01	4.358729e-08	
16	8.000000e-01	4.361744e-08	
17	8.500000e-01	4.364738e-08	
18	9.000000e-01	4.367712e-08	
19	9.500000e-01	4.370670e-08	
20	1.000000e+00	4.373614e-08	
21	1.050000e+00	4.376544e-08	
22	1.100000e+00	4.379463e-08	
23	1.150000e+00	4.382372e-08	
24	1.200000e+00	4.385271e-08	
25	1.250000e+00	4.388161e-08	
26	1.300000e+00	4.391044e-08	
27	1.350000e+00	4.393920e-08	
28	1.400000e+00	4.396790e-08	
29	1.450000e+00	4.399653e-08	
30	1.500000e+00	4.402512e-08	
31	1.550000e+00	4.405365e-08	
32	1.600000e+00	4.408216e-08	
33	1.650000e+00	4.411063e-08	
34	1.700000e+00	4.413909e-08	
35	1.750000e+00	4.416755e-08	
36	1.800000e+00	4.419603e-08	
37	1.850000e+00	4.422456e-08	
38	1.900000e+00	4.425316e-08	
39	1.950000e+00	4.428188e-08	
40	2.000000e+00	4.431077e-08	
41	2.050000e+00	4.433988e-08	
42	2.100000e+00	4.436929e-08	
43	2.150000e+00	4.439908e-08	
44	2.200000e+00	4.442935e-08	
45	2.250000e+00	4.446022e-08	
46	2.300000e+00	4.449183e-08	
47	2.350000e+00	4.452433e-08	
48	2.400000e+00	4.455789e-08	
49	2.450000e+00	4.459271e-08	
50	2.500000e+00	4.462901e-08	
51	2.550000e+00	4.466704e-08	
52	2.600000e+00	4.470707e-08	
53	2.650000e+00	4.474938e-08	
54	2.700000e+00	4.479430e-08	

Index   v-sweep         -i(vds)         
--------------------------------------------------------------------------------
55	2.750000e+00	4.484217e-08	
56	2.800000e+00	4.489337e-08	
57	2.850000e+00	4.494829e-08	
58	2.900000e+00	4.500737e-08	
59	2.950000e+00	4.507105e-08	
60	3.000000e+00	4.513982e-08	
61	3.050000e+00	4.521418e-08	
62	3.100000e+00	4.529466e-08	
63	3.150000e+00	4.538181e-08	
64	3.200000e+00	4.547623e-08	
65	3.250000e+00	4.557850e-08	
66	3.300000e+00	4.568927e-08	
67	0.000000e+00	-0.000000e+00	
68	5.000000e-02	2.732726e-07	
69	1.000000e-01	5.124524e-07	
70	1.500000e-01	7.176508e-07	
71	2.000000e-01	8.889852e-07	
72	2.500000e-01	1.026590e-06	
73	3.000000e-01	1.130652e-06	
74	3.500000e-01	1.201586e-06	
75	4.000000e-01	1.241004e-06	
76	4.500000e-01	1.255975e-06	
77	5.000000e-01	1.260244e-06	
78	5.500000e-01	1.261840e-06	
79	6.000000e-01	1.262726e-06	
80	6.500000e-01	1.263348e-06	
81	7.000000e-01	1.263844e-06	
82	7.500000e-01	1.264268e-06	
83	8.000000e-01	1.264645e-06	
84	8.500000e-01	1.264992e-06	
85	9.000000e-01	1.265314e-06	
86	9.500000e-01	1.265620e-06	
87	1.000000e+00	1.265911e-06	
88	1.050000e+00	1.266191e-06	
89	1.100000e+00	1.266461e-06	
90	1.150000e+00	1.266724e-06	
91	1.200000e+00	1.266980e-06	
92	1.250000e+00	1.267230e-06	
93	1.300000e+00	1.267475e-06	
94	1.350000e+00	1.267716e-06	
95	1.400000e+00	1.267952e-06	
96	1.450000e+00	1.268186e-06	
97	1.500000e+00	1.268416e-06	
98	1.550000e+00	1.268643e-06	
99	1.600000e+00	1.268867e-06	
100	1.650000e+00	1.269090e-06	
101	1.700000e+00	1.269310e-06	
102	1.750000e+00	1.269528e-06	
103	1.800000e+00	1.269744e-06	
104	1.850000e+00	1.269959e-06	
105	1.900000e+00	1.270173e-06	
106	1.950000e+00	1.270385e-06	
107	2.000000e+00	1.270597e-06	
108	2.050000e+00	1.270808e-06	
109	2.100000e+00	1.271019e-06	
110	2.150000e+00	1.271231e-06	
111	2.200000e+00	1.271444e-06	
112	2.250000e+00	1.271660e-06	

Index   v-sweep         -i(vds)         
--------------------------------------------------------------------------------
113	2.300000e+00	1.271879e-06	
114	2.350000e+00	1.272104e-06	
115	2.400000e+00	1.272335e-06	
116	2.450000e+00	1.272575e-06	
117	2.500000e+00	1.272826e-06	
118	2.550000e+00	1.273092e-06	
119	2.600000e+00	1.273376e-06	
120	2.650000e+00	1.273681e-06	
121	2.700000e+00	1.274013e-06	
122	2.750000e+00	1.274376e-06	
123	2.800000e+00	1.274777e-06	
124	2.850000e+00	1.275221e-06	
125	2.900000e+00	1.275715e-06	
126	2.950000e+00	1.276268e-06	
127	3.000000e+00	1.276888e-06	
128	3.050000e+00	1.277583e-06	
129	3.100000e+00	1.278365e-06	
130	3.150000e+00	1.279243e-06	
131	3.200000e+00	1.280229e-06	
132	3.250000e+00	1.281335e-06	
133	3.300000e+00	1.282574e-06	
134	0.000000e+00	-0.000000e+00	
135	5.000000e-02	5.009634e-07	
136	1.000000e-01	9.693360e-07	
137	1.500000e-01	1.405215e-06	
138	2.000000e-01	1.808697e-06	
139	2.500000e-01	2.179880e-06	
140	3.000000e-01	2.518860e-06	
141	3.500000e-01	2.825734e-06	
142	4.000000e-01	3.100602e-06	
143	4.500000e-01	3.343562e-06	
144	5.000000e-01	3.554720e-06	
145	5.500000e-01	3.734191e-06	
146	6.000000e-01	3.882112e-06	
147	6.500000e-01	3.998690e-06	
148	7.000000e-01	4.084347e-06	
149	7.500000e-01	4.140302e-06	
150	8.000000e-01	4.170523e-06	
151	8.500000e-01	4.183939e-06	
152	9.000000e-01	4.189937e-06	
153	9.500000e-01	4.193198e-06	
154	1.000000e+00	4.195341e-06	
155	1.050000e+00	4.196940e-06	
156	1.100000e+00	4.198233e-06	
157	1.150000e+00	4.199333e-06	
158	1.200000e+00	4.200304e-06	
159	1.250000e+00	4.201180e-06	
160	1.300000e+00	4.201986e-06	
161	1.350000e+00	4.202737e-06	
162	1.400000e+00	4.203443e-06	
163	1.450000e+00	4.204114e-06	
164	1.500000e+00	4.204756e-06	
165	1.550000e+00	4.205371e-06	
166	1.600000e+00	4.205965e-06	
167	1.650000e+00	4.206541e-06	
168	1.700000e+00	4.207100e-06	
169	1.750000e+00	4.207644e-06	
170	1.800000e+00	4.208175e-06	

Index   v-sweep         -i(vds)         
--------------------------------------------------------------------------------
171	1.850000e+00	4.208695e-06	
172	1.900000e+00	4.209205e-06	
173	1.950000e+00	4.209705e-06	
174	2.000000e+00	4.210197e-06	
175	2.050000e+00	4.210681e-06	
176	2.100000e+00	4.211158e-06	
177	2.150000e+00	4.211629e-06	
178	2.200000e+00	4.212094e-06	
179	2.250000e+00	4.212554e-06	
180	2.300000e+00	4.213010e-06	
181	2.350000e+00	4.213462e-06	
182	2.400000e+00	4.213913e-06	
183	2.450000e+00	4.214362e-06	
184	2.500000e+00	4.214813e-06	
185	2.550000e+00	4.215267e-06	
186	2.600000e+00	4.215728e-06	
187	2.650000e+00	4.216198e-06	
188	2.700000e+00	4.216683e-06	
189	2.750000e+00	4.217188e-06	
190	2.800000e+00	4.217719e-06	
191	2.850000e+00	4.218283e-06	
192	2.900000e+00	4.218892e-06	
193	2.950000e+00	4.219554e-06	
194	3.000000e+00	4.220282e-06	
195	3.050000e+00	4.221091e-06	
196	3.100000e+00	4.221996e-06	
197	3.150000e+00	4.223015e-06	
198	3.200000e+00	4.224169e-06	
199	3.250000e+00	4.225480e-06	
200	3.300000e+00	4.226973e-06	
201	0.000000e+00	-0.000000e+00	
202	5.000000e-02	6.916279e-07	
203	1.000000e-01	1.353406e-06	
204	1.500000e-01	1.985419e-06	
205	2.000000e-01	2.587749e-06	
206	2.500000e-01	3.160480e-06	
207	3.000000e-01	3.703696e-06	
208	3.500000e-01	4.217478e-06	
209	4.000000e-01	4.701910e-06	
210	4.500000e-01	5.157073e-06	
211	5.000000e-01	5.583050e-06	
212	5.500000e-01	5.979923e-06	
213	6.000000e-01	6.347773e-06	
214	6.500000e-01	6.686683e-06	
215	7.000000e-01	6.996734e-06	
216	7.500000e-01	7.278011e-06	
217	8.000000e-01	7.530597e-06	
218	8.500000e-01	7.754579e-06	
219	9.000000e-01	7.950053e-06	
220	9.500000e-01	8.117124e-06	
221	1.000000e+00	8.255934e-06	
222	1.050000e+00	8.366712e-06	
223	1.100000e+00	8.449949e-06	
224	1.150000e+00	8.506964e-06	
225	1.200000e+00	8.541302e-06	
226	1.250000e+00	8.559786e-06	
227	1.300000e+00	8.569774e-06	
228	1.350000e+00	8.575800e-06	

Index   v-sweep         -i(vds)         
--------------------------------------------------------------------------------
229	1.400000e+00	8.579916e-06	
230	1.450000e+00	8.583010e-06	
231	1.500000e+00	8.585497e-06	
232	1.550000e+00	8.587592e-06	
233	1.600000e+00	8.589416e-06	
234	1.650000e+00	8.591043e-06	
235	1.700000e+00	8.592520e-06	
236	1.750000e+00	8.593881e-06	
237	1.800000e+00	8.595149e-06	
238	1.850000e+00	8.596341e-06	
239	1.900000e+00	8.597469e-06	
240	1.950000e+00	8.598544e-06	
241	2.000000e+00	8.599572e-06	
242	2.050000e+00	8.600561e-06	
243	2.100000e+00	8.601515e-06	
244	2.150000e+00	8.602438e-06	
245	2.200000e+00	8.603334e-06	
246	2.250000e+00	8.604206e-06	
247	2.300000e+00	8.605056e-06	
248	2.350000e+00	8.605887e-06	
249	2.400000e+00	8.606699e-06	
250	2.450000e+00	8.607496e-06	
251	2.500000e+00	8.608277e-06	
252	2.550000e+00	8.609045e-06	
253	2.600000e+00	8.609802e-06	
254	2.650000e+00	8.610548e-06	
255	2.700000e+00	8.611285e-06	
256	2.750000e+00	8.612015e-06	
257	2.800000e+00	8.612741e-06	
258	2.850000e+00	8.613465e-06	
259	2.900000e+00	8.614192e-06	
260	2.950000e+00	8.614926e-06	
261	3.000000e+00	8.615673e-06	
262	3.050000e+00	8.616440e-06	
263	3.100000e+00	8.617237e-06	
264	3.150000e+00	8.618075e-06	
265	3.200000e+00	8.618968e-06	
266	3.250000e+00	8.619930e-06	
267	3.300000e+00	8.620982e-06	
268	0.000000e+00	-0.000000e+00	
269	5.000000e-02	8.404123e-07	
270	1.000000e-01	1.654152e-06	
271	1.500000e-01	2.441288e-06	
272	2.000000e-01	3.201891e-06	
273	2.500000e-01	3.936030e-06	
274	3.000000e-01	4.643774e-06	
275	3.500000e-01	5.325191e-06	
276	4.000000e-01	5.980352e-06	
277	4.500000e-01	6.609323e-06	
278	5.000000e-01	7.212174e-06	
279	5.500000e-01	7.788972e-06	
280	6.000000e-01	8.339785e-06	
281	6.500000e-01	8.864680e-06	
282	7.000000e-01	9.363725e-06	
283	7.500000e-01	9.836988e-06	
284	8.000000e-01	1.028453e-05	
285	8.500000e-01	1.070643e-05	
286	9.000000e-01	1.110274e-05	

Index   v-sweep         -i(vds)         
--------------------------------------------------------------------------------
287	9.500000e-01	1.147354e-05	
288	1.000000e+00	1.181889e-05	
289	1.050000e+00	1.213886e-05	
290	1.100000e+00	1.243350e-05	
291	1.150000e+00	1.270290e-05	
292	1.200000e+00	1.294712e-05	
293	1.250000e+00	1.316622e-05	
294	1.300000e+00	1.336029e-05	
295	1.350000e+00	1.352940e-05	
296	1.400000e+00	1.367365e-05	
297	1.450000e+00	1.379321e-05	
298	1.500000e+00	1.388834e-05	
299	1.550000e+00	1.395974e-05	
300	1.600000e+00	1.400913e-05	
301	1.650000e+00	1.404035e-05	
302	1.700000e+00	1.405913e-05	
303	1.750000e+00	1.407078e-05	
304	1.800000e+00	1.407861e-05	
305	1.850000e+00	1.408432e-05	
306	1.900000e+00	1.408878e-05	
307	1.950000e+00	1.409243e-05	
308	2.000000e+00	1.409554e-05	
309	2.050000e+00	1.409826e-05	
310	2.100000e+00	1.410068e-05	
311	2.150000e+00	1.410288e-05	
312	2.200000e+00	1.410491e-05	
313	2.250000e+00	1.410679e-05	
314	2.300000e+00	1.410855e-05	
315	2.350000e+00	1.411021e-05	
316	2.400000e+00	1.411178e-05	
317	2.450000e+00	1.411328e-05	
318	2.500000e+00	1.411472e-05	
319	2.550000e+00	1.411611e-05	
320	2.600000e+00	1.411744e-05	
321	2.650000e+00	1.411873e-05	
322	2.700000e+00	1.411999e-05	
323	2.750000e+00	1.412120e-05	
324	2.800000e+00	1.412239e-05	
325	2.850000e+00	1.412355e-05	
326	2.900000e+00	1.412468e-05	
327	2.950000e+00	1.412578e-05	
328	3.000000e+00	1.412687e-05	
329	3.050000e+00	1.412794e-05	
330	3.100000e+00	1.412899e-05	
331	3.150000e+00	1.413002e-05	
332	3.200000e+00	1.413105e-05	
333	3.250000e+00	1.413207e-05	
334	3.300000e+00	1.413309e-05	
335	0.000000e+00	-0.000000e+00	
336	5.000000e-02	9.487507e-07	
337	1.000000e-01	1.874075e-06	
338	1.500000e-01	2.776030e-06	
339	2.000000e-01	3.654671e-06	
340	2.500000e-01	4.510055e-06	
341	3.000000e-01	5.342239e-06	
342	3.500000e-01	6.151277e-06	
343	4.000000e-01	6.937225e-06	
344	4.500000e-01	7.700140e-06	

Index   v-sweep         -i(vds)         
--------------------------------------------------------------------------------
345	5.000000e-01	8.440076e-06	
346	5.500000e-01	9.157089e-06	
347	6.000000e-01	9.851233e-06	
348	6.500000e-01	1.052256e-05	
349	7.000000e-01	1.117113e-05	
350	7.500000e-01	1.179700e-05	
351	8.000000e-01	1.240022e-05	
352	8.500000e-01	1.298084e-05	
353	9.000000e-01	1.353892e-05	
354	9.500000e-01	1.407451e-05	
355	1.000000e+00	1.458766e-05	
356	1.050000e+00	1.507844e-05	
357	1.100000e+00	1.554688e-05	
358	1.150000e+00	1.599305e-05	
359	1.200000e+00	1.641700e-05	
360	1.250000e+00	1.681878e-05	
361	1.300000e+00	1.719845e-05	
362	1.350000e+00	1.755604e-05	
363	1.400000e+00	1.789163e-05	
364	1.450000e+00	1.820526e-05	
365	1.500000e+00	1.849698e-05	
366	1.550000e+00	1.876684e-05	
367	1.600000e+00	1.901490e-05	
368	1.650000e+00	1.924121e-05	
369	1.700000e+00	1.944582e-05	
370	1.750000e+00	1.962879e-05	
371	1.800000e+00	1.979018e-05	
372	1.850000e+00	1.993005e-05	
373	1.900000e+00	2.004851e-05	
374	1.950000e+00	2.014574e-05	
375	2.000000e+00	2.022218e-05	
376	2.050000e+00	2.027887e-05	
377	2.100000e+00	2.031820e-05	
378	2.150000e+00	2.034416e-05	
379	2.200000e+00	2.036129e-05	
380	2.250000e+00	2.037309e-05	
381	2.300000e+00	2.038174e-05	
382	2.350000e+00	2.038844e-05	
383	2.400000e+00	2.039389e-05	
384	2.450000e+00	2.039847e-05	
385	2.500000e+00	2.040244e-05	
386	2.550000e+00	2.040594e-05	
387	2.600000e+00	2.040910e-05	
388	2.650000e+00	2.041197e-05	
389	2.700000e+00	2.041462e-05	
390	2.750000e+00	2.041708e-05	
391	2.800000e+00	2.041939e-05	
392	2.850000e+00	2.042157e-05	
393	2.900000e+00	2.042364e-05	
394	2.950000e+00	2.042561e-05	
395	3.000000e+00	2.042749e-05	
396	3.050000e+00	2.042930e-05	
397	3.100000e+00	2.043105e-05	
398	3.150000e+00	2.043273e-05	
399	3.200000e+00	2.043436e-05	
400	3.250000e+00	2.043594e-05	
401	3.300000e+00	2.043748e-05	
Note: No ".plot", ".print", or ".fourier" lines; no simulations run
