
Note: Compatibility modes selected: hs

Warning: m=xx on .subckt line will override multiplier m hierarchy!


Circuit: ***************************

Doing analysis at TEMP = 125.000000 and TNOM = 125.000000


No. of Data Rows : 402
                          ***************************
                          DC transfer characteristic  Mon Jan  9 13:57:17  2023
--------------------------------------------------------------------------------
Index   v-sweep         -i(vds)         
--------------------------------------------------------------------------------
0	0.000000e+00	-0.000000e+00	
1	5.000000e-02	9.607905e-06	
2	1.000000e-01	1.686600e-05	
3	1.500000e-01	2.190290e-05	
4	2.000000e-01	2.485415e-05	
5	2.500000e-01	2.611718e-05	
6	3.000000e-01	2.653293e-05	
7	3.500000e-01	2.670459e-05	
8	4.000000e-01	2.680665e-05	
9	4.500000e-01	2.688160e-05	
10	5.000000e-01	2.694293e-05	
11	5.500000e-01	2.699620e-05	
12	6.000000e-01	2.704416e-05	
13	6.500000e-01	2.708837e-05	
14	7.000000e-01	2.712977e-05	
15	7.500000e-01	2.716900e-05	
16	8.000000e-01	2.720649e-05	
17	8.500000e-01	2.724257e-05	
18	9.000000e-01	2.727747e-05	
19	9.500000e-01	2.731138e-05	
20	1.000000e+00	2.734442e-05	
21	1.050000e+00	2.737673e-05	
22	1.100000e+00	2.740839e-05	
23	1.150000e+00	2.743947e-05	
24	1.200000e+00	2.747005e-05	
25	1.250000e+00	2.750017e-05	
26	1.300000e+00	2.752988e-05	
27	1.350000e+00	2.755922e-05	
28	1.400000e+00	2.758822e-05	
29	1.450000e+00	2.761692e-05	
30	1.500000e+00	2.764533e-05	
31	1.550000e+00	2.767349e-05	
32	1.600000e+00	2.770142e-05	
33	1.650000e+00	2.772913e-05	
34	1.700000e+00	2.775665e-05	
35	1.750000e+00	2.778401e-05	
36	1.800000e+00	2.781121e-05	
37	1.850000e+00	2.783830e-05	
38	1.900000e+00	2.786531e-05	
39	1.950000e+00	2.789225e-05	
40	2.000000e+00	2.791918e-05	
41	2.050000e+00	2.794614e-05	
42	2.100000e+00	2.797318e-05	
43	2.150000e+00	2.800036e-05	
44	2.200000e+00	2.802775e-05	
45	2.250000e+00	2.805544e-05	
46	2.300000e+00	2.808352e-05	
47	2.350000e+00	2.811208e-05	
48	2.400000e+00	2.814125e-05	
49	2.450000e+00	2.817116e-05	
50	2.500000e+00	2.820196e-05	
51	2.550000e+00	2.823380e-05	
52	2.600000e+00	2.826686e-05	
53	2.650000e+00	2.830133e-05	
54	2.700000e+00	2.833743e-05	

Index   v-sweep         -i(vds)         
--------------------------------------------------------------------------------
55	2.750000e+00	2.837538e-05	
56	2.800000e+00	2.841543e-05	
57	2.850000e+00	2.845785e-05	
58	2.900000e+00	2.850290e-05	
59	2.950000e+00	2.855089e-05	
60	3.000000e+00	2.860215e-05	
61	3.050000e+00	2.865701e-05	
62	3.100000e+00	2.871582e-05	
63	3.150000e+00	2.877896e-05	
64	3.200000e+00	2.884682e-05	
65	3.250000e+00	2.891982e-05	
66	3.300000e+00	2.899839e-05	
67	0.000000e+00	-0.000000e+00	
68	5.000000e-02	3.203961e-05	
69	1.000000e-01	6.123705e-05	
70	1.500000e-01	8.770836e-05	
71	2.000000e-01	1.115177e-04	
72	2.500000e-01	1.327162e-04	
73	3.000000e-01	1.513515e-04	
74	3.500000e-01	1.674697e-04	
75	4.000000e-01	1.811172e-04	
76	4.500000e-01	1.923420e-04	
77	5.000000e-01	2.011994e-04	
78	5.500000e-01	2.077703e-04	
79	6.000000e-01	2.122210e-04	
80	6.500000e-01	2.149287e-04	
81	7.000000e-01	2.164918e-04	
82	7.500000e-01	2.174462e-04	
83	8.000000e-01	2.180944e-04	
84	8.500000e-01	2.185783e-04	
85	9.000000e-01	2.189649e-04	
86	9.500000e-01	2.192889e-04	
87	1.000000e+00	2.195698e-04	
88	1.050000e+00	2.198195e-04	
89	1.100000e+00	2.200456e-04	
90	1.150000e+00	2.202533e-04	
91	1.200000e+00	2.204463e-04	
92	1.250000e+00	2.206273e-04	
93	1.300000e+00	2.207982e-04	
94	1.350000e+00	2.209607e-04	
95	1.400000e+00	2.211160e-04	
96	1.450000e+00	2.212649e-04	
97	1.500000e+00	2.214085e-04	
98	1.550000e+00	2.215472e-04	
99	1.600000e+00	2.216816e-04	
100	1.650000e+00	2.218122e-04	
101	1.700000e+00	2.219394e-04	
102	1.750000e+00	2.220635e-04	
103	1.800000e+00	2.221847e-04	
104	1.850000e+00	2.223035e-04	
105	1.900000e+00	2.224198e-04	
106	1.950000e+00	2.225341e-04	
107	2.000000e+00	2.226465e-04	
108	2.050000e+00	2.227570e-04	
109	2.100000e+00	2.228661e-04	
110	2.150000e+00	2.229737e-04	
111	2.200000e+00	2.230802e-04	
112	2.250000e+00	2.231857e-04	

Index   v-sweep         -i(vds)         
--------------------------------------------------------------------------------
113	2.300000e+00	2.232904e-04	
114	2.350000e+00	2.233948e-04	
115	2.400000e+00	2.234990e-04	
116	2.450000e+00	2.236035e-04	
117	2.500000e+00	2.237088e-04	
118	2.550000e+00	2.238152e-04	
119	2.600000e+00	2.239234e-04	
120	2.650000e+00	2.240341e-04	
121	2.700000e+00	2.241479e-04	
122	2.750000e+00	2.242659e-04	
123	2.800000e+00	2.243888e-04	
124	2.850000e+00	2.245178e-04	
125	2.900000e+00	2.246540e-04	
126	2.950000e+00	2.247988e-04	
127	3.000000e+00	2.249536e-04	
128	3.050000e+00	2.251198e-04	
129	3.100000e+00	2.252993e-04	
130	3.150000e+00	2.254938e-04	
131	3.200000e+00	2.257053e-04	
132	3.250000e+00	2.259359e-04	
133	3.300000e+00	2.261878e-04	
134	0.000000e+00	-0.000000e+00	
135	5.000000e-02	5.125316e-05	
136	1.000000e-01	9.961747e-05	
137	1.500000e-01	1.452056e-04	
138	2.000000e-01	1.880784e-04	
139	2.500000e-01	2.282839e-04	
140	3.000000e-01	2.658660e-04	
141	3.500000e-01	3.008674e-04	
142	4.000000e-01	3.333294e-04	
143	4.500000e-01	3.632924e-04	
144	5.000000e-01	3.907960e-04	
145	5.500000e-01	4.158787e-04	
146	6.000000e-01	4.385780e-04	
147	6.500000e-01	4.589305e-04	
148	7.000000e-01	4.769713e-04	
149	7.500000e-01	4.927343e-04	
150	8.000000e-01	5.062516e-04	
151	8.500000e-01	5.175548e-04	
152	9.000000e-01	5.266809e-04	
153	9.500000e-01	5.336983e-04	
154	1.000000e+00	5.387773e-04	
155	1.050000e+00	5.422706e-04	
156	1.100000e+00	5.446521e-04	
157	1.150000e+00	5.463356e-04	
158	1.200000e+00	5.475922e-04	
159	1.250000e+00	5.485801e-04	
160	1.300000e+00	5.493904e-04	
161	1.350000e+00	5.500772e-04	
162	1.400000e+00	5.506746e-04	
163	1.450000e+00	5.512048e-04	
164	1.500000e+00	5.516828e-04	
165	1.550000e+00	5.521194e-04	
166	1.600000e+00	5.525224e-04	
167	1.650000e+00	5.528976e-04	
168	1.700000e+00	5.532495e-04	
169	1.750000e+00	5.535816e-04	
170	1.800000e+00	5.538966e-04	

Index   v-sweep         -i(vds)         
--------------------------------------------------------------------------------
171	1.850000e+00	5.541968e-04	
172	1.900000e+00	5.544840e-04	
173	1.950000e+00	5.547598e-04	
174	2.000000e+00	5.550254e-04	
175	2.050000e+00	5.552818e-04	
176	2.100000e+00	5.555301e-04	
177	2.150000e+00	5.557709e-04	
178	2.200000e+00	5.560050e-04	
179	2.250000e+00	5.562330e-04	
180	2.300000e+00	5.564555e-04	
181	2.350000e+00	5.566728e-04	
182	2.400000e+00	5.568856e-04	
183	2.450000e+00	5.570942e-04	
184	2.500000e+00	5.572992e-04	
185	2.550000e+00	5.575010e-04	
186	2.600000e+00	5.577002e-04	
187	2.650000e+00	5.578973e-04	
188	2.700000e+00	5.580931e-04	
189	2.750000e+00	5.582883e-04	
190	2.800000e+00	5.584837e-04	
191	2.850000e+00	5.586806e-04	
192	2.900000e+00	5.588799e-04	
193	2.950000e+00	5.590831e-04	
194	3.000000e+00	5.592918e-04	
195	3.050000e+00	5.595078e-04	
196	3.100000e+00	5.597330e-04	
197	3.150000e+00	5.599698e-04	
198	3.200000e+00	5.602208e-04	
199	3.250000e+00	5.604886e-04	
200	3.300000e+00	5.607765e-04	
201	0.000000e+00	-0.000000e+00	
202	5.000000e-02	6.697768e-05	
203	1.000000e-01	1.311340e-04	
204	1.500000e-01	1.925771e-04	
205	2.000000e-01	2.513632e-04	
206	2.500000e-01	3.075358e-04	
207	3.000000e-01	3.611351e-04	
208	3.500000e-01	4.121993e-04	
209	4.000000e-01	4.607660e-04	
210	4.500000e-01	5.068721e-04	
211	5.000000e-01	5.505534e-04	
212	5.500000e-01	5.918453e-04	
213	6.000000e-01	6.307822e-04	
214	6.500000e-01	6.673980e-04	
215	7.000000e-01	7.017256e-04	
216	7.500000e-01	7.337973e-04	
217	8.000000e-01	7.636445e-04	
218	8.500000e-01	7.912977e-04	
219	9.000000e-01	8.167861e-04	
220	9.500000e-01	8.401377e-04	
221	1.000000e+00	8.613785e-04	
222	1.050000e+00	8.805320e-04	
223	1.100000e+00	8.976175e-04	
224	1.150000e+00	9.126481e-04	
225	1.200000e+00	9.256288e-04	
226	1.250000e+00	9.365572e-04	
227	1.300000e+00	9.454405e-04	
228	1.350000e+00	9.523521e-04	

Index   v-sweep         -i(vds)         
--------------------------------------------------------------------------------
229	1.400000e+00	9.575135e-04	
230	1.450000e+00	9.612960e-04	
231	1.500000e+00	9.641002e-04	
232	1.550000e+00	9.662449e-04	
233	1.600000e+00	9.679460e-04	
234	1.650000e+00	9.693418e-04	
235	1.700000e+00	9.705202e-04	
236	1.750000e+00	9.715388e-04	
237	1.800000e+00	9.724362e-04	
238	1.850000e+00	9.732393e-04	
239	1.900000e+00	9.739672e-04	
240	1.950000e+00	9.746341e-04	
241	2.000000e+00	9.752505e-04	
242	2.050000e+00	9.758246e-04	
243	2.100000e+00	9.763629e-04	
244	2.150000e+00	9.768703e-04	
245	2.200000e+00	9.773509e-04	
246	2.250000e+00	9.778082e-04	
247	2.300000e+00	9.782448e-04	
248	2.350000e+00	9.786631e-04	
249	2.400000e+00	9.790650e-04	
250	2.450000e+00	9.794523e-04	
251	2.500000e+00	9.798262e-04	
252	2.550000e+00	9.801882e-04	
253	2.600000e+00	9.805392e-04	
254	2.650000e+00	9.808803e-04	
255	2.700000e+00	9.812124e-04	
256	2.750000e+00	9.815362e-04	
257	2.800000e+00	9.818528e-04	
258	2.850000e+00	9.821628e-04	
259	2.900000e+00	9.824671e-04	
260	2.950000e+00	9.827668e-04	
261	3.000000e+00	9.830627e-04	
262	3.050000e+00	9.833562e-04	
263	3.100000e+00	9.836485e-04	
264	3.150000e+00	9.839412e-04	
265	3.200000e+00	9.842361e-04	
266	3.250000e+00	9.845353e-04	
267	3.300000e+00	9.848412e-04	
268	0.000000e+00	-0.000000e+00	
269	5.000000e-02	7.954651e-05	
270	1.000000e-01	1.563954e-04	
271	1.500000e-01	2.306495e-04	
272	2.000000e-01	3.023605e-04	
273	2.500000e-01	3.715670e-04	
274	3.000000e-01	4.383046e-04	
275	3.500000e-01	5.026072e-04	
276	4.000000e-01	5.645082e-04	
277	4.500000e-01	6.240400e-04	
278	5.000000e-01	6.812349e-04	
279	5.500000e-01	7.361241e-04	
280	6.000000e-01	7.887386e-04	
281	6.500000e-01	8.391086e-04	
282	7.000000e-01	8.872638e-04	
283	7.500000e-01	9.332334e-04	
284	8.000000e-01	9.770459e-04	
285	8.500000e-01	1.018729e-03	
286	9.000000e-01	1.058311e-03	

Index   v-sweep         -i(vds)         
--------------------------------------------------------------------------------
287	9.500000e-01	1.095819e-03	
288	1.000000e+00	1.131277e-03	
289	1.050000e+00	1.164713e-03	
290	1.100000e+00	1.196150e-03	
291	1.150000e+00	1.225613e-03	
292	1.200000e+00	1.253124e-03	
293	1.250000e+00	1.278704e-03	
294	1.300000e+00	1.302373e-03	
295	1.350000e+00	1.324145e-03	
296	1.400000e+00	1.344033e-03	
297	1.450000e+00	1.362041e-03	
298	1.500000e+00	1.378161e-03	
299	1.550000e+00	1.392372e-03	
300	1.600000e+00	1.404637e-03	
301	1.650000e+00	1.414919e-03	
302	1.700000e+00	1.423236e-03	
303	1.750000e+00	1.429737e-03	
304	1.800000e+00	1.434722e-03	
305	1.850000e+00	1.438554e-03	
306	1.900000e+00	1.441558e-03	
307	1.950000e+00	1.443974e-03	
308	2.000000e+00	1.445972e-03	
309	2.050000e+00	1.447663e-03	
310	2.100000e+00	1.449125e-03	
311	2.150000e+00	1.450411e-03	
312	2.200000e+00	1.451560e-03	
313	2.250000e+00	1.452597e-03	
314	2.300000e+00	1.453545e-03	
315	2.350000e+00	1.454418e-03	
316	2.400000e+00	1.455228e-03	
317	2.450000e+00	1.455984e-03	
318	2.500000e+00	1.456695e-03	
319	2.550000e+00	1.457366e-03	
320	2.600000e+00	1.458002e-03	
321	2.650000e+00	1.458608e-03	
322	2.700000e+00	1.459186e-03	
323	2.750000e+00	1.459740e-03	
324	2.800000e+00	1.460272e-03	
325	2.850000e+00	1.460784e-03	
326	2.900000e+00	1.461279e-03	
327	2.950000e+00	1.461757e-03	
328	3.000000e+00	1.462221e-03	
329	3.050000e+00	1.462671e-03	
330	3.100000e+00	1.463109e-03	
331	3.150000e+00	1.463536e-03	
332	3.200000e+00	1.463953e-03	
333	3.250000e+00	1.464363e-03	
334	3.300000e+00	1.464765e-03	
335	0.000000e+00	-0.000000e+00	
336	5.000000e-02	8.938056e-05	
337	1.000000e-01	1.762166e-04	
338	1.500000e-01	2.606063e-04	
339	2.000000e-01	3.425963e-04	
340	2.500000e-01	4.222209e-04	
341	3.000000e-01	4.995109e-04	
342	3.500000e-01	5.744960e-04	
343	4.000000e-01	6.472053e-04	
344	4.500000e-01	7.176672e-04	

Index   v-sweep         -i(vds)         
--------------------------------------------------------------------------------
345	5.000000e-01	7.859099e-04	
346	5.500000e-01	8.519608e-04	
347	6.000000e-01	9.158471e-04	
348	6.500000e-01	9.775954e-04	
349	7.000000e-01	1.037232e-03	
350	7.500000e-01	1.094782e-03	
351	8.000000e-01	1.150272e-03	
352	8.500000e-01	1.203726e-03	
353	9.000000e-01	1.255168e-03	
354	9.500000e-01	1.304624e-03	
355	1.000000e+00	1.352115e-03	
356	1.050000e+00	1.397666e-03	
357	1.100000e+00	1.441299e-03	
358	1.150000e+00	1.483037e-03	
359	1.200000e+00	1.522901e-03	
360	1.250000e+00	1.560912e-03	
361	1.300000e+00	1.597093e-03	
362	1.350000e+00	1.631461e-03	
363	1.400000e+00	1.664038e-03	
364	1.450000e+00	1.694842e-03	
365	1.500000e+00	1.723890e-03	
366	1.550000e+00	1.751198e-03	
367	1.600000e+00	1.776780e-03	
368	1.650000e+00	1.800647e-03	
369	1.700000e+00	1.822806e-03	
370	1.750000e+00	1.843256e-03	
371	1.800000e+00	1.861988e-03	
372	1.850000e+00	1.878977e-03	
373	1.900000e+00	1.894178e-03	
374	1.950000e+00	1.907526e-03	
375	2.000000e+00	1.918954e-03	
376	2.050000e+00	1.928444e-03	
377	2.100000e+00	1.936095e-03	
378	2.150000e+00	1.942150e-03	
379	2.200000e+00	1.946933e-03	
380	2.250000e+00	1.950757e-03	
381	2.300000e+00	1.953874e-03	
382	2.350000e+00	1.956471e-03	
383	2.400000e+00	1.958679e-03	
384	2.450000e+00	1.960592e-03	
385	2.500000e+00	1.962275e-03	
386	2.550000e+00	1.963777e-03	
387	2.600000e+00	1.965132e-03	
388	2.650000e+00	1.966368e-03	
389	2.700000e+00	1.967504e-03	
390	2.750000e+00	1.968556e-03	
391	2.800000e+00	1.969536e-03	
392	2.850000e+00	1.970456e-03	
393	2.900000e+00	1.971321e-03	
394	2.950000e+00	1.972140e-03	
395	3.000000e+00	1.972918e-03	
396	3.050000e+00	1.973659e-03	
397	3.100000e+00	1.974368e-03	
398	3.150000e+00	1.975047e-03	
399	3.200000e+00	1.975699e-03	
400	3.250000e+00	1.976328e-03	
401	3.300000e+00	1.976935e-03	
Note: No ".plot", ".print", or ".fourier" lines; no simulations run
