
Note: Compatibility modes selected: hs

Warning: m=xx on .subckt line will override multiplier m hierarchy!


Circuit: ***************************

Doing analysis at TEMP = 125.000000 and TNOM = 125.000000


No. of Data Rows : 402
                          ***************************
                          DC transfer characteristic  Mon Jan  9 13:57:19  2023
--------------------------------------------------------------------------------
Index   v-sweep         -i(vds)         
--------------------------------------------------------------------------------
0	0.000000e+00	-0.000000e+00	
1	5.000000e-02	1.137098e-06	
2	1.000000e-01	2.070446e-06	
3	1.500000e-01	2.815144e-06	
4	2.000000e-01	3.386289e-06	
5	2.500000e-01	3.802753e-06	
6	3.000000e-01	4.092203e-06	
7	3.500000e-01	4.292002e-06	
8	4.000000e-01	4.438232e-06	
9	4.500000e-01	4.554730e-06	
10	5.000000e-01	4.654083e-06	
11	5.500000e-01	4.742705e-06	
12	6.000000e-01	4.824078e-06	
13	6.500000e-01	4.900257e-06	
14	7.000000e-01	4.972546e-06	
15	7.500000e-01	5.041824e-06	
16	8.000000e-01	5.108712e-06	
17	8.500000e-01	5.173665e-06	
18	9.000000e-01	5.237026e-06	
19	9.500000e-01	5.299060e-06	
20	1.000000e+00	5.359977e-06	
21	1.050000e+00	5.419946e-06	
22	1.100000e+00	5.479104e-06	
23	1.150000e+00	5.537564e-06	
24	1.200000e+00	5.595421e-06	
25	1.250000e+00	5.652755e-06	
26	1.300000e+00	5.709633e-06	
27	1.350000e+00	5.766114e-06	
28	1.400000e+00	5.822249e-06	
29	1.450000e+00	5.878081e-06	
30	1.500000e+00	5.933648e-06	
31	1.550000e+00	5.988985e-06	
32	1.600000e+00	6.044121e-06	
33	1.650000e+00	6.099083e-06	
34	1.700000e+00	6.153895e-06	
35	1.750000e+00	6.208581e-06	
36	1.800000e+00	6.263159e-06	
37	1.850000e+00	6.317651e-06	
38	1.900000e+00	6.372073e-06	
39	1.950000e+00	6.426446e-06	
40	2.000000e+00	6.480787e-06	
41	2.050000e+00	6.535116e-06	
42	2.100000e+00	6.589453e-06	
43	2.150000e+00	6.643820e-06	
44	2.200000e+00	6.698241e-06	
45	2.250000e+00	6.752741e-06	
46	2.300000e+00	6.807352e-06	
47	2.350000e+00	6.862105e-06	
48	2.400000e+00	6.917038e-06	
49	2.450000e+00	6.972193e-06	
50	2.500000e+00	7.027617e-06	
51	2.550000e+00	7.083363e-06	
52	2.600000e+00	7.139492e-06	
53	2.650000e+00	7.196070e-06	
54	2.700000e+00	7.253171e-06	

Index   v-sweep         -i(vds)         
--------------------------------------------------------------------------------
55	2.750000e+00	7.310880e-06	
56	2.800000e+00	7.369288e-06	
57	2.850000e+00	7.428498e-06	
58	2.900000e+00	7.488622e-06	
59	2.950000e+00	7.549786e-06	
60	3.000000e+00	7.612124e-06	
61	3.050000e+00	7.675785e-06	
62	3.100000e+00	7.740933e-06	
63	3.150000e+00	7.807742e-06	
64	3.200000e+00	7.876404e-06	
65	3.250000e+00	7.947126e-06	
66	3.300000e+00	8.020130e-06	
67	0.000000e+00	-0.000000e+00	
68	5.000000e-02	2.768646e-06	
69	1.000000e-01	5.279343e-06	
70	1.500000e-01	7.547016e-06	
71	2.000000e-01	9.584596e-06	
72	2.500000e-01	1.140398e-05	
73	3.000000e-01	1.301635e-05	
74	3.500000e-01	1.443234e-05	
75	4.000000e-01	1.566229e-05	
76	4.500000e-01	1.671663e-05	
77	5.000000e-01	1.760657e-05	
78	5.500000e-01	1.834545e-05	
79	6.000000e-01	1.895049e-05	
80	6.500000e-01	1.944360e-05	
81	7.000000e-01	1.984914e-05	
82	7.500000e-01	2.018945e-05	
83	8.000000e-01	2.048214e-05	
84	8.500000e-01	2.073981e-05	
85	9.000000e-01	2.097125e-05	
86	9.500000e-01	2.118256e-05	
87	1.000000e+00	2.137806e-05	
88	1.050000e+00	2.156088e-05	
89	1.100000e+00	2.173334e-05	
90	1.150000e+00	2.189720e-05	
91	1.200000e+00	2.205382e-05	
92	1.250000e+00	2.220427e-05	
93	1.300000e+00	2.234940e-05	
94	1.350000e+00	2.248992e-05	
95	1.400000e+00	2.262639e-05	
96	1.450000e+00	2.275929e-05	
97	1.500000e+00	2.288902e-05	
98	1.550000e+00	2.301591e-05	
99	1.600000e+00	2.314025e-05	
100	1.650000e+00	2.326229e-05	
101	1.700000e+00	2.338225e-05	
102	1.750000e+00	2.350031e-05	
103	1.800000e+00	2.361663e-05	
104	1.850000e+00	2.373138e-05	
105	1.900000e+00	2.384466e-05	
106	1.950000e+00	2.395661e-05	
107	2.000000e+00	2.406733e-05	
108	2.050000e+00	2.417690e-05	
109	2.100000e+00	2.428543e-05	
110	2.150000e+00	2.439300e-05	
111	2.200000e+00	2.449968e-05	
112	2.250000e+00	2.460557e-05	

Index   v-sweep         -i(vds)         
--------------------------------------------------------------------------------
113	2.300000e+00	2.471073e-05	
114	2.350000e+00	2.481524e-05	
115	2.400000e+00	2.491920e-05	
116	2.450000e+00	2.502270e-05	
117	2.500000e+00	2.512582e-05	
118	2.550000e+00	2.522868e-05	
119	2.600000e+00	2.533139e-05	
120	2.650000e+00	2.543408e-05	
121	2.700000e+00	2.553689e-05	
122	2.750000e+00	2.563998e-05	
123	2.800000e+00	2.574352e-05	
124	2.850000e+00	2.584772e-05	
125	2.900000e+00	2.595278e-05	
126	2.950000e+00	2.605896e-05	
127	3.000000e+00	2.616651e-05	
128	3.050000e+00	2.627573e-05	
129	3.100000e+00	2.638695e-05	
130	3.150000e+00	2.650051e-05	
131	3.200000e+00	2.661682e-05	
132	3.250000e+00	2.673629e-05	
133	3.300000e+00	2.685938e-05	
134	0.000000e+00	-0.000000e+00	
135	5.000000e-02	4.086992e-06	
136	1.000000e-01	7.894929e-06	
137	1.500000e-01	1.143827e-05	
138	2.000000e-01	1.472958e-05	
139	2.500000e-01	1.778039e-05	
140	3.000000e-01	2.060151e-05	
141	3.500000e-01	2.320309e-05	
142	4.000000e-01	2.559470e-05	
143	4.500000e-01	2.778532e-05	
144	5.000000e-01	2.978344e-05	
145	5.500000e-01	3.159700e-05	
146	6.000000e-01	3.323345e-05	
147	6.500000e-01	3.469973e-05	
148	7.000000e-01	3.600235e-05	
149	7.500000e-01	3.714778e-05	
150	8.000000e-01	3.814334e-05	
151	8.500000e-01	3.899905e-05	
152	9.000000e-01	3.972937e-05	
153	9.500000e-01	4.035279e-05	
154	1.000000e+00	4.088920e-05	
155	1.050000e+00	4.135674e-05	
156	1.100000e+00	4.177032e-05	
157	1.150000e+00	4.214147e-05	
158	1.200000e+00	4.247890e-05	
159	1.250000e+00	4.278916e-05	
160	1.300000e+00	4.307720e-05	
161	1.350000e+00	4.334682e-05	
162	1.400000e+00	4.360098e-05	
163	1.450000e+00	4.384200e-05	
164	1.500000e+00	4.407175e-05	
165	1.550000e+00	4.429171e-05	
166	1.600000e+00	4.450313e-05	
167	1.650000e+00	4.470703e-05	
168	1.700000e+00	4.490425e-05	
169	1.750000e+00	4.509551e-05	
170	1.800000e+00	4.528144e-05	

Index   v-sweep         -i(vds)         
--------------------------------------------------------------------------------
171	1.850000e+00	4.546254e-05	
172	1.900000e+00	4.563928e-05	
173	1.950000e+00	4.581205e-05	
174	2.000000e+00	4.598119e-05	
175	2.050000e+00	4.614701e-05	
176	2.100000e+00	4.630978e-05	
177	2.150000e+00	4.646973e-05	
178	2.200000e+00	4.662708e-05	
179	2.250000e+00	4.678203e-05	
180	2.300000e+00	4.693475e-05	
181	2.350000e+00	4.708543e-05	
182	2.400000e+00	4.723420e-05	
183	2.450000e+00	4.738124e-05	
184	2.500000e+00	4.752670e-05	
185	2.550000e+00	4.767071e-05	
186	2.600000e+00	4.781346e-05	
187	2.650000e+00	4.795508e-05	
188	2.700000e+00	4.809578e-05	
189	2.750000e+00	4.823572e-05	
190	2.800000e+00	4.837513e-05	
191	2.850000e+00	4.851422e-05	
192	2.900000e+00	4.865325e-05	
193	2.950000e+00	4.879251e-05	
194	3.000000e+00	4.893228e-05	
195	3.050000e+00	4.907293e-05	
196	3.100000e+00	4.921484e-05	
197	3.150000e+00	4.935842e-05	
198	3.200000e+00	4.950414e-05	
199	3.250000e+00	4.965253e-05	
200	3.300000e+00	4.980414e-05	
201	0.000000e+00	-0.000000e+00	
202	5.000000e-02	5.177057e-06	
203	1.000000e-01	1.006572e-05	
204	1.500000e-01	1.467971e-05	
205	2.000000e-01	1.903090e-05	
206	2.500000e-01	2.313029e-05	
207	3.000000e-01	2.698822e-05	
208	3.500000e-01	3.061442e-05	
209	4.000000e-01	3.401812e-05	
210	4.500000e-01	3.720804e-05	
211	5.000000e-01	4.019240e-05	
212	5.500000e-01	4.297898e-05	
213	6.000000e-01	4.557509e-05	
214	6.500000e-01	4.798756e-05	
215	7.000000e-01	5.022272e-05	
216	7.500000e-01	5.228631e-05	
217	8.000000e-01	5.418336e-05	
218	8.500000e-01	5.591806e-05	
219	9.000000e-01	5.749360e-05	
220	9.500000e-01	5.891235e-05	
221	1.000000e+00	6.017666e-05	
222	1.050000e+00	6.129087e-05	
223	1.100000e+00	6.226368e-05	
224	1.150000e+00	6.310921e-05	
225	1.200000e+00	6.384537e-05	
226	1.250000e+00	6.449081e-05	
227	1.300000e+00	6.506248e-05	
228	1.350000e+00	6.557454e-05	

Index   v-sweep         -i(vds)         
--------------------------------------------------------------------------------
229	1.400000e+00	6.603830e-05	
230	1.450000e+00	6.646261e-05	
231	1.500000e+00	6.685437e-05	
232	1.550000e+00	6.721896e-05	
233	1.600000e+00	6.756064e-05	
234	1.650000e+00	6.788279e-05	
235	1.700000e+00	6.818814e-05	
236	1.750000e+00	6.847891e-05	
237	1.800000e+00	6.875691e-05	
238	1.850000e+00	6.902367e-05	
239	1.900000e+00	6.928044e-05	
240	1.950000e+00	6.952830e-05	
241	2.000000e+00	6.976816e-05	
242	2.050000e+00	7.000081e-05	
243	2.100000e+00	7.022691e-05	
244	2.150000e+00	7.044707e-05	
245	2.200000e+00	7.066179e-05	
246	2.250000e+00	7.087152e-05	
247	2.300000e+00	7.107667e-05	
248	2.350000e+00	7.127759e-05	
249	2.400000e+00	7.147462e-05	
250	2.450000e+00	7.166803e-05	
251	2.500000e+00	7.185810e-05	
252	2.550000e+00	7.204509e-05	
253	2.600000e+00	7.222922e-05	
254	2.650000e+00	7.241073e-05	
255	2.700000e+00	7.258985e-05	
256	2.750000e+00	7.276680e-05	
257	2.800000e+00	7.294182e-05	
258	2.850000e+00	7.311516e-05	
259	2.900000e+00	7.328708e-05	
260	2.950000e+00	7.345785e-05	
261	3.000000e+00	7.362780e-05	
262	3.050000e+00	7.379726e-05	
263	3.100000e+00	7.396661e-05	
264	3.150000e+00	7.413626e-05	
265	3.200000e+00	7.430668e-05	
266	3.250000e+00	7.447839e-05	
267	3.300000e+00	7.465194e-05	
268	0.000000e+00	-0.000000e+00	
269	5.000000e-02	6.103016e-06	
270	1.000000e-01	1.191404e-05	
271	1.500000e-01	1.744597e-05	
272	2.000000e-01	2.270998e-05	
273	2.500000e-01	2.771643e-05	
274	3.000000e-01	3.247511e-05	
275	3.500000e-01	3.699527e-05	
276	4.000000e-01	4.128571e-05	
277	4.500000e-01	4.535480e-05	
278	5.000000e-01	4.921047e-05	
279	5.500000e-01	5.286026e-05	
280	6.000000e-01	5.631133e-05	
281	6.500000e-01	5.957044e-05	
282	7.000000e-01	6.264397e-05	
283	7.500000e-01	6.553791e-05	
284	8.000000e-01	6.825782e-05	
285	8.500000e-01	7.080874e-05	
286	9.000000e-01	7.319513e-05	

Index   v-sweep         -i(vds)         
--------------------------------------------------------------------------------
287	9.500000e-01	7.542067e-05	
288	1.000000e+00	7.748805e-05	
289	1.050000e+00	7.939872e-05	
290	1.100000e+00	8.115273e-05	
291	1.150000e+00	8.274905e-05	
292	1.200000e+00	8.418687e-05	
293	1.250000e+00	8.546795e-05	
294	1.300000e+00	8.659919e-05	
295	1.350000e+00	8.759343e-05	
296	1.400000e+00	8.846774e-05	
297	1.450000e+00	8.924051e-05	
298	1.500000e+00	8.992896e-05	
299	1.550000e+00	9.054797e-05	
300	1.600000e+00	9.110978e-05	
301	1.650000e+00	9.162423e-05	
302	1.700000e+00	9.209915e-05	
303	1.750000e+00	9.254078e-05	
304	1.800000e+00	9.295412e-05	
305	1.850000e+00	9.334319e-05	
306	1.900000e+00	9.371129e-05	
307	1.950000e+00	9.406108e-05	
308	2.000000e+00	9.439481e-05	
309	2.050000e+00	9.471434e-05	
310	2.100000e+00	9.502122e-05	
311	2.150000e+00	9.531679e-05	
312	2.200000e+00	9.560218e-05	
313	2.250000e+00	9.587838e-05	
314	2.300000e+00	9.614624e-05	
315	2.350000e+00	9.640648e-05	
316	2.400000e+00	9.665976e-05	
317	2.450000e+00	9.690665e-05	
318	2.500000e+00	9.714767e-05	
319	2.550000e+00	9.738325e-05	
320	2.600000e+00	9.761383e-05	
321	2.650000e+00	9.783976e-05	
322	2.700000e+00	9.806141e-05	
323	2.750000e+00	9.827908e-05	
324	2.800000e+00	9.849310e-05	
325	2.850000e+00	9.870376e-05	
326	2.900000e+00	9.891137e-05	
327	2.950000e+00	9.911624e-05	
328	3.000000e+00	9.931867e-05	
329	3.050000e+00	9.951901e-05	
330	3.100000e+00	9.971761e-05	
331	3.150000e+00	9.991486e-05	
332	3.200000e+00	1.001112e-04	
333	3.250000e+00	1.003071e-04	
334	3.300000e+00	1.005030e-04	
335	0.000000e+00	-0.000000e+00	
336	5.000000e-02	6.907970e-06	
337	1.000000e-01	1.352336e-05	
338	1.500000e-01	1.985829e-05	
339	2.000000e-01	2.592326e-05	
340	2.500000e-01	3.172801e-05	
341	3.000000e-01	3.728176e-05	
342	3.500000e-01	4.259329e-05	
343	4.000000e-01	4.767095e-05	
344	4.500000e-01	5.252272e-05	

Index   v-sweep         -i(vds)         
--------------------------------------------------------------------------------
345	5.000000e-01	5.715619e-05	
346	5.500000e-01	6.157862e-05	
347	6.000000e-01	6.579692e-05	
348	6.500000e-01	6.981766e-05	
349	7.000000e-01	7.364713e-05	
350	7.500000e-01	7.729126e-05	
351	8.000000e-01	8.075568e-05	
352	8.500000e-01	8.404569e-05	
353	9.000000e-01	8.716619e-05	
354	9.500000e-01	9.012170e-05	
355	1.000000e+00	9.291622e-05	
356	1.050000e+00	9.555312e-05	
357	1.100000e+00	9.803496e-05	
358	1.150000e+00	1.003632e-04	
359	1.200000e+00	1.025380e-04	
360	1.250000e+00	1.045577e-04	
361	1.300000e+00	1.064193e-04	
362	1.350000e+00	1.081191e-04	
363	1.400000e+00	1.096549e-04	
364	1.450000e+00	1.110286e-04	
365	1.500000e+00	1.122483e-04	
366	1.550000e+00	1.133278e-04	
367	1.600000e+00	1.142847e-04	
368	1.650000e+00	1.151370e-04	
369	1.700000e+00	1.159015e-04	
370	1.750000e+00	1.165930e-04	
371	1.800000e+00	1.172234e-04	
372	1.850000e+00	1.178027e-04	
373	1.900000e+00	1.183389e-04	
374	1.950000e+00	1.188383e-04	
375	2.000000e+00	1.193064e-04	
376	2.050000e+00	1.197472e-04	
377	2.100000e+00	1.201644e-04	
378	2.150000e+00	1.205609e-04	
379	2.200000e+00	1.209390e-04	
380	2.250000e+00	1.213009e-04	
381	2.300000e+00	1.216483e-04	
382	2.350000e+00	1.219826e-04	
383	2.400000e+00	1.223052e-04	
384	2.450000e+00	1.226171e-04	
385	2.500000e+00	1.229192e-04	
386	2.550000e+00	1.232126e-04	
387	2.600000e+00	1.234977e-04	
388	2.650000e+00	1.237755e-04	
389	2.700000e+00	1.240463e-04	
390	2.750000e+00	1.243107e-04	
391	2.800000e+00	1.245693e-04	
392	2.850000e+00	1.248224e-04	
393	2.900000e+00	1.250705e-04	
394	2.950000e+00	1.253140e-04	
395	3.000000e+00	1.255532e-04	
396	3.050000e+00	1.257885e-04	
397	3.100000e+00	1.260202e-04	
398	3.150000e+00	1.262489e-04	
399	3.200000e+00	1.264748e-04	
400	3.250000e+00	1.266984e-04	
401	3.300000e+00	1.269202e-04	
Note: No ".plot", ".print", or ".fourier" lines; no simulations run
