
Note: Compatibility modes selected: hs

Warning: m=xx on .subckt line will override multiplier m hierarchy!


Circuit: ***************************

Doing analysis at TEMP = -40.000000 and TNOM = -40.000000


No. of Data Rows : 402
                          ***************************
                          DC transfer characteristic  Mon Jan  9 13:57:17  2023
--------------------------------------------------------------------------------
Index   v-sweep         -i(vds)         
--------------------------------------------------------------------------------
0	0.000000e+00	-0.000000e+00	
1	5.000000e-02	6.810213e-08	
2	1.000000e-01	8.588732e-08	
3	1.500000e-01	8.701177e-08	
4	2.000000e-01	8.721476e-08	
5	2.500000e-01	8.732794e-08	
6	3.000000e-01	8.741739e-08	
7	3.500000e-01	8.749692e-08	
8	4.000000e-01	8.757116e-08	
9	4.500000e-01	8.764212e-08	
10	5.000000e-01	8.771085e-08	
11	5.500000e-01	8.777797e-08	
12	6.000000e-01	8.784386e-08	
13	6.500000e-01	8.790877e-08	
14	7.000000e-01	8.797290e-08	
15	7.500000e-01	8.803638e-08	
16	8.000000e-01	8.809932e-08	
17	8.500000e-01	8.816178e-08	
18	9.000000e-01	8.822384e-08	
19	9.500000e-01	8.828555e-08	
20	1.000000e+00	8.834694e-08	
21	1.050000e+00	8.840806e-08	
22	1.100000e+00	8.846893e-08	
23	1.150000e+00	8.852957e-08	
24	1.200000e+00	8.859002e-08	
25	1.250000e+00	8.865028e-08	
26	1.300000e+00	8.871037e-08	
27	1.350000e+00	8.877032e-08	
28	1.400000e+00	8.883012e-08	
29	1.450000e+00	8.888980e-08	
30	1.500000e+00	8.894937e-08	
31	1.550000e+00	8.900884e-08	
32	1.600000e+00	8.906824e-08	
33	1.650000e+00	8.912758e-08	
34	1.700000e+00	8.918689e-08	
35	1.750000e+00	8.924621e-08	
36	1.800000e+00	8.930558e-08	
37	1.850000e+00	8.936506e-08	
38	1.900000e+00	8.942472e-08	
39	1.950000e+00	8.948464e-08	
40	2.000000e+00	8.954494e-08	
41	2.050000e+00	8.960575e-08	
42	2.100000e+00	8.966722e-08	
43	2.150000e+00	8.972955e-08	
44	2.200000e+00	8.979295e-08	
45	2.250000e+00	8.985767e-08	
46	2.300000e+00	8.992402e-08	
47	2.350000e+00	8.999233e-08	
48	2.400000e+00	9.006297e-08	
49	2.450000e+00	9.013638e-08	
50	2.500000e+00	9.021302e-08	
51	2.550000e+00	9.029342e-08	
52	2.600000e+00	9.037817e-08	
53	2.650000e+00	9.046787e-08	
54	2.700000e+00	9.056323e-08	

Index   v-sweep         -i(vds)         
--------------------------------------------------------------------------------
55	2.750000e+00	9.066498e-08	
56	2.800000e+00	9.077390e-08	
57	2.850000e+00	9.089086e-08	
58	2.900000e+00	9.101674e-08	
59	2.950000e+00	9.115253e-08	
60	3.000000e+00	9.129921e-08	
61	3.050000e+00	9.145788e-08	
62	3.100000e+00	9.162963e-08	
63	3.150000e+00	9.181564e-08	
64	3.200000e+00	9.201714e-08	
65	3.250000e+00	9.223539e-08	
66	3.300000e+00	9.247170e-08	
67	0.000000e+00	-0.000000e+00	
68	5.000000e-02	5.844891e-07	
69	1.000000e-01	1.095370e-06	
70	1.500000e-01	1.532895e-06	
71	2.000000e-01	1.897331e-06	
72	2.500000e-01	2.188980e-06	
73	3.000000e-01	2.408273e-06	
74	3.500000e-01	2.556180e-06	
75	4.000000e-01	2.636593e-06	
76	4.500000e-01	2.666147e-06	
77	5.000000e-01	2.674609e-06	
78	5.500000e-01	2.677904e-06	
79	6.000000e-01	2.679787e-06	
80	6.500000e-01	2.681131e-06	
81	7.000000e-01	2.682209e-06	
82	7.500000e-01	2.683134e-06	
83	8.000000e-01	2.683960e-06	
84	8.500000e-01	2.684717e-06	
85	9.000000e-01	2.685423e-06	
86	9.500000e-01	2.686090e-06	
87	1.000000e+00	2.686726e-06	
88	1.050000e+00	2.687337e-06	
89	1.100000e+00	2.687927e-06	
90	1.150000e+00	2.688500e-06	
91	1.200000e+00	2.689058e-06	
92	1.250000e+00	2.689603e-06	
93	1.300000e+00	2.690136e-06	
94	1.350000e+00	2.690660e-06	
95	1.400000e+00	2.691175e-06	
96	1.450000e+00	2.691681e-06	
97	1.500000e+00	2.692181e-06	
98	1.550000e+00	2.692674e-06	
99	1.600000e+00	2.693162e-06	
100	1.650000e+00	2.693644e-06	
101	1.700000e+00	2.694121e-06	
102	1.750000e+00	2.694594e-06	
103	1.800000e+00	2.695063e-06	
104	1.850000e+00	2.695529e-06	
105	1.900000e+00	2.695991e-06	
106	1.950000e+00	2.696452e-06	
107	2.000000e+00	2.696910e-06	
108	2.050000e+00	2.697368e-06	
109	2.100000e+00	2.697826e-06	
110	2.150000e+00	2.698285e-06	
111	2.200000e+00	2.698749e-06	
112	2.250000e+00	2.699218e-06	

Index   v-sweep         -i(vds)         
--------------------------------------------------------------------------------
113	2.300000e+00	2.699695e-06	
114	2.350000e+00	2.700185e-06	
115	2.400000e+00	2.700691e-06	
116	2.450000e+00	2.701218e-06	
117	2.500000e+00	2.701772e-06	
118	2.550000e+00	2.702360e-06	
119	2.600000e+00	2.702989e-06	
120	2.650000e+00	2.703669e-06	
121	2.700000e+00	2.704410e-06	
122	2.750000e+00	2.705224e-06	
123	2.800000e+00	2.706123e-06	
124	2.850000e+00	2.707123e-06	
125	2.900000e+00	2.708238e-06	
126	2.950000e+00	2.709487e-06	
127	3.000000e+00	2.710888e-06	
128	3.050000e+00	2.712463e-06	
129	3.100000e+00	2.714233e-06	
130	3.150000e+00	2.716222e-06	
131	3.200000e+00	2.718455e-06	
132	3.250000e+00	2.720961e-06	
133	3.300000e+00	2.723766e-06	
134	0.000000e+00	-0.000000e+00	
135	5.000000e-02	1.065970e-06	
136	1.000000e-01	2.062315e-06	
137	1.500000e-01	2.989249e-06	
138	2.000000e-01	3.846988e-06	
139	2.500000e-01	4.635748e-06	
140	3.000000e-01	5.355743e-06	
141	3.500000e-01	6.007190e-06	
142	4.000000e-01	6.590306e-06	
143	4.500000e-01	7.105314e-06	
144	5.000000e-01	7.552445e-06	
145	5.500000e-01	7.931953e-06	
146	6.000000e-01	8.244146e-06	
147	6.500000e-01	8.489480e-06	
148	7.000000e-01	8.668906e-06	
149	7.500000e-01	8.785202e-06	
150	8.000000e-01	8.847354e-06	
151	8.500000e-01	8.874893e-06	
152	9.000000e-01	8.887411e-06	
153	9.500000e-01	8.894354e-06	
154	1.000000e+00	8.898982e-06	
155	1.050000e+00	8.902464e-06	
156	1.100000e+00	8.905294e-06	
157	1.150000e+00	8.907708e-06	
158	1.200000e+00	8.909839e-06	
159	1.250000e+00	8.911765e-06	
160	1.300000e+00	8.913536e-06	
161	1.350000e+00	8.915185e-06	
162	1.400000e+00	8.916737e-06	
163	1.450000e+00	8.918209e-06	
164	1.500000e+00	8.919615e-06	
165	1.550000e+00	8.920964e-06	
166	1.600000e+00	8.922265e-06	
167	1.650000e+00	8.923524e-06	
168	1.700000e+00	8.924746e-06	
169	1.750000e+00	8.925936e-06	
170	1.800000e+00	8.927097e-06	

Index   v-sweep         -i(vds)         
--------------------------------------------------------------------------------
171	1.850000e+00	8.928232e-06	
172	1.900000e+00	8.929344e-06	
173	1.950000e+00	8.930434e-06	
174	2.000000e+00	8.931506e-06	
175	2.050000e+00	8.932560e-06	
176	2.100000e+00	8.933599e-06	
177	2.150000e+00	8.934623e-06	
178	2.200000e+00	8.935634e-06	
179	2.250000e+00	8.936635e-06	
180	2.300000e+00	8.937626e-06	
181	2.350000e+00	8.938610e-06	
182	2.400000e+00	8.939589e-06	
183	2.450000e+00	8.940568e-06	
184	2.500000e+00	8.941550e-06	
185	2.550000e+00	8.942540e-06	
186	2.600000e+00	8.943547e-06	
187	2.650000e+00	8.944577e-06	
188	2.700000e+00	8.945641e-06	
189	2.750000e+00	8.946752e-06	
190	2.800000e+00	8.947926e-06	
191	2.850000e+00	8.949179e-06	
192	2.900000e+00	8.950533e-06	
193	2.950000e+00	8.952013e-06	
194	3.000000e+00	8.953646e-06	
195	3.050000e+00	8.955466e-06	
196	3.100000e+00	8.957508e-06	
197	3.150000e+00	8.959813e-06	
198	3.200000e+00	8.962427e-06	
199	3.250000e+00	8.965401e-06	
200	3.300000e+00	8.968790e-06	
201	0.000000e+00	-0.000000e+00	
202	5.000000e-02	1.459820e-06	
203	1.000000e-01	2.856582e-06	
204	1.500000e-01	4.190468e-06	
205	2.000000e-01	5.461660e-06	
206	2.500000e-01	6.670340e-06	
207	3.000000e-01	7.816689e-06	
208	3.500000e-01	8.900885e-06	
209	4.000000e-01	9.923110e-06	
210	4.500000e-01	1.088354e-05	
211	5.000000e-01	1.178236e-05	
212	5.500000e-01	1.261974e-05	
213	6.000000e-01	1.339586e-05	
214	6.500000e-01	1.411091e-05	
215	7.000000e-01	1.476505e-05	
216	7.500000e-01	1.535847e-05	
217	8.000000e-01	1.589135e-05	
218	8.500000e-01	1.636389e-05	
219	9.000000e-01	1.677628e-05	
220	9.500000e-01	1.712876e-05	
221	1.000000e+00	1.742162e-05	
222	1.050000e+00	1.765536e-05	
223	1.100000e+00	1.783102e-05	
224	1.150000e+00	1.795141e-05	
225	1.200000e+00	1.802405e-05	
226	1.250000e+00	1.806336e-05	
227	1.300000e+00	1.808479e-05	
228	1.350000e+00	1.809783e-05	

Index   v-sweep         -i(vds)         
--------------------------------------------------------------------------------
229	1.400000e+00	1.810680e-05	
230	1.450000e+00	1.811358e-05	
231	1.500000e+00	1.811904e-05	
232	1.550000e+00	1.812364e-05	
233	1.600000e+00	1.812765e-05	
234	1.650000e+00	1.813123e-05	
235	1.700000e+00	1.813448e-05	
236	1.750000e+00	1.813747e-05	
237	1.800000e+00	1.814025e-05	
238	1.850000e+00	1.814287e-05	
239	1.900000e+00	1.814534e-05	
240	1.950000e+00	1.814770e-05	
241	2.000000e+00	1.814995e-05	
242	2.050000e+00	1.815212e-05	
243	2.100000e+00	1.815420e-05	
244	2.150000e+00	1.815622e-05	
245	2.200000e+00	1.815818e-05	
246	2.250000e+00	1.816008e-05	
247	2.300000e+00	1.816194e-05	
248	2.350000e+00	1.816375e-05	
249	2.400000e+00	1.816552e-05	
250	2.450000e+00	1.816725e-05	
251	2.500000e+00	1.816895e-05	
252	2.550000e+00	1.817062e-05	
253	2.600000e+00	1.817227e-05	
254	2.650000e+00	1.817389e-05	
255	2.700000e+00	1.817549e-05	
256	2.750000e+00	1.817708e-05	
257	2.800000e+00	1.817866e-05	
258	2.850000e+00	1.818023e-05	
259	2.900000e+00	1.818182e-05	
260	2.950000e+00	1.818341e-05	
261	3.000000e+00	1.818505e-05	
262	3.050000e+00	1.818673e-05	
263	3.100000e+00	1.818847e-05	
264	3.150000e+00	1.819032e-05	
265	3.200000e+00	1.819229e-05	
266	3.250000e+00	1.819442e-05	
267	3.300000e+00	1.819676e-05	
268	0.000000e+00	-0.000000e+00	
269	5.000000e-02	1.759320e-06	
270	1.000000e-01	3.462909e-06	
271	1.500000e-01	5.110914e-06	
272	2.000000e-01	6.703485e-06	
273	2.500000e-01	8.240771e-06	
274	3.000000e-01	9.722918e-06	
275	3.500000e-01	1.115007e-05	
276	4.000000e-01	1.252239e-05	
277	4.500000e-01	1.384000e-05	
278	5.000000e-01	1.510306e-05	
279	5.500000e-01	1.631171e-05	
280	6.000000e-01	1.746610e-05	
281	6.500000e-01	1.856637e-05	
282	7.000000e-01	1.961267e-05	
283	7.500000e-01	2.060513e-05	
284	8.000000e-01	2.154391e-05	
285	8.500000e-01	2.242914e-05	
286	9.000000e-01	2.326096e-05	

Index   v-sweep         -i(vds)         
--------------------------------------------------------------------------------
287	9.500000e-01	2.403953e-05	
288	1.000000e+00	2.476497e-05	
289	1.050000e+00	2.543743e-05	
290	1.100000e+00	2.605706e-05	
291	1.150000e+00	2.662399e-05	
292	1.200000e+00	2.713837e-05	
293	1.250000e+00	2.760035e-05	
294	1.300000e+00	2.801008e-05	
295	1.350000e+00	2.836774e-05	
296	1.400000e+00	2.867354e-05	
297	1.450000e+00	2.892777e-05	
298	1.500000e+00	2.913101e-05	
299	1.550000e+00	2.928457e-05	
300	1.600000e+00	2.939182e-05	
301	1.650000e+00	2.946034e-05	
302	1.700000e+00	2.950189e-05	
303	1.750000e+00	2.952774e-05	
304	1.800000e+00	2.954511e-05	
305	1.850000e+00	2.955778e-05	
306	1.900000e+00	2.956766e-05	
307	1.950000e+00	2.957575e-05	
308	2.000000e+00	2.958262e-05	
309	2.050000e+00	2.958863e-05	
310	2.100000e+00	2.959398e-05	
311	2.150000e+00	2.959883e-05	
312	2.200000e+00	2.960328e-05	
313	2.250000e+00	2.960742e-05	
314	2.300000e+00	2.961128e-05	
315	2.350000e+00	2.961493e-05	
316	2.400000e+00	2.961838e-05	
317	2.450000e+00	2.962168e-05	
318	2.500000e+00	2.962483e-05	
319	2.550000e+00	2.962785e-05	
320	2.600000e+00	2.963077e-05	
321	2.650000e+00	2.963359e-05	
322	2.700000e+00	2.963632e-05	
323	2.750000e+00	2.963898e-05	
324	2.800000e+00	2.964156e-05	
325	2.850000e+00	2.964408e-05	
326	2.900000e+00	2.964654e-05	
327	2.950000e+00	2.964895e-05	
328	3.000000e+00	2.965131e-05	
329	3.050000e+00	2.965362e-05	
330	3.100000e+00	2.965590e-05	
331	3.150000e+00	2.965816e-05	
332	3.200000e+00	2.966038e-05	
333	3.250000e+00	2.966260e-05	
334	3.300000e+00	2.966482e-05	
335	0.000000e+00	-0.000000e+00	
336	5.000000e-02	1.971180e-06	
337	1.000000e-01	3.893912e-06	
338	1.500000e-01	5.768315e-06	
339	2.000000e-01	7.594508e-06	
340	2.500000e-01	9.372609e-06	
341	3.000000e-01	1.110274e-05	
342	3.500000e-01	1.278501e-05	
343	4.000000e-01	1.441953e-05	
344	4.500000e-01	1.600644e-05	

Index   v-sweep         -i(vds)         
--------------------------------------------------------------------------------
345	5.000000e-01	1.754584e-05	
346	5.500000e-01	1.903784e-05	
347	6.000000e-01	2.048257e-05	
348	6.500000e-01	2.188014e-05	
349	7.000000e-01	2.323066e-05	
350	7.500000e-01	2.453425e-05	
351	8.000000e-01	2.579102e-05	
352	8.500000e-01	2.700109e-05	
353	9.000000e-01	2.816456e-05	
354	9.500000e-01	2.928156e-05	
355	1.000000e+00	3.035218e-05	
356	1.050000e+00	3.137656e-05	
357	1.100000e+00	3.235479e-05	
358	1.150000e+00	3.328699e-05	
359	1.200000e+00	3.417328e-05	
360	1.250000e+00	3.501375e-05	
361	1.300000e+00	3.580852e-05	
362	1.350000e+00	3.655771e-05	
363	1.400000e+00	3.726141e-05	
364	1.450000e+00	3.791975e-05	
365	1.500000e+00	3.853282e-05	
366	1.550000e+00	3.910075e-05	
367	1.600000e+00	3.962363e-05	
368	1.650000e+00	4.010158e-05	
369	1.700000e+00	4.053471e-05	
370	1.750000e+00	4.092313e-05	
371	1.800000e+00	4.126696e-05	
372	1.850000e+00	4.156635e-05	
373	1.900000e+00	4.182148e-05	
374	1.950000e+00	4.203269e-05	
375	2.000000e+00	4.220071e-05	
376	2.050000e+00	4.232733e-05	
377	2.100000e+00	4.241675e-05	
378	2.150000e+00	4.247656e-05	
379	2.200000e+00	4.251613e-05	
380	2.250000e+00	4.254327e-05	
381	2.300000e+00	4.256302e-05	
382	2.350000e+00	4.257822e-05	
383	2.400000e+00	4.259051e-05	
384	2.450000e+00	4.260079e-05	
385	2.500000e+00	4.260966e-05	
386	2.550000e+00	4.261748e-05	
387	2.600000e+00	4.262449e-05	
388	2.650000e+00	4.263086e-05	
389	2.700000e+00	4.263673e-05	
390	2.750000e+00	4.264217e-05	
391	2.800000e+00	4.264727e-05	
392	2.850000e+00	4.265207e-05	
393	2.900000e+00	4.265662e-05	
394	2.950000e+00	4.266094e-05	
395	3.000000e+00	4.266508e-05	
396	3.050000e+00	4.266904e-05	
397	3.100000e+00	4.267286e-05	
398	3.150000e+00	4.267654e-05	
399	3.200000e+00	4.268011e-05	
400	3.250000e+00	4.268356e-05	
401	3.300000e+00	4.268692e-05	
Note: No ".plot", ".print", or ".fourier" lines; no simulations run
