
Note: Compatibility modes selected: hs

Warning: m=xx on .subckt line will override multiplier m hierarchy!


Circuit: ***************************

Doing analysis at TEMP = 125.000000 and TNOM = 125.000000


No. of Data Rows : 402
                          ***************************
                          DC transfer characteristic  Mon Jan  9 13:57:17  2023
--------------------------------------------------------------------------------
Index   v-sweep         -i(vds)         
--------------------------------------------------------------------------------
0	0.000000e+00	-0.000000e+00	
1	5.000000e-02	2.365698e-06	
2	1.000000e-01	4.087676e-06	
3	1.500000e-01	5.236926e-06	
4	2.000000e-01	5.846653e-06	
5	2.500000e-01	6.034703e-06	
6	3.000000e-01	6.070307e-06	
7	3.500000e-01	6.081963e-06	
8	4.000000e-01	6.088786e-06	
9	4.500000e-01	6.093936e-06	
10	5.000000e-01	6.098275e-06	
11	5.500000e-01	6.102139e-06	
12	6.000000e-01	6.105688e-06	
13	6.500000e-01	6.109013e-06	
14	7.000000e-01	6.112169e-06	
15	7.500000e-01	6.115191e-06	
16	8.000000e-01	6.118107e-06	
17	8.500000e-01	6.120935e-06	
18	9.000000e-01	6.123689e-06	
19	9.500000e-01	6.126379e-06	
20	1.000000e+00	6.129015e-06	
21	1.050000e+00	6.131604e-06	
22	1.100000e+00	6.134150e-06	
23	1.150000e+00	6.136660e-06	
24	1.200000e+00	6.139136e-06	
25	1.250000e+00	6.141582e-06	
26	1.300000e+00	6.144001e-06	
27	1.350000e+00	6.146396e-06	
28	1.400000e+00	6.148768e-06	
29	1.450000e+00	6.151120e-06	
30	1.500000e+00	6.153454e-06	
31	1.550000e+00	6.155770e-06	
32	1.600000e+00	6.158071e-06	
33	1.650000e+00	6.160358e-06	
34	1.700000e+00	6.162634e-06	
35	1.750000e+00	6.164901e-06	
36	1.800000e+00	6.167161e-06	
37	1.850000e+00	6.169419e-06	
38	1.900000e+00	6.171679e-06	
39	1.950000e+00	6.173947e-06	
40	2.000000e+00	6.176231e-06	
41	2.050000e+00	6.178539e-06	
42	2.100000e+00	6.180883e-06	
43	2.150000e+00	6.183278e-06	
44	2.200000e+00	6.185741e-06	
45	2.250000e+00	6.188292e-06	
46	2.300000e+00	6.190955e-06	
47	2.350000e+00	6.193759e-06	
48	2.400000e+00	6.196736e-06	
49	2.450000e+00	6.199923e-06	
50	2.500000e+00	6.203363e-06	
51	2.550000e+00	6.207104e-06	
52	2.600000e+00	6.211200e-06	
53	2.650000e+00	6.215709e-06	
54	2.700000e+00	6.220698e-06	

Index   v-sweep         -i(vds)         
--------------------------------------------------------------------------------
55	2.750000e+00	6.226238e-06	
56	2.800000e+00	6.232407e-06	
57	2.850000e+00	6.239289e-06	
58	2.900000e+00	6.246976e-06	
59	2.950000e+00	6.255566e-06	
60	3.000000e+00	6.265162e-06	
61	3.050000e+00	6.275876e-06	
62	3.100000e+00	6.287823e-06	
63	3.150000e+00	6.301129e-06	
64	3.200000e+00	6.315922e-06	
65	3.250000e+00	6.332338e-06	
66	3.300000e+00	6.350519e-06	
67	0.000000e+00	-0.000000e+00	
68	5.000000e-02	7.036796e-06	
69	1.000000e-01	1.337976e-05	
70	1.500000e-01	1.909755e-05	
71	2.000000e-01	2.420806e-05	
72	2.500000e-01	2.871724e-05	
73	3.000000e-01	3.262823e-05	
74	3.500000e-01	3.594371e-05	
75	4.000000e-01	3.866654e-05	
76	4.500000e-01	4.080063e-05	
77	5.000000e-01	4.235348e-05	
78	5.500000e-01	4.334667e-05	
79	6.000000e-01	4.385591e-05	
80	6.500000e-01	4.406267e-05	
81	7.000000e-01	4.415070e-05	
82	7.500000e-01	4.419973e-05	
83	8.000000e-01	4.423352e-05	
84	8.500000e-01	4.425983e-05	
85	9.000000e-01	4.428181e-05	
86	9.500000e-01	4.430098e-05	
87	1.000000e+00	4.431817e-05	
88	1.050000e+00	4.433390e-05	
89	1.100000e+00	4.434849e-05	
90	1.150000e+00	4.436218e-05	
91	1.200000e+00	4.437514e-05	
92	1.250000e+00	4.438747e-05	
93	1.300000e+00	4.439929e-05	
94	1.350000e+00	4.441067e-05	
95	1.400000e+00	4.442166e-05	
96	1.450000e+00	4.443231e-05	
97	1.500000e+00	4.444266e-05	
98	1.550000e+00	4.445274e-05	
99	1.600000e+00	4.446259e-05	
100	1.650000e+00	4.447222e-05	
101	1.700000e+00	4.448166e-05	
102	1.750000e+00	4.449092e-05	
103	1.800000e+00	4.450002e-05	
104	1.850000e+00	4.450897e-05	
105	1.900000e+00	4.451779e-05	
106	1.950000e+00	4.452648e-05	
107	2.000000e+00	4.453507e-05	
108	2.050000e+00	4.454356e-05	
109	2.100000e+00	4.455198e-05	
110	2.150000e+00	4.456034e-05	
111	2.200000e+00	4.456866e-05	
112	2.250000e+00	4.457698e-05	

Index   v-sweep         -i(vds)         
--------------------------------------------------------------------------------
113	2.300000e+00	4.458534e-05	
114	2.350000e+00	4.459379e-05	
115	2.400000e+00	4.460238e-05	
116	2.450000e+00	4.461120e-05	
117	2.500000e+00	4.462035e-05	
118	2.550000e+00	4.462993e-05	
119	2.600000e+00	4.464010e-05	
120	2.650000e+00	4.465101e-05	
121	2.700000e+00	4.466285e-05	
122	2.750000e+00	4.467587e-05	
123	2.800000e+00	4.469030e-05	
124	2.850000e+00	4.470645e-05	
125	2.900000e+00	4.472466e-05	
126	2.950000e+00	4.474529e-05	
127	3.000000e+00	4.476877e-05	
128	3.050000e+00	4.479555e-05	
129	3.100000e+00	4.482613e-05	
130	3.150000e+00	4.486108e-05	
131	3.200000e+00	4.490099e-05	
132	3.250000e+00	4.494651e-05	
133	3.300000e+00	4.499832e-05	
134	0.000000e+00	-0.000000e+00	
135	5.000000e-02	1.119455e-05	
136	1.000000e-01	2.172587e-05	
137	1.500000e-01	3.166235e-05	
138	2.000000e-01	4.102163e-05	
139	2.500000e-01	4.980933e-05	
140	3.000000e-01	5.802827e-05	
141	3.500000e-01	6.568055e-05	
142	4.000000e-01	7.276815e-05	
143	4.500000e-01	7.929298e-05	
144	5.000000e-01	8.525697e-05	
145	5.500000e-01	9.066205e-05	
146	6.000000e-01	9.551021e-05	
147	6.500000e-01	9.980346e-05	
148	7.000000e-01	1.035440e-04	
149	7.500000e-01	1.067343e-04	
150	8.000000e-01	1.093776e-04	
151	8.500000e-01	1.114788e-04	
152	9.000000e-01	1.130483e-04	
153	9.500000e-01	1.141129e-04	
154	1.000000e+00	1.147441e-04	
155	1.050000e+00	1.150789e-04	
156	1.100000e+00	1.152614e-04	
157	1.150000e+00	1.153754e-04	
158	1.200000e+00	1.154566e-04	
159	1.250000e+00	1.155200e-04	
160	1.300000e+00	1.155724e-04	
161	1.350000e+00	1.156175e-04	
162	1.400000e+00	1.156574e-04	
163	1.450000e+00	1.156934e-04	
164	1.500000e+00	1.157265e-04	
165	1.550000e+00	1.157571e-04	
166	1.600000e+00	1.157857e-04	
167	1.650000e+00	1.158127e-04	
168	1.700000e+00	1.158383e-04	
169	1.750000e+00	1.158628e-04	
170	1.800000e+00	1.158861e-04	

Index   v-sweep         -i(vds)         
--------------------------------------------------------------------------------
171	1.850000e+00	1.159086e-04	
172	1.900000e+00	1.159303e-04	
173	1.950000e+00	1.159513e-04	
174	2.000000e+00	1.159717e-04	
175	2.050000e+00	1.159915e-04	
176	2.100000e+00	1.160108e-04	
177	2.150000e+00	1.160296e-04	
178	2.200000e+00	1.160479e-04	
179	2.250000e+00	1.160659e-04	
180	2.300000e+00	1.160836e-04	
181	2.350000e+00	1.161009e-04	
182	2.400000e+00	1.161179e-04	
183	2.450000e+00	1.161347e-04	
184	2.500000e+00	1.161512e-04	
185	2.550000e+00	1.161677e-04	
186	2.600000e+00	1.161840e-04	
187	2.650000e+00	1.162003e-04	
188	2.700000e+00	1.162167e-04	
189	2.750000e+00	1.162334e-04	
190	2.800000e+00	1.162504e-04	
191	2.850000e+00	1.162681e-04	
192	2.900000e+00	1.162866e-04	
193	2.950000e+00	1.163062e-04	
194	3.000000e+00	1.163274e-04	
195	3.050000e+00	1.163505e-04	
196	3.100000e+00	1.163760e-04	
197	3.150000e+00	1.164047e-04	
198	3.200000e+00	1.164370e-04	
199	3.250000e+00	1.164739e-04	
200	3.300000e+00	1.165161e-04	
201	0.000000e+00	-0.000000e+00	
202	5.000000e-02	1.468383e-05	
203	1.000000e-01	2.875099e-05	
204	1.500000e-01	4.226963e-05	
205	2.000000e-01	5.525711e-05	
206	2.500000e-01	6.771880e-05	
207	3.000000e-01	7.965723e-05	
208	3.500000e-01	9.107426e-05	
209	4.000000e-01	1.019716e-04	
210	4.500000e-01	1.123508e-04	
211	5.000000e-01	1.222137e-04	
212	5.500000e-01	1.315617e-04	
213	6.000000e-01	1.403965e-04	
214	6.500000e-01	1.487197e-04	
215	7.000000e-01	1.565330e-04	
216	7.500000e-01	1.638379e-04	
217	8.000000e-01	1.706361e-04	
218	8.500000e-01	1.769292e-04	
219	9.000000e-01	1.827187e-04	
220	9.500000e-01	1.880064e-04	
221	1.000000e+00	1.927938e-04	
222	1.050000e+00	1.970828e-04	
223	1.100000e+00	2.008753e-04	
224	1.150000e+00	2.041733e-04	
225	1.200000e+00	2.069795e-04	
226	1.250000e+00	2.092979e-04	
227	1.300000e+00	2.111359e-04	
228	1.350000e+00	2.125094e-04	

Index   v-sweep         -i(vds)         
--------------------------------------------------------------------------------
229	1.400000e+00	2.134567e-04	
230	1.450000e+00	2.140579e-04	
231	1.500000e+00	2.144270e-04	
232	1.550000e+00	2.146648e-04	
233	1.600000e+00	2.148319e-04	
234	1.650000e+00	2.149590e-04	
235	1.700000e+00	2.150616e-04	
236	1.750000e+00	2.151481e-04	
237	1.800000e+00	2.152231e-04	
238	1.850000e+00	2.152897e-04	
239	1.900000e+00	2.153498e-04	
240	1.950000e+00	2.154049e-04	
241	2.000000e+00	2.154558e-04	
242	2.050000e+00	2.155034e-04	
243	2.100000e+00	2.155481e-04	
244	2.150000e+00	2.155903e-04	
245	2.200000e+00	2.156304e-04	
246	2.250000e+00	2.156688e-04	
247	2.300000e+00	2.157055e-04	
248	2.350000e+00	2.157408e-04	
249	2.400000e+00	2.157748e-04	
250	2.450000e+00	2.158077e-04	
251	2.500000e+00	2.158396e-04	
252	2.550000e+00	2.158706e-04	
253	2.600000e+00	2.159007e-04	
254	2.650000e+00	2.159300e-04	
255	2.700000e+00	2.159586e-04	
256	2.750000e+00	2.159866e-04	
257	2.800000e+00	2.160141e-04	
258	2.850000e+00	2.160410e-04	
259	2.900000e+00	2.160675e-04	
260	2.950000e+00	2.160936e-04	
261	3.000000e+00	2.161196e-04	
262	3.050000e+00	2.161454e-04	
263	3.100000e+00	2.161713e-04	
264	3.150000e+00	2.161974e-04	
265	3.200000e+00	2.162242e-04	
266	3.250000e+00	2.162518e-04	
267	3.300000e+00	2.162807e-04	
268	0.000000e+00	-0.000000e+00	
269	5.000000e-02	1.750099e-05	
270	1.000000e-01	3.443650e-05	
271	1.500000e-01	5.087442e-05	
272	2.000000e-01	6.683186e-05	
273	2.500000e-01	8.231392e-05	
274	3.000000e-01	9.732289e-05	
275	3.500000e-01	1.118604e-04	
276	4.000000e-01	1.259278e-04	
277	4.500000e-01	1.395265e-04	
278	5.000000e-01	1.526580e-04	
279	5.500000e-01	1.653235e-04	
280	6.000000e-01	1.775245e-04	
281	6.500000e-01	1.892623e-04	
282	7.000000e-01	2.005383e-04	
283	7.500000e-01	2.113538e-04	
284	8.000000e-01	2.217102e-04	
285	8.500000e-01	2.316088e-04	
286	9.000000e-01	2.410509e-04	

Index   v-sweep         -i(vds)         
--------------------------------------------------------------------------------
287	9.500000e-01	2.500380e-04	
288	1.000000e+00	2.585712e-04	
289	1.050000e+00	2.666520e-04	
290	1.100000e+00	2.742816e-04	
291	1.150000e+00	2.814614e-04	
292	1.200000e+00	2.881928e-04	
293	1.250000e+00	2.944769e-04	
294	1.300000e+00	3.003152e-04	
295	1.350000e+00	3.057090e-04	
296	1.400000e+00	3.106597e-04	
297	1.450000e+00	3.151686e-04	
298	1.500000e+00	3.192372e-04	
299	1.550000e+00	3.228670e-04	
300	1.600000e+00	3.260599e-04	
301	1.650000e+00	3.288182e-04	
302	1.700000e+00	3.311451e-04	
303	1.750000e+00	3.330466e-04	
304	1.800000e+00	3.345349e-04	
305	1.850000e+00	3.356371e-04	
306	1.900000e+00	3.364076e-04	
307	1.950000e+00	3.369293e-04	
308	2.000000e+00	3.372884e-04	
309	2.050000e+00	3.375486e-04	
310	2.100000e+00	3.377486e-04	
311	2.150000e+00	3.379099e-04	
312	2.200000e+00	3.380451e-04	
313	2.250000e+00	3.381618e-04	
314	2.300000e+00	3.382647e-04	
315	2.350000e+00	3.383571e-04	
316	2.400000e+00	3.384411e-04	
317	2.450000e+00	3.385184e-04	
318	2.500000e+00	3.385902e-04	
319	2.550000e+00	3.386573e-04	
320	2.600000e+00	3.387204e-04	
321	2.650000e+00	3.387801e-04	
322	2.700000e+00	3.388368e-04	
323	2.750000e+00	3.388910e-04	
324	2.800000e+00	3.389428e-04	
325	2.850000e+00	3.389926e-04	
326	2.900000e+00	3.390406e-04	
327	2.950000e+00	3.390870e-04	
328	3.000000e+00	3.391318e-04	
329	3.050000e+00	3.391753e-04	
330	3.100000e+00	3.392175e-04	
331	3.150000e+00	3.392587e-04	
332	3.200000e+00	3.392988e-04	
333	3.250000e+00	3.393379e-04	
334	3.300000e+00	3.393763e-04	
335	0.000000e+00	-0.000000e+00	
336	5.000000e-02	1.969454e-05	
337	1.000000e-01	3.887486e-05	
338	1.500000e-01	5.760861e-05	
339	2.000000e-01	7.591266e-05	
340	2.500000e-01	9.379188e-05	
341	3.000000e-01	1.112483e-04	
342	3.500000e-01	1.282834e-04	
343	4.000000e-01	1.448982e-04	
344	4.500000e-01	1.610939e-04	

Index   v-sweep         -i(vds)         
--------------------------------------------------------------------------------
345	5.000000e-01	1.768718e-04	
346	5.500000e-01	1.922329e-04	
347	6.000000e-01	2.071784e-04	
348	6.500000e-01	2.217094e-04	
349	7.000000e-01	2.358271e-04	
350	7.500000e-01	2.495325e-04	
351	8.000000e-01	2.628268e-04	
352	8.500000e-01	2.757112e-04	
353	9.000000e-01	2.881867e-04	
354	9.500000e-01	3.002544e-04	
355	1.000000e+00	3.119154e-04	
356	1.050000e+00	3.231709e-04	
357	1.100000e+00	3.340220e-04	
358	1.150000e+00	3.444697e-04	
359	1.200000e+00	3.545152e-04	
360	1.250000e+00	3.641594e-04	
361	1.300000e+00	3.734036e-04	
362	1.350000e+00	3.822488e-04	
363	1.400000e+00	3.906960e-04	
364	1.450000e+00	3.987464e-04	
365	1.500000e+00	4.064010e-04	
366	1.550000e+00	4.136609e-04	
367	1.600000e+00	4.205271e-04	
368	1.650000e+00	4.270008e-04	
369	1.700000e+00	4.330829e-04	
370	1.750000e+00	4.387746e-04	
371	1.800000e+00	4.440769e-04	
372	1.850000e+00	4.489909e-04	
373	1.900000e+00	4.535177e-04	
374	1.950000e+00	4.576584e-04	
375	2.000000e+00	4.614142e-04	
376	2.050000e+00	4.647864e-04	
377	2.100000e+00	4.677764e-04	
378	2.150000e+00	4.703860e-04	
379	2.200000e+00	4.726182e-04	
380	2.250000e+00	4.744778e-04	
381	2.300000e+00	4.759750e-04	
382	2.350000e+00	4.771316e-04	
383	2.400000e+00	4.779890e-04	
384	2.450000e+00	4.786099e-04	
385	2.500000e+00	4.790632e-04	
386	2.550000e+00	4.794050e-04	
387	2.600000e+00	4.796737e-04	
388	2.650000e+00	4.798932e-04	
389	2.700000e+00	4.800783e-04	
390	2.750000e+00	4.802384e-04	
391	2.800000e+00	4.803796e-04	
392	2.850000e+00	4.805063e-04	
393	2.900000e+00	4.806214e-04	
394	2.950000e+00	4.807270e-04	
395	3.000000e+00	4.808248e-04	
396	3.050000e+00	4.809161e-04	
397	3.100000e+00	4.810018e-04	
398	3.150000e+00	4.810826e-04	
399	3.200000e+00	4.811593e-04	
400	3.250000e+00	4.812323e-04	
401	3.300000e+00	4.813021e-04	
Note: No ".plot", ".print", or ".fourier" lines; no simulations run
