
Note: Compatibility modes selected: hs

Warning: m=xx on .subckt line will override multiplier m hierarchy!


Circuit: ***************************

Doing analysis at TEMP = -40.000000 and TNOM = -40.000000


No. of Data Rows : 402
                          ***************************
                          DC transfer characteristic  Mon Jan  9 13:57:17  2023
--------------------------------------------------------------------------------
Index   v-sweep         -i(vds)         
--------------------------------------------------------------------------------
0	0.000000e+00	-0.000000e+00	
1	5.000000e-02	2.132592e-07	
2	1.000000e-01	3.223502e-07	
3	1.500000e-01	3.552926e-07	
4	2.000000e-01	3.633720e-07	
5	2.500000e-01	3.671495e-07	
6	3.000000e-01	3.697468e-07	
7	3.500000e-01	3.718166e-07	
8	4.000000e-01	3.735843e-07	
9	4.500000e-01	3.751543e-07	
10	5.000000e-01	3.765842e-07	
11	5.500000e-01	3.779092e-07	
12	6.000000e-01	3.791525e-07	
13	6.500000e-01	3.803305e-07	
14	7.000000e-01	3.814548e-07	
15	7.500000e-01	3.825343e-07	
16	8.000000e-01	3.835760e-07	
17	8.500000e-01	3.845850e-07	
18	9.000000e-01	3.855658e-07	
19	9.500000e-01	3.865218e-07	
20	1.000000e+00	3.874559e-07	
21	1.050000e+00	3.883706e-07	
22	1.100000e+00	3.892678e-07	
23	1.150000e+00	3.901493e-07	
24	1.200000e+00	3.910167e-07	
25	1.250000e+00	3.918711e-07	
26	1.300000e+00	3.927138e-07	
27	1.350000e+00	3.935456e-07	
28	1.400000e+00	3.943676e-07	
29	1.450000e+00	3.951804e-07	
30	1.500000e+00	3.959849e-07	
31	1.550000e+00	3.967817e-07	
32	1.600000e+00	3.975714e-07	
33	1.650000e+00	3.983547e-07	
34	1.700000e+00	3.991322e-07	
35	1.750000e+00	3.999045e-07	
36	1.800000e+00	4.006724e-07	
37	1.850000e+00	4.014366e-07	
38	1.900000e+00	4.021979e-07	
39	1.950000e+00	4.029572e-07	
40	2.000000e+00	4.037155e-07	
41	2.050000e+00	4.044739e-07	
42	2.100000e+00	4.052338e-07	
43	2.150000e+00	4.059964e-07	
44	2.200000e+00	4.067634e-07	
45	2.250000e+00	4.075366e-07	
46	2.300000e+00	4.083180e-07	
47	2.350000e+00	4.091096e-07	
48	2.400000e+00	4.099140e-07	
49	2.450000e+00	4.107337e-07	
50	2.500000e+00	4.115716e-07	
51	2.550000e+00	4.124309e-07	
52	2.600000e+00	4.133148e-07	
53	2.650000e+00	4.142270e-07	
54	2.700000e+00	4.151715e-07	

Index   v-sweep         -i(vds)         
--------------------------------------------------------------------------------
55	2.750000e+00	4.161524e-07	
56	2.800000e+00	4.171742e-07	
57	2.850000e+00	4.182415e-07	
58	2.900000e+00	4.193595e-07	
59	2.950000e+00	4.205335e-07	
60	3.000000e+00	4.217689e-07	
61	3.050000e+00	4.230718e-07	
62	3.100000e+00	4.244483e-07	
63	3.150000e+00	4.259048e-07	
64	3.200000e+00	4.274481e-07	
65	3.250000e+00	4.290852e-07	
66	3.300000e+00	4.308235e-07	
67	0.000000e+00	-0.000000e+00	
68	5.000000e-02	1.299856e-06	
69	1.000000e-01	2.450102e-06	
70	1.500000e-01	3.455972e-06	
71	2.000000e-01	4.322476e-06	
72	2.500000e-01	5.054431e-06	
73	3.000000e-01	5.656527e-06	
74	3.500000e-01	6.133482e-06	
75	4.000000e-01	6.490638e-06	
76	4.500000e-01	6.736324e-06	
77	5.000000e-01	6.888704e-06	
78	5.500000e-01	6.979171e-06	
79	6.000000e-01	7.036743e-06	
80	6.500000e-01	7.077454e-06	
81	7.000000e-01	7.108729e-06	
82	7.500000e-01	7.134163e-06	
83	8.000000e-01	7.155675e-06	
84	8.500000e-01	7.174389e-06	
85	9.000000e-01	7.191014e-06	
86	9.500000e-01	7.206020e-06	
87	1.000000e+00	7.219738e-06	
88	1.050000e+00	7.232407e-06	
89	1.100000e+00	7.244205e-06	
90	1.150000e+00	7.255268e-06	
91	1.200000e+00	7.265704e-06	
92	1.250000e+00	7.275598e-06	
93	1.300000e+00	7.285018e-06	
94	1.350000e+00	7.294023e-06	
95	1.400000e+00	7.302659e-06	
96	1.450000e+00	7.310964e-06	
97	1.500000e+00	7.318974e-06	
98	1.550000e+00	7.326717e-06	
99	1.600000e+00	7.334217e-06	
100	1.650000e+00	7.341497e-06	
101	1.700000e+00	7.348574e-06	
102	1.750000e+00	7.355466e-06	
103	1.800000e+00	7.362188e-06	
104	1.850000e+00	7.368753e-06	
105	1.900000e+00	7.375175e-06	
106	1.950000e+00	7.381466e-06	
107	2.000000e+00	7.387636e-06	
108	2.050000e+00	7.393698e-06	
109	2.100000e+00	7.399664e-06	
110	2.150000e+00	7.405547e-06	
111	2.200000e+00	7.411359e-06	
112	2.250000e+00	7.417116e-06	

Index   v-sweep         -i(vds)         
--------------------------------------------------------------------------------
113	2.300000e+00	7.422834e-06	
114	2.350000e+00	7.428531e-06	
115	2.400000e+00	7.434227e-06	
116	2.450000e+00	7.439946e-06	
117	2.500000e+00	7.445711e-06	
118	2.550000e+00	7.451553e-06	
119	2.600000e+00	7.457502e-06	
120	2.650000e+00	7.463594e-06	
121	2.700000e+00	7.469866e-06	
122	2.750000e+00	7.476362e-06	
123	2.800000e+00	7.483129e-06	
124	2.850000e+00	7.490216e-06	
125	2.900000e+00	7.497679e-06	
126	2.950000e+00	7.505577e-06	
127	3.000000e+00	7.513975e-06	
128	3.050000e+00	7.522940e-06	
129	3.100000e+00	7.532545e-06	
130	3.150000e+00	7.542870e-06	
131	3.200000e+00	7.553995e-06	
132	3.250000e+00	7.566010e-06	
133	3.300000e+00	7.579006e-06	
134	0.000000e+00	-0.000000e+00	
135	5.000000e-02	2.233224e-06	
136	1.000000e-01	4.308332e-06	
137	1.500000e-01	6.230381e-06	
138	2.000000e-01	8.004213e-06	
139	2.500000e-01	9.634463e-06	
140	3.000000e-01	1.112558e-05	
141	3.500000e-01	1.248180e-05	
142	4.000000e-01	1.370722e-05	
143	4.500000e-01	1.480571e-05	
144	5.000000e-01	1.578096e-05	
145	5.500000e-01	1.663643e-05	
146	6.000000e-01	1.737531e-05	
147	6.500000e-01	1.800031e-05	
148	7.000000e-01	1.851358e-05	
149	7.500000e-01	1.891717e-05	
150	8.000000e-01	1.921663e-05	
151	8.500000e-01	1.942817e-05	
152	9.000000e-01	1.957706e-05	
153	9.500000e-01	1.968604e-05	
154	1.000000e+00	1.976998e-05	
155	1.050000e+00	1.983760e-05	
156	1.100000e+00	1.989405e-05	
157	1.150000e+00	1.994248e-05	
158	1.200000e+00	1.998493e-05	
159	1.250000e+00	2.002275e-05	
160	1.300000e+00	2.005691e-05	
161	1.350000e+00	2.008811e-05	
162	1.400000e+00	2.011686e-05	
163	1.450000e+00	2.014355e-05	
164	1.500000e+00	2.016849e-05	
165	1.550000e+00	2.019193e-05	
166	1.600000e+00	2.021407e-05	
167	1.650000e+00	2.023506e-05	
168	1.700000e+00	2.025503e-05	
169	1.750000e+00	2.027411e-05	
170	1.800000e+00	2.029237e-05	

Index   v-sweep         -i(vds)         
--------------------------------------------------------------------------------
171	1.850000e+00	2.030992e-05	
172	1.900000e+00	2.032680e-05	
173	1.950000e+00	2.034309e-05	
174	2.000000e+00	2.035883e-05	
175	2.050000e+00	2.037407e-05	
176	2.100000e+00	2.038885e-05	
177	2.150000e+00	2.040322e-05	
178	2.200000e+00	2.041720e-05	
179	2.250000e+00	2.043082e-05	
180	2.300000e+00	2.044413e-05	
181	2.350000e+00	2.045714e-05	
182	2.400000e+00	2.046990e-05	
183	2.450000e+00	2.048243e-05	
184	2.500000e+00	2.049478e-05	
185	2.550000e+00	2.050697e-05	
186	2.600000e+00	2.051907e-05	
187	2.650000e+00	2.053110e-05	
188	2.700000e+00	2.054313e-05	
189	2.750000e+00	2.055522e-05	
190	2.800000e+00	2.056744e-05	
191	2.850000e+00	2.057986e-05	
192	2.900000e+00	2.059256e-05	
193	2.950000e+00	2.060565e-05	
194	3.000000e+00	2.061922e-05	
195	3.050000e+00	2.063339e-05	
196	3.100000e+00	2.064828e-05	
197	3.150000e+00	2.066404e-05	
198	3.200000e+00	2.068080e-05	
199	3.250000e+00	2.069874e-05	
200	3.300000e+00	2.071801e-05	
201	0.000000e+00	-0.000000e+00	
202	5.000000e-02	2.979939e-06	
203	1.000000e-01	5.802081e-06	
204	1.500000e-01	8.471050e-06	
205	2.000000e-01	1.099129e-05	
206	2.500000e-01	1.336708e-05	
207	3.000000e-01	1.560253e-05	
208	3.500000e-01	1.770159e-05	
209	4.000000e-01	1.966806e-05	
210	4.500000e-01	2.150559e-05	
211	5.000000e-01	2.321771e-05	
212	5.500000e-01	2.480777e-05	
213	6.000000e-01	2.627902e-05	
214	6.500000e-01	2.763453e-05	
215	7.000000e-01	2.887722e-05	
216	7.500000e-01	3.000978e-05	
217	8.000000e-01	3.103464e-05	
218	8.500000e-01	3.195379e-05	
219	9.000000e-01	3.276846e-05	
220	9.500000e-01	3.347864e-05	
221	1.000000e+00	3.408244e-05	
222	1.050000e+00	3.457685e-05	
223	1.100000e+00	3.496289e-05	
224	1.150000e+00	3.525325e-05	
225	1.200000e+00	3.547049e-05	
226	1.250000e+00	3.563684e-05	
227	1.300000e+00	3.576867e-05	
228	1.350000e+00	3.587666e-05	

Index   v-sweep         -i(vds)         
--------------------------------------------------------------------------------
229	1.400000e+00	3.596765e-05	
230	1.450000e+00	3.604609e-05	
231	1.500000e+00	3.611500e-05	
232	1.550000e+00	3.617644e-05	
233	1.600000e+00	3.623190e-05	
234	1.650000e+00	3.628249e-05	
235	1.700000e+00	3.632903e-05	
236	1.750000e+00	3.637216e-05	
237	1.800000e+00	3.641238e-05	
238	1.850000e+00	3.645009e-05	
239	1.900000e+00	3.648561e-05	
240	1.950000e+00	3.651922e-05	
241	2.000000e+00	3.655113e-05	
242	2.050000e+00	3.658152e-05	
243	2.100000e+00	3.661056e-05	
244	2.150000e+00	3.663837e-05	
245	2.200000e+00	3.666508e-05	
246	2.250000e+00	3.669079e-05	
247	2.300000e+00	3.671557e-05	
248	2.350000e+00	3.673951e-05	
249	2.400000e+00	3.676269e-05	
250	2.450000e+00	3.678515e-05	
251	2.500000e+00	3.680697e-05	
252	2.550000e+00	3.682820e-05	
253	2.600000e+00	3.684890e-05	
254	2.650000e+00	3.686911e-05	
255	2.700000e+00	3.688891e-05	
256	2.750000e+00	3.690834e-05	
257	2.800000e+00	3.692747e-05	
258	2.850000e+00	3.694638e-05	
259	2.900000e+00	3.696515e-05	
260	2.950000e+00	3.698386e-05	
261	3.000000e+00	3.700262e-05	
262	3.050000e+00	3.702153e-05	
263	3.100000e+00	3.704073e-05	
264	3.150000e+00	3.706035e-05	
265	3.200000e+00	3.708055e-05	
266	3.250000e+00	3.710150e-05	
267	3.300000e+00	3.712341e-05	
268	0.000000e+00	-0.000000e+00	
269	5.000000e-02	3.557745e-06	
270	1.000000e-01	6.963185e-06	
271	1.500000e-01	1.022040e-05	
272	2.000000e-01	1.333333e-05	
273	2.500000e-01	1.630577e-05	
274	3.000000e-01	1.914139e-05	
275	3.500000e-01	2.184372e-05	
276	4.000000e-01	2.441618e-05	
277	4.500000e-01	2.686206e-05	
278	5.000000e-01	2.918456e-05	
279	5.500000e-01	3.138674e-05	
280	6.000000e-01	3.347157e-05	
281	6.500000e-01	3.544192e-05	
282	7.000000e-01	3.730054e-05	
283	7.500000e-01	3.905009e-05	
284	8.000000e-01	4.069311e-05	
285	8.500000e-01	4.223204e-05	
286	9.000000e-01	4.366916e-05	

Index   v-sweep         -i(vds)         
--------------------------------------------------------------------------------
287	9.500000e-01	4.500661e-05	
288	1.000000e+00	4.624630e-05	
289	1.050000e+00	4.738981e-05	
290	1.100000e+00	4.843821e-05	
291	1.150000e+00	4.939169e-05	
292	1.200000e+00	5.024896e-05	
293	1.250000e+00	5.100643e-05	
294	1.300000e+00	5.165793e-05	
295	1.350000e+00	5.219750e-05	
296	1.400000e+00	5.262683e-05	
297	1.450000e+00	5.296024e-05	
298	1.500000e+00	5.321950e-05	
299	1.550000e+00	5.342509e-05	
300	1.600000e+00	5.359246e-05	
301	1.650000e+00	5.373227e-05	
302	1.700000e+00	5.385171e-05	
303	1.750000e+00	5.395570e-05	
304	1.800000e+00	5.404768e-05	
305	1.850000e+00	5.413010e-05	
306	1.900000e+00	5.420477e-05	
307	1.950000e+00	5.427304e-05	
308	2.000000e+00	5.433596e-05	
309	2.050000e+00	5.439433e-05	
310	2.100000e+00	5.444880e-05	
311	2.150000e+00	5.449989e-05	
312	2.200000e+00	5.454802e-05	
313	2.250000e+00	5.459354e-05	
314	2.300000e+00	5.463675e-05	
315	2.350000e+00	5.467789e-05	
316	2.400000e+00	5.471717e-05	
317	2.450000e+00	5.475477e-05	
318	2.500000e+00	5.479085e-05	
319	2.550000e+00	5.482555e-05	
320	2.600000e+00	5.485898e-05	
321	2.650000e+00	5.489125e-05	
322	2.700000e+00	5.492246e-05	
323	2.750000e+00	5.495269e-05	
324	2.800000e+00	5.498204e-05	
325	2.850000e+00	5.501058e-05	
326	2.900000e+00	5.503839e-05	
327	2.950000e+00	5.506556e-05	
328	3.000000e+00	5.509216e-05	
329	3.050000e+00	5.511830e-05	
330	3.100000e+00	5.514408e-05	
331	3.150000e+00	5.516960e-05	
332	3.200000e+00	5.519499e-05	
333	3.250000e+00	5.522040e-05	
334	3.300000e+00	5.524597e-05	
335	0.000000e+00	-0.000000e+00	
336	5.000000e-02	3.991098e-06	
337	1.000000e-01	7.838438e-06	
338	1.500000e-01	1.154554e-05	
339	2.000000e-01	1.511580e-05	
340	2.500000e-01	1.855252e-05	
341	3.000000e-01	2.185889e-05	
342	3.500000e-01	2.503798e-05	
343	4.000000e-01	2.809280e-05	
344	4.500000e-01	3.102624e-05	

Index   v-sweep         -i(vds)         
--------------------------------------------------------------------------------
345	5.000000e-01	3.384111e-05	
346	5.500000e-01	3.654012e-05	
347	6.000000e-01	3.912590e-05	
348	6.500000e-01	4.160102e-05	
349	7.000000e-01	4.396794e-05	
350	7.500000e-01	4.622905e-05	
351	8.000000e-01	4.838669e-05	
352	8.500000e-01	5.044309e-05	
353	9.000000e-01	5.240042e-05	
354	9.500000e-01	5.426078e-05	
355	1.000000e+00	5.602617e-05	
356	1.050000e+00	5.769852e-05	
357	1.100000e+00	5.927964e-05	
358	1.150000e+00	6.077125e-05	
359	1.200000e+00	6.217487e-05	
360	1.250000e+00	6.349182e-05	
361	1.300000e+00	6.472309e-05	
362	1.350000e+00	6.586913e-05	
363	1.400000e+00	6.692952e-05	
364	1.450000e+00	6.790240e-05	
365	1.500000e+00	6.878367e-05	
366	1.550000e+00	6.956628e-05	
367	1.600000e+00	7.024138e-05	
368	1.650000e+00	7.080330e-05	
369	1.700000e+00	7.125668e-05	
370	1.750000e+00	7.161738e-05	
371	1.800000e+00	7.190587e-05	
372	1.850000e+00	7.214064e-05	
373	1.900000e+00	7.233579e-05	
374	1.950000e+00	7.250144e-05	
375	2.000000e+00	7.264469e-05	
376	2.050000e+00	7.277055e-05	
377	2.100000e+00	7.288264e-05	
378	2.150000e+00	7.298361e-05	
379	2.200000e+00	7.307546e-05	
380	2.250000e+00	7.315970e-05	
381	2.300000e+00	7.323751e-05	
382	2.350000e+00	7.330984e-05	
383	2.400000e+00	7.337742e-05	
384	2.450000e+00	7.344088e-05	
385	2.500000e+00	7.350070e-05	
386	2.550000e+00	7.355732e-05	
387	2.600000e+00	7.361108e-05	
388	2.650000e+00	7.366228e-05	
389	2.700000e+00	7.371117e-05	
390	2.750000e+00	7.375797e-05	
391	2.800000e+00	7.380287e-05	
392	2.850000e+00	7.384604e-05	
393	2.900000e+00	7.388762e-05	
394	2.950000e+00	7.392776e-05	
395	3.000000e+00	7.396657e-05	
396	3.050000e+00	7.400416e-05	
397	3.100000e+00	7.404065e-05	
398	3.150000e+00	7.407613e-05	
399	3.200000e+00	7.411073e-05	
400	3.250000e+00	7.414454e-05	
401	3.300000e+00	7.417768e-05	
Note: No ".plot", ".print", or ".fourier" lines; no simulations run
