
Note: Compatibility modes selected: hs

Warning: m=xx on .subckt line will override multiplier m hierarchy!


Circuit: ***************************

Doing analysis at TEMP = 25.000000 and TNOM = 25.000000


No. of Data Rows : 402
                          ***************************
                          DC transfer characteristic  Mon Jan  9 13:57:17  2023
--------------------------------------------------------------------------------
Index   v-sweep         -i(vds)         
--------------------------------------------------------------------------------
0	0.000000e+00	-0.000000e+00	
1	5.000000e-02	1.127082e-06	
2	1.000000e-01	1.951233e-06	
3	1.500000e-01	2.510611e-06	
4	2.000000e-01	2.859059e-06	
5	2.500000e-01	3.070909e-06	
6	3.000000e-01	3.212983e-06	
7	3.500000e-01	3.322014e-06	
8	4.000000e-01	3.413977e-06	
9	4.500000e-01	3.495993e-06	
10	5.000000e-01	3.571627e-06	
11	5.500000e-01	3.642873e-06	
12	6.000000e-01	3.710950e-06	
13	6.500000e-01	3.776656e-06	
14	7.000000e-01	3.840541e-06	
15	7.500000e-01	3.902998e-06	
16	8.000000e-01	3.964319e-06	
17	8.500000e-01	4.024726e-06	
18	9.000000e-01	4.084393e-06	
19	9.500000e-01	4.143456e-06	
20	1.000000e+00	4.202026e-06	
21	1.050000e+00	4.260193e-06	
22	1.100000e+00	4.318033e-06	
23	1.150000e+00	4.375606e-06	
24	1.200000e+00	4.432965e-06	
25	1.250000e+00	4.490156e-06	
26	1.300000e+00	4.547217e-06	
27	1.350000e+00	4.604180e-06	
28	1.400000e+00	4.661074e-06	
29	1.450000e+00	4.717925e-06	
30	1.500000e+00	4.774754e-06	
31	1.550000e+00	4.831581e-06	
32	1.600000e+00	4.888424e-06	
33	1.650000e+00	4.945299e-06	
34	1.700000e+00	5.002221e-06	
35	1.750000e+00	5.059204e-06	
36	1.800000e+00	5.116261e-06	
37	1.850000e+00	5.173406e-06	
38	1.900000e+00	5.230653e-06	
39	1.950000e+00	5.288017e-06	
40	2.000000e+00	5.345512e-06	
41	2.050000e+00	5.403155e-06	
42	2.100000e+00	5.460966e-06	
43	2.150000e+00	5.518965e-06	
44	2.200000e+00	5.577175e-06	
45	2.250000e+00	5.635625e-06	
46	2.300000e+00	5.694344e-06	
47	2.350000e+00	5.753367e-06	
48	2.400000e+00	5.812735e-06	
49	2.450000e+00	5.872492e-06	
50	2.500000e+00	5.932688e-06	
51	2.550000e+00	5.993382e-06	
52	2.600000e+00	6.054637e-06	
53	2.650000e+00	6.116526e-06	
54	2.700000e+00	6.179130e-06	

Index   v-sweep         -i(vds)         
--------------------------------------------------------------------------------
55	2.750000e+00	6.242537e-06	
56	2.800000e+00	6.306847e-06	
57	2.850000e+00	6.372170e-06	
58	2.900000e+00	6.438627e-06	
59	2.950000e+00	6.506348e-06	
60	3.000000e+00	6.575480e-06	
61	3.050000e+00	6.646180e-06	
62	3.100000e+00	6.718621e-06	
63	3.150000e+00	6.792988e-06	
64	3.200000e+00	6.869483e-06	
65	3.250000e+00	6.948323e-06	
66	3.300000e+00	7.029744e-06	
67	0.000000e+00	-0.000000e+00	
68	5.000000e-02	3.639121e-06	
69	1.000000e-01	6.855946e-06	
70	1.500000e-01	9.681082e-06	
71	2.000000e-01	1.214234e-05	
72	2.500000e-01	1.426513e-05	
73	3.000000e-01	1.607282e-05	
74	3.500000e-01	1.758737e-05	
75	4.000000e-01	1.883059e-05	
76	4.500000e-01	1.982717e-05	
77	5.000000e-01	2.060980e-05	
78	5.500000e-01	2.122114e-05	
79	6.000000e-01	2.170653e-05	
80	6.500000e-01	2.210389e-05	
81	7.000000e-01	2.244018e-05	
82	7.500000e-01	2.273325e-05	
83	8.000000e-01	2.299481e-05	
84	8.500000e-01	2.323271e-05	
85	9.000000e-01	2.345232e-05	
86	9.500000e-01	2.365745e-05	
87	1.000000e+00	2.385090e-05	
88	1.050000e+00	2.403473e-05	
89	1.100000e+00	2.421052e-05	
90	1.150000e+00	2.437952e-05	
91	1.200000e+00	2.454271e-05	
92	1.250000e+00	2.470086e-05	
93	1.300000e+00	2.485463e-05	
94	1.350000e+00	2.500455e-05	
95	1.400000e+00	2.515106e-05	
96	1.450000e+00	2.529454e-05	
97	1.500000e+00	2.543530e-05	
98	1.550000e+00	2.557361e-05	
99	1.600000e+00	2.570972e-05	
100	1.650000e+00	2.584382e-05	
101	1.700000e+00	2.597610e-05	
102	1.750000e+00	2.610671e-05	
103	1.800000e+00	2.623579e-05	
104	1.850000e+00	2.636347e-05	
105	1.900000e+00	2.648987e-05	
106	1.950000e+00	2.661509e-05	
107	2.000000e+00	2.673922e-05	
108	2.050000e+00	2.686236e-05	
109	2.100000e+00	2.698460e-05	
110	2.150000e+00	2.710603e-05	
111	2.200000e+00	2.722673e-05	
112	2.250000e+00	2.734679e-05	

Index   v-sweep         -i(vds)         
--------------------------------------------------------------------------------
113	2.300000e+00	2.746632e-05	
114	2.350000e+00	2.758541e-05	
115	2.400000e+00	2.770418e-05	
116	2.450000e+00	2.782275e-05	
117	2.500000e+00	2.794125e-05	
118	2.550000e+00	2.805983e-05	
119	2.600000e+00	2.817866e-05	
120	2.650000e+00	2.829792e-05	
121	2.700000e+00	2.841782e-05	
122	2.750000e+00	2.853858e-05	
123	2.800000e+00	2.866047e-05	
124	2.850000e+00	2.878376e-05	
125	2.900000e+00	2.890876e-05	
126	2.950000e+00	2.903581e-05	
127	3.000000e+00	2.916531e-05	
128	3.050000e+00	2.929765e-05	
129	3.100000e+00	2.943328e-05	
130	3.150000e+00	2.957271e-05	
131	3.200000e+00	2.971647e-05	
132	3.250000e+00	2.986514e-05	
133	3.300000e+00	3.001933e-05	
134	0.000000e+00	-0.000000e+00	
135	5.000000e-02	5.506173e-06	
136	1.000000e-01	1.056026e-05	
137	1.500000e-01	1.519037e-05	
138	2.000000e-01	1.942231e-05	
139	2.500000e-01	2.327975e-05	
140	3.000000e-01	2.678442e-05	
141	3.500000e-01	2.995618e-05	
142	4.000000e-01	3.281307e-05	
143	4.500000e-01	3.537125e-05	
144	5.000000e-01	3.764477e-05	
145	5.500000e-01	3.964530e-05	
146	6.000000e-01	4.138226e-05	
147	6.500000e-01	4.286454e-05	
148	7.000000e-01	4.410553e-05	
149	7.500000e-01	4.512932e-05	
150	8.000000e-01	4.597117e-05	
151	8.500000e-01	4.667016e-05	
152	9.000000e-01	4.726102e-05	
153	9.500000e-01	4.777084e-05	
154	1.000000e+00	4.821944e-05	
155	1.050000e+00	4.862101e-05	
156	1.100000e+00	4.898579e-05	
157	1.150000e+00	4.932122e-05	
158	1.200000e+00	4.963283e-05	
159	1.250000e+00	4.992480e-05	
160	1.300000e+00	5.020034e-05	
161	1.350000e+00	5.046196e-05	
162	1.400000e+00	5.071167e-05	
163	1.450000e+00	5.095107e-05	
164	1.500000e+00	5.118147e-05	
165	1.550000e+00	5.140398e-05	
166	1.600000e+00	5.161948e-05	
167	1.650000e+00	5.182874e-05	
168	1.700000e+00	5.203241e-05	
169	1.750000e+00	5.223104e-05	
170	1.800000e+00	5.242512e-05	

Index   v-sweep         -i(vds)         
--------------------------------------------------------------------------------
171	1.850000e+00	5.261505e-05	
172	1.900000e+00	5.280120e-05	
173	1.950000e+00	5.298388e-05	
174	2.000000e+00	5.316339e-05	
175	2.050000e+00	5.333998e-05	
176	2.100000e+00	5.351387e-05	
177	2.150000e+00	5.368528e-05	
178	2.200000e+00	5.385440e-05	
179	2.250000e+00	5.402142e-05	
180	2.300000e+00	5.418651e-05	
181	2.350000e+00	5.434985e-05	
182	2.400000e+00	5.451161e-05	
183	2.450000e+00	5.467197e-05	
184	2.500000e+00	5.483113e-05	
185	2.550000e+00	5.498928e-05	
186	2.600000e+00	5.514663e-05	
187	2.650000e+00	5.530344e-05	
188	2.700000e+00	5.545994e-05	
189	2.750000e+00	5.561644e-05	
190	2.800000e+00	5.577325e-05	
191	2.850000e+00	5.593073e-05	
192	2.900000e+00	5.608927e-05	
193	2.950000e+00	5.624931e-05	
194	3.000000e+00	5.641132e-05	
195	3.050000e+00	5.657585e-05	
196	3.100000e+00	5.674350e-05	
197	3.150000e+00	5.691490e-05	
198	3.200000e+00	5.709077e-05	
199	3.250000e+00	5.727189e-05	
200	3.300000e+00	5.745912e-05	
201	0.000000e+00	-0.000000e+00	
202	5.000000e-02	6.920868e-06	
203	1.000000e-01	1.338746e-05	
204	1.500000e-01	1.942467e-05	
205	2.000000e-01	2.505561e-05	
206	2.500000e-01	3.030170e-05	
207	3.000000e-01	3.518281e-05	
208	3.500000e-01	3.971737e-05	
209	4.000000e-01	4.392244e-05	
210	4.500000e-01	4.781374e-05	
211	5.000000e-01	5.140561e-05	
212	5.500000e-01	5.471091e-05	
213	6.000000e-01	5.774079e-05	
214	6.500000e-01	6.050427e-05	
215	7.000000e-01	6.300770e-05	
216	7.500000e-01	6.525419e-05	
217	8.000000e-01	6.724402e-05	
218	8.500000e-01	6.897756e-05	
219	9.000000e-01	7.046142e-05	
220	9.500000e-01	7.171463e-05	
221	1.000000e+00	7.276845e-05	
222	1.050000e+00	7.365949e-05	
223	1.100000e+00	7.442224e-05	
224	1.150000e+00	7.508520e-05	
225	1.200000e+00	7.567045e-05	
226	1.250000e+00	7.619455e-05	
227	1.300000e+00	7.666988e-05	
228	1.350000e+00	7.710574e-05	

Index   v-sweep         -i(vds)         
--------------------------------------------------------------------------------
229	1.400000e+00	7.750920e-05	
230	1.450000e+00	7.788570e-05	
231	1.500000e+00	7.823948e-05	
232	1.550000e+00	7.857391e-05	
233	1.600000e+00	7.889168e-05	
234	1.650000e+00	7.919499e-05	
235	1.700000e+00	7.948563e-05	
236	1.750000e+00	7.976511e-05	
237	1.800000e+00	8.003468e-05	
238	1.850000e+00	8.029539e-05	
239	1.900000e+00	8.054814e-05	
240	1.950000e+00	8.079372e-05	
241	2.000000e+00	8.103279e-05	
242	2.050000e+00	8.126593e-05	
243	2.100000e+00	8.149366e-05	
244	2.150000e+00	8.171642e-05	
245	2.200000e+00	8.193463e-05	
246	2.250000e+00	8.214863e-05	
247	2.300000e+00	8.235877e-05	
248	2.350000e+00	8.256533e-05	
249	2.400000e+00	8.276860e-05	
250	2.450000e+00	8.296886e-05	
251	2.500000e+00	8.316635e-05	
252	2.550000e+00	8.336135e-05	
253	2.600000e+00	8.355410e-05	
254	2.650000e+00	8.374489e-05	
255	2.700000e+00	8.393400e-05	
256	2.750000e+00	8.412174e-05	
257	2.800000e+00	8.430845e-05	
258	2.850000e+00	8.449448e-05	
259	2.900000e+00	8.468024e-05	
260	2.950000e+00	8.486619e-05	
261	3.000000e+00	8.505281e-05	
262	3.050000e+00	8.524067e-05	
263	3.100000e+00	8.543037e-05	
264	3.150000e+00	8.562260e-05	
265	3.200000e+00	8.581811e-05	
266	3.250000e+00	8.601773e-05	
267	3.300000e+00	8.622237e-05	
268	0.000000e+00	-0.000000e+00	
269	5.000000e-02	8.025388e-06	
270	1.000000e-01	1.560618e-05	
271	1.500000e-01	2.276420e-05	
272	2.000000e-01	2.951985e-05	
273	2.500000e-01	3.589221e-05	
274	3.000000e-01	4.189914e-05	
275	3.500000e-01	4.755735e-05	
276	4.000000e-01	5.288249e-05	
277	4.500000e-01	5.788917e-05	
278	5.000000e-01	6.259101e-05	
279	5.500000e-01	6.700061e-05	
280	6.000000e-01	7.112956e-05	
281	6.500000e-01	7.498833e-05	
282	7.000000e-01	7.858605e-05	
283	7.500000e-01	8.193024e-05	
284	8.000000e-01	8.502631e-05	
285	8.500000e-01	8.787688e-05	
286	9.000000e-01	9.048112e-05	

Index   v-sweep         -i(vds)         
--------------------------------------------------------------------------------
287	9.500000e-01	9.283475e-05	
288	1.000000e+00	9.493186e-05	
289	1.050000e+00	9.676991e-05	
290	1.100000e+00	9.835643e-05	
291	1.150000e+00	9.971252e-05	
292	1.200000e+00	1.008697e-04	
293	1.250000e+00	1.018629e-04	
294	1.300000e+00	1.027243e-04	
295	1.350000e+00	1.034810e-04	
296	1.400000e+00	1.041542e-04	
297	1.450000e+00	1.047604e-04	
298	1.500000e+00	1.053122e-04	
299	1.550000e+00	1.058193e-04	
300	1.600000e+00	1.062892e-04	
301	1.650000e+00	1.067279e-04	
302	1.700000e+00	1.071400e-04	
303	1.750000e+00	1.075293e-04	
304	1.800000e+00	1.078988e-04	
305	1.850000e+00	1.082510e-04	
306	1.900000e+00	1.085881e-04	
307	1.950000e+00	1.089117e-04	
308	2.000000e+00	1.092233e-04	
309	2.050000e+00	1.095241e-04	
310	2.100000e+00	1.098152e-04	
311	2.150000e+00	1.100976e-04	
312	2.200000e+00	1.103720e-04	
313	2.250000e+00	1.106392e-04	
314	2.300000e+00	1.108997e-04	
315	2.350000e+00	1.111540e-04	
316	2.400000e+00	1.114028e-04	
317	2.450000e+00	1.116463e-04	
318	2.500000e+00	1.118851e-04	
319	2.550000e+00	1.121195e-04	
320	2.600000e+00	1.123498e-04	
321	2.650000e+00	1.125765e-04	
322	2.700000e+00	1.127997e-04	
323	2.750000e+00	1.130200e-04	
324	2.800000e+00	1.132376e-04	
325	2.850000e+00	1.134528e-04	
326	2.900000e+00	1.136662e-04	
327	2.950000e+00	1.138781e-04	
328	3.000000e+00	1.140890e-04	
329	3.050000e+00	1.142994e-04	
330	3.100000e+00	1.145099e-04	
331	3.150000e+00	1.147211e-04	
332	3.200000e+00	1.149337e-04	
333	3.250000e+00	1.151486e-04	
334	3.300000e+00	1.153665e-04	
335	0.000000e+00	-0.000000e+00	
336	5.000000e-02	8.908805e-06	
337	1.000000e-01	1.738793e-05	
338	1.500000e-01	2.545649e-05	
339	2.000000e-01	3.313244e-05	
340	2.500000e-01	4.043271e-05	
341	3.000000e-01	4.737325e-05	
342	3.500000e-01	5.396907e-05	
343	4.000000e-01	6.023435e-05	
344	4.500000e-01	6.618241e-05	

Index   v-sweep         -i(vds)         
--------------------------------------------------------------------------------
345	5.000000e-01	7.182584e-05	
346	5.500000e-01	7.717642e-05	
347	6.000000e-01	8.224521e-05	
348	6.500000e-01	8.704253e-05	
349	7.000000e-01	9.157786e-05	
350	7.500000e-01	9.585985e-05	
351	8.000000e-01	9.989612e-05	
352	8.500000e-01	1.036930e-04	
353	9.000000e-01	1.072554e-04	
354	9.500000e-01	1.105858e-04	
355	1.000000e+00	1.136841e-04	
356	1.050000e+00	1.165467e-04	
357	1.100000e+00	1.191663e-04	
358	1.150000e+00	1.215334e-04	
359	1.200000e+00	1.236405e-04	
360	1.250000e+00	1.254882e-04	
361	1.300000e+00	1.270897e-04	
362	1.350000e+00	1.284705e-04	
363	1.400000e+00	1.296630e-04	
364	1.450000e+00	1.306997e-04	
365	1.500000e+00	1.316100e-04	
366	1.550000e+00	1.324180e-04	
367	1.600000e+00	1.331433e-04	
368	1.650000e+00	1.338008e-04	
369	1.700000e+00	1.344026e-04	
370	1.750000e+00	1.349580e-04	
371	1.800000e+00	1.354742e-04	
372	1.850000e+00	1.359571e-04	
373	1.900000e+00	1.364116e-04	
374	1.950000e+00	1.368413e-04	
375	2.000000e+00	1.372494e-04	
376	2.050000e+00	1.376386e-04	
377	2.100000e+00	1.380110e-04	
378	2.150000e+00	1.383685e-04	
379	2.200000e+00	1.387126e-04	
380	2.250000e+00	1.390447e-04	
381	2.300000e+00	1.393660e-04	
382	2.350000e+00	1.396773e-04	
383	2.400000e+00	1.399796e-04	
384	2.450000e+00	1.402737e-04	
385	2.500000e+00	1.405603e-04	
386	2.550000e+00	1.408399e-04	
387	2.600000e+00	1.411131e-04	
388	2.650000e+00	1.413804e-04	
389	2.700000e+00	1.416423e-04	
390	2.750000e+00	1.418992e-04	
391	2.800000e+00	1.421515e-04	
392	2.850000e+00	1.423997e-04	
393	2.900000e+00	1.426441e-04	
394	2.950000e+00	1.428852e-04	
395	3.000000e+00	1.431235e-04	
396	3.050000e+00	1.433593e-04	
397	3.100000e+00	1.435933e-04	
398	3.150000e+00	1.438260e-04	
399	3.200000e+00	1.440581e-04	
400	3.250000e+00	1.442901e-04	
401	3.300000e+00	1.445230e-04	
Note: No ".plot", ".print", or ".fourier" lines; no simulations run
