
Note: Compatibility modes selected: hs

Warning: m=xx on .subckt line will override multiplier m hierarchy!


Circuit: ***************************

Doing analysis at TEMP = 25.000000 and TNOM = 25.000000


No. of Data Rows : 402
                          ***************************
                          DC transfer characteristic  Mon Jan  9 13:57:17  2023
--------------------------------------------------------------------------------
Index   v-sweep         -i(vds)         
--------------------------------------------------------------------------------
0	0.000000e+00	-0.000000e+00	
1	5.000000e-02	2.033918e-06	
2	1.000000e-01	3.192072e-06	
3	1.500000e-01	3.574324e-06	
4	2.000000e-01	3.624169e-06	
5	2.500000e-01	3.634904e-06	
6	3.000000e-01	3.640548e-06	
7	3.500000e-01	3.644733e-06	
8	4.000000e-01	3.648273e-06	
9	4.500000e-01	3.651454e-06	
10	5.000000e-01	3.654404e-06	
11	5.500000e-01	3.657195e-06	
12	6.000000e-01	3.659866e-06	
13	6.500000e-01	3.662446e-06	
14	7.000000e-01	3.664953e-06	
15	7.500000e-01	3.667401e-06	
16	8.000000e-01	3.669798e-06	
17	8.500000e-01	3.672154e-06	
18	9.000000e-01	3.674474e-06	
19	9.500000e-01	3.676762e-06	
20	1.000000e+00	3.679022e-06	
21	1.050000e+00	3.681259e-06	
22	1.100000e+00	3.683474e-06	
23	1.150000e+00	3.685669e-06	
24	1.200000e+00	3.687847e-06	
25	1.250000e+00	3.690010e-06	
26	1.300000e+00	3.692157e-06	
27	1.350000e+00	3.694292e-06	
28	1.400000e+00	3.696415e-06	
29	1.450000e+00	3.698527e-06	
30	1.500000e+00	3.700629e-06	
31	1.550000e+00	3.702722e-06	
32	1.600000e+00	3.704808e-06	
33	1.650000e+00	3.706887e-06	
34	1.700000e+00	3.708963e-06	
35	1.750000e+00	3.711036e-06	
36	1.800000e+00	3.713109e-06	
37	1.850000e+00	3.715186e-06	
38	1.900000e+00	3.717271e-06	
39	1.950000e+00	3.719371e-06	
40	2.000000e+00	3.721490e-06	
41	2.050000e+00	3.723639e-06	
42	2.100000e+00	3.725826e-06	
43	2.150000e+00	3.728064e-06	
44	2.200000e+00	3.730368e-06	
45	2.250000e+00	3.732754e-06	
46	2.300000e+00	3.735242e-06	
47	2.350000e+00	3.737853e-06	
48	2.400000e+00	3.740615e-06	
49	2.450000e+00	3.743554e-06	
50	2.500000e+00	3.746705e-06	
51	2.550000e+00	3.750102e-06	
52	2.600000e+00	3.753785e-06	
53	2.650000e+00	3.757798e-06	
54	2.700000e+00	3.762189e-06	

Index   v-sweep         -i(vds)         
--------------------------------------------------------------------------------
55	2.750000e+00	3.767008e-06	
56	2.800000e+00	3.772311e-06	
57	2.850000e+00	3.778159e-06	
58	2.900000e+00	3.784615e-06	
59	2.950000e+00	3.791746e-06	
60	3.000000e+00	3.799624e-06	
61	3.050000e+00	3.808326e-06	
62	3.100000e+00	3.817931e-06	
63	3.150000e+00	3.828524e-06	
64	3.200000e+00	3.840190e-06	
65	3.250000e+00	3.853021e-06	
66	3.300000e+00	3.867112e-06	
67	0.000000e+00	-0.000000e+00	
68	5.000000e-02	9.796539e-06	
69	1.000000e-01	1.855284e-05	
70	1.500000e-01	2.627443e-05	
71	2.000000e-01	3.296687e-05	
72	2.500000e-01	3.863589e-05	
73	3.000000e-01	4.328762e-05	
74	3.500000e-01	4.692952e-05	
75	4.000000e-01	4.957358e-05	
76	4.500000e-01	5.125176e-05	
77	5.000000e-01	5.208574e-05	
78	5.500000e-01	5.239945e-05	
79	6.000000e-01	5.252380e-05	
80	6.500000e-01	5.259072e-05	
81	7.000000e-01	5.263606e-05	
82	7.500000e-01	5.267102e-05	
83	8.000000e-01	5.270005e-05	
84	8.500000e-01	5.272526e-05	
85	9.000000e-01	5.274783e-05	
86	9.500000e-01	5.276845e-05	
87	1.000000e+00	5.278758e-05	
88	1.050000e+00	5.280553e-05	
89	1.100000e+00	5.282253e-05	
90	1.150000e+00	5.283873e-05	
91	1.200000e+00	5.285427e-05	
92	1.250000e+00	5.286924e-05	
93	1.300000e+00	5.288372e-05	
94	1.350000e+00	5.289777e-05	
95	1.400000e+00	5.291144e-05	
96	1.450000e+00	5.292478e-05	
97	1.500000e+00	5.293782e-05	
98	1.550000e+00	5.295059e-05	
99	1.600000e+00	5.296311e-05	
100	1.650000e+00	5.297542e-05	
101	1.700000e+00	5.298753e-05	
102	1.750000e+00	5.299945e-05	
103	1.800000e+00	5.301121e-05	
104	1.850000e+00	5.302282e-05	
105	1.900000e+00	5.303429e-05	
106	1.950000e+00	5.304564e-05	
107	2.000000e+00	5.305690e-05	
108	2.050000e+00	5.306809e-05	
109	2.100000e+00	5.307923e-05	
110	2.150000e+00	5.309037e-05	
111	2.200000e+00	5.310155e-05	
112	2.250000e+00	5.311283e-05	

Index   v-sweep         -i(vds)         
--------------------------------------------------------------------------------
113	2.300000e+00	5.312429e-05	
114	2.350000e+00	5.313602e-05	
115	2.400000e+00	5.314814e-05	
116	2.450000e+00	5.316078e-05	
117	2.500000e+00	5.317411e-05	
118	2.550000e+00	5.318833e-05	
119	2.600000e+00	5.320367e-05	
120	2.650000e+00	5.322041e-05	
121	2.700000e+00	5.323884e-05	
122	2.750000e+00	5.325934e-05	
123	2.800000e+00	5.328228e-05	
124	2.850000e+00	5.330814e-05	
125	2.900000e+00	5.333739e-05	
126	2.950000e+00	5.337060e-05	
127	3.000000e+00	5.340836e-05	
128	3.050000e+00	5.345134e-05	
129	3.100000e+00	5.350026e-05	
130	3.150000e+00	5.355588e-05	
131	3.200000e+00	5.361904e-05	
132	3.250000e+00	5.369063e-05	
133	3.300000e+00	5.377158e-05	
134	0.000000e+00	-0.000000e+00	
135	5.000000e-02	1.675259e-05	
136	1.000000e-01	3.251639e-05	
137	1.500000e-01	4.729626e-05	
138	2.000000e-01	6.109702e-05	
139	2.500000e-01	7.392346e-05	
140	3.000000e-01	8.578035e-05	
141	3.500000e-01	9.667245e-05	
142	4.000000e-01	1.066045e-04	
143	4.500000e-01	1.155812e-04	
144	5.000000e-01	1.236073e-04	
145	5.500000e-01	1.306877e-04	
146	6.000000e-01	1.368274e-04	
147	6.500000e-01	1.420318e-04	
148	7.000000e-01	1.463072e-04	
149	7.500000e-01	1.496632e-04	
150	8.000000e-01	1.521187e-04	
151	8.500000e-01	1.537260e-04	
152	9.000000e-01	1.546305e-04	
153	9.500000e-01	1.550922e-04	
154	1.000000e+00	1.553440e-04	
155	1.050000e+00	1.555036e-04	
156	1.100000e+00	1.556183e-04	
157	1.150000e+00	1.557081e-04	
158	1.200000e+00	1.557824e-04	
159	1.250000e+00	1.558464e-04	
160	1.300000e+00	1.559030e-04	
161	1.350000e+00	1.559540e-04	
162	1.400000e+00	1.560007e-04	
163	1.450000e+00	1.560440e-04	
164	1.500000e+00	1.560845e-04	
165	1.550000e+00	1.561227e-04	
166	1.600000e+00	1.561589e-04	
167	1.650000e+00	1.561934e-04	
168	1.700000e+00	1.562265e-04	
169	1.750000e+00	1.562583e-04	
170	1.800000e+00	1.562891e-04	

Index   v-sweep         -i(vds)         
--------------------------------------------------------------------------------
171	1.850000e+00	1.563188e-04	
172	1.900000e+00	1.563476e-04	
173	1.950000e+00	1.563757e-04	
174	2.000000e+00	1.564030e-04	
175	2.050000e+00	1.564297e-04	
176	2.100000e+00	1.564558e-04	
177	2.150000e+00	1.564814e-04	
178	2.200000e+00	1.565064e-04	
179	2.250000e+00	1.565311e-04	
180	2.300000e+00	1.565553e-04	
181	2.350000e+00	1.565792e-04	
182	2.400000e+00	1.566028e-04	
183	2.450000e+00	1.566263e-04	
184	2.500000e+00	1.566496e-04	
185	2.550000e+00	1.566729e-04	
186	2.600000e+00	1.566965e-04	
187	2.650000e+00	1.567203e-04	
188	2.700000e+00	1.567448e-04	
189	2.750000e+00	1.567702e-04	
190	2.800000e+00	1.567968e-04	
191	2.850000e+00	1.568251e-04	
192	2.900000e+00	1.568556e-04	
193	2.950000e+00	1.568889e-04	
194	3.000000e+00	1.569257e-04	
195	3.050000e+00	1.569670e-04	
196	3.100000e+00	1.570135e-04	
197	3.150000e+00	1.570664e-04	
198	3.200000e+00	1.571270e-04	
199	3.250000e+00	1.571965e-04	
200	3.300000e+00	1.572765e-04	
201	0.000000e+00	-0.000000e+00	
202	5.000000e-02	2.241330e-05	
203	1.000000e-01	4.392346e-05	
204	1.500000e-01	6.453460e-05	
205	2.000000e-01	8.425082e-05	
206	2.500000e-01	1.030762e-04	
207	3.000000e-01	1.210148e-04	
208	3.500000e-01	1.380706e-04	
209	4.000000e-01	1.542476e-04	
210	4.500000e-01	1.695498e-04	
211	5.000000e-01	1.839812e-04	
212	5.500000e-01	1.975457e-04	
213	6.000000e-01	2.102472e-04	
214	6.500000e-01	2.220896e-04	
215	7.000000e-01	2.330767e-04	
216	7.500000e-01	2.432126e-04	
217	8.000000e-01	2.525009e-04	
218	8.500000e-01	2.609456e-04	
219	9.000000e-01	2.685505e-04	
220	9.500000e-01	2.753196e-04	
221	1.000000e+00	2.812570e-04	
222	1.050000e+00	2.863670e-04	
223	1.100000e+00	2.906550e-04	
224	1.150000e+00	2.941287e-04	
225	1.200000e+00	2.968030e-04	
226	1.250000e+00	2.987153e-04	
227	1.300000e+00	2.999610e-04	
228	1.350000e+00	3.007175e-04	

Index   v-sweep         -i(vds)         
--------------------------------------------------------------------------------
229	1.400000e+00	3.011824e-04	
230	1.450000e+00	3.014914e-04	
231	1.500000e+00	3.017156e-04	
232	1.550000e+00	3.018900e-04	
233	1.600000e+00	3.020327e-04	
234	1.650000e+00	3.021539e-04	
235	1.700000e+00	3.022598e-04	
236	1.750000e+00	3.023541e-04	
237	1.800000e+00	3.024395e-04	
238	1.850000e+00	3.025178e-04	
239	1.900000e+00	3.025903e-04	
240	1.950000e+00	3.026581e-04	
241	2.000000e+00	3.027219e-04	
242	2.050000e+00	3.027822e-04	
243	2.100000e+00	3.028396e-04	
244	2.150000e+00	3.028944e-04	
245	2.200000e+00	3.029470e-04	
246	2.250000e+00	3.029976e-04	
247	2.300000e+00	3.030464e-04	
248	2.350000e+00	3.030936e-04	
249	2.400000e+00	3.031393e-04	
250	2.450000e+00	3.031838e-04	
251	2.500000e+00	3.032270e-04	
252	2.550000e+00	3.032692e-04	
253	2.600000e+00	3.033104e-04	
254	2.650000e+00	3.033508e-04	
255	2.700000e+00	3.033903e-04	
256	2.750000e+00	3.034292e-04	
257	2.800000e+00	3.034675e-04	
258	2.850000e+00	3.035054e-04	
259	2.900000e+00	3.035430e-04	
260	2.950000e+00	3.035806e-04	
261	3.000000e+00	3.036185e-04	
262	3.050000e+00	3.036571e-04	
263	3.100000e+00	3.036967e-04	
264	3.150000e+00	3.037379e-04	
265	3.200000e+00	3.037814e-04	
266	3.250000e+00	3.038280e-04	
267	3.300000e+00	3.038787e-04	
268	0.000000e+00	-0.000000e+00	
269	5.000000e-02	2.675810e-05	
270	1.000000e-01	5.270912e-05	
271	1.500000e-01	7.785649e-05	
272	2.000000e-01	1.022036e-04	
273	2.500000e-01	1.257537e-04	
274	3.000000e-01	1.485103e-04	
275	3.500000e-01	1.704767e-04	
276	4.000000e-01	1.916561e-04	
277	4.500000e-01	2.120518e-04	
278	5.000000e-01	2.316672e-04	
279	5.500000e-01	2.505055e-04	
280	6.000000e-01	2.685698e-04	
281	6.500000e-01	2.858635e-04	
282	7.000000e-01	3.023898e-04	
283	7.500000e-01	3.181517e-04	
284	8.000000e-01	3.331525e-04	
285	8.500000e-01	3.473954e-04	
286	9.000000e-01	3.608834e-04	

Index   v-sweep         -i(vds)         
--------------------------------------------------------------------------------
287	9.500000e-01	3.736196e-04	
288	1.000000e+00	3.856073e-04	
289	1.050000e+00	3.968493e-04	
290	1.100000e+00	4.073489e-04	
291	1.150000e+00	4.171090e-04	
292	1.200000e+00	4.261327e-04	
293	1.250000e+00	4.344230e-04	
294	1.300000e+00	4.419828e-04	
295	1.350000e+00	4.488152e-04	
296	1.400000e+00	4.549232e-04	
297	1.450000e+00	4.603097e-04	
298	1.500000e+00	4.649782e-04	
299	1.550000e+00	4.689325e-04	
300	1.600000e+00	4.721788e-04	
301	1.650000e+00	4.747306e-04	
302	1.700000e+00	4.766232e-04	
303	1.750000e+00	4.779396e-04	
304	1.800000e+00	4.788198e-04	
305	1.850000e+00	4.794156e-04	
306	1.900000e+00	4.798402e-04	
307	1.950000e+00	4.801610e-04	
308	2.000000e+00	4.804163e-04	
309	2.050000e+00	4.806277e-04	
310	2.100000e+00	4.808082e-04	
311	2.150000e+00	4.809660e-04	
312	2.200000e+00	4.811067e-04	
313	2.250000e+00	4.812338e-04	
314	2.300000e+00	4.813502e-04	
315	2.350000e+00	4.814577e-04	
316	2.400000e+00	4.815578e-04	
317	2.450000e+00	4.816517e-04	
318	2.500000e+00	4.817403e-04	
319	2.550000e+00	4.818243e-04	
320	2.600000e+00	4.819043e-04	
321	2.650000e+00	4.819808e-04	
322	2.700000e+00	4.820542e-04	
323	2.750000e+00	4.821247e-04	
324	2.800000e+00	4.821927e-04	
325	2.850000e+00	4.822585e-04	
326	2.900000e+00	4.823223e-04	
327	2.950000e+00	4.823841e-04	
328	3.000000e+00	4.824443e-04	
329	3.050000e+00	4.825030e-04	
330	3.100000e+00	4.825603e-04	
331	3.150000e+00	4.826163e-04	
332	3.200000e+00	4.826713e-04	
333	3.250000e+00	4.827255e-04	
334	3.300000e+00	4.827790e-04	
335	0.000000e+00	-0.000000e+00	
336	5.000000e-02	2.990763e-05	
337	1.000000e-01	5.910456e-05	
338	1.500000e-01	8.759354e-05	
339	2.000000e-01	1.153773e-04	
340	2.500000e-01	1.424586e-04	
341	3.000000e-01	1.688401e-04	
342	3.500000e-01	1.945245e-04	
343	4.000000e-01	2.195145e-04	
344	4.500000e-01	2.438127e-04	

Index   v-sweep         -i(vds)         
--------------------------------------------------------------------------------
345	5.000000e-01	2.674219e-04	
346	5.500000e-01	2.903445e-04	
347	6.000000e-01	3.125834e-04	
348	6.500000e-01	3.341410e-04	
349	7.000000e-01	3.550200e-04	
350	7.500000e-01	3.752230e-04	
351	8.000000e-01	3.947525e-04	
352	8.500000e-01	4.136111e-04	
353	9.000000e-01	4.318013e-04	
354	9.500000e-01	4.493257e-04	
355	1.000000e+00	4.661867e-04	
356	1.050000e+00	4.823870e-04	
357	1.100000e+00	4.979290e-04	
358	1.150000e+00	5.128151e-04	
359	1.200000e+00	5.270478e-04	
360	1.250000e+00	5.406297e-04	
361	1.300000e+00	5.535630e-04	
362	1.350000e+00	5.658503e-04	
363	1.400000e+00	5.774940e-04	
364	1.450000e+00	5.884964e-04	
365	1.500000e+00	5.988599e-04	
366	1.550000e+00	6.085869e-04	
367	1.600000e+00	6.176797e-04	
368	1.650000e+00	6.261407e-04	
369	1.700000e+00	6.339720e-04	
370	1.750000e+00	6.411759e-04	
371	1.800000e+00	6.477546e-04	
372	1.850000e+00	6.537100e-04	
373	1.900000e+00	6.590443e-04	
374	1.950000e+00	6.637590e-04	
375	2.000000e+00	6.678562e-04	
376	2.050000e+00	6.713379e-04	
377	2.100000e+00	6.742091e-04	
378	2.150000e+00	6.764842e-04	
379	2.200000e+00	6.782027e-04	
380	2.250000e+00	6.794475e-04	
381	2.300000e+00	6.803360e-04	
382	2.350000e+00	6.809827e-04	
383	2.400000e+00	6.814723e-04	
384	2.450000e+00	6.818588e-04	
385	2.500000e+00	6.821756e-04	
386	2.550000e+00	6.824432e-04	
387	2.600000e+00	6.826748e-04	
388	2.650000e+00	6.828792e-04	
389	2.700000e+00	6.830624e-04	
390	2.750000e+00	6.832286e-04	
391	2.800000e+00	6.833812e-04	
392	2.850000e+00	6.835223e-04	
393	2.900000e+00	6.836539e-04	
394	2.950000e+00	6.837774e-04	
395	3.000000e+00	6.838939e-04	
396	3.050000e+00	6.840042e-04	
397	3.100000e+00	6.841093e-04	
398	3.150000e+00	6.842096e-04	
399	3.200000e+00	6.843057e-04	
400	3.250000e+00	6.843981e-04	
401	3.300000e+00	6.844870e-04	
Note: No ".plot", ".print", or ".fourier" lines; no simulations run
