
Note: Compatibility modes selected: hs

Warning: m=xx on .subckt line will override multiplier m hierarchy!


Circuit: ***************************

Doing analysis at TEMP = 125.000000 and TNOM = 125.000000


No. of Data Rows : 402
                          ***************************
                          DC transfer characteristic  Mon Jan  9 13:57:19  2023
--------------------------------------------------------------------------------
Index   v-sweep         -i(vds)         
--------------------------------------------------------------------------------
0	0.000000e+00	-0.000000e+00	
1	5.000000e-02	1.173022e-07	
2	1.000000e-01	1.999140e-07	
3	1.500000e-01	2.546200e-07	
4	2.000000e-01	2.836576e-07	
5	2.500000e-01	2.924216e-07	
6	3.000000e-01	2.938697e-07	
7	3.500000e-01	2.942724e-07	
8	4.000000e-01	2.944900e-07	
9	4.500000e-01	2.946503e-07	
10	5.000000e-01	2.947851e-07	
11	5.500000e-01	2.949059e-07	
12	6.000000e-01	2.950178e-07	
13	6.500000e-01	2.951237e-07	
14	7.000000e-01	2.952249e-07	
15	7.500000e-01	2.953228e-07	
16	8.000000e-01	2.954178e-07	
17	8.500000e-01	2.955106e-07	
18	9.000000e-01	2.956015e-07	
19	9.500000e-01	2.956908e-07	
20	1.000000e+00	2.957787e-07	
21	1.050000e+00	2.958655e-07	
22	1.100000e+00	2.959511e-07	
23	1.150000e+00	2.960359e-07	
24	1.200000e+00	2.961198e-07	
25	1.250000e+00	2.962030e-07	
26	1.300000e+00	2.962854e-07	
27	1.350000e+00	2.963673e-07	
28	1.400000e+00	2.964487e-07	
29	1.450000e+00	2.965295e-07	
30	1.500000e+00	2.966098e-07	
31	1.550000e+00	2.966898e-07	
32	1.600000e+00	2.967693e-07	
33	1.650000e+00	2.968485e-07	
34	1.700000e+00	2.969274e-07	
35	1.750000e+00	2.970061e-07	
36	1.800000e+00	2.970846e-07	
37	1.850000e+00	2.971631e-07	
38	1.900000e+00	2.972416e-07	
39	1.950000e+00	2.973202e-07	
40	2.000000e+00	2.973993e-07	
41	2.050000e+00	2.974789e-07	
42	2.100000e+00	2.975594e-07	
43	2.150000e+00	2.976412e-07	
44	2.200000e+00	2.977246e-07	
45	2.250000e+00	2.978101e-07	
46	2.300000e+00	2.978984e-07	
47	2.350000e+00	2.979902e-07	
48	2.400000e+00	2.980862e-07	
49	2.450000e+00	2.981874e-07	
50	2.500000e+00	2.982950e-07	
51	2.550000e+00	2.984099e-07	
52	2.600000e+00	2.985338e-07	
53	2.650000e+00	2.986679e-07	
54	2.700000e+00	2.988140e-07	

Index   v-sweep         -i(vds)         
--------------------------------------------------------------------------------
55	2.750000e+00	2.989740e-07	
56	2.800000e+00	2.991496e-07	
57	2.850000e+00	2.993433e-07	
58	2.900000e+00	2.995571e-07	
59	2.950000e+00	2.997937e-07	
60	3.000000e+00	3.000556e-07	
61	3.050000e+00	3.003458e-07	
62	3.100000e+00	3.006671e-07	
63	3.150000e+00	3.010229e-07	
64	3.200000e+00	3.014163e-07	
65	3.250000e+00	3.018508e-07	
66	3.300000e+00	3.023302e-07	
67	0.000000e+00	-0.000000e+00	
68	5.000000e-02	3.277968e-07	
69	1.000000e-01	6.188089e-07	
70	1.500000e-01	8.797291e-07	
71	2.000000e-01	1.112175e-06	
72	2.500000e-01	1.316566e-06	
73	3.000000e-01	1.493043e-06	
74	3.500000e-01	1.641686e-06	
75	4.000000e-01	1.762580e-06	
76	4.500000e-01	1.855863e-06	
77	5.000000e-01	1.921872e-06	
78	5.500000e-01	1.961788e-06	
79	6.000000e-01	1.980072e-06	
80	6.500000e-01	1.986444e-06	
81	7.000000e-01	1.988893e-06	
82	7.500000e-01	1.990201e-06	
83	8.000000e-01	1.991093e-06	
84	8.500000e-01	1.991790e-06	
85	9.000000e-01	1.992378e-06	
86	9.500000e-01	1.992898e-06	
87	1.000000e+00	1.993370e-06	
88	1.050000e+00	1.993808e-06	
89	1.100000e+00	1.994219e-06	
90	1.150000e+00	1.994608e-06	
91	1.200000e+00	1.994981e-06	
92	1.250000e+00	1.995339e-06	
93	1.300000e+00	1.995685e-06	
94	1.350000e+00	1.996021e-06	
95	1.400000e+00	1.996348e-06	
96	1.450000e+00	1.996667e-06	
97	1.500000e+00	1.996979e-06	
98	1.550000e+00	1.997285e-06	
99	1.600000e+00	1.997585e-06	
100	1.650000e+00	1.997880e-06	
101	1.700000e+00	1.998171e-06	
102	1.750000e+00	1.998458e-06	
103	1.800000e+00	1.998741e-06	
104	1.850000e+00	1.999021e-06	
105	1.900000e+00	1.999297e-06	
106	1.950000e+00	1.999571e-06	
107	2.000000e+00	1.999842e-06	
108	2.050000e+00	2.000111e-06	
109	2.100000e+00	2.000378e-06	
110	2.150000e+00	2.000644e-06	
111	2.200000e+00	2.000909e-06	
112	2.250000e+00	2.001175e-06	

Index   v-sweep         -i(vds)         
--------------------------------------------------------------------------------
113	2.300000e+00	2.001441e-06	
114	2.350000e+00	2.001709e-06	
115	2.400000e+00	2.001982e-06	
116	2.450000e+00	2.002260e-06	
117	2.500000e+00	2.002546e-06	
118	2.550000e+00	2.002842e-06	
119	2.600000e+00	2.003153e-06	
120	2.650000e+00	2.003483e-06	
121	2.700000e+00	2.003835e-06	
122	2.750000e+00	2.004216e-06	
123	2.800000e+00	2.004633e-06	
124	2.850000e+00	2.005091e-06	
125	2.900000e+00	2.005600e-06	
126	2.950000e+00	2.006169e-06	
127	3.000000e+00	2.006807e-06	
128	3.050000e+00	2.007527e-06	
129	3.100000e+00	2.008341e-06	
130	3.150000e+00	2.009262e-06	
131	3.200000e+00	2.010305e-06	
132	3.250000e+00	2.011486e-06	
133	3.300000e+00	2.012822e-06	
134	0.000000e+00	-0.000000e+00	
135	5.000000e-02	5.214996e-07	
136	1.000000e-01	1.007524e-06	
137	1.500000e-01	1.464762e-06	
138	2.000000e-01	1.894825e-06	
139	2.500000e-01	2.298125e-06	
140	3.000000e-01	2.674791e-06	
141	3.500000e-01	3.024886e-06	
142	4.000000e-01	3.348457e-06	
143	4.500000e-01	3.645546e-06	
144	5.000000e-01	3.916199e-06	
145	5.500000e-01	4.160457e-06	
146	6.000000e-01	4.378370e-06	
147	6.500000e-01	4.569986e-06	
148	7.000000e-01	4.735365e-06	
149	7.500000e-01	4.874586e-06	
150	8.000000e-01	4.987770e-06	
151	8.500000e-01	5.075162e-06	
152	9.000000e-01	5.137381e-06	
153	9.500000e-01	5.176232e-06	
154	1.000000e+00	5.196476e-06	
155	1.050000e+00	5.205835e-06	
156	1.100000e+00	5.210532e-06	
157	1.150000e+00	5.213381e-06	
158	1.200000e+00	5.215405e-06	
159	1.250000e+00	5.216996e-06	
160	1.300000e+00	5.218329e-06	
161	1.350000e+00	5.219493e-06	
162	1.400000e+00	5.220536e-06	
163	1.450000e+00	5.221490e-06	
164	1.500000e+00	5.222376e-06	
165	1.550000e+00	5.223206e-06	
166	1.600000e+00	5.223992e-06	
167	1.650000e+00	5.224740e-06	
168	1.700000e+00	5.225456e-06	
169	1.750000e+00	5.226145e-06	
170	1.800000e+00	5.226811e-06	

Index   v-sweep         -i(vds)         
--------------------------------------------------------------------------------
171	1.850000e+00	5.227456e-06	
172	1.900000e+00	5.228083e-06	
173	1.950000e+00	5.228694e-06	
174	2.000000e+00	5.229290e-06	
175	2.050000e+00	5.229872e-06	
176	2.100000e+00	5.230443e-06	
177	2.150000e+00	5.231004e-06	
178	2.200000e+00	5.231554e-06	
179	2.250000e+00	5.232095e-06	
180	2.300000e+00	5.232628e-06	
181	2.350000e+00	5.233154e-06	
182	2.400000e+00	5.233673e-06	
183	2.450000e+00	5.234186e-06	
184	2.500000e+00	5.234695e-06	
185	2.550000e+00	5.235201e-06	
186	2.600000e+00	5.235705e-06	
187	2.650000e+00	5.236209e-06	
188	2.700000e+00	5.236716e-06	
189	2.750000e+00	5.237230e-06	
190	2.800000e+00	5.237754e-06	
191	2.850000e+00	5.238294e-06	
192	2.900000e+00	5.238856e-06	
193	2.950000e+00	5.239447e-06	
194	3.000000e+00	5.240078e-06	
195	3.050000e+00	5.240759e-06	
196	3.100000e+00	5.241502e-06	
197	3.150000e+00	5.242322e-06	
198	3.200000e+00	5.243238e-06	
199	3.250000e+00	5.244267e-06	
200	3.300000e+00	5.245432e-06	
201	0.000000e+00	-0.000000e+00	
202	5.000000e-02	6.908249e-07	
203	1.000000e-01	1.348189e-06	
204	1.500000e-01	1.978776e-06	
205	2.000000e-01	2.584191e-06	
206	2.500000e-01	3.164843e-06	
207	3.000000e-01	3.720856e-06	
208	3.500000e-01	4.252286e-06	
209	4.000000e-01	4.759175e-06	
210	4.500000e-01	5.241561e-06	
211	5.000000e-01	5.699480e-06	
212	5.500000e-01	6.132968e-06	
213	6.000000e-01	6.542062e-06	
214	6.500000e-01	6.926798e-06	
215	7.000000e-01	7.287213e-06	
216	7.500000e-01	7.623344e-06	
217	8.000000e-01	7.935228e-06	
218	8.500000e-01	8.222902e-06	
219	9.000000e-01	8.486405e-06	
220	9.500000e-01	8.725778e-06	
221	1.000000e+00	8.941063e-06	
222	1.050000e+00	9.132308e-06	
223	1.100000e+00	9.299569e-06	
224	1.150000e+00	9.442923e-06	
225	1.200000e+00	9.562487e-06	
226	1.250000e+00	9.658475e-06	
227	1.300000e+00	9.731357e-06	
228	1.350000e+00	9.782292e-06	

Index   v-sweep         -i(vds)         
--------------------------------------------------------------------------------
229	1.400000e+00	9.814078e-06	
230	1.450000e+00	9.831924e-06	
231	1.500000e+00	9.841818e-06	
232	1.550000e+00	9.847851e-06	
233	1.600000e+00	9.852012e-06	
234	1.650000e+00	9.855175e-06	
235	1.700000e+00	9.857748e-06	
236	1.750000e+00	9.859938e-06	
237	1.800000e+00	9.861862e-06	
238	1.850000e+00	9.863592e-06	
239	1.900000e+00	9.865173e-06	
240	1.950000e+00	9.866636e-06	
241	2.000000e+00	9.868004e-06	
242	2.050000e+00	9.869294e-06	
243	2.100000e+00	9.870518e-06	
244	2.150000e+00	9.871685e-06	
245	2.200000e+00	9.872804e-06	
246	2.250000e+00	9.873881e-06	
247	2.300000e+00	9.874920e-06	
248	2.350000e+00	9.875927e-06	
249	2.400000e+00	9.876904e-06	
250	2.450000e+00	9.877854e-06	
251	2.500000e+00	9.878781e-06	
252	2.550000e+00	9.879686e-06	
253	2.600000e+00	9.880571e-06	
254	2.650000e+00	9.881437e-06	
255	2.700000e+00	9.882288e-06	
256	2.750000e+00	9.883124e-06	
257	2.800000e+00	9.883946e-06	
258	2.850000e+00	9.884756e-06	
259	2.900000e+00	9.885557e-06	
260	2.950000e+00	9.886350e-06	
261	3.000000e+00	9.887138e-06	
262	3.050000e+00	9.887924e-06	
263	3.100000e+00	9.888714e-06	
264	3.150000e+00	9.889512e-06	
265	3.200000e+00	9.890326e-06	
266	3.250000e+00	9.891164e-06	
267	3.300000e+00	9.892038e-06	
268	0.000000e+00	-0.000000e+00	
269	5.000000e-02	8.339523e-07	
270	1.000000e-01	1.636683e-06	
271	1.500000e-01	2.414871e-06	
272	2.000000e-01	3.170117e-06	
273	2.500000e-01	3.902824e-06	
274	3.000000e-01	4.613111e-06	
275	3.500000e-01	5.301030e-06	
276	4.000000e-01	5.966618e-06	
277	4.500000e-01	6.609907e-06	
278	5.000000e-01	7.230929e-06	
279	5.500000e-01	7.829714e-06	
280	6.000000e-01	8.406296e-06	
281	6.500000e-01	8.960703e-06	
282	7.000000e-01	9.492968e-06	
283	7.500000e-01	1.000312e-05	
284	8.000000e-01	1.049120e-05	
285	8.500000e-01	1.095722e-05	
286	9.000000e-01	1.140123e-05	

Index   v-sweep         -i(vds)         
--------------------------------------------------------------------------------
287	9.500000e-01	1.182325e-05	
288	1.000000e+00	1.222331e-05	
289	1.050000e+00	1.260145e-05	
290	1.100000e+00	1.295770e-05	
291	1.150000e+00	1.329208e-05	
292	1.200000e+00	1.360464e-05	
293	1.250000e+00	1.389540e-05	
294	1.300000e+00	1.416439e-05	
295	1.350000e+00	1.441165e-05	
296	1.400000e+00	1.463722e-05	
297	1.450000e+00	1.484113e-05	
298	1.500000e+00	1.502344e-05	
299	1.550000e+00	1.518418e-05	
300	1.600000e+00	1.532344e-05	
301	1.650000e+00	1.544134e-05	
302	1.700000e+00	1.553807e-05	
303	1.750000e+00	1.561406e-05	
304	1.800000e+00	1.567023e-05	
305	1.850000e+00	1.570859e-05	
306	1.900000e+00	1.573287e-05	
307	1.950000e+00	1.574782e-05	
308	2.000000e+00	1.575746e-05	
309	2.050000e+00	1.576422e-05	
310	2.100000e+00	1.576935e-05	
311	2.150000e+00	1.577348e-05	
312	2.200000e+00	1.577697e-05	
313	2.250000e+00	1.578000e-05	
314	2.300000e+00	1.578269e-05	
315	2.350000e+00	1.578514e-05	
316	2.400000e+00	1.578738e-05	
317	2.450000e+00	1.578946e-05	
318	2.500000e+00	1.579141e-05	
319	2.550000e+00	1.579325e-05	
320	2.600000e+00	1.579500e-05	
321	2.650000e+00	1.579666e-05	
322	2.700000e+00	1.579825e-05	
323	2.750000e+00	1.579978e-05	
324	2.800000e+00	1.580126e-05	
325	2.850000e+00	1.580268e-05	
326	2.900000e+00	1.580407e-05	
327	2.950000e+00	1.580541e-05	
328	3.000000e+00	1.580672e-05	
329	3.050000e+00	1.580799e-05	
330	3.100000e+00	1.580923e-05	
331	3.150000e+00	1.581045e-05	
332	3.200000e+00	1.581164e-05	
333	3.250000e+00	1.581281e-05	
334	3.300000e+00	1.581396e-05	
335	0.000000e+00	-0.000000e+00	
336	5.000000e-02	9.512413e-07	
337	1.000000e-01	1.873535e-06	
338	1.500000e-01	2.773553e-06	
339	2.000000e-01	3.652895e-06	
340	2.500000e-01	4.511956e-06	
341	3.000000e-01	5.350852e-06	
342	3.500000e-01	6.169631e-06	
343	4.000000e-01	6.968323e-06	
344	4.500000e-01	7.746957e-06	

Index   v-sweep         -i(vds)         
--------------------------------------------------------------------------------
345	5.000000e-01	8.505560e-06	
346	5.500000e-01	9.244158e-06	
347	6.000000e-01	9.962779e-06	
348	6.500000e-01	1.066145e-05	
349	7.000000e-01	1.134019e-05	
350	7.500000e-01	1.199904e-05	
351	8.000000e-01	1.263801e-05	
352	8.500000e-01	1.325714e-05	
353	9.000000e-01	1.385644e-05	
354	9.500000e-01	1.443596e-05	
355	1.000000e+00	1.499571e-05	
356	1.050000e+00	1.553571e-05	
357	1.100000e+00	1.605601e-05	
358	1.150000e+00	1.655661e-05	
359	1.200000e+00	1.703755e-05	
360	1.250000e+00	1.749886e-05	
361	1.300000e+00	1.794056e-05	
362	1.350000e+00	1.836267e-05	
363	1.400000e+00	1.876522e-05	
364	1.450000e+00	1.914825e-05	
365	1.500000e+00	1.951177e-05	
366	1.550000e+00	1.985580e-05	
367	1.600000e+00	2.018039e-05	
368	1.650000e+00	2.048555e-05	
369	1.700000e+00	2.077132e-05	
370	1.750000e+00	2.103771e-05	
371	1.800000e+00	2.128476e-05	
372	1.850000e+00	2.151250e-05	
373	1.900000e+00	2.172095e-05	
374	1.950000e+00	2.191016e-05	
375	2.000000e+00	2.208017e-05	
376	2.050000e+00	2.223103e-05	
377	2.100000e+00	2.236280e-05	
378	2.150000e+00	2.247561e-05	
379	2.200000e+00	2.256964e-05	
380	2.250000e+00	2.264528e-05	
381	2.300000e+00	2.270330e-05	
382	2.350000e+00	2.274531e-05	
383	2.400000e+00	2.277407e-05	
384	2.450000e+00	2.279329e-05	
385	2.500000e+00	2.280643e-05	
386	2.550000e+00	2.281594e-05	
387	2.600000e+00	2.282324e-05	
388	2.650000e+00	2.282915e-05	
389	2.700000e+00	2.283411e-05	
390	2.750000e+00	2.283842e-05	
391	2.800000e+00	2.284223e-05	
392	2.850000e+00	2.284567e-05	
393	2.900000e+00	2.284882e-05	
394	2.950000e+00	2.285172e-05	
395	3.000000e+00	2.285443e-05	
396	3.050000e+00	2.285697e-05	
397	3.100000e+00	2.285938e-05	
398	3.150000e+00	2.286166e-05	
399	3.200000e+00	2.286384e-05	
400	3.250000e+00	2.286593e-05	
401	3.300000e+00	2.286793e-05	
Note: No ".plot", ".print", or ".fourier" lines; no simulations run
