
Note: Compatibility modes selected: hs

Warning: m=xx on .subckt line will override multiplier m hierarchy!


Circuit: ***************************

Doing analysis at TEMP = 25.000000 and TNOM = 25.000000


No. of Data Rows : 402
                          ***************************
                          DC transfer characteristic  Mon Jan  9 13:57:17  2023
--------------------------------------------------------------------------------
Index   v-sweep         -i(vds)         
--------------------------------------------------------------------------------
0	0.000000e+00	-0.000000e+00	
1	5.000000e-02	1.729569e-06	
2	1.000000e-01	2.935922e-06	
3	1.500000e-01	3.694675e-06	
4	2.000000e-01	4.125551e-06	
5	2.500000e-01	4.375740e-06	
6	3.000000e-01	4.546673e-06	
7	3.500000e-01	4.682737e-06	
8	4.000000e-01	4.801308e-06	
9	4.500000e-01	4.909895e-06	
10	5.000000e-01	5.012214e-06	
11	5.500000e-01	5.110332e-06	
12	6.000000e-01	5.205505e-06	
13	6.500000e-01	5.298548e-06	
14	7.000000e-01	5.390020e-06	
15	7.500000e-01	5.480320e-06	
16	8.000000e-01	5.569742e-06	
17	8.500000e-01	5.658509e-06	
18	9.000000e-01	5.746794e-06	
19	9.500000e-01	5.834733e-06	
20	1.000000e+00	5.922436e-06	
21	1.050000e+00	6.009992e-06	
22	1.100000e+00	6.097475e-06	
23	1.150000e+00	6.184945e-06	
24	1.200000e+00	6.272455e-06	
25	1.250000e+00	6.360048e-06	
26	1.300000e+00	6.447761e-06	
27	1.350000e+00	6.535627e-06	
28	1.400000e+00	6.623673e-06	
29	1.450000e+00	6.711923e-06	
30	1.500000e+00	6.800400e-06	
31	1.550000e+00	6.889123e-06	
32	1.600000e+00	6.978110e-06	
33	1.650000e+00	7.067376e-06	
34	1.700000e+00	7.156938e-06	
35	1.750000e+00	7.246811e-06	
36	1.800000e+00	7.337011e-06	
37	1.850000e+00	7.427555e-06	
38	1.900000e+00	7.518460e-06	
39	1.950000e+00	7.609746e-06	
40	2.000000e+00	7.701435e-06	
41	2.050000e+00	7.793553e-06	
42	2.100000e+00	7.886128e-06	
43	2.150000e+00	7.979193e-06	
44	2.200000e+00	8.072788e-06	
45	2.250000e+00	8.166955e-06	
46	2.300000e+00	8.261746e-06	
47	2.350000e+00	8.357220e-06	
48	2.400000e+00	8.453441e-06	
49	2.450000e+00	8.550486e-06	
50	2.500000e+00	8.648439e-06	
51	2.550000e+00	8.747396e-06	
52	2.600000e+00	8.847466e-06	
53	2.650000e+00	8.948768e-06	
54	2.700000e+00	9.051436e-06	

Index   v-sweep         -i(vds)         
--------------------------------------------------------------------------------
55	2.750000e+00	9.155619e-06	
56	2.800000e+00	9.261481e-06	
57	2.850000e+00	9.369203e-06	
58	2.900000e+00	9.478983e-06	
59	2.950000e+00	9.591040e-06	
60	3.000000e+00	9.705611e-06	
61	3.050000e+00	9.822954e-06	
62	3.100000e+00	9.943350e-06	
63	3.150000e+00	1.006710e-05	
64	3.200000e+00	1.019454e-05	
65	3.250000e+00	1.032602e-05	
66	3.300000e+00	1.046191e-05	
67	0.000000e+00	-0.000000e+00	
68	5.000000e-02	6.506029e-06	
69	1.000000e-01	1.225766e-05	
70	1.500000e-01	1.730513e-05	
71	2.000000e-01	2.169446e-05	
72	2.500000e-01	2.546796e-05	
73	3.000000e-01	2.866494e-05	
74	3.500000e-01	3.132280e-05	
75	4.000000e-01	3.347980e-05	
76	4.500000e-01	3.518158e-05	
77	5.000000e-01	3.649143e-05	
78	5.500000e-01	3.749303e-05	
79	6.000000e-01	3.827397e-05	
80	6.500000e-01	3.890543e-05	
81	7.000000e-01	3.943636e-05	
82	7.500000e-01	3.989810e-05	
83	8.000000e-01	4.031062e-05	
84	8.500000e-01	4.068693e-05	
85	9.000000e-01	4.103575e-05	
86	9.500000e-01	4.136314e-05	
87	1.000000e+00	4.167344e-05	
88	1.050000e+00	4.196986e-05	
89	1.100000e+00	4.225480e-05	
90	1.150000e+00	4.253012e-05	
91	1.200000e+00	4.279727e-05	
92	1.250000e+00	4.305743e-05	
93	1.300000e+00	4.331152e-05	
94	1.350000e+00	4.356033e-05	
95	1.400000e+00	4.380449e-05	
96	1.450000e+00	4.404455e-05	
97	1.500000e+00	4.428094e-05	
98	1.550000e+00	4.451407e-05	
99	1.600000e+00	4.474426e-05	
100	1.650000e+00	4.497180e-05	
101	1.700000e+00	4.519695e-05	
102	1.750000e+00	4.541992e-05	
103	1.800000e+00	4.564092e-05	
104	1.850000e+00	4.586012e-05	
105	1.900000e+00	4.607767e-05	
106	1.950000e+00	4.629374e-05	
107	2.000000e+00	4.650846e-05	
108	2.050000e+00	4.672197e-05	
109	2.100000e+00	4.693440e-05	
110	2.150000e+00	4.714589e-05	
111	2.200000e+00	4.735658e-05	
112	2.250000e+00	4.756663e-05	

Index   v-sweep         -i(vds)         
--------------------------------------------------------------------------------
113	2.300000e+00	4.777618e-05	
114	2.350000e+00	4.798543e-05	
115	2.400000e+00	4.819456e-05	
116	2.450000e+00	4.840380e-05	
117	2.500000e+00	4.861338e-05	
118	2.550000e+00	4.882358e-05	
119	2.600000e+00	4.903471e-05	
120	2.650000e+00	4.924711e-05	
121	2.700000e+00	4.946115e-05	
122	2.750000e+00	4.967727e-05	
123	2.800000e+00	4.989593e-05	
124	2.850000e+00	5.011765e-05	
125	2.900000e+00	5.034302e-05	
126	2.950000e+00	5.057267e-05	
127	3.000000e+00	5.080730e-05	
128	3.050000e+00	5.104766e-05	
129	3.100000e+00	5.129459e-05	
130	3.150000e+00	5.154899e-05	
131	3.200000e+00	5.181184e-05	
132	3.250000e+00	5.208420e-05	
133	3.300000e+00	5.236722e-05	
134	0.000000e+00	-0.000000e+00	
135	5.000000e-02	1.003527e-05	
136	1.000000e-01	1.926993e-05	
137	1.500000e-01	2.774944e-05	
138	2.000000e-01	3.551584e-05	
139	2.500000e-01	4.260794e-05	
140	3.000000e-01	4.906159e-05	
141	3.500000e-01	5.490979e-05	
142	4.000000e-01	6.018273e-05	
143	4.500000e-01	6.490764e-05	
144	5.000000e-01	6.910858e-05	
145	5.500000e-01	7.280596e-05	
146	6.000000e-01	7.601674e-05	
147	6.500000e-01	7.875654e-05	
148	7.000000e-01	8.104675e-05	
149	7.500000e-01	8.292570e-05	
150	8.000000e-01	8.445376e-05	
151	8.500000e-01	8.570357e-05	
152	9.000000e-01	8.674359e-05	
153	9.500000e-01	8.762868e-05	
154	1.000000e+00	8.839909e-05	
155	1.050000e+00	8.908336e-05	
156	1.100000e+00	8.970166e-05	
157	1.150000e+00	9.026838e-05	
158	1.200000e+00	9.079399e-05	
159	1.250000e+00	9.128625e-05	
160	1.300000e+00	9.175101e-05	
161	1.350000e+00	9.219278e-05	
162	1.400000e+00	9.261510e-05	
163	1.450000e+00	9.302078e-05	
164	1.500000e+00	9.341207e-05	
165	1.550000e+00	9.379082e-05	
166	1.600000e+00	9.415855e-05	
167	1.650000e+00	9.451654e-05	
168	1.700000e+00	9.486586e-05	
169	1.750000e+00	9.520742e-05	
170	1.800000e+00	9.554198e-05	

Index   v-sweep         -i(vds)         
--------------------------------------------------------------------------------
171	1.850000e+00	9.587024e-05	
172	1.900000e+00	9.619276e-05	
173	1.950000e+00	9.651007e-05	
174	2.000000e+00	9.682260e-05	
175	2.050000e+00	9.713078e-05	
176	2.100000e+00	9.743495e-05	
177	2.150000e+00	9.773546e-05	
178	2.200000e+00	9.803262e-05	
179	2.250000e+00	9.832671e-05	
180	2.300000e+00	9.861804e-05	
181	2.350000e+00	9.890688e-05	
182	2.400000e+00	9.919353e-05	
183	2.450000e+00	9.947830e-05	
184	2.500000e+00	9.976151e-05	
185	2.550000e+00	1.000435e-04	
186	2.600000e+00	1.003247e-04	
187	2.650000e+00	1.006055e-04	
188	2.700000e+00	1.008863e-04	
189	2.750000e+00	1.011678e-04	
190	2.800000e+00	1.014504e-04	
191	2.850000e+00	1.017349e-04	
192	2.900000e+00	1.020220e-04	
193	2.950000e+00	1.023125e-04	
194	3.000000e+00	1.026072e-04	
195	3.050000e+00	1.029073e-04	
196	3.100000e+00	1.032137e-04	
197	3.150000e+00	1.035278e-04	
198	3.200000e+00	1.038508e-04	
199	3.250000e+00	1.041841e-04	
200	3.300000e+00	1.045294e-04	
201	0.000000e+00	-0.000000e+00	
202	5.000000e-02	1.267227e-05	
203	1.000000e-01	2.454747e-05	
204	1.500000e-01	3.566530e-05	
205	2.000000e-01	4.606284e-05	
206	2.500000e-01	5.577471e-05	
207	3.000000e-01	6.483323e-05	
208	3.500000e-01	7.326858e-05	
209	4.000000e-01	8.110887e-05	
210	4.500000e-01	8.838020e-05	
211	5.000000e-01	9.510662e-05	
212	5.500000e-01	1.013100e-04	
213	6.000000e-01	1.070099e-04	
214	6.500000e-01	1.122227e-04	
215	7.000000e-01	1.169614e-04	
216	7.500000e-01	1.212343e-04	
217	8.000000e-01	1.250449e-04	
218	8.500000e-01	1.283937e-04	
219	9.000000e-01	1.312850e-04	
220	9.500000e-01	1.337376e-04	
221	1.000000e+00	1.357933e-04	
222	1.050000e+00	1.375128e-04	
223	1.100000e+00	1.389621e-04	
224	1.150000e+00	1.402013e-04	
225	1.200000e+00	1.412786e-04	
226	1.250000e+00	1.422307e-04	
227	1.300000e+00	1.430852e-04	
228	1.350000e+00	1.438621e-04	

Index   v-sweep         -i(vds)         
--------------------------------------------------------------------------------
229	1.400000e+00	1.445767e-04	
230	1.450000e+00	1.452403e-04	
231	1.500000e+00	1.458618e-04	
232	1.550000e+00	1.464479e-04	
233	1.600000e+00	1.470040e-04	
234	1.650000e+00	1.475344e-04	
235	1.700000e+00	1.480425e-04	
236	1.750000e+00	1.485312e-04	
237	1.800000e+00	1.490029e-04	
238	1.850000e+00	1.494594e-04	
239	1.900000e+00	1.499024e-04	
240	1.950000e+00	1.503334e-04	
241	2.000000e+00	1.507535e-04	
242	2.050000e+00	1.511639e-04	
243	2.100000e+00	1.515653e-04	
244	2.150000e+00	1.519585e-04	
245	2.200000e+00	1.523444e-04	
246	2.250000e+00	1.527235e-04	
247	2.300000e+00	1.530963e-04	
248	2.350000e+00	1.534634e-04	
249	2.400000e+00	1.538252e-04	
250	2.450000e+00	1.541822e-04	
251	2.500000e+00	1.545350e-04	
252	2.550000e+00	1.548838e-04	
253	2.600000e+00	1.552291e-04	
254	2.650000e+00	1.555715e-04	
255	2.700000e+00	1.559114e-04	
256	2.750000e+00	1.562493e-04	
257	2.800000e+00	1.565859e-04	
258	2.850000e+00	1.569218e-04	
259	2.900000e+00	1.572578e-04	
260	2.950000e+00	1.575946e-04	
261	3.000000e+00	1.579331e-04	
262	3.050000e+00	1.582744e-04	
263	3.100000e+00	1.586195e-04	
264	3.150000e+00	1.589698e-04	
265	3.200000e+00	1.593266e-04	
266	3.250000e+00	1.596914e-04	
267	3.300000e+00	1.600659e-04	
268	0.000000e+00	-0.000000e+00	
269	5.000000e-02	1.470246e-05	
270	1.000000e-01	2.863152e-05	
271	1.500000e-01	4.182151e-05	
272	2.000000e-01	5.430473e-05	
273	2.500000e-01	6.611160e-05	
274	3.000000e-01	7.727074e-05	
275	3.500000e-01	8.780914e-05	
276	4.000000e-01	9.775216e-05	
277	4.500000e-01	1.071237e-04	
278	5.000000e-01	1.159462e-04	
279	5.500000e-01	1.242405e-04	
280	6.000000e-01	1.320263e-04	
281	6.500000e-01	1.393213e-04	
282	7.000000e-01	1.461419e-04	
283	7.500000e-01	1.525019e-04	
284	8.000000e-01	1.584131e-04	
285	8.500000e-01	1.638836e-04	
286	9.000000e-01	1.689172e-04	

Index   v-sweep         -i(vds)         
--------------------------------------------------------------------------------
287	9.500000e-01	1.735126e-04	
288	1.000000e+00	1.776634e-04	
289	1.050000e+00	1.813608e-04	
290	1.100000e+00	1.846011e-04	
291	1.150000e+00	1.873966e-04	
292	1.200000e+00	1.897820e-04	
293	1.250000e+00	1.918112e-04	
294	1.300000e+00	1.935452e-04	
295	1.350000e+00	1.950424e-04	
296	1.400000e+00	1.963519e-04	
297	1.450000e+00	1.975128e-04	
298	1.500000e+00	1.985553e-04	
299	1.550000e+00	1.995026e-04	
300	1.600000e+00	2.003723e-04	
301	1.650000e+00	2.011779e-04	
302	1.700000e+00	2.019302e-04	
303	1.750000e+00	2.026373e-04	
304	1.800000e+00	2.033060e-04	
305	1.850000e+00	2.039416e-04	
306	1.900000e+00	2.045484e-04	
307	1.950000e+00	2.051301e-04	
308	2.000000e+00	2.056896e-04	
309	2.050000e+00	2.062295e-04	
310	2.100000e+00	2.067518e-04	
311	2.150000e+00	2.072584e-04	
312	2.200000e+00	2.077507e-04	
313	2.250000e+00	2.082302e-04	
314	2.300000e+00	2.086981e-04	
315	2.350000e+00	2.091552e-04	
316	2.400000e+00	2.096027e-04	
317	2.450000e+00	2.100411e-04	
318	2.500000e+00	2.104714e-04	
319	2.550000e+00	2.108942e-04	
320	2.600000e+00	2.113100e-04	
321	2.650000e+00	2.117196e-04	
322	2.700000e+00	2.121235e-04	
323	2.750000e+00	2.125222e-04	
324	2.800000e+00	2.129165e-04	
325	2.850000e+00	2.133070e-04	
326	2.900000e+00	2.136943e-04	
327	2.950000e+00	2.140792e-04	
328	3.000000e+00	2.144625e-04	
329	3.050000e+00	2.148451e-04	
330	3.100000e+00	2.152281e-04	
331	3.150000e+00	2.156125e-04	
332	3.200000e+00	2.159996e-04	
333	3.250000e+00	2.163908e-04	
334	3.300000e+00	2.167876e-04	
335	0.000000e+00	-0.000000e+00	
336	5.000000e-02	1.630317e-05	
337	1.000000e-01	3.186481e-05	
338	1.500000e-01	4.671461e-05	
339	2.000000e-01	6.088065e-05	
340	2.500000e-01	7.438956e-05	
341	3.000000e-01	8.726655e-05	
342	3.500000e-01	9.953555e-05	
343	4.000000e-01	1.112192e-04	
344	4.500000e-01	1.223390e-04	

Index   v-sweep         -i(vds)         
--------------------------------------------------------------------------------
345	5.000000e-01	1.329153e-04	
346	5.500000e-01	1.429674e-04	
347	6.000000e-01	1.525135e-04	
348	6.500000e-01	1.615706e-04	
349	7.000000e-01	1.701548e-04	
350	7.500000e-01	1.782811e-04	
351	8.000000e-01	1.859629e-04	
352	8.500000e-01	1.932124e-04	
353	9.000000e-01	2.000399e-04	
354	9.500000e-01	2.064534e-04	
355	1.000000e+00	2.124579e-04	
356	1.050000e+00	2.180546e-04	
357	1.100000e+00	2.232397e-04	
358	1.150000e+00	2.280038e-04	
359	1.200000e+00	2.323331e-04	
360	1.250000e+00	2.362138e-04	
361	1.300000e+00	2.396407e-04	
362	1.350000e+00	2.426258e-04	
363	1.400000e+00	2.452032e-04	
364	1.450000e+00	2.474233e-04	
365	1.500000e+00	2.493433e-04	
366	1.550000e+00	2.510176e-04	
367	1.600000e+00	2.524935e-04	
368	1.650000e+00	2.538094e-04	
369	1.700000e+00	2.549956e-04	
370	1.750000e+00	2.560759e-04	
371	1.800000e+00	2.570689e-04	
372	1.850000e+00	2.579892e-04	
373	1.900000e+00	2.588482e-04	
374	1.950000e+00	2.596552e-04	
375	2.000000e+00	2.604175e-04	
376	2.050000e+00	2.611412e-04	
377	2.100000e+00	2.618311e-04	
378	2.150000e+00	2.624914e-04	
379	2.200000e+00	2.631255e-04	
380	2.250000e+00	2.637363e-04	
381	2.300000e+00	2.643262e-04	
382	2.350000e+00	2.648974e-04	
383	2.400000e+00	2.654516e-04	
384	2.450000e+00	2.659905e-04	
385	2.500000e+00	2.665153e-04	
386	2.550000e+00	2.670274e-04	
387	2.600000e+00	2.675277e-04	
388	2.650000e+00	2.680173e-04	
389	2.700000e+00	2.684970e-04	
390	2.750000e+00	2.689677e-04	
391	2.800000e+00	2.694301e-04	
392	2.850000e+00	2.698850e-04	
393	2.900000e+00	2.703332e-04	
394	2.950000e+00	2.707753e-04	
395	3.000000e+00	2.712121e-04	
396	3.050000e+00	2.716445e-04	
397	3.100000e+00	2.720734e-04	
398	3.150000e+00	2.724997e-04	
399	3.200000e+00	2.729245e-04	
400	3.250000e+00	2.733490e-04	
401	3.300000e+00	2.737744e-04	
Note: No ".plot", ".print", or ".fourier" lines; no simulations run
