
Note: Compatibility modes selected: hs

Warning: m=xx on .subckt line will override multiplier m hierarchy!


Circuit: ***************************

Doing analysis at TEMP = 125.000000 and TNOM = 125.000000


No. of Data Rows : 402
                          ***************************
                          DC transfer characteristic  Mon Jan  9 13:57:19  2023
--------------------------------------------------------------------------------
Index   v-sweep         -i(vds)         
--------------------------------------------------------------------------------
0	0.000000e+00	-0.000000e+00	
1	5.000000e-02	1.103155e-07	
2	1.000000e-01	1.910618e-07	
3	1.500000e-01	2.457460e-07	
4	2.000000e-01	2.758186e-07	
5	2.500000e-01	2.858461e-07	
6	3.000000e-01	2.877796e-07	
7	3.500000e-01	2.883658e-07	
8	4.000000e-01	2.886947e-07	
9	4.500000e-01	2.889385e-07	
10	5.000000e-01	2.891424e-07	
11	5.500000e-01	2.893230e-07	
12	6.000000e-01	2.894884e-07	
13	6.500000e-01	2.896430e-07	
14	7.000000e-01	2.897895e-07	
15	7.500000e-01	2.899296e-07	
16	8.000000e-01	2.900646e-07	
17	8.500000e-01	2.901954e-07	
18	9.000000e-01	2.903226e-07	
19	9.500000e-01	2.904469e-07	
20	1.000000e+00	2.905685e-07	
21	1.050000e+00	2.906878e-07	
22	1.100000e+00	2.908051e-07	
23	1.150000e+00	2.909206e-07	
24	1.200000e+00	2.910346e-07	
25	1.250000e+00	2.911471e-07	
26	1.300000e+00	2.912583e-07	
27	1.350000e+00	2.913684e-07	
28	1.400000e+00	2.914773e-07	
29	1.450000e+00	2.915853e-07	
30	1.500000e+00	2.916925e-07	
31	1.550000e+00	2.917987e-07	
32	1.600000e+00	2.919043e-07	
33	1.650000e+00	2.920092e-07	
34	1.700000e+00	2.921135e-07	
35	1.750000e+00	2.922174e-07	
36	1.800000e+00	2.923210e-07	
37	1.850000e+00	2.924244e-07	
38	1.900000e+00	2.925279e-07	
39	1.950000e+00	2.926317e-07	
40	2.000000e+00	2.927362e-07	
41	2.050000e+00	2.928417e-07	
42	2.100000e+00	2.929489e-07	
43	2.150000e+00	2.930584e-07	
44	2.200000e+00	2.931710e-07	
45	2.250000e+00	2.932875e-07	
46	2.300000e+00	2.934092e-07	
47	2.350000e+00	2.935373e-07	
48	2.400000e+00	2.936733e-07	
49	2.450000e+00	2.938189e-07	
50	2.500000e+00	2.939762e-07	
51	2.550000e+00	2.941474e-07	
52	2.600000e+00	2.943348e-07	
53	2.650000e+00	2.945414e-07	
54	2.700000e+00	2.947700e-07	

Index   v-sweep         -i(vds)         
--------------------------------------------------------------------------------
55	2.750000e+00	2.950242e-07	
56	2.800000e+00	2.953074e-07	
57	2.850000e+00	2.956237e-07	
58	2.900000e+00	2.959772e-07	
59	2.950000e+00	2.963726e-07	
60	3.000000e+00	2.968147e-07	
61	3.050000e+00	2.973087e-07	
62	3.100000e+00	2.978601e-07	
63	3.150000e+00	2.984746e-07	
64	3.200000e+00	2.991582e-07	
65	3.250000e+00	2.999175e-07	
66	3.300000e+00	3.007589e-07	
67	0.000000e+00	-0.000000e+00	
68	5.000000e-02	3.192376e-07	
69	1.000000e-01	6.066063e-07	
70	1.500000e-01	8.655216e-07	
71	2.000000e-01	1.096861e-06	
72	2.500000e-01	1.300905e-06	
73	3.000000e-01	1.477794e-06	
74	3.500000e-01	1.627642e-06	
75	4.000000e-01	1.750575e-06	
76	4.500000e-01	1.846767e-06	
77	5.000000e-01	1.916559e-06	
78	5.500000e-01	1.960960e-06	
79	6.000000e-01	1.983512e-06	
80	6.500000e-01	1.992579e-06	
81	7.000000e-01	1.996433e-06	
82	7.500000e-01	1.998590e-06	
83	8.000000e-01	2.000083e-06	
84	8.500000e-01	2.001252e-06	
85	9.000000e-01	2.002231e-06	
86	9.500000e-01	2.003086e-06	
87	1.000000e+00	2.003855e-06	
88	1.050000e+00	2.004559e-06	
89	1.100000e+00	2.005213e-06	
90	1.150000e+00	2.005827e-06	
91	1.200000e+00	2.006408e-06	
92	1.250000e+00	2.006961e-06	
93	1.300000e+00	2.007491e-06	
94	1.350000e+00	2.008002e-06	
95	1.400000e+00	2.008495e-06	
96	1.450000e+00	2.008973e-06	
97	1.500000e+00	2.009438e-06	
98	1.550000e+00	2.009890e-06	
99	1.600000e+00	2.010332e-06	
100	1.650000e+00	2.010764e-06	
101	1.700000e+00	2.011188e-06	
102	1.750000e+00	2.011603e-06	
103	1.800000e+00	2.012011e-06	
104	1.850000e+00	2.012413e-06	
105	1.900000e+00	2.012808e-06	
106	1.950000e+00	2.013198e-06	
107	2.000000e+00	2.013583e-06	
108	2.050000e+00	2.013964e-06	
109	2.100000e+00	2.014342e-06	
110	2.150000e+00	2.014716e-06	
111	2.200000e+00	2.015089e-06	
112	2.250000e+00	2.015462e-06	

Index   v-sweep         -i(vds)         
--------------------------------------------------------------------------------
113	2.300000e+00	2.015837e-06	
114	2.350000e+00	2.016215e-06	
115	2.400000e+00	2.016600e-06	
116	2.450000e+00	2.016995e-06	
117	2.500000e+00	2.017405e-06	
118	2.550000e+00	2.017834e-06	
119	2.600000e+00	2.018290e-06	
120	2.650000e+00	2.018778e-06	
121	2.700000e+00	2.019309e-06	
122	2.750000e+00	2.019892e-06	
123	2.800000e+00	2.020538e-06	
124	2.850000e+00	2.021262e-06	
125	2.900000e+00	2.022078e-06	
126	2.950000e+00	2.023003e-06	
127	3.000000e+00	2.024055e-06	
128	3.050000e+00	2.025256e-06	
129	3.100000e+00	2.026627e-06	
130	3.150000e+00	2.028194e-06	
131	3.200000e+00	2.029984e-06	
132	3.250000e+00	2.032026e-06	
133	3.300000e+00	2.034350e-06	
134	0.000000e+00	-0.000000e+00	
135	5.000000e-02	5.110256e-07	
136	1.000000e-01	9.912307e-07	
137	1.500000e-01	1.444023e-06	
138	2.000000e-01	1.870270e-06	
139	2.500000e-01	2.270241e-06	
140	3.000000e-01	2.644064e-06	
141	3.500000e-01	2.991831e-06	
142	4.000000e-01	3.313628e-06	
143	4.500000e-01	3.609540e-06	
144	5.000000e-01	3.879648e-06	
145	5.500000e-01	4.124039e-06	
146	6.000000e-01	4.342798e-06	
147	6.500000e-01	4.536015e-06	
148	7.000000e-01	4.703788e-06	
149	7.500000e-01	4.846230e-06	
150	8.000000e-01	4.963493e-06	
151	8.500000e-01	5.055830e-06	
152	9.000000e-01	5.123792e-06	
153	9.500000e-01	5.168845e-06	
154	1.000000e+00	5.194795e-06	
155	1.050000e+00	5.208354e-06	
156	1.100000e+00	5.215833e-06	
157	1.150000e+00	5.220609e-06	
158	1.200000e+00	5.224075e-06	
159	1.250000e+00	5.226815e-06	
160	1.300000e+00	5.229104e-06	
161	1.350000e+00	5.231087e-06	
162	1.400000e+00	5.232851e-06	
163	1.450000e+00	5.234449e-06	
164	1.500000e+00	5.235918e-06	
165	1.550000e+00	5.237283e-06	
166	1.600000e+00	5.238563e-06	
167	1.650000e+00	5.239771e-06	
168	1.700000e+00	5.240918e-06	
169	1.750000e+00	5.242014e-06	
170	1.800000e+00	5.243064e-06	

Index   v-sweep         -i(vds)         
--------------------------------------------------------------------------------
171	1.850000e+00	5.244074e-06	
172	1.900000e+00	5.245050e-06	
173	1.950000e+00	5.245994e-06	
174	2.000000e+00	5.246909e-06	
175	2.050000e+00	5.247800e-06	
176	2.100000e+00	5.248668e-06	
177	2.150000e+00	5.249514e-06	
178	2.200000e+00	5.250342e-06	
179	2.250000e+00	5.251152e-06	
180	2.300000e+00	5.251947e-06	
181	2.350000e+00	5.252727e-06	
182	2.400000e+00	5.253494e-06	
183	2.450000e+00	5.254250e-06	
184	2.500000e+00	5.254998e-06	
185	2.550000e+00	5.255738e-06	
186	2.600000e+00	5.256475e-06	
187	2.650000e+00	5.257212e-06	
188	2.700000e+00	5.257955e-06	
189	2.750000e+00	5.258708e-06	
190	2.800000e+00	5.259480e-06	
191	2.850000e+00	5.260280e-06	
192	2.900000e+00	5.261119e-06	
193	2.950000e+00	5.262013e-06	
194	3.000000e+00	5.262977e-06	
195	3.050000e+00	5.264031e-06	
196	3.100000e+00	5.265199e-06	
197	3.150000e+00	5.266508e-06	
198	3.200000e+00	5.267988e-06	
199	3.250000e+00	5.269676e-06	
200	3.300000e+00	5.271610e-06	
201	0.000000e+00	-0.000000e+00	
202	5.000000e-02	6.786181e-07	
203	1.000000e-01	1.328178e-06	
204	1.500000e-01	1.952078e-06	
205	2.000000e-01	2.551178e-06	
206	2.500000e-01	3.125737e-06	
207	3.000000e-01	3.675873e-06	
208	3.500000e-01	4.201670e-06	
209	4.000000e-01	4.703203e-06	
210	4.500000e-01	5.180547e-06	
211	5.000000e-01	5.633774e-06	
212	5.500000e-01	6.062957e-06	
213	6.000000e-01	6.468169e-06	
214	6.500000e-01	6.849481e-06	
215	7.000000e-01	7.206967e-06	
216	7.500000e-01	7.540698e-06	
217	8.000000e-01	7.850746e-06	
218	8.500000e-01	8.137184e-06	
219	9.000000e-01	8.400086e-06	
220	9.500000e-01	8.639524e-06	
221	1.000000e+00	8.855577e-06	
222	1.050000e+00	9.048324e-06	
223	1.100000e+00	9.217853e-06	
224	1.150000e+00	9.364269e-06	
225	1.200000e+00	9.487711e-06	
226	1.250000e+00	9.588399e-06	
227	1.300000e+00	9.666770e-06	
228	1.350000e+00	9.723824e-06	

Index   v-sweep         -i(vds)         
--------------------------------------------------------------------------------
229	1.400000e+00	9.761915e-06	
230	1.450000e+00	9.785482e-06	
231	1.500000e+00	9.799967e-06	
232	1.550000e+00	9.809515e-06	
233	1.600000e+00	9.816406e-06	
234	1.650000e+00	9.821764e-06	
235	1.700000e+00	9.826160e-06	
236	1.750000e+00	9.829907e-06	
237	1.800000e+00	9.833189e-06	
238	1.850000e+00	9.836124e-06	
239	1.900000e+00	9.838789e-06	
240	1.950000e+00	9.841239e-06	
241	2.000000e+00	9.843513e-06	
242	2.050000e+00	9.845642e-06	
243	2.100000e+00	9.847647e-06	
244	2.150000e+00	9.849548e-06	
245	2.200000e+00	9.851357e-06	
246	2.250000e+00	9.853086e-06	
247	2.300000e+00	9.854745e-06	
248	2.350000e+00	9.856342e-06	
249	2.400000e+00	9.857883e-06	
250	2.450000e+00	9.859373e-06	
251	2.500000e+00	9.860819e-06	
252	2.550000e+00	9.862223e-06	
253	2.600000e+00	9.863590e-06	
254	2.650000e+00	9.864923e-06	
255	2.700000e+00	9.866224e-06	
256	2.750000e+00	9.867497e-06	
257	2.800000e+00	9.868745e-06	
258	2.850000e+00	9.869971e-06	
259	2.900000e+00	9.871178e-06	
260	2.950000e+00	9.872370e-06	
261	3.000000e+00	9.873553e-06	
262	3.050000e+00	9.874734e-06	
263	3.100000e+00	9.875920e-06	
264	3.150000e+00	9.877121e-06	
265	3.200000e+00	9.878352e-06	
266	3.250000e+00	9.879629e-06	
267	3.300000e+00	9.880971e-06	
268	0.000000e+00	-0.000000e+00	
269	5.000000e-02	8.204963e-07	
270	1.000000e-01	1.613952e-06	
271	1.500000e-01	2.383755e-06	
272	2.000000e-01	3.130756e-06	
273	2.500000e-01	3.855205e-06	
274	3.000000e-01	4.557210e-06	
275	3.500000e-01	5.236846e-06	
276	4.000000e-01	5.894179e-06	
277	4.500000e-01	6.529274e-06	
278	5.000000e-01	7.142195e-06	
279	5.500000e-01	7.733004e-06	
280	6.000000e-01	8.301766e-06	
281	6.500000e-01	8.848542e-06	
282	7.000000e-01	9.373396e-06	
283	7.500000e-01	9.876390e-06	
284	8.000000e-01	1.035759e-05	
285	8.500000e-01	1.081705e-05	
286	9.000000e-01	1.125483e-05	

Index   v-sweep         -i(vds)         
--------------------------------------------------------------------------------
287	9.500000e-01	1.167101e-05	
288	1.000000e+00	1.206563e-05	
289	1.050000e+00	1.243876e-05	
290	1.100000e+00	1.279047e-05	
291	1.150000e+00	1.312081e-05	
292	1.200000e+00	1.342984e-05	
293	1.250000e+00	1.371763e-05	
294	1.300000e+00	1.398424e-05	
295	1.350000e+00	1.422973e-05	
296	1.400000e+00	1.445416e-05	
297	1.450000e+00	1.465760e-05	
298	1.500000e+00	1.484013e-05	
299	1.550000e+00	1.500181e-05	
300	1.600000e+00	1.514276e-05	
301	1.650000e+00	1.526308e-05	
302	1.700000e+00	1.536300e-05	
303	1.750000e+00	1.544293e-05	
304	1.800000e+00	1.550373e-05	
305	1.850000e+00	1.554728e-05	
306	1.900000e+00	1.557695e-05	
307	1.950000e+00	1.559698e-05	
308	2.000000e+00	1.561105e-05	
309	2.050000e+00	1.562153e-05	
310	2.100000e+00	1.562979e-05	
311	2.150000e+00	1.563660e-05	
312	2.200000e+00	1.564240e-05	
313	2.250000e+00	1.564746e-05	
314	2.300000e+00	1.565197e-05	
315	2.350000e+00	1.565605e-05	
316	2.400000e+00	1.565978e-05	
317	2.450000e+00	1.566324e-05	
318	2.500000e+00	1.566645e-05	
319	2.550000e+00	1.566947e-05	
320	2.600000e+00	1.567232e-05	
321	2.650000e+00	1.567502e-05	
322	2.700000e+00	1.567760e-05	
323	2.750000e+00	1.568006e-05	
324	2.800000e+00	1.568242e-05	
325	2.850000e+00	1.568469e-05	
326	2.900000e+00	1.568688e-05	
327	2.950000e+00	1.568900e-05	
328	3.000000e+00	1.569105e-05	
329	3.050000e+00	1.569304e-05	
330	3.100000e+00	1.569498e-05	
331	3.150000e+00	1.569686e-05	
332	3.200000e+00	1.569871e-05	
333	3.250000e+00	1.570051e-05	
334	3.300000e+00	1.570227e-05	
335	0.000000e+00	-0.000000e+00	
336	5.000000e-02	9.371577e-07	
337	1.000000e-01	1.849363e-06	
338	1.500000e-01	2.739994e-06	
339	2.000000e-01	3.609892e-06	
340	2.500000e-01	4.459299e-06	
341	3.000000e-01	5.288314e-06	
342	3.500000e-01	6.097002e-06	
343	4.000000e-01	6.885420e-06	
344	4.500000e-01	7.653625e-06	

Index   v-sweep         -i(vds)         
--------------------------------------------------------------------------------
345	5.000000e-01	8.401672e-06	
346	5.500000e-01	9.129613e-06	
347	6.000000e-01	9.837505e-06	
348	6.500000e-01	1.052540e-05	
349	7.000000e-01	1.119335e-05	
350	7.500000e-01	1.184142e-05	
351	8.000000e-01	1.246965e-05	
352	8.500000e-01	1.307810e-05	
353	9.000000e-01	1.366682e-05	
354	9.500000e-01	1.423587e-05	
355	1.000000e+00	1.478529e-05	
356	1.050000e+00	1.531514e-05	
357	1.100000e+00	1.582548e-05	
358	1.150000e+00	1.631635e-05	
359	1.200000e+00	1.678780e-05	
360	1.250000e+00	1.723990e-05	
361	1.300000e+00	1.767269e-05	
362	1.350000e+00	1.808622e-05	
363	1.400000e+00	1.848054e-05	
364	1.450000e+00	1.885571e-05	
365	1.500000e+00	1.921177e-05	
366	1.550000e+00	1.954878e-05	
367	1.600000e+00	1.986679e-05	
368	1.650000e+00	2.016585e-05	
369	1.700000e+00	2.044601e-05	
370	1.750000e+00	2.070732e-05	
371	1.800000e+00	2.094983e-05	
372	1.850000e+00	2.117361e-05	
373	1.900000e+00	2.137869e-05	
374	1.950000e+00	2.156514e-05	
375	2.000000e+00	2.173301e-05	
376	2.050000e+00	2.188238e-05	
377	2.100000e+00	2.201333e-05	
378	2.150000e+00	2.212598e-05	
379	2.200000e+00	2.222054e-05	
380	2.250000e+00	2.229740e-05	
381	2.300000e+00	2.235743e-05	
382	2.350000e+00	2.240232e-05	
383	2.400000e+00	2.243484e-05	
384	2.450000e+00	2.245836e-05	
385	2.500000e+00	2.247585e-05	
386	2.550000e+00	2.248940e-05	
387	2.600000e+00	2.250035e-05	
388	2.650000e+00	2.250950e-05	
389	2.700000e+00	2.251735e-05	
390	2.750000e+00	2.252425e-05	
391	2.800000e+00	2.253041e-05	
392	2.850000e+00	2.253598e-05	
393	2.900000e+00	2.254109e-05	
394	2.950000e+00	2.254580e-05	
395	3.000000e+00	2.255019e-05	
396	3.050000e+00	2.255431e-05	
397	3.100000e+00	2.255819e-05	
398	3.150000e+00	2.256186e-05	
399	3.200000e+00	2.256535e-05	
400	3.250000e+00	2.256869e-05	
401	3.300000e+00	2.257188e-05	
Note: No ".plot", ".print", or ".fourier" lines; no simulations run
