
Note: Compatibility modes selected: hs

Warning: m=xx on .subckt line will override multiplier m hierarchy!


Circuit: ***************************

Doing analysis at TEMP = 125.000000 and TNOM = 125.000000


No. of Data Rows : 402
                          ***************************
                          DC transfer characteristic  Mon Jan  9 13:57:17  2023
--------------------------------------------------------------------------------
Index   v-sweep         -i(vds)         
--------------------------------------------------------------------------------
0	0.000000e+00	-0.000000e+00	
1	5.000000e-02	1.264540e-06	
2	1.000000e-01	2.154323e-06	
3	1.500000e-01	2.737508e-06	
4	2.000000e-01	3.038326e-06	
5	2.500000e-01	3.123451e-06	
6	3.000000e-01	3.137357e-06	
7	3.500000e-01	3.141488e-06	
8	4.000000e-01	3.143808e-06	
9	4.500000e-01	3.145545e-06	
10	5.000000e-01	3.147016e-06	
11	5.500000e-01	3.148339e-06	
12	6.000000e-01	3.149567e-06	
13	6.500000e-01	3.150729e-06	
14	7.000000e-01	3.151843e-06	
15	7.500000e-01	3.152919e-06	
16	8.000000e-01	3.153965e-06	
17	8.500000e-01	3.154986e-06	
18	9.000000e-01	3.155988e-06	
19	9.500000e-01	3.156971e-06	
20	1.000000e+00	3.157940e-06	
21	1.050000e+00	3.158896e-06	
22	1.100000e+00	3.159840e-06	
23	1.150000e+00	3.160774e-06	
24	1.200000e+00	3.161699e-06	
25	1.250000e+00	3.162616e-06	
26	1.300000e+00	3.163526e-06	
27	1.350000e+00	3.164429e-06	
28	1.400000e+00	3.165326e-06	
29	1.450000e+00	3.166218e-06	
30	1.500000e+00	3.167105e-06	
31	1.550000e+00	3.167986e-06	
32	1.600000e+00	3.168864e-06	
33	1.650000e+00	3.169738e-06	
34	1.700000e+00	3.170609e-06	
35	1.750000e+00	3.171477e-06	
36	1.800000e+00	3.172344e-06	
37	1.850000e+00	3.173209e-06	
38	1.900000e+00	3.174074e-06	
39	1.950000e+00	3.174941e-06	
40	2.000000e+00	3.175812e-06	
41	2.050000e+00	3.176688e-06	
42	2.100000e+00	3.177572e-06	
43	2.150000e+00	3.178469e-06	
44	2.200000e+00	3.179382e-06	
45	2.250000e+00	3.180317e-06	
46	2.300000e+00	3.181279e-06	
47	2.350000e+00	3.182275e-06	
48	2.400000e+00	3.183314e-06	
49	2.450000e+00	3.184406e-06	
50	2.500000e+00	3.185561e-06	
51	2.550000e+00	3.186791e-06	
52	2.600000e+00	3.188111e-06	
53	2.650000e+00	3.189534e-06	
54	2.700000e+00	3.191079e-06	

Index   v-sweep         -i(vds)         
--------------------------------------------------------------------------------
55	2.750000e+00	3.192764e-06	
56	2.800000e+00	3.194610e-06	
57	2.850000e+00	3.196637e-06	
58	2.900000e+00	3.198870e-06	
59	2.950000e+00	3.201335e-06	
60	3.000000e+00	3.204059e-06	
61	3.050000e+00	3.207071e-06	
62	3.100000e+00	3.210402e-06	
63	3.150000e+00	3.214085e-06	
64	3.200000e+00	3.218154e-06	
65	3.250000e+00	3.222644e-06	
66	3.300000e+00	3.227595e-06	
67	0.000000e+00	-0.000000e+00	
68	5.000000e-02	3.613786e-06	
69	1.000000e-01	6.830226e-06	
70	1.500000e-01	9.716347e-06	
71	2.000000e-01	1.228842e-05	
72	2.500000e-01	1.455076e-05	
73	3.000000e-01	1.650486e-05	
74	3.500000e-01	1.815163e-05	
75	4.000000e-01	1.949206e-05	
76	4.500000e-01	2.052770e-05	
77	5.000000e-01	2.126222e-05	
78	5.500000e-01	2.170842e-05	
79	6.000000e-01	2.191453e-05	
80	6.500000e-01	2.198703e-05	
81	7.000000e-01	2.201501e-05	
82	7.500000e-01	2.202995e-05	
83	8.000000e-01	2.204011e-05	
84	8.500000e-01	2.204804e-05	
85	9.000000e-01	2.205472e-05	
86	9.500000e-01	2.206061e-05	
87	1.000000e+00	2.206596e-05	
88	1.050000e+00	2.207090e-05	
89	1.100000e+00	2.207554e-05	
90	1.150000e+00	2.207993e-05	
91	1.200000e+00	2.208413e-05	
92	1.250000e+00	2.208817e-05	
93	1.300000e+00	2.209207e-05	
94	1.350000e+00	2.209585e-05	
95	1.400000e+00	2.209953e-05	
96	1.450000e+00	2.210312e-05	
97	1.500000e+00	2.210663e-05	
98	1.550000e+00	2.211007e-05	
99	1.600000e+00	2.211345e-05	
100	1.650000e+00	2.211677e-05	
101	1.700000e+00	2.212004e-05	
102	1.750000e+00	2.212326e-05	
103	1.800000e+00	2.212644e-05	
104	1.850000e+00	2.212958e-05	
105	1.900000e+00	2.213269e-05	
106	1.950000e+00	2.213576e-05	
107	2.000000e+00	2.213881e-05	
108	2.050000e+00	2.214183e-05	
109	2.100000e+00	2.214483e-05	
110	2.150000e+00	2.214781e-05	
111	2.200000e+00	2.215079e-05	
112	2.250000e+00	2.215376e-05	

Index   v-sweep         -i(vds)         
--------------------------------------------------------------------------------
113	2.300000e+00	2.215673e-05	
114	2.350000e+00	2.215973e-05	
115	2.400000e+00	2.216277e-05	
116	2.450000e+00	2.216585e-05	
117	2.500000e+00	2.216902e-05	
118	2.550000e+00	2.217230e-05	
119	2.600000e+00	2.217572e-05	
120	2.650000e+00	2.217932e-05	
121	2.700000e+00	2.218316e-05	
122	2.750000e+00	2.218728e-05	
123	2.800000e+00	2.219177e-05	
124	2.850000e+00	2.219669e-05	
125	2.900000e+00	2.220212e-05	
126	2.950000e+00	2.220817e-05	
127	3.000000e+00	2.221494e-05	
128	3.050000e+00	2.222255e-05	
129	3.100000e+00	2.223113e-05	
130	3.150000e+00	2.224082e-05	
131	3.200000e+00	2.225178e-05	
132	3.250000e+00	2.226418e-05	
133	3.300000e+00	2.227819e-05	
134	0.000000e+00	-0.000000e+00	
135	5.000000e-02	5.714985e-06	
136	1.000000e-01	1.105041e-05	
137	1.500000e-01	1.607322e-05	
138	2.000000e-01	2.079962e-05	
139	2.500000e-01	2.523381e-05	
140	3.000000e-01	2.937715e-05	
141	3.500000e-01	3.323035e-05	
142	4.000000e-01	3.679396e-05	
143	4.500000e-01	4.006848e-05	
144	5.000000e-01	4.305443e-05	
145	5.500000e-01	4.575232e-05	
146	6.000000e-01	4.816270e-05	
147	6.500000e-01	5.028615e-05	
148	7.000000e-01	5.212334e-05	
149	7.500000e-01	5.367512e-05	
150	8.000000e-01	5.494280e-05	
151	8.500000e-01	5.592885e-05	
152	9.000000e-01	5.663933e-05	
153	9.500000e-01	5.709174e-05	
154	1.000000e+00	5.733346e-05	
155	1.050000e+00	5.744668e-05	
156	1.100000e+00	5.750303e-05	
157	1.150000e+00	5.753668e-05	
158	1.200000e+00	5.756029e-05	
159	1.250000e+00	5.757867e-05	
160	1.300000e+00	5.759397e-05	
161	1.350000e+00	5.760725e-05	
162	1.400000e+00	5.761912e-05	
163	1.450000e+00	5.762995e-05	
164	1.500000e+00	5.763997e-05	
165	1.550000e+00	5.764935e-05	
166	1.600000e+00	5.765821e-05	
167	1.650000e+00	5.766663e-05	
168	1.700000e+00	5.767469e-05	
169	1.750000e+00	5.768244e-05	
170	1.800000e+00	5.768992e-05	

Index   v-sweep         -i(vds)         
--------------------------------------------------------------------------------
171	1.850000e+00	5.769715e-05	
172	1.900000e+00	5.770418e-05	
173	1.950000e+00	5.771103e-05	
174	2.000000e+00	5.771771e-05	
175	2.050000e+00	5.772423e-05	
176	2.100000e+00	5.773062e-05	
177	2.150000e+00	5.773689e-05	
178	2.200000e+00	5.774305e-05	
179	2.250000e+00	5.774910e-05	
180	2.300000e+00	5.775506e-05	
181	2.350000e+00	5.776093e-05	
182	2.400000e+00	5.776673e-05	
183	2.450000e+00	5.777246e-05	
184	2.500000e+00	5.777814e-05	
185	2.550000e+00	5.778377e-05	
186	2.600000e+00	5.778938e-05	
187	2.650000e+00	5.779498e-05	
188	2.700000e+00	5.780060e-05	
189	2.750000e+00	5.780628e-05	
190	2.800000e+00	5.781205e-05	
191	2.850000e+00	5.781797e-05	
192	2.900000e+00	5.782410e-05	
193	2.950000e+00	5.783052e-05	
194	3.000000e+00	5.783731e-05	
195	3.050000e+00	5.784460e-05	
196	3.100000e+00	5.785250e-05	
197	3.150000e+00	5.786118e-05	
198	3.200000e+00	5.787080e-05	
199	3.250000e+00	5.788157e-05	
200	3.300000e+00	5.789371e-05	
201	0.000000e+00	-0.000000e+00	
202	5.000000e-02	7.483858e-06	
203	1.000000e-01	1.461373e-05	
204	1.500000e-01	2.145651e-05	
205	2.000000e-01	2.802832e-05	
206	2.500000e-01	3.433329e-05	
207	3.000000e-01	4.037271e-05	
208	3.500000e-01	4.614721e-05	
209	4.000000e-01	5.165727e-05	
210	4.500000e-01	5.690330e-05	
211	5.000000e-01	6.188574e-05	
212	5.500000e-01	6.660501e-05	
213	6.000000e-01	7.106151e-05	
214	6.500000e-01	7.525567e-05	
215	7.000000e-01	7.918792e-05	
216	7.500000e-01	8.285867e-05	
217	8.000000e-01	8.626835e-05	
218	8.500000e-01	8.941739e-05	
219	9.000000e-01	9.230624e-05	
220	9.500000e-01	9.493533e-05	
221	1.000000e+00	9.730517e-05	
222	1.050000e+00	9.941626e-05	
223	1.100000e+00	1.012692e-04	
224	1.150000e+00	1.028649e-04	
225	1.200000e+00	1.042043e-04	
226	1.250000e+00	1.052896e-04	
227	1.300000e+00	1.061251e-04	
228	1.350000e+00	1.067212e-04	

Index   v-sweep         -i(vds)         
--------------------------------------------------------------------------------
229	1.400000e+00	1.071034e-04	
230	1.450000e+00	1.073228e-04	
231	1.500000e+00	1.074446e-04	
232	1.550000e+00	1.075176e-04	
233	1.600000e+00	1.075670e-04	
234	1.650000e+00	1.076040e-04	
235	1.700000e+00	1.076337e-04	
236	1.750000e+00	1.076588e-04	
237	1.800000e+00	1.076807e-04	
238	1.850000e+00	1.077003e-04	
239	1.900000e+00	1.077182e-04	
240	1.950000e+00	1.077347e-04	
241	2.000000e+00	1.077500e-04	
242	2.050000e+00	1.077645e-04	
243	2.100000e+00	1.077782e-04	
244	2.150000e+00	1.077912e-04	
245	2.200000e+00	1.078037e-04	
246	2.250000e+00	1.078157e-04	
247	2.300000e+00	1.078272e-04	
248	2.350000e+00	1.078384e-04	
249	2.400000e+00	1.078493e-04	
250	2.450000e+00	1.078598e-04	
251	2.500000e+00	1.078701e-04	
252	2.550000e+00	1.078801e-04	
253	2.600000e+00	1.078900e-04	
254	2.650000e+00	1.078996e-04	
255	2.700000e+00	1.079090e-04	
256	2.750000e+00	1.079182e-04	
257	2.800000e+00	1.079273e-04	
258	2.850000e+00	1.079363e-04	
259	2.900000e+00	1.079451e-04	
260	2.950000e+00	1.079538e-04	
261	3.000000e+00	1.079625e-04	
262	3.050000e+00	1.079712e-04	
263	3.100000e+00	1.079798e-04	
264	3.150000e+00	1.079885e-04	
265	3.200000e+00	1.079974e-04	
266	3.250000e+00	1.080064e-04	
267	3.300000e+00	1.080158e-04	
268	0.000000e+00	-0.000000e+00	
269	5.000000e-02	8.913700e-06	
270	1.000000e-01	1.750097e-05	
271	1.500000e-01	2.582863e-05	
272	2.000000e-01	3.391274e-05	
273	2.500000e-01	4.175735e-05	
274	3.000000e-01	4.936370e-05	
275	3.500000e-01	5.673235e-05	
276	4.000000e-01	6.386370e-05	
277	4.500000e-01	7.075811e-05	
278	5.000000e-01	7.741593e-05	
279	5.500000e-01	8.383752e-05	
280	6.000000e-01	9.002323e-05	
281	6.500000e-01	9.597340e-05	
282	7.000000e-01	1.016884e-04	
283	7.500000e-01	1.071685e-04	
284	8.000000e-01	1.124142e-04	
285	8.500000e-01	1.174257e-04	
286	9.000000e-01	1.222034e-04	

Index   v-sweep         -i(vds)         
--------------------------------------------------------------------------------
287	9.500000e-01	1.267477e-04	
288	1.000000e+00	1.310589e-04	
289	1.050000e+00	1.351373e-04	
290	1.100000e+00	1.389833e-04	
291	1.150000e+00	1.425973e-04	
292	1.200000e+00	1.459796e-04	
293	1.250000e+00	1.491305e-04	
294	1.300000e+00	1.520505e-04	
295	1.350000e+00	1.547398e-04	
296	1.400000e+00	1.571990e-04	
297	1.450000e+00	1.594283e-04	
298	1.500000e+00	1.614284e-04	
299	1.550000e+00	1.631997e-04	
300	1.600000e+00	1.647429e-04	
301	1.650000e+00	1.660592e-04	
302	1.700000e+00	1.671503e-04	
303	1.750000e+00	1.680199e-04	
304	1.800000e+00	1.686758e-04	
305	1.850000e+00	1.691355e-04	
306	1.900000e+00	1.694331e-04	
307	1.950000e+00	1.696175e-04	
308	2.000000e+00	1.697350e-04	
309	2.050000e+00	1.698158e-04	
310	2.100000e+00	1.698760e-04	
311	2.150000e+00	1.699238e-04	
312	2.200000e+00	1.699637e-04	
313	2.250000e+00	1.699981e-04	
314	2.300000e+00	1.700285e-04	
315	2.350000e+00	1.700560e-04	
316	2.400000e+00	1.700810e-04	
317	2.450000e+00	1.701043e-04	
318	2.500000e+00	1.701259e-04	
319	2.550000e+00	1.701463e-04	
320	2.600000e+00	1.701656e-04	
321	2.650000e+00	1.701840e-04	
322	2.700000e+00	1.702016e-04	
323	2.750000e+00	1.702184e-04	
324	2.800000e+00	1.702347e-04	
325	2.850000e+00	1.702503e-04	
326	2.900000e+00	1.702655e-04	
327	2.950000e+00	1.702802e-04	
328	3.000000e+00	1.702946e-04	
329	3.050000e+00	1.703085e-04	
330	3.100000e+00	1.703221e-04	
331	3.150000e+00	1.703355e-04	
332	3.200000e+00	1.703485e-04	
333	3.250000e+00	1.703613e-04	
334	3.300000e+00	1.703738e-04	
335	0.000000e+00	-0.000000e+00	
336	5.000000e-02	1.002614e-05	
337	1.000000e-01	1.975307e-05	
338	1.500000e-01	2.924753e-05	
339	2.000000e-01	3.852553e-05	
340	2.500000e-01	4.759106e-05	
341	3.000000e-01	5.644529e-05	
342	3.500000e-01	6.508872e-05	
343	4.000000e-01	7.352169e-05	
344	4.500000e-01	8.174451e-05	

Index   v-sweep         -i(vds)         
--------------------------------------------------------------------------------
345	5.000000e-01	8.975746e-05	
346	5.500000e-01	9.756083e-05	
347	6.000000e-01	1.051549e-04	
348	6.500000e-01	1.125400e-04	
349	7.000000e-01	1.197164e-04	
350	7.500000e-01	1.266844e-04	
351	8.000000e-01	1.334442e-04	
352	8.500000e-01	1.399962e-04	
353	9.000000e-01	1.463406e-04	
354	9.500000e-01	1.524778e-04	
355	1.000000e+00	1.584079e-04	
356	1.050000e+00	1.641314e-04	
357	1.100000e+00	1.696484e-04	
358	1.150000e+00	1.749593e-04	
359	1.200000e+00	1.800644e-04	
360	1.250000e+00	1.849638e-04	
361	1.300000e+00	1.896580e-04	
362	1.350000e+00	1.941472e-04	
363	1.400000e+00	1.984317e-04	
364	1.450000e+00	2.025117e-04	
365	1.500000e+00	2.063876e-04	
366	1.550000e+00	2.100597e-04	
367	1.600000e+00	2.135281e-04	
368	1.650000e+00	2.167933e-04	
369	1.700000e+00	2.198554e-04	
370	1.750000e+00	2.227149e-04	
371	1.800000e+00	2.253720e-04	
372	1.850000e+00	2.278270e-04	
373	1.900000e+00	2.300802e-04	
374	1.950000e+00	2.321321e-04	
375	2.000000e+00	2.339830e-04	
376	2.050000e+00	2.356334e-04	
377	2.100000e+00	2.370840e-04	
378	2.150000e+00	2.383358e-04	
379	2.200000e+00	2.393905e-04	
380	2.250000e+00	2.402511e-04	
381	2.300000e+00	2.409240e-04	
382	2.350000e+00	2.414224e-04	
383	2.400000e+00	2.417708e-04	
384	2.450000e+00	2.420054e-04	
385	2.500000e+00	2.421646e-04	
386	2.550000e+00	2.422777e-04	
387	2.600000e+00	2.423631e-04	
388	2.650000e+00	2.424312e-04	
389	2.700000e+00	2.424877e-04	
390	2.750000e+00	2.425363e-04	
391	2.800000e+00	2.425790e-04	
392	2.850000e+00	2.426173e-04	
393	2.900000e+00	2.426521e-04	
394	2.950000e+00	2.426842e-04	
395	3.000000e+00	2.427140e-04	
396	3.050000e+00	2.427419e-04	
397	3.100000e+00	2.427682e-04	
398	3.150000e+00	2.427932e-04	
399	3.200000e+00	2.428169e-04	
400	3.250000e+00	2.428397e-04	
401	3.300000e+00	2.428615e-04	
Note: No ".plot", ".print", or ".fourier" lines; no simulations run
