
Note: Compatibility modes selected: hs

Warning: m=xx on .subckt line will override multiplier m hierarchy!


Circuit: ***************************

Doing analysis at TEMP = 125.000000 and TNOM = 125.000000


No. of Data Rows : 402
                          ***************************
                          DC transfer characteristic  Mon Jan  9 13:57:19  2023
--------------------------------------------------------------------------------
Index   v-sweep         -i(vds)         
--------------------------------------------------------------------------------
0	0.000000e+00	-0.000000e+00	
1	5.000000e-02	8.734668e-06	
2	1.000000e-01	1.528632e-05	
3	1.500000e-01	1.981163e-05	
4	2.000000e-01	2.252613e-05	
5	2.500000e-01	2.387429e-05	
6	3.000000e-01	2.449798e-05	
7	3.500000e-01	2.483841e-05	
8	4.000000e-01	2.506722e-05	
9	4.500000e-01	2.524339e-05	
10	5.000000e-01	2.539015e-05	
11	5.500000e-01	2.551837e-05	
12	6.000000e-01	2.563389e-05	
13	6.500000e-01	2.574016e-05	
14	7.000000e-01	2.583940e-05	
15	7.500000e-01	2.593311e-05	
16	8.000000e-01	2.602236e-05	
17	8.500000e-01	2.610793e-05	
18	9.000000e-01	2.619043e-05	
19	9.500000e-01	2.627031e-05	
20	1.000000e+00	2.634794e-05	
21	1.050000e+00	2.642361e-05	
22	1.100000e+00	2.649757e-05	
23	1.150000e+00	2.657001e-05	
24	1.200000e+00	2.664111e-05	
25	1.250000e+00	2.671099e-05	
26	1.300000e+00	2.677979e-05	
27	1.350000e+00	2.684761e-05	
28	1.400000e+00	2.691454e-05	
29	1.450000e+00	2.698065e-05	
30	1.500000e+00	2.704602e-05	
31	1.550000e+00	2.711071e-05	
32	1.600000e+00	2.717477e-05	
33	1.650000e+00	2.723826e-05	
34	1.700000e+00	2.730123e-05	
35	1.750000e+00	2.736372e-05	
36	1.800000e+00	2.742578e-05	
37	1.850000e+00	2.748746e-05	
38	1.900000e+00	2.754879e-05	
39	1.950000e+00	2.760984e-05	
40	2.000000e+00	2.767066e-05	
41	2.050000e+00	2.773130e-05	
42	2.100000e+00	2.779183e-05	
43	2.150000e+00	2.785233e-05	
44	2.200000e+00	2.791288e-05	
45	2.250000e+00	2.797357e-05	
46	2.300000e+00	2.803451e-05	
47	2.350000e+00	2.809581e-05	
48	2.400000e+00	2.815761e-05	
49	2.450000e+00	2.822004e-05	
50	2.500000e+00	2.828329e-05	
51	2.550000e+00	2.834752e-05	
52	2.600000e+00	2.841294e-05	
53	2.650000e+00	2.847976e-05	
54	2.700000e+00	2.854823e-05	

Index   v-sweep         -i(vds)         
--------------------------------------------------------------------------------
55	2.750000e+00	2.861860e-05	
56	2.800000e+00	2.869117e-05	
57	2.850000e+00	2.876625e-05	
58	2.900000e+00	2.884416e-05	
59	2.950000e+00	2.892528e-05	
60	3.000000e+00	2.900998e-05	
61	3.050000e+00	2.909869e-05	
62	3.100000e+00	2.919185e-05	
63	3.150000e+00	2.928993e-05	
64	3.200000e+00	2.939344e-05	
65	3.250000e+00	2.950292e-05	
66	3.300000e+00	2.961892e-05	
67	0.000000e+00	-0.000000e+00	
68	5.000000e-02	3.006996e-05	
69	1.000000e-01	5.725616e-05	
70	1.500000e-01	8.169171e-05	
71	2.000000e-01	1.034799e-04	
72	2.500000e-01	1.227142e-04	
73	3.000000e-01	1.394832e-04	
74	3.500000e-01	1.538724e-04	
75	4.000000e-01	1.659671e-04	
76	4.500000e-01	1.758562e-04	
77	5.000000e-01	1.836462e-04	
78	5.500000e-01	1.894931e-04	
79	6.000000e-01	1.936608e-04	
80	6.500000e-01	1.965433e-04	
81	7.000000e-01	1.985642e-04	
82	7.500000e-01	2.000495e-04	
83	8.000000e-01	2.012021e-04	
84	8.500000e-01	2.021396e-04	
85	9.000000e-01	2.029310e-04	
86	9.500000e-01	2.036182e-04	
87	1.000000e+00	2.042281e-04	
88	1.050000e+00	2.047787e-04	
89	1.100000e+00	2.052824e-04	
90	1.150000e+00	2.057484e-04	
91	1.200000e+00	2.061833e-04	
92	1.250000e+00	2.065922e-04	
93	1.300000e+00	2.069791e-04	
94	1.350000e+00	2.073470e-04	
95	1.400000e+00	2.076985e-04	
96	1.450000e+00	2.080357e-04	
97	1.500000e+00	2.083602e-04	
98	1.550000e+00	2.086735e-04	
99	1.600000e+00	2.089767e-04	
100	1.650000e+00	2.092709e-04	
101	1.700000e+00	2.095568e-04	
102	1.750000e+00	2.098354e-04	
103	1.800000e+00	2.101072e-04	
104	1.850000e+00	2.103728e-04	
105	1.900000e+00	2.106327e-04	
106	1.950000e+00	2.108874e-04	
107	2.000000e+00	2.111373e-04	
108	2.050000e+00	2.113828e-04	
109	2.100000e+00	2.116243e-04	
110	2.150000e+00	2.118622e-04	
111	2.200000e+00	2.120967e-04	
112	2.250000e+00	2.123283e-04	

Index   v-sweep         -i(vds)         
--------------------------------------------------------------------------------
113	2.300000e+00	2.125574e-04	
114	2.350000e+00	2.127844e-04	
115	2.400000e+00	2.130097e-04	
116	2.450000e+00	2.132338e-04	
117	2.500000e+00	2.134574e-04	
118	2.550000e+00	2.136809e-04	
119	2.600000e+00	2.139051e-04	
120	2.650000e+00	2.141308e-04	
121	2.700000e+00	2.143589e-04	
122	2.750000e+00	2.145903e-04	
123	2.800000e+00	2.148261e-04	
124	2.850000e+00	2.150675e-04	
125	2.900000e+00	2.153159e-04	
126	2.950000e+00	2.155726e-04	
127	3.000000e+00	2.158394e-04	
128	3.050000e+00	2.161179e-04	
129	3.100000e+00	2.164102e-04	
130	3.150000e+00	2.167181e-04	
131	3.200000e+00	2.170442e-04	
132	3.250000e+00	2.173906e-04	
133	3.300000e+00	2.177602e-04	
134	0.000000e+00	-0.000000e+00	
135	5.000000e-02	4.752309e-05	
136	1.000000e-01	9.200160e-05	
137	1.500000e-01	1.335628e-04	
138	2.000000e-01	1.723045e-04	
139	2.500000e-01	2.083150e-04	
140	3.000000e-01	2.416775e-04	
141	3.500000e-01	2.724715e-04	
142	4.000000e-01	3.007730e-04	
143	4.500000e-01	3.266548e-04	
144	5.000000e-01	3.501864e-04	
145	5.500000e-01	3.714340e-04	
146	6.000000e-01	3.904600e-04	
147	6.500000e-01	4.073227e-04	
148	7.000000e-01	4.220757e-04	
149	7.500000e-01	4.347683e-04	
150	8.000000e-01	4.454500e-04	
151	8.500000e-01	4.541886e-04	
152	9.000000e-01	4.611121e-04	
153	9.500000e-01	4.664545e-04	
154	1.000000e+00	4.705415e-04	
155	1.050000e+00	4.737076e-04	
156	1.100000e+00	4.762245e-04	
157	1.150000e+00	4.782849e-04	
158	1.200000e+00	4.800185e-04	
159	1.250000e+00	4.815119e-04	
160	1.300000e+00	4.828237e-04	
161	1.350000e+00	4.839948e-04	
162	1.400000e+00	4.850543e-04	
163	1.450000e+00	4.860234e-04	
164	1.500000e+00	4.869182e-04	
165	1.550000e+00	4.877508e-04	
166	1.600000e+00	4.885307e-04	
167	1.650000e+00	4.892654e-04	
168	1.700000e+00	4.899611e-04	
169	1.750000e+00	4.906226e-04	
170	1.800000e+00	4.912541e-04	

Index   v-sweep         -i(vds)         
--------------------------------------------------------------------------------
171	1.850000e+00	4.918589e-04	
172	1.900000e+00	4.924400e-04	
173	1.950000e+00	4.929996e-04	
174	2.000000e+00	4.935401e-04	
175	2.050000e+00	4.940630e-04	
176	2.100000e+00	4.945700e-04	
177	2.150000e+00	4.950626e-04	
178	2.200000e+00	4.955418e-04	
179	2.250000e+00	4.960088e-04	
180	2.300000e+00	4.964646e-04	
181	2.350000e+00	4.969101e-04	
182	2.400000e+00	4.973463e-04	
183	2.450000e+00	4.977739e-04	
184	2.500000e+00	4.981937e-04	
185	2.550000e+00	4.986068e-04	
186	2.600000e+00	4.990139e-04	
187	2.650000e+00	4.994160e-04	
188	2.700000e+00	4.998141e-04	
189	2.750000e+00	5.002094e-04	
190	2.800000e+00	5.006033e-04	
191	2.850000e+00	5.009970e-04	
192	2.900000e+00	5.013922e-04	
193	2.950000e+00	5.017906e-04	
194	3.000000e+00	5.021943e-04	
195	3.050000e+00	5.026055e-04	
196	3.100000e+00	5.030267e-04	
197	3.150000e+00	5.034605e-04	
198	3.200000e+00	5.039102e-04	
199	3.250000e+00	5.043789e-04	
200	3.300000e+00	5.048704e-04	
201	0.000000e+00	-0.000000e+00	
202	5.000000e-02	6.136997e-05	
203	1.000000e-01	1.196917e-04	
204	1.500000e-01	1.750832e-04	
205	2.000000e-01	2.276342e-04	
206	2.500000e-01	2.774252e-04	
207	3.000000e-01	3.245323e-04	
208	3.500000e-01	3.690285e-04	
209	4.000000e-01	4.109841e-04	
210	4.500000e-01	4.504666e-04	
211	5.000000e-01	4.875412e-04	
212	5.500000e-01	5.222704e-04	
213	6.000000e-01	5.547141e-04	
214	6.500000e-01	5.849297e-04	
215	7.000000e-01	6.129720e-04	
216	7.500000e-01	6.388925e-04	
217	8.000000e-01	6.627392e-04	
218	8.500000e-01	6.845557e-04	
219	9.000000e-01	7.043795e-04	
220	9.500000e-01	7.222398e-04	
221	1.000000e+00	7.381554e-04	
222	1.050000e+00	7.521331e-04	
223	1.100000e+00	7.641748e-04	
224	1.150000e+00	7.743031e-04	
225	1.200000e+00	7.826099e-04	
226	1.250000e+00	7.892947e-04	
227	1.300000e+00	7.946432e-04	
228	1.350000e+00	7.989573e-04	

Index   v-sweep         -i(vds)         
--------------------------------------------------------------------------------
229	1.400000e+00	8.024968e-04	
230	1.450000e+00	8.054605e-04	
231	1.500000e+00	8.079923e-04	
232	1.550000e+00	8.101949e-04	
233	1.600000e+00	8.121414e-04	
234	1.650000e+00	8.138849e-04	
235	1.700000e+00	8.154647e-04	
236	1.750000e+00	8.169101e-04	
237	1.800000e+00	8.182437e-04	
238	1.850000e+00	8.194830e-04	
239	1.900000e+00	8.206419e-04	
240	1.950000e+00	8.217314e-04	
241	2.000000e+00	8.227606e-04	
242	2.050000e+00	8.237369e-04	
243	2.100000e+00	8.246665e-04	
244	2.150000e+00	8.255545e-04	
245	2.200000e+00	8.264053e-04	
246	2.250000e+00	8.272226e-04	
247	2.300000e+00	8.280097e-04	
248	2.350000e+00	8.287694e-04	
249	2.400000e+00	8.295040e-04	
250	2.450000e+00	8.302157e-04	
251	2.500000e+00	8.309065e-04	
252	2.550000e+00	8.315781e-04	
253	2.600000e+00	8.322320e-04	
254	2.650000e+00	8.328698e-04	
255	2.700000e+00	8.334929e-04	
256	2.750000e+00	8.341026e-04	
257	2.800000e+00	8.347004e-04	
258	2.850000e+00	8.352877e-04	
259	2.900000e+00	8.358661e-04	
260	2.950000e+00	8.364371e-04	
261	3.000000e+00	8.370027e-04	
262	3.050000e+00	8.375648e-04	
263	3.100000e+00	8.381256e-04	
264	3.150000e+00	8.386876e-04	
265	3.200000e+00	8.392536e-04	
266	3.250000e+00	8.398267e-04	
267	3.300000e+00	8.404105e-04	
268	0.000000e+00	-0.000000e+00	
269	5.000000e-02	7.231788e-05	
270	1.000000e-01	1.416623e-04	
271	1.500000e-01	2.081416e-04	
272	2.000000e-01	2.718363e-04	
273	2.500000e-01	3.328182e-04	
274	3.000000e-01	3.911557e-04	
275	3.500000e-01	4.469142e-04	
276	4.000000e-01	5.001571e-04	
277	4.500000e-01	5.509457e-04	
278	5.000000e-01	5.993389e-04	
279	5.500000e-01	6.453941e-04	
280	6.000000e-01	6.891664e-04	
281	6.500000e-01	7.307092e-04	
282	7.000000e-01	7.700738e-04	
283	7.500000e-01	8.073098e-04	
284	8.000000e-01	8.424648e-04	
285	8.500000e-01	8.755843e-04	
286	9.000000e-01	9.067113e-04	

Index   v-sweep         -i(vds)         
--------------------------------------------------------------------------------
287	9.500000e-01	9.358866e-04	
288	1.000000e+00	9.631473e-04	
289	1.050000e+00	9.885268e-04	
290	1.100000e+00	1.012053e-03	
291	1.150000e+00	1.033745e-03	
292	1.200000e+00	1.053614e-03	
293	1.250000e+00	1.071653e-03	
294	1.300000e+00	1.087842e-03	
295	1.350000e+00	1.102144e-03	
296	1.400000e+00	1.114533e-03	
297	1.450000e+00	1.125033e-03	
298	1.500000e+00	1.133764e-03	
299	1.550000e+00	1.140946e-03	
300	1.600000e+00	1.146856e-03	
301	1.650000e+00	1.151764e-03	
302	1.700000e+00	1.155899e-03	
303	1.750000e+00	1.159440e-03	
304	1.800000e+00	1.162518e-03	
305	1.850000e+00	1.165232e-03	
306	1.900000e+00	1.167657e-03	
307	1.950000e+00	1.169846e-03	
308	2.000000e+00	1.171842e-03	
309	2.050000e+00	1.173677e-03	
310	2.100000e+00	1.175375e-03	
311	2.150000e+00	1.176958e-03	
312	2.200000e+00	1.178440e-03	
313	2.250000e+00	1.179836e-03	
314	2.300000e+00	1.181155e-03	
315	2.350000e+00	1.182407e-03	
316	2.400000e+00	1.183600e-03	
317	2.450000e+00	1.184739e-03	
318	2.500000e+00	1.185830e-03	
319	2.550000e+00	1.186877e-03	
320	2.600000e+00	1.187886e-03	
321	2.650000e+00	1.188858e-03	
322	2.700000e+00	1.189798e-03	
323	2.750000e+00	1.190708e-03	
324	2.800000e+00	1.191590e-03	
325	2.850000e+00	1.192448e-03	
326	2.900000e+00	1.193282e-03	
327	2.950000e+00	1.194095e-03	
328	3.000000e+00	1.194889e-03	
329	3.050000e+00	1.195666e-03	
330	3.100000e+00	1.196428e-03	
331	3.150000e+00	1.197177e-03	
332	3.200000e+00	1.197915e-03	
333	3.250000e+00	1.198646e-03	
334	3.300000e+00	1.199371e-03	
335	0.000000e+00	-0.000000e+00	
336	5.000000e-02	8.094855e-05	
337	1.000000e-01	1.590404e-04	
338	1.500000e-01	2.343747e-04	
339	2.000000e-01	3.070228e-04	
340	2.500000e-01	3.770485e-04	
341	3.000000e-01	4.445121e-04	
342	3.500000e-01	5.094716e-04	
343	4.000000e-01	5.719833e-04	
344	4.500000e-01	6.321020e-04	

Index   v-sweep         -i(vds)         
--------------------------------------------------------------------------------
345	5.000000e-01	6.898804e-04	
346	5.500000e-01	7.453700e-04	
347	6.000000e-01	7.986204e-04	
348	6.500000e-01	8.496801e-04	
349	7.000000e-01	8.985958e-04	
350	7.500000e-01	9.454129e-04	
351	8.000000e-01	9.901753e-04	
352	8.500000e-01	1.032926e-03	
353	9.000000e-01	1.073705e-03	
354	9.500000e-01	1.112552e-03	
355	1.000000e+00	1.149507e-03	
356	1.050000e+00	1.184603e-03	
357	1.100000e+00	1.217878e-03	
358	1.150000e+00	1.249361e-03	
359	1.200000e+00	1.279083e-03	
360	1.250000e+00	1.307070e-03	
361	1.300000e+00	1.333342e-03	
362	1.350000e+00	1.357913e-03	
363	1.400000e+00	1.380790e-03	
364	1.450000e+00	1.401963e-03	
365	1.500000e+00	1.421409e-03	
366	1.550000e+00	1.439082e-03	
367	1.600000e+00	1.454925e-03	
368	1.650000e+00	1.468881e-03	
369	1.700000e+00	1.480942e-03	
370	1.750000e+00	1.491182e-03	
371	1.800000e+00	1.499780e-03	
372	1.850000e+00	1.506979e-03	
373	1.900000e+00	1.513037e-03	
374	1.950000e+00	1.518189e-03	
375	2.000000e+00	1.522625e-03	
376	2.050000e+00	1.526496e-03	
377	2.100000e+00	1.529917e-03	
378	2.150000e+00	1.532974e-03	
379	2.200000e+00	1.535733e-03	
380	2.250000e+00	1.538247e-03	
381	2.300000e+00	1.540556e-03	
382	2.350000e+00	1.542690e-03	
383	2.400000e+00	1.544676e-03	
384	2.450000e+00	1.546534e-03	
385	2.500000e+00	1.548279e-03	
386	2.550000e+00	1.549927e-03	
387	2.600000e+00	1.551488e-03	
388	2.650000e+00	1.552972e-03	
389	2.700000e+00	1.554387e-03	
390	2.750000e+00	1.555740e-03	
391	2.800000e+00	1.557037e-03	
392	2.850000e+00	1.558284e-03	
393	2.900000e+00	1.559484e-03	
394	2.950000e+00	1.560643e-03	
395	3.000000e+00	1.561762e-03	
396	3.050000e+00	1.562846e-03	
397	3.100000e+00	1.563898e-03	
398	3.150000e+00	1.564920e-03	
399	3.200000e+00	1.565915e-03	
400	3.250000e+00	1.566886e-03	
401	3.300000e+00	1.567834e-03	
Note: No ".plot", ".print", or ".fourier" lines; no simulations run
