
Note: Compatibility modes selected: hs

Warning: m=xx on .subckt line will override multiplier m hierarchy!


Circuit: ***************************

Doing analysis at TEMP = -40.000000 and TNOM = -40.000000


No. of Data Rows : 402
                          ***************************
                          DC transfer characteristic  Mon Jan  9 13:57:17  2023
--------------------------------------------------------------------------------
Index   v-sweep         -i(vds)         
--------------------------------------------------------------------------------
0	0.000000e+00	-0.000000e+00	
1	5.000000e-02	3.836459e-07	
2	1.000000e-01	4.792733e-07	
3	1.500000e-01	4.927584e-07	
4	2.000000e-01	4.978129e-07	
5	2.500000e-01	5.012018e-07	
6	3.000000e-01	5.039463e-07	
7	3.500000e-01	5.063491e-07	
8	4.000000e-01	5.085382e-07	
9	4.500000e-01	5.105803e-07	
10	5.000000e-01	5.125145e-07	
11	5.500000e-01	5.143660e-07	
12	6.000000e-01	5.161522e-07	
13	6.500000e-01	5.178851e-07	
14	7.000000e-01	5.195740e-07	
15	7.500000e-01	5.212258e-07	
16	8.000000e-01	5.228459e-07	
17	8.500000e-01	5.244386e-07	
18	9.000000e-01	5.260075e-07	
19	9.500000e-01	5.275553e-07	
20	1.000000e+00	5.290844e-07	
21	1.050000e+00	5.305969e-07	
22	1.100000e+00	5.320945e-07	
23	1.150000e+00	5.335786e-07	
24	1.200000e+00	5.350504e-07	
25	1.250000e+00	5.365111e-07	
26	1.300000e+00	5.379616e-07	
27	1.350000e+00	5.394028e-07	
28	1.400000e+00	5.408355e-07	
29	1.450000e+00	5.422603e-07	
30	1.500000e+00	5.436780e-07	
31	1.550000e+00	5.450891e-07	
32	1.600000e+00	5.464944e-07	
33	1.650000e+00	5.478944e-07	
34	1.700000e+00	5.492900e-07	
35	1.750000e+00	5.506818e-07	
36	1.800000e+00	5.520707e-07	
37	1.850000e+00	5.534575e-07	
38	1.900000e+00	5.548435e-07	
39	1.950000e+00	5.562298e-07	
40	2.000000e+00	5.576178e-07	
41	2.050000e+00	5.590090e-07	
42	2.100000e+00	5.604053e-07	
43	2.150000e+00	5.618086e-07	
44	2.200000e+00	5.632214e-07	
45	2.250000e+00	5.646460e-07	
46	2.300000e+00	5.660855e-07	
47	2.350000e+00	5.675429e-07	
48	2.400000e+00	5.690217e-07	
49	2.450000e+00	5.705258e-07	
50	2.500000e+00	5.720593e-07	
51	2.550000e+00	5.736268e-07	
52	2.600000e+00	5.752333e-07	
53	2.650000e+00	5.768839e-07	
54	2.700000e+00	5.785846e-07	

Index   v-sweep         -i(vds)         
--------------------------------------------------------------------------------
55	2.750000e+00	5.803412e-07	
56	2.800000e+00	5.821604e-07	
57	2.850000e+00	5.840492e-07	
58	2.900000e+00	5.860148e-07	
59	2.950000e+00	5.880651e-07	
60	3.000000e+00	5.902082e-07	
61	3.050000e+00	5.924528e-07	
62	3.100000e+00	5.948080e-07	
63	3.150000e+00	5.972832e-07	
64	3.200000e+00	5.998883e-07	
65	3.250000e+00	6.026337e-07	
66	3.300000e+00	6.055301e-07	
67	0.000000e+00	-0.000000e+00	
68	5.000000e-02	4.817296e-06	
69	1.000000e-01	9.015727e-06	
70	1.500000e-01	1.261417e-05	
71	2.000000e-01	1.563090e-05	
72	2.500000e-01	1.808390e-05	
73	3.000000e-01	1.999164e-05	
74	3.500000e-01	2.137626e-05	
75	4.000000e-01	2.227663e-05	
76	4.500000e-01	2.278552e-05	
77	5.000000e-01	2.305764e-05	
78	5.500000e-01	2.321880e-05	
79	6.000000e-01	2.332856e-05	
80	6.500000e-01	2.341137e-05	
81	7.000000e-01	2.347820e-05	
82	7.500000e-01	2.353459e-05	
83	8.000000e-01	2.358369e-05	
84	8.500000e-01	2.362742e-05	
85	9.000000e-01	2.366704e-05	
86	9.500000e-01	2.370343e-05	
87	1.000000e+00	2.373719e-05	
88	1.050000e+00	2.376879e-05	
89	1.100000e+00	2.379859e-05	
90	1.150000e+00	2.382683e-05	
91	1.200000e+00	2.385376e-05	
92	1.250000e+00	2.387953e-05	
93	1.300000e+00	2.390428e-05	
94	1.350000e+00	2.392814e-05	
95	1.400000e+00	2.395121e-05	
96	1.450000e+00	2.397355e-05	
97	1.500000e+00	2.399526e-05	
98	1.550000e+00	2.401638e-05	
99	1.600000e+00	2.403696e-05	
100	1.650000e+00	2.405707e-05	
101	1.700000e+00	2.407673e-05	
102	1.750000e+00	2.409598e-05	
103	1.800000e+00	2.411486e-05	
104	1.850000e+00	2.413340e-05	
105	1.900000e+00	2.415163e-05	
106	1.950000e+00	2.416958e-05	
107	2.000000e+00	2.418728e-05	
108	2.050000e+00	2.420476e-05	
109	2.100000e+00	2.422206e-05	
110	2.150000e+00	2.423921e-05	
111	2.200000e+00	2.425625e-05	
112	2.250000e+00	2.427324e-05	

Index   v-sweep         -i(vds)         
--------------------------------------------------------------------------------
113	2.300000e+00	2.429022e-05	
114	2.350000e+00	2.430726e-05	
115	2.400000e+00	2.432442e-05	
116	2.450000e+00	2.434178e-05	
117	2.500000e+00	2.435944e-05	
118	2.550000e+00	2.437747e-05	
119	2.600000e+00	2.439601e-05	
120	2.650000e+00	2.441515e-05	
121	2.700000e+00	2.443504e-05	
122	2.750000e+00	2.445583e-05	
123	2.800000e+00	2.447767e-05	
124	2.850000e+00	2.450074e-05	
125	2.900000e+00	2.452522e-05	
126	2.950000e+00	2.455132e-05	
127	3.000000e+00	2.457925e-05	
128	3.050000e+00	2.460926e-05	
129	3.100000e+00	2.464158e-05	
130	3.150000e+00	2.467649e-05	
131	3.200000e+00	2.471425e-05	
132	3.250000e+00	2.475518e-05	
133	3.300000e+00	2.479959e-05	
134	0.000000e+00	-0.000000e+00	
135	5.000000e-02	8.721385e-06	
136	1.000000e-01	1.680396e-05	
137	1.500000e-01	2.426515e-05	
138	2.000000e-01	3.112176e-05	
139	2.500000e-01	3.738997e-05	
140	3.000000e-01	4.308538e-05	
141	3.500000e-01	4.822299e-05	
142	4.000000e-01	5.281722e-05	
143	4.500000e-01	5.688189e-05	
144	5.000000e-01	6.043011e-05	
145	5.500000e-01	6.347412e-05	
146	6.000000e-01	6.602500e-05	
147	6.500000e-01	6.809257e-05	
148	7.000000e-01	6.968795e-05	
149	7.500000e-01	7.083821e-05	
150	8.000000e-01	7.161589e-05	
151	8.500000e-01	7.213482e-05	
152	9.000000e-01	7.249671e-05	
153	9.500000e-01	7.276546e-05	
154	1.000000e+00	7.297649e-05	
155	1.050000e+00	7.314957e-05	
156	1.100000e+00	7.329627e-05	
157	1.150000e+00	7.342377e-05	
158	1.200000e+00	7.353676e-05	
159	1.250000e+00	7.363844e-05	
160	1.300000e+00	7.373109e-05	
161	1.350000e+00	7.381636e-05	
162	1.400000e+00	7.389551e-05	
163	1.450000e+00	7.396950e-05	
164	1.500000e+00	7.403908e-05	
165	1.550000e+00	7.410485e-05	
166	1.600000e+00	7.416731e-05	
167	1.650000e+00	7.422686e-05	
168	1.700000e+00	7.428382e-05	
169	1.750000e+00	7.433848e-05	
170	1.800000e+00	7.439107e-05	

Index   v-sweep         -i(vds)         
--------------------------------------------------------------------------------
171	1.850000e+00	7.444180e-05	
172	1.900000e+00	7.449085e-05	
173	1.950000e+00	7.453836e-05	
174	2.000000e+00	7.458446e-05	
175	2.050000e+00	7.462929e-05	
176	2.100000e+00	7.467294e-05	
177	2.150000e+00	7.471552e-05	
178	2.200000e+00	7.475712e-05	
179	2.250000e+00	7.479783e-05	
180	2.300000e+00	7.483775e-05	
181	2.350000e+00	7.487698e-05	
182	2.400000e+00	7.491560e-05	
183	2.450000e+00	7.495374e-05	
184	2.500000e+00	7.499152e-05	
185	2.550000e+00	7.502906e-05	
186	2.600000e+00	7.506654e-05	
187	2.650000e+00	7.510411e-05	
188	2.700000e+00	7.514198e-05	
189	2.750000e+00	7.518038e-05	
190	2.800000e+00	7.521955e-05	
191	2.850000e+00	7.525978e-05	
192	2.900000e+00	7.530139e-05	
193	2.950000e+00	7.534472e-05	
194	3.000000e+00	7.539018e-05	
195	3.050000e+00	7.543818e-05	
196	3.100000e+00	7.548920e-05	
197	3.150000e+00	7.554374e-05	
198	3.200000e+00	7.560238e-05	
199	3.250000e+00	7.566570e-05	
200	3.300000e+00	7.573435e-05	
201	0.000000e+00	-0.000000e+00	
202	5.000000e-02	1.174011e-05	
203	1.000000e-01	2.285947e-05	
204	1.500000e-01	3.337339e-05	
205	2.000000e-01	4.329664e-05	
206	2.500000e-01	5.264355e-05	
207	3.000000e-01	6.142794e-05	
208	3.500000e-01	6.966321e-05	
209	4.000000e-01	7.736230e-05	
210	4.500000e-01	8.453773e-05	
211	5.000000e-01	9.120158e-05	
212	5.500000e-01	9.736550e-05	
213	6.000000e-01	1.030407e-04	
214	6.500000e-01	1.082378e-04	
215	7.000000e-01	1.129669e-04	
216	7.500000e-01	1.172372e-04	
217	8.000000e-01	1.210568e-04	
218	8.500000e-01	1.244319e-04	
219	9.000000e-01	1.273653e-04	
220	9.500000e-01	1.298550e-04	
221	1.000000e+00	1.318945e-04	
222	1.050000e+00	1.334846e-04	
223	1.100000e+00	1.346626e-04	
224	1.150000e+00	1.355144e-04	
225	1.200000e+00	1.361392e-04	
226	1.250000e+00	1.366146e-04	
227	1.300000e+00	1.369912e-04	
228	1.350000e+00	1.373002e-04	

Index   v-sweep         -i(vds)         
--------------------------------------------------------------------------------
229	1.400000e+00	1.375613e-04	
230	1.450000e+00	1.377870e-04	
231	1.500000e+00	1.379859e-04	
232	1.550000e+00	1.381638e-04	
233	1.600000e+00	1.383249e-04	
234	1.650000e+00	1.384722e-04	
235	1.700000e+00	1.386081e-04	
236	1.750000e+00	1.387345e-04	
237	1.800000e+00	1.388526e-04	
238	1.850000e+00	1.389637e-04	
239	1.900000e+00	1.390687e-04	
240	1.950000e+00	1.391682e-04	
241	2.000000e+00	1.392630e-04	
242	2.050000e+00	1.393535e-04	
243	2.100000e+00	1.394403e-04	
244	2.150000e+00	1.395236e-04	
245	2.200000e+00	1.396038e-04	
246	2.250000e+00	1.396812e-04	
247	2.300000e+00	1.397560e-04	
248	2.350000e+00	1.398284e-04	
249	2.400000e+00	1.398988e-04	
250	2.450000e+00	1.399671e-04	
251	2.500000e+00	1.400337e-04	
252	2.550000e+00	1.400987e-04	
253	2.600000e+00	1.401622e-04	
254	2.650000e+00	1.402244e-04	
255	2.700000e+00	1.402856e-04	
256	2.750000e+00	1.403459e-04	
257	2.800000e+00	1.404055e-04	
258	2.850000e+00	1.404648e-04	
259	2.900000e+00	1.405239e-04	
260	2.950000e+00	1.405832e-04	
261	3.000000e+00	1.406432e-04	
262	3.050000e+00	1.407041e-04	
263	3.100000e+00	1.407665e-04	
264	3.150000e+00	1.408309e-04	
265	3.200000e+00	1.408978e-04	
266	3.250000e+00	1.409680e-04	
267	3.300000e+00	1.410422e-04	
268	0.000000e+00	-0.000000e+00	
269	5.000000e-02	1.398296e-05	
270	1.000000e-01	2.738187e-05	
271	1.500000e-01	4.020971e-05	
272	2.000000e-01	5.247906e-05	
273	2.500000e-01	6.420213e-05	
274	3.000000e-01	7.539078e-05	
275	3.500000e-01	8.605653e-05	
276	4.000000e-01	9.621055e-05	
277	4.500000e-01	1.058637e-04	
278	5.000000e-01	1.150265e-04	
279	5.500000e-01	1.237092e-04	
280	6.000000e-01	1.319217e-04	
281	6.500000e-01	1.396737e-04	
282	7.000000e-01	1.469744e-04	
283	7.500000e-01	1.538328e-04	
284	8.000000e-01	1.602576e-04	
285	8.500000e-01	1.662571e-04	
286	9.000000e-01	1.718391e-04	

Index   v-sweep         -i(vds)         
--------------------------------------------------------------------------------
287	9.500000e-01	1.770108e-04	
288	1.000000e+00	1.817787e-04	
289	1.050000e+00	1.861480e-04	
290	1.100000e+00	1.901221e-04	
291	1.150000e+00	1.937010e-04	
292	1.200000e+00	1.968797e-04	
293	1.250000e+00	1.996453e-04	
294	1.300000e+00	2.019783e-04	
295	1.350000e+00	2.038662e-04	
296	1.400000e+00	2.053311e-04	
297	1.450000e+00	2.064420e-04	
298	1.500000e+00	2.072888e-04	
299	1.550000e+00	2.079497e-04	
300	1.600000e+00	2.084813e-04	
301	1.650000e+00	2.089212e-04	
302	1.700000e+00	2.092944e-04	
303	1.750000e+00	2.096176e-04	
304	1.800000e+00	2.099024e-04	
305	1.850000e+00	2.101568e-04	
306	1.900000e+00	2.103868e-04	
307	1.950000e+00	2.105967e-04	
308	2.000000e+00	2.107900e-04	
309	2.050000e+00	2.109693e-04	
310	2.100000e+00	2.111365e-04	
311	2.150000e+00	2.112934e-04	
312	2.200000e+00	2.114412e-04	
313	2.250000e+00	2.115811e-04	
314	2.300000e+00	2.117140e-04	
315	2.350000e+00	2.118406e-04	
316	2.400000e+00	2.119616e-04	
317	2.450000e+00	2.120776e-04	
318	2.500000e+00	2.121890e-04	
319	2.550000e+00	2.122962e-04	
320	2.600000e+00	2.123997e-04	
321	2.650000e+00	2.124997e-04	
322	2.700000e+00	2.125966e-04	
323	2.750000e+00	2.126906e-04	
324	2.800000e+00	2.127819e-04	
325	2.850000e+00	2.128709e-04	
326	2.900000e+00	2.129578e-04	
327	2.950000e+00	2.130428e-04	
328	3.000000e+00	2.131263e-04	
329	3.050000e+00	2.132086e-04	
330	3.100000e+00	2.132899e-04	
331	3.150000e+00	2.133707e-04	
332	3.200000e+00	2.134515e-04	
333	3.250000e+00	2.135327e-04	
334	3.300000e+00	2.136148e-04	
335	0.000000e+00	-0.000000e+00	
336	5.000000e-02	1.558677e-05	
337	1.000000e-01	3.063511e-05	
338	1.500000e-01	4.515579e-05	
339	2.000000e-01	5.915929e-05	
340	2.500000e-01	7.265580e-05	
341	3.000000e-01	8.565528e-05	
342	3.500000e-01	9.816739e-05	
343	4.000000e-01	1.102016e-04	
344	4.500000e-01	1.217670e-04	

Index   v-sweep         -i(vds)         
--------------------------------------------------------------------------------
345	5.000000e-01	1.328726e-04	
346	5.500000e-01	1.435270e-04	
347	6.000000e-01	1.537389e-04	
348	6.500000e-01	1.635164e-04	
349	7.000000e-01	1.728676e-04	
350	7.500000e-01	1.818003e-04	
351	8.000000e-01	1.903221e-04	
352	8.500000e-01	1.984405e-04	
353	9.000000e-01	2.061627e-04	
354	9.500000e-01	2.134956e-04	
355	1.000000e+00	2.204459e-04	
356	1.050000e+00	2.270202e-04	
357	1.100000e+00	2.332245e-04	
358	1.150000e+00	2.390647e-04	
359	1.200000e+00	2.445460e-04	
360	1.250000e+00	2.496730e-04	
361	1.300000e+00	2.544492e-04	
362	1.350000e+00	2.588766e-04	
363	1.400000e+00	2.629546e-04	
364	1.450000e+00	2.666784e-04	
365	1.500000e+00	2.700365e-04	
366	1.550000e+00	2.730089e-04	
367	1.600000e+00	2.755685e-04	
368	1.650000e+00	2.776949e-04	
369	1.700000e+00	2.793993e-04	
370	1.750000e+00	2.807361e-04	
371	1.800000e+00	2.817841e-04	
372	1.850000e+00	2.826187e-04	
373	1.900000e+00	2.832985e-04	
374	1.950000e+00	2.838656e-04	
375	2.000000e+00	2.843488e-04	
376	2.050000e+00	2.847682e-04	
377	2.100000e+00	2.851381e-04	
378	2.150000e+00	2.854686e-04	
379	2.200000e+00	2.857672e-04	
380	2.250000e+00	2.860395e-04	
381	2.300000e+00	2.862900e-04	
382	2.350000e+00	2.865219e-04	
383	2.400000e+00	2.867380e-04	
384	2.450000e+00	2.869404e-04	
385	2.500000e+00	2.871309e-04	
386	2.550000e+00	2.873109e-04	
387	2.600000e+00	2.874815e-04	
388	2.650000e+00	2.876439e-04	
389	2.700000e+00	2.877989e-04	
390	2.750000e+00	2.879471e-04	
391	2.800000e+00	2.880893e-04	
392	2.850000e+00	2.882260e-04	
393	2.900000e+00	2.883577e-04	
394	2.950000e+00	2.884849e-04	
395	3.000000e+00	2.886078e-04	
396	3.050000e+00	2.887269e-04	
397	3.100000e+00	2.888426e-04	
398	3.150000e+00	2.889551e-04	
399	3.200000e+00	2.890649e-04	
400	3.250000e+00	2.891722e-04	
401	3.300000e+00	2.892775e-04	
Note: No ".plot", ".print", or ".fourier" lines; no simulations run
