
Note: Compatibility modes selected: hs

Warning: m=xx on .subckt line will override multiplier m hierarchy!


Circuit: ***************************

Doing analysis at TEMP = 25.000000 and TNOM = 25.000000


No. of Data Rows : 402
                          ***************************
                          DC transfer characteristic  Mon Jan  9 13:57:17  2023
--------------------------------------------------------------------------------
Index   v-sweep         -i(vds)         
--------------------------------------------------------------------------------
0	0.000000e+00	-0.000000e+00	
1	5.000000e-02	1.247307e-05	
2	1.000000e-01	1.927545e-05	
3	1.500000e-01	2.192468e-05	
4	2.000000e-01	2.279897e-05	
5	2.500000e-01	2.319972e-05	
6	3.000000e-01	2.345830e-05	
7	3.500000e-01	2.365812e-05	
8	4.000000e-01	2.382730e-05	
9	4.500000e-01	2.397794e-05	
10	5.000000e-01	2.411621e-05	
11	5.500000e-01	2.424567e-05	
12	6.000000e-01	2.436854e-05	
13	6.500000e-01	2.448629e-05	
14	7.000000e-01	2.459997e-05	
15	7.500000e-01	2.471032e-05	
16	8.000000e-01	2.481791e-05	
17	8.500000e-01	2.492318e-05	
18	9.000000e-01	2.502646e-05	
19	9.500000e-01	2.512804e-05	
20	1.000000e+00	2.522813e-05	
21	1.050000e+00	2.532692e-05	
22	1.100000e+00	2.542455e-05	
23	1.150000e+00	2.552117e-05	
24	1.200000e+00	2.561687e-05	
25	1.250000e+00	2.571176e-05	
26	1.300000e+00	2.580591e-05	
27	1.350000e+00	2.589940e-05	
28	1.400000e+00	2.599228e-05	
29	1.450000e+00	2.608462e-05	
30	1.500000e+00	2.617646e-05	
31	1.550000e+00	2.626785e-05	
32	1.600000e+00	2.635884e-05	
33	1.650000e+00	2.644947e-05	
34	1.700000e+00	2.653977e-05	
35	1.750000e+00	2.662979e-05	
36	1.800000e+00	2.671957e-05	
37	1.850000e+00	2.680916e-05	
38	1.900000e+00	2.689862e-05	
39	1.950000e+00	2.698799e-05	
40	2.000000e+00	2.707733e-05	
41	2.050000e+00	2.716672e-05	
42	2.100000e+00	2.725625e-05	
43	2.150000e+00	2.734598e-05	
44	2.200000e+00	2.743604e-05	
45	2.250000e+00	2.752653e-05	
46	2.300000e+00	2.761758e-05	
47	2.350000e+00	2.770934e-05	
48	2.400000e+00	2.780196e-05	
49	2.450000e+00	2.789562e-05	
50	2.500000e+00	2.799053e-05	
51	2.550000e+00	2.808690e-05	
52	2.600000e+00	2.818497e-05	
53	2.650000e+00	2.828501e-05	
54	2.700000e+00	2.838730e-05	

Index   v-sweep         -i(vds)         
--------------------------------------------------------------------------------
55	2.750000e+00	2.849215e-05	
56	2.800000e+00	2.859990e-05	
57	2.850000e+00	2.871093e-05	
58	2.900000e+00	2.882562e-05	
59	2.950000e+00	2.894440e-05	
60	3.000000e+00	2.906772e-05	
61	3.050000e+00	2.919607e-05	
62	3.100000e+00	2.932996e-05	
63	3.150000e+00	2.946995e-05	
64	3.200000e+00	2.961662e-05	
65	3.250000e+00	2.977058e-05	
66	3.300000e+00	2.993249e-05	
67	0.000000e+00	-0.000000e+00	
68	5.000000e-02	7.878036e-05	
69	1.000000e-01	1.481791e-04	
70	1.500000e-01	2.086535e-04	
71	2.000000e-01	2.606320e-04	
72	2.500000e-01	3.045166e-04	
73	3.000000e-01	3.406876e-04	
74	3.500000e-01	3.695167e-04	
75	4.000000e-01	3.914149e-04	
76	4.500000e-01	4.069897e-04	
77	5.000000e-01	4.173325e-04	
78	5.500000e-01	4.240131e-04	
79	6.000000e-01	4.284879e-04	
80	6.500000e-01	4.316997e-04	
81	7.000000e-01	4.341645e-04	
82	7.500000e-01	4.361596e-04	
83	8.000000e-01	4.378407e-04	
84	8.500000e-01	4.393005e-04	
85	9.000000e-01	4.405975e-04	
86	9.500000e-01	4.417704e-04	
87	1.000000e+00	4.428460e-04	
88	1.050000e+00	4.438434e-04	
89	1.100000e+00	4.447769e-04	
90	1.150000e+00	4.456570e-04	
91	1.200000e+00	4.464920e-04	
92	1.250000e+00	4.472885e-04	
93	1.300000e+00	4.480517e-04	
94	1.350000e+00	4.487858e-04	
95	1.400000e+00	4.494944e-04	
96	1.450000e+00	4.501803e-04	
97	1.500000e+00	4.508460e-04	
98	1.550000e+00	4.514935e-04	
99	1.600000e+00	4.521247e-04	
100	1.650000e+00	4.527410e-04	
101	1.700000e+00	4.533438e-04	
102	1.750000e+00	4.539344e-04	
103	1.800000e+00	4.545137e-04	
104	1.850000e+00	4.550826e-04	
105	1.900000e+00	4.556421e-04	
106	1.950000e+00	4.561930e-04	
107	2.000000e+00	4.567360e-04	
108	2.050000e+00	4.572718e-04	
109	2.100000e+00	4.578014e-04	
110	2.150000e+00	4.583253e-04	
111	2.200000e+00	4.588446e-04	
112	2.250000e+00	4.593600e-04	

Index   v-sweep         -i(vds)         
--------------------------------------------------------------------------------
113	2.300000e+00	4.598725e-04	
114	2.350000e+00	4.603834e-04	
115	2.400000e+00	4.608937e-04	
116	2.450000e+00	4.614048e-04	
117	2.500000e+00	4.619183e-04	
118	2.550000e+00	4.624359e-04	
119	2.600000e+00	4.629596e-04	
120	2.650000e+00	4.634913e-04	
121	2.700000e+00	4.640337e-04	
122	2.750000e+00	4.645893e-04	
123	2.800000e+00	4.651610e-04	
124	2.850000e+00	4.657522e-04	
125	2.900000e+00	4.663663e-04	
126	2.950000e+00	4.670073e-04	
127	3.000000e+00	4.676794e-04	
128	3.050000e+00	4.683872e-04	
129	3.100000e+00	4.691357e-04	
130	3.150000e+00	4.699302e-04	
131	3.200000e+00	4.707766e-04	
132	3.250000e+00	4.716811e-04	
133	3.300000e+00	4.726502e-04	
134	0.000000e+00	-0.000000e+00	
135	5.000000e-02	1.304389e-04	
136	1.000000e-01	2.510537e-04	
137	1.500000e-01	3.622551e-04	
138	2.000000e-01	4.644307e-04	
139	2.500000e-01	5.579455e-04	
140	3.000000e-01	6.431436e-04	
141	3.500000e-01	7.203481e-04	
142	4.000000e-01	7.898606e-04	
143	4.500000e-01	8.519598e-04	
144	5.000000e-01	9.068977e-04	
145	5.500000e-01	9.548928e-04	
146	6.000000e-01	9.961208e-04	
147	6.500000e-01	1.030712e-03	
148	7.000000e-01	1.058789e-03	
149	7.500000e-01	1.080633e-03	
150	8.000000e-01	1.096942e-03	
151	8.500000e-01	1.108878e-03	
152	9.000000e-01	1.117707e-03	
153	9.500000e-01	1.124444e-03	
154	1.000000e+00	1.129781e-03	
155	1.050000e+00	1.134155e-03	
156	1.100000e+00	1.137848e-03	
157	1.150000e+00	1.141041e-03	
158	1.200000e+00	1.143856e-03	
159	1.250000e+00	1.146378e-03	
160	1.300000e+00	1.148667e-03	
161	1.350000e+00	1.150768e-03	
162	1.400000e+00	1.152712e-03	
163	1.450000e+00	1.154527e-03	
164	1.500000e+00	1.156231e-03	
165	1.550000e+00	1.157840e-03	
166	1.600000e+00	1.159367e-03	
167	1.650000e+00	1.160823e-03	
168	1.700000e+00	1.162215e-03	
169	1.750000e+00	1.163552e-03	
170	1.800000e+00	1.164839e-03	

Index   v-sweep         -i(vds)         
--------------------------------------------------------------------------------
171	1.850000e+00	1.166081e-03	
172	1.900000e+00	1.167282e-03	
173	1.950000e+00	1.168448e-03	
174	2.000000e+00	1.169579e-03	
175	2.050000e+00	1.170681e-03	
176	2.100000e+00	1.171754e-03	
177	2.150000e+00	1.172803e-03	
178	2.200000e+00	1.173828e-03	
179	2.250000e+00	1.174831e-03	
180	2.300000e+00	1.175816e-03	
181	2.350000e+00	1.176783e-03	
182	2.400000e+00	1.177735e-03	
183	2.450000e+00	1.178674e-03	
184	2.500000e+00	1.179602e-03	
185	2.550000e+00	1.180520e-03	
186	2.600000e+00	1.181433e-03	
187	2.650000e+00	1.182342e-03	
188	2.700000e+00	1.183252e-03	
189	2.750000e+00	1.184165e-03	
190	2.800000e+00	1.185085e-03	
191	2.850000e+00	1.186017e-03	
192	2.900000e+00	1.186967e-03	
193	2.950000e+00	1.187940e-03	
194	3.000000e+00	1.188942e-03	
195	3.050000e+00	1.189979e-03	
196	3.100000e+00	1.191061e-03	
197	3.150000e+00	1.192195e-03	
198	3.200000e+00	1.193391e-03	
199	3.250000e+00	1.194658e-03	
200	3.300000e+00	1.196008e-03	
201	0.000000e+00	-0.000000e+00	
202	5.000000e-02	1.676390e-04	
203	1.000000e-01	3.257223e-04	
204	1.500000e-01	4.745980e-04	
205	2.000000e-01	6.145974e-04	
206	2.500000e-01	7.460355e-04	
207	3.000000e-01	8.692118e-04	
208	3.500000e-01	9.844114e-04	
209	4.000000e-01	1.091905e-03	
210	4.500000e-01	1.191948e-03	
211	5.000000e-01	1.284784e-03	
212	5.500000e-01	1.370640e-03	
213	6.000000e-01	1.449726e-03	
214	6.500000e-01	1.522236e-03	
215	7.000000e-01	1.588337e-03	
216	7.500000e-01	1.648165e-03	
217	8.000000e-01	1.701811e-03	
218	8.500000e-01	1.749301e-03	
219	9.000000e-01	1.790591e-03	
220	9.500000e-01	1.825588e-03	
221	1.000000e+00	1.854298e-03	
222	1.050000e+00	1.877063e-03	
223	1.100000e+00	1.894706e-03	
224	1.150000e+00	1.908335e-03	
225	1.200000e+00	1.919016e-03	
226	1.250000e+00	1.927587e-03	
227	1.300000e+00	1.934644e-03	
228	1.350000e+00	1.940596e-03	

Index   v-sweep         -i(vds)         
--------------------------------------------------------------------------------
229	1.400000e+00	1.945723e-03	
230	1.450000e+00	1.950218e-03	
231	1.500000e+00	1.954220e-03	
232	1.550000e+00	1.957828e-03	
233	1.600000e+00	1.961116e-03	
234	1.650000e+00	1.964139e-03	
235	1.700000e+00	1.966941e-03	
236	1.750000e+00	1.969556e-03	
237	1.800000e+00	1.972011e-03	
238	1.850000e+00	1.974326e-03	
239	1.900000e+00	1.976520e-03	
240	1.950000e+00	1.978608e-03	
241	2.000000e+00	1.980601e-03	
242	2.050000e+00	1.982509e-03	
243	2.100000e+00	1.984343e-03	
244	2.150000e+00	1.986108e-03	
245	2.200000e+00	1.987812e-03	
246	2.250000e+00	1.989459e-03	
247	2.300000e+00	1.991056e-03	
248	2.350000e+00	1.992607e-03	
249	2.400000e+00	1.994114e-03	
250	2.450000e+00	1.995583e-03	
251	2.500000e+00	1.997017e-03	
252	2.550000e+00	1.998418e-03	
253	2.600000e+00	1.999790e-03	
254	2.650000e+00	2.001137e-03	
255	2.700000e+00	2.002461e-03	
256	2.750000e+00	2.003767e-03	
257	2.800000e+00	2.005058e-03	
258	2.850000e+00	2.006339e-03	
259	2.900000e+00	2.007615e-03	
260	2.950000e+00	2.008890e-03	
261	3.000000e+00	2.010171e-03	
262	3.050000e+00	2.011465e-03	
263	3.100000e+00	2.012778e-03	
264	3.150000e+00	2.014121e-03	
265	3.200000e+00	2.015501e-03	
266	3.250000e+00	2.016930e-03	
267	3.300000e+00	2.018419e-03	
268	0.000000e+00	-0.000000e+00	
269	5.000000e-02	1.941222e-04	
270	1.000000e-01	3.792534e-04	
271	1.500000e-01	5.556815e-04	
272	2.000000e-01	7.236820e-04	
273	2.500000e-01	8.835187e-04	
274	3.000000e-01	1.035444e-03	
275	3.500000e-01	1.179701e-03	
276	4.000000e-01	1.316519e-03	
277	4.500000e-01	1.446123e-03	
278	5.000000e-01	1.568722e-03	
279	5.500000e-01	1.684521e-03	
280	6.000000e-01	1.793712e-03	
281	6.500000e-01	1.896480e-03	
282	7.000000e-01	1.992996e-03	
283	7.500000e-01	2.083425e-03	
284	8.000000e-01	2.167913e-03	
285	8.500000e-01	2.246597e-03	
286	9.000000e-01	2.319586e-03	

Index   v-sweep         -i(vds)         
--------------------------------------------------------------------------------
287	9.500000e-01	2.386967e-03	
288	1.000000e+00	2.448783e-03	
289	1.050000e+00	2.505021e-03	
290	1.100000e+00	2.555592e-03	
291	1.150000e+00	2.600325e-03	
292	1.200000e+00	2.639008e-03	
293	1.250000e+00	2.671535e-03	
294	1.300000e+00	2.698123e-03	
295	1.350000e+00	2.719429e-03	
296	1.400000e+00	2.736409e-03	
297	1.450000e+00	2.750053e-03	
298	1.500000e+00	2.761199e-03	
299	1.550000e+00	2.770484e-03	
300	1.600000e+00	2.778372e-03	
301	1.650000e+00	2.785193e-03	
302	1.700000e+00	2.791185e-03	
303	1.750000e+00	2.796521e-03	
304	1.800000e+00	2.801328e-03	
305	1.850000e+00	2.805703e-03	
306	1.900000e+00	2.809719e-03	
307	1.950000e+00	2.813433e-03	
308	2.000000e+00	2.816891e-03	
309	2.050000e+00	2.820129e-03	
310	2.100000e+00	2.823175e-03	
311	2.150000e+00	2.826055e-03	
312	2.200000e+00	2.828787e-03	
313	2.250000e+00	2.831389e-03	
314	2.300000e+00	2.833875e-03	
315	2.350000e+00	2.836256e-03	
316	2.400000e+00	2.838544e-03	
317	2.450000e+00	2.840746e-03	
318	2.500000e+00	2.842871e-03	
319	2.550000e+00	2.844925e-03	
320	2.600000e+00	2.846915e-03	
321	2.650000e+00	2.848847e-03	
322	2.700000e+00	2.850724e-03	
323	2.750000e+00	2.852552e-03	
324	2.800000e+00	2.854336e-03	
325	2.850000e+00	2.856081e-03	
326	2.900000e+00	2.857790e-03	
327	2.950000e+00	2.859469e-03	
328	3.000000e+00	2.861123e-03	
329	3.050000e+00	2.862757e-03	
330	3.100000e+00	2.864378e-03	
331	3.150000e+00	2.865993e-03	
332	3.200000e+00	2.867609e-03	
333	3.250000e+00	2.869235e-03	
334	3.300000e+00	2.870881e-03	
335	0.000000e+00	-0.000000e+00	
336	5.000000e-02	2.127140e-04	
337	1.000000e-01	4.171147e-04	
338	1.500000e-01	6.134373e-04	
339	2.000000e-01	8.019084e-04	
340	2.500000e-01	9.827461e-04	
341	3.000000e-01	1.156160e-03	
342	3.500000e-01	1.322353e-03	
343	4.000000e-01	1.481519e-03	
344	4.500000e-01	1.633845e-03	

Index   v-sweep         -i(vds)         
--------------------------------------------------------------------------------
345	5.000000e-01	1.779513e-03	
346	5.500000e-01	1.918695e-03	
347	6.000000e-01	2.051560e-03	
348	6.500000e-01	2.178268e-03	
349	7.000000e-01	2.298972e-03	
350	7.500000e-01	2.413822e-03	
351	8.000000e-01	2.522958e-03	
352	8.500000e-01	2.626514e-03	
353	9.000000e-01	2.724617e-03	
354	9.500000e-01	2.817385e-03	
355	1.000000e+00	2.904925e-03	
356	1.050000e+00	2.987331e-03	
357	1.100000e+00	3.064679e-03	
358	1.150000e+00	3.137024e-03	
359	1.200000e+00	3.204384e-03	
360	1.250000e+00	3.266732e-03	
361	1.300000e+00	3.323976e-03	
362	1.350000e+00	3.375942e-03	
363	1.400000e+00	3.422379e-03	
364	1.450000e+00	3.463019e-03	
365	1.500000e+00	3.497719e-03	
366	1.550000e+00	3.526649e-03	
367	1.600000e+00	3.550370e-03	
368	1.650000e+00	3.569715e-03	
369	1.700000e+00	3.585575e-03	
370	1.750000e+00	3.598741e-03	
371	1.800000e+00	3.609841e-03	
372	1.850000e+00	3.619351e-03	
373	1.900000e+00	3.627624e-03	
374	1.950000e+00	3.634920e-03	
375	2.000000e+00	3.641434e-03	
376	2.050000e+00	3.647312e-03	
377	2.100000e+00	3.652664e-03	
378	2.150000e+00	3.657579e-03	
379	2.200000e+00	3.662123e-03	
380	2.250000e+00	3.666352e-03	
381	2.300000e+00	3.670307e-03	
382	2.350000e+00	3.674026e-03	
383	2.400000e+00	3.677537e-03	
384	2.450000e+00	3.680864e-03	
385	2.500000e+00	3.684029e-03	
386	2.550000e+00	3.687048e-03	
387	2.600000e+00	3.689937e-03	
388	2.650000e+00	3.692708e-03	
389	2.700000e+00	3.695372e-03	
390	2.750000e+00	3.697939e-03	
391	2.800000e+00	3.700418e-03	
392	2.850000e+00	3.702815e-03	
393	2.900000e+00	3.705139e-03	
394	2.950000e+00	3.707395e-03	
395	3.000000e+00	3.709589e-03	
396	3.050000e+00	3.711728e-03	
397	3.100000e+00	3.713818e-03	
398	3.150000e+00	3.715864e-03	
399	3.200000e+00	3.717872e-03	
400	3.250000e+00	3.719850e-03	
401	3.300000e+00	3.721805e-03	
Note: No ".plot", ".print", or ".fourier" lines; no simulations run
