
Note: Compatibility modes selected: hs

Warning: m=xx on .subckt line will override multiplier m hierarchy!


Circuit: ***************************

Doing analysis at TEMP = -40.000000 and TNOM = -40.000000


No. of Data Rows : 402
                          ***************************
                          DC transfer characteristic  Mon Jan  9 13:57:17  2023
--------------------------------------------------------------------------------
Index   v-sweep         -i(vds)         
--------------------------------------------------------------------------------
0	0.000000e+00	-0.000000e+00	
1	5.000000e-02	2.505653e-05	
2	1.000000e-01	3.724378e-05	
3	1.500000e-01	4.229428e-05	
4	2.000000e-01	4.488412e-05	
5	2.500000e-01	4.672852e-05	
6	3.000000e-01	4.829836e-05	
7	3.500000e-01	4.974470e-05	
8	4.000000e-01	5.112802e-05	
9	4.500000e-01	5.247713e-05	
10	5.000000e-01	5.380760e-05	
11	5.500000e-01	5.512866e-05	
12	6.000000e-01	5.644618e-05	
13	6.500000e-01	5.776410e-05	
14	7.000000e-01	5.908519e-05	
15	7.500000e-01	6.041145e-05	
16	8.000000e-01	6.174437e-05	
17	8.500000e-01	6.308511e-05	
18	9.000000e-01	6.443454e-05	
19	9.500000e-01	6.579339e-05	
20	1.000000e+00	6.716222e-05	
21	1.050000e+00	6.854149e-05	
22	1.100000e+00	6.993158e-05	
23	1.150000e+00	7.133281e-05	
24	1.200000e+00	7.274544e-05	
25	1.250000e+00	7.416970e-05	
26	1.300000e+00	7.560577e-05	
27	1.350000e+00	7.705383e-05	
28	1.400000e+00	7.851400e-05	
29	1.450000e+00	7.998642e-05	
30	1.500000e+00	8.147119e-05	
31	1.550000e+00	8.296842e-05	
32	1.600000e+00	8.447821e-05	
33	1.650000e+00	8.600067e-05	
34	1.700000e+00	8.753588e-05	
35	1.750000e+00	8.908399e-05	
36	1.800000e+00	9.064512e-05	
37	1.850000e+00	9.221943e-05	
38	1.900000e+00	9.380711e-05	
39	1.950000e+00	9.540840e-05	
40	2.000000e+00	9.702356e-05	
41	2.050000e+00	9.865294e-05	
42	2.100000e+00	1.002969e-04	
43	2.150000e+00	1.019560e-04	
44	2.200000e+00	1.036307e-04	
45	2.250000e+00	1.053217e-04	
46	2.300000e+00	1.070298e-04	
47	2.350000e+00	1.087558e-04	
48	2.400000e+00	1.105008e-04	
49	2.450000e+00	1.122660e-04	
50	2.500000e+00	1.140528e-04	
51	2.550000e+00	1.158625e-04	
52	2.600000e+00	1.176971e-04	
53	2.650000e+00	1.195584e-04	
54	2.700000e+00	1.214486e-04	

Index   v-sweep         -i(vds)         
--------------------------------------------------------------------------------
55	2.750000e+00	1.233701e-04	
56	2.800000e+00	1.253257e-04	
57	2.850000e+00	1.273182e-04	
58	2.900000e+00	1.293512e-04	
59	2.950000e+00	1.314280e-04	
60	3.000000e+00	1.335528e-04	
61	3.050000e+00	1.357299e-04	
62	3.100000e+00	1.379639e-04	
63	3.150000e+00	1.402601e-04	
64	3.200000e+00	1.426240e-04	
65	3.250000e+00	1.450617e-04	
66	3.300000e+00	1.475796e-04	
67	0.000000e+00	-0.000000e+00	
68	5.000000e-02	1.681746e-04	
69	1.000000e-01	3.112292e-04	
70	1.500000e-01	4.315087e-04	
71	2.000000e-01	5.310125e-04	
72	2.500000e-01	6.114255e-04	
73	3.000000e-01	6.742089e-04	
74	3.500000e-01	7.209440e-04	
75	4.000000e-01	7.540540e-04	
76	4.500000e-01	7.770678e-04	
77	5.000000e-01	7.935602e-04	
78	5.500000e-01	8.061100e-04	
79	6.000000e-01	8.162624e-04	
80	6.500000e-01	8.248962e-04	
81	7.000000e-01	8.325196e-04	
82	7.500000e-01	8.394393e-04	
83	8.000000e-01	8.458488e-04	
84	8.500000e-01	8.518761e-04	
85	9.000000e-01	8.576088e-04	
86	9.500000e-01	8.631090e-04	
87	1.000000e+00	8.684220e-04	
88	1.050000e+00	8.735819e-04	
89	1.100000e+00	8.786147e-04	
90	1.150000e+00	8.835405e-04	
91	1.200000e+00	8.883755e-04	
92	1.250000e+00	8.931325e-04	
93	1.300000e+00	8.978221e-04	
94	1.350000e+00	9.024529e-04	
95	1.400000e+00	9.070323e-04	
96	1.450000e+00	9.115662e-04	
97	1.500000e+00	9.160598e-04	
98	1.550000e+00	9.205176e-04	
99	1.600000e+00	9.249433e-04	
100	1.650000e+00	9.293404e-04	
101	1.700000e+00	9.337116e-04	
102	1.750000e+00	9.380598e-04	
103	1.800000e+00	9.423872e-04	
104	1.850000e+00	9.466961e-04	
105	1.900000e+00	9.509886e-04	
106	1.950000e+00	9.552667e-04	
107	2.000000e+00	9.595325e-04	
108	2.050000e+00	9.637882e-04	
109	2.100000e+00	9.680360e-04	
110	2.150000e+00	9.722784e-04	
111	2.200000e+00	9.765182e-04	
112	2.250000e+00	9.807585e-04	

Index   v-sweep         -i(vds)         
--------------------------------------------------------------------------------
113	2.300000e+00	9.850026e-04	
114	2.350000e+00	9.892547e-04	
115	2.400000e+00	9.935190e-04	
116	2.450000e+00	9.978009e-04	
117	2.500000e+00	1.002106e-03	
118	2.550000e+00	1.006441e-03	
119	2.600000e+00	1.010813e-03	
120	2.650000e+00	1.015230e-03	
121	2.700000e+00	1.019703e-03	
122	2.750000e+00	1.024240e-03	
123	2.800000e+00	1.028854e-03	
124	2.850000e+00	1.033558e-03	
125	2.900000e+00	1.038365e-03	
126	2.950000e+00	1.043291e-03	
127	3.000000e+00	1.048352e-03	
128	3.050000e+00	1.053568e-03	
129	3.100000e+00	1.058958e-03	
130	3.150000e+00	1.064544e-03	
131	3.200000e+00	1.070350e-03	
132	3.250000e+00	1.076401e-03	
133	3.300000e+00	1.082724e-03	
134	0.000000e+00	-0.000000e+00	
135	5.000000e-02	2.601034e-04	
136	1.000000e-01	4.947343e-04	
137	1.500000e-01	7.058276e-04	
138	2.000000e-01	8.951017e-04	
139	2.500000e-01	1.064072e-03	
140	3.000000e-01	1.214052e-03	
141	3.500000e-01	1.346148e-03	
142	4.000000e-01	1.461225e-03	
143	4.500000e-01	1.559887e-03	
144	5.000000e-01	1.642498e-03	
145	5.500000e-01	1.709441e-03	
146	6.000000e-01	1.761708e-03	
147	6.500000e-01	1.801425e-03	
148	7.000000e-01	1.831525e-03	
149	7.500000e-01	1.854835e-03	
150	8.000000e-01	1.873518e-03	
151	8.500000e-01	1.889038e-03	
152	9.000000e-01	1.902351e-03	
153	9.500000e-01	1.914081e-03	
154	1.000000e+00	1.924641e-03	
155	1.050000e+00	1.934313e-03	
156	1.100000e+00	1.943295e-03	
157	1.150000e+00	1.951731e-03	
158	1.200000e+00	1.959724e-03	
159	1.250000e+00	1.967353e-03	
160	1.300000e+00	1.974680e-03	
161	1.350000e+00	1.981752e-03	
162	1.400000e+00	1.988606e-03	
163	1.450000e+00	1.995273e-03	
164	1.500000e+00	2.001777e-03	
165	1.550000e+00	2.008139e-03	
166	1.600000e+00	2.014375e-03	
167	1.650000e+00	2.020500e-03	
168	1.700000e+00	2.026526e-03	
169	1.750000e+00	2.032463e-03	
170	1.800000e+00	2.038319e-03	

Index   v-sweep         -i(vds)         
--------------------------------------------------------------------------------
171	1.850000e+00	2.044104e-03	
172	1.900000e+00	2.049823e-03	
173	1.950000e+00	2.055482e-03	
174	2.000000e+00	2.061088e-03	
175	2.050000e+00	2.066644e-03	
176	2.100000e+00	2.072157e-03	
177	2.150000e+00	2.077630e-03	
178	2.200000e+00	2.083068e-03	
179	2.250000e+00	2.088476e-03	
180	2.300000e+00	2.093859e-03	
181	2.350000e+00	2.099223e-03	
182	2.400000e+00	2.104572e-03	
183	2.450000e+00	2.109915e-03	
184	2.500000e+00	2.115258e-03	
185	2.550000e+00	2.120609e-03	
186	2.600000e+00	2.125978e-03	
187	2.650000e+00	2.131376e-03	
188	2.700000e+00	2.136815e-03	
189	2.750000e+00	2.142308e-03	
190	2.800000e+00	2.147871e-03	
191	2.850000e+00	2.153520e-03	
192	2.900000e+00	2.159275e-03	
193	2.950000e+00	2.165157e-03	
194	3.000000e+00	2.171190e-03	
195	3.050000e+00	2.177400e-03	
196	3.100000e+00	2.183814e-03	
197	3.150000e+00	2.190465e-03	
198	3.200000e+00	2.197387e-03	
199	3.250000e+00	2.204616e-03	
200	3.300000e+00	2.212194e-03	
201	0.000000e+00	-0.000000e+00	
202	5.000000e-02	3.182161e-04	
203	1.000000e-01	6.126577e-04	
204	1.500000e-01	8.848352e-04	
205	2.000000e-01	1.136124e-03	
206	2.500000e-01	1.367775e-03	
207	3.000000e-01	1.580921e-03	
208	3.500000e-01	1.776579e-03	
209	4.000000e-01	1.955651e-03	
210	4.500000e-01	2.118909e-03	
211	5.000000e-01	2.266984e-03	
212	5.500000e-01	2.400323e-03	
213	6.000000e-01	2.519158e-03	
214	6.500000e-01	2.623477e-03	
215	7.000000e-01	2.713091e-03	
216	7.500000e-01	2.787932e-03	
217	8.000000e-01	2.848582e-03	
218	8.500000e-01	2.896653e-03	
219	9.000000e-01	2.934542e-03	
220	9.500000e-01	2.964747e-03	
221	1.000000e+00	2.989364e-03	
222	1.050000e+00	3.009952e-03	
223	1.100000e+00	3.027607e-03	
224	1.150000e+00	3.043089e-03	
225	1.200000e+00	3.056926e-03	
226	1.250000e+00	3.069494e-03	
227	1.300000e+00	3.081062e-03	
228	1.350000e+00	3.091828e-03	

Index   v-sweep         -i(vds)         
--------------------------------------------------------------------------------
229	1.400000e+00	3.101941e-03	
230	1.450000e+00	3.111513e-03	
231	1.500000e+00	3.120632e-03	
232	1.550000e+00	3.129369e-03	
233	1.600000e+00	3.137777e-03	
234	1.650000e+00	3.145903e-03	
235	1.700000e+00	3.153781e-03	
236	1.750000e+00	3.161444e-03	
237	1.800000e+00	3.168915e-03	
238	1.850000e+00	3.176216e-03	
239	1.900000e+00	3.183366e-03	
240	1.950000e+00	3.190380e-03	
241	2.000000e+00	3.197271e-03	
242	2.050000e+00	3.204051e-03	
243	2.100000e+00	3.210730e-03	
244	2.150000e+00	3.217318e-03	
245	2.200000e+00	3.223822e-03	
246	2.250000e+00	3.230251e-03	
247	2.300000e+00	3.236612e-03	
248	2.350000e+00	3.242912e-03	
249	2.400000e+00	3.249158e-03	
250	2.450000e+00	3.255359e-03	
251	2.500000e+00	3.261521e-03	
252	2.550000e+00	3.267653e-03	
253	2.600000e+00	3.273764e-03	
254	2.650000e+00	3.279866e-03	
255	2.700000e+00	3.285969e-03	
256	2.750000e+00	3.292087e-03	
257	2.800000e+00	3.298234e-03	
258	2.850000e+00	3.304429e-03	
259	2.900000e+00	3.310689e-03	
260	2.950000e+00	3.317035e-03	
261	3.000000e+00	3.323493e-03	
262	3.050000e+00	3.330089e-03	
263	3.100000e+00	3.336852e-03	
264	3.150000e+00	3.343817e-03	
265	3.200000e+00	3.351019e-03	
266	3.250000e+00	3.358499e-03	
267	3.300000e+00	3.366301e-03	
268	0.000000e+00	-0.000000e+00	
269	5.000000e-02	3.560830e-04	
270	1.000000e-01	6.905602e-04	
271	1.500000e-01	1.004602e-03	
272	2.000000e-01	1.299291e-03	
273	2.500000e-01	1.575629e-03	
274	3.000000e-01	1.834543e-03	
275	3.500000e-01	2.076889e-03	
276	4.000000e-01	2.303450e-03	
277	4.500000e-01	2.514944e-03	
278	5.000000e-01	2.712014e-03	
279	5.500000e-01	2.895228e-03	
280	6.000000e-01	3.065062e-03	
281	6.500000e-01	3.221886e-03	
282	7.000000e-01	3.365932e-03	
283	7.500000e-01	3.497259e-03	
284	8.000000e-01	3.615714e-03	
285	8.500000e-01	3.720945e-03	
286	9.000000e-01	3.812514e-03	

Index   v-sweep         -i(vds)         
--------------------------------------------------------------------------------
287	9.500000e-01	3.890227e-03	
288	1.000000e+00	3.954566e-03	
289	1.050000e+00	4.006914e-03	
290	1.100000e+00	4.049303e-03	
291	1.150000e+00	4.083895e-03	
292	1.200000e+00	4.112580e-03	
293	1.250000e+00	4.136841e-03	
294	1.300000e+00	4.157777e-03	
295	1.350000e+00	4.176182e-03	
296	1.400000e+00	4.192632e-03	
297	1.450000e+00	4.207546e-03	
298	1.500000e+00	4.221233e-03	
299	1.550000e+00	4.233926e-03	
300	1.600000e+00	4.245801e-03	
301	1.650000e+00	4.256996e-03	
302	1.700000e+00	4.267616e-03	
303	1.750000e+00	4.277749e-03	
304	1.800000e+00	4.287461e-03	
305	1.850000e+00	4.296810e-03	
306	1.900000e+00	4.305841e-03	
307	1.950000e+00	4.314592e-03	
308	2.000000e+00	4.323096e-03	
309	2.050000e+00	4.331379e-03	
310	2.100000e+00	4.339465e-03	
311	2.150000e+00	4.347374e-03	
312	2.200000e+00	4.355122e-03	
313	2.250000e+00	4.362725e-03	
314	2.300000e+00	4.370197e-03	
315	2.350000e+00	4.377549e-03	
316	2.400000e+00	4.384792e-03	
317	2.450000e+00	4.391936e-03	
318	2.500000e+00	4.398992e-03	
319	2.550000e+00	4.405969e-03	
320	2.600000e+00	4.412876e-03	
321	2.650000e+00	4.419724e-03	
322	2.700000e+00	4.426524e-03	
323	2.750000e+00	4.433287e-03	
324	2.800000e+00	4.440026e-03	
325	2.850000e+00	4.446756e-03	
326	2.900000e+00	4.453493e-03	
327	2.950000e+00	4.460255e-03	
328	3.000000e+00	4.467064e-03	
329	3.050000e+00	4.473942e-03	
330	3.100000e+00	4.480917e-03	
331	3.150000e+00	4.488017e-03	
332	3.200000e+00	4.495277e-03	
333	3.250000e+00	4.502733e-03	
334	3.300000e+00	4.510426e-03	
335	0.000000e+00	-0.000000e+00	
336	5.000000e-02	3.811018e-04	
337	1.000000e-01	7.427438e-04	
338	1.500000e-01	1.085838e-03	
339	2.000000e-01	1.411240e-03	
340	2.500000e-01	1.719749e-03	
341	3.000000e-01	2.012114e-03	
342	3.500000e-01	2.289038e-03	
343	4.000000e-01	2.551174e-03	
344	4.500000e-01	2.799136e-03	

Index   v-sweep         -i(vds)         
--------------------------------------------------------------------------------
345	5.000000e-01	3.033490e-03	
346	5.500000e-01	3.254762e-03	
347	6.000000e-01	3.463430e-03	
348	6.500000e-01	3.659924e-03	
349	7.000000e-01	3.844618e-03	
350	7.500000e-01	4.017819e-03	
351	8.000000e-01	4.179752e-03	
352	8.500000e-01	4.330536e-03	
353	9.000000e-01	4.470156e-03	
354	9.500000e-01	4.598423e-03	
355	1.000000e+00	4.714965e-03	
356	1.050000e+00	4.819259e-03	
357	1.100000e+00	4.910793e-03	
358	1.150000e+00	4.989376e-03	
359	1.200000e+00	5.055467e-03	
360	1.250000e+00	5.110291e-03	
361	1.300000e+00	5.155597e-03	
362	1.350000e+00	5.193255e-03	
363	1.400000e+00	5.224950e-03	
364	1.450000e+00	5.252048e-03	
365	1.500000e+00	5.275601e-03	
366	1.550000e+00	5.296399e-03	
367	1.600000e+00	5.315029e-03	
368	1.650000e+00	5.331931e-03	
369	1.700000e+00	5.347435e-03	
370	1.750000e+00	5.361796e-03	
371	1.800000e+00	5.375208e-03	
372	1.850000e+00	5.387824e-03	
373	1.900000e+00	5.399766e-03	
374	1.950000e+00	5.411132e-03	
375	2.000000e+00	5.421999e-03	
376	2.050000e+00	5.432433e-03	
377	2.100000e+00	5.442488e-03	
378	2.150000e+00	5.452207e-03	
379	2.200000e+00	5.461630e-03	
380	2.250000e+00	5.470787e-03	
381	2.300000e+00	5.479706e-03	
382	2.350000e+00	5.488411e-03	
383	2.400000e+00	5.496923e-03	
384	2.450000e+00	5.505258e-03	
385	2.500000e+00	5.513434e-03	
386	2.550000e+00	5.521465e-03	
387	2.600000e+00	5.529365e-03	
388	2.650000e+00	5.537145e-03	
389	2.700000e+00	5.544818e-03	
390	2.750000e+00	5.552395e-03	
391	2.800000e+00	5.559890e-03	
392	2.850000e+00	5.567315e-03	
393	2.900000e+00	5.574684e-03	
394	2.950000e+00	5.582011e-03	
395	3.000000e+00	5.589314e-03	
396	3.050000e+00	5.596611e-03	
397	3.100000e+00	5.603924e-03	
398	3.150000e+00	5.611275e-03	
399	3.200000e+00	5.618693e-03	
400	3.250000e+00	5.626207e-03	
401	3.300000e+00	5.633851e-03	
Note: No ".plot", ".print", or ".fourier" lines; no simulations run
