
Note: Compatibility modes selected: hs

Warning: m=xx on .subckt line will override multiplier m hierarchy!


Circuit: ***************************

Doing analysis at TEMP = -40.000000 and TNOM = -40.000000


No. of Data Rows : 402
                          ***************************
                          DC transfer characteristic  Mon Jan  9 13:57:17  2023
--------------------------------------------------------------------------------
Index   v-sweep         -i(vds)         
--------------------------------------------------------------------------------
0	0.000000e+00	-0.000000e+00	
1	5.000000e-02	1.537095e-06	
2	1.000000e-01	1.968912e-06	
3	1.500000e-01	2.002471e-06	
4	2.000000e-01	2.009080e-06	
5	2.500000e-01	2.012821e-06	
6	3.000000e-01	2.015749e-06	
7	3.500000e-01	2.018315e-06	
8	4.000000e-01	2.020679e-06	
9	4.500000e-01	2.022914e-06	
10	5.000000e-01	2.025059e-06	
11	5.500000e-01	2.027137e-06	
12	6.000000e-01	2.029164e-06	
13	6.500000e-01	2.031149e-06	
14	7.000000e-01	2.033102e-06	
15	7.500000e-01	2.035026e-06	
16	8.000000e-01	2.036928e-06	
17	8.500000e-01	2.038809e-06	
18	9.000000e-01	2.040672e-06	
19	9.500000e-01	2.042520e-06	
20	1.000000e+00	2.044355e-06	
21	1.050000e+00	2.046178e-06	
22	1.100000e+00	2.047990e-06	
23	1.150000e+00	2.049792e-06	
24	1.200000e+00	2.051586e-06	
25	1.250000e+00	2.053371e-06	
26	1.300000e+00	2.055150e-06	
27	1.350000e+00	2.056922e-06	
28	1.400000e+00	2.058687e-06	
29	1.450000e+00	2.060448e-06	
30	1.500000e+00	2.062203e-06	
31	1.550000e+00	2.063954e-06	
32	1.600000e+00	2.065702e-06	
33	1.650000e+00	2.067448e-06	
34	1.700000e+00	2.069193e-06	
35	1.750000e+00	2.070937e-06	
36	1.800000e+00	2.072685e-06	
37	1.850000e+00	2.074437e-06	
38	1.900000e+00	2.076197e-06	
39	1.950000e+00	2.077968e-06	
40	2.000000e+00	2.079757e-06	
41	2.050000e+00	2.081567e-06	
42	2.100000e+00	2.083407e-06	
43	2.150000e+00	2.085284e-06	
44	2.200000e+00	2.087207e-06	
45	2.250000e+00	2.089189e-06	
46	2.300000e+00	2.091241e-06	
47	2.350000e+00	2.093378e-06	
48	2.400000e+00	2.095616e-06	
49	2.450000e+00	2.097974e-06	
50	2.500000e+00	2.100472e-06	
51	2.550000e+00	2.103132e-06	
52	2.600000e+00	2.105979e-06	
53	2.650000e+00	2.109041e-06	
54	2.700000e+00	2.112346e-06	

Index   v-sweep         -i(vds)         
--------------------------------------------------------------------------------
55	2.750000e+00	2.115925e-06	
56	2.800000e+00	2.119813e-06	
57	2.850000e+00	2.124047e-06	
58	2.900000e+00	2.128663e-06	
59	2.950000e+00	2.133704e-06	
60	3.000000e+00	2.139212e-06	
61	3.050000e+00	2.145232e-06	
62	3.100000e+00	2.151813e-06	
63	3.150000e+00	2.159004e-06	
64	3.200000e+00	2.166856e-06	
65	3.250000e+00	2.175424e-06	
66	3.300000e+00	2.184764e-06	
67	0.000000e+00	-0.000000e+00	
68	5.000000e-02	1.323252e-05	
69	1.000000e-01	2.483804e-05	
70	1.500000e-01	3.482871e-05	
71	2.000000e-01	4.321686e-05	
72	2.500000e-01	5.001539e-05	
73	3.000000e-01	5.523923e-05	
74	3.500000e-01	5.891159e-05	
75	4.000000e-01	6.109770e-05	
76	4.500000e-01	6.206043e-05	
77	5.000000e-01	6.238952e-05	
78	5.500000e-01	6.252485e-05	
79	6.000000e-01	6.260204e-05	
80	6.500000e-01	6.265614e-05	
81	7.000000e-01	6.269863e-05	
82	7.500000e-01	6.273429e-05	
83	8.000000e-01	6.276550e-05	
84	8.500000e-01	6.279358e-05	
85	9.000000e-01	6.281935e-05	
86	9.500000e-01	6.284334e-05	
87	1.000000e+00	6.286593e-05	
88	1.050000e+00	6.288737e-05	
89	1.100000e+00	6.290786e-05	
90	1.150000e+00	6.292756e-05	
91	1.200000e+00	6.294657e-05	
92	1.250000e+00	6.296500e-05	
93	1.300000e+00	6.298292e-05	
94	1.350000e+00	6.300038e-05	
95	1.400000e+00	6.301744e-05	
96	1.450000e+00	6.303415e-05	
97	1.500000e+00	6.305053e-05	
98	1.550000e+00	6.306662e-05	
99	1.600000e+00	6.308245e-05	
100	1.650000e+00	6.309804e-05	
101	1.700000e+00	6.311342e-05	
102	1.750000e+00	6.312859e-05	
103	1.800000e+00	6.314359e-05	
104	1.850000e+00	6.315843e-05	
105	1.900000e+00	6.317313e-05	
106	1.950000e+00	6.318773e-05	
107	2.000000e+00	6.320224e-05	
108	2.050000e+00	6.321671e-05	
109	2.100000e+00	6.323119e-05	
110	2.150000e+00	6.324574e-05	
111	2.200000e+00	6.326043e-05	
112	2.250000e+00	6.327535e-05	

Index   v-sweep         -i(vds)         
--------------------------------------------------------------------------------
113	2.300000e+00	6.329064e-05	
114	2.350000e+00	6.330643e-05	
115	2.400000e+00	6.332290e-05	
116	2.450000e+00	6.334026e-05	
117	2.500000e+00	6.335875e-05	
118	2.550000e+00	6.337867e-05	
119	2.600000e+00	6.340035e-05	
120	2.650000e+00	6.342418e-05	
121	2.700000e+00	6.345059e-05	
122	2.750000e+00	6.348008e-05	
123	2.800000e+00	6.351319e-05	
124	2.850000e+00	6.355054e-05	
125	2.900000e+00	6.359281e-05	
126	2.950000e+00	6.364074e-05	
127	3.000000e+00	6.369513e-05	
128	3.050000e+00	6.375685e-05	
129	3.100000e+00	6.382685e-05	
130	3.150000e+00	6.390613e-05	
131	3.200000e+00	6.399578e-05	
132	3.250000e+00	6.409694e-05	
133	3.300000e+00	6.421081e-05	
134	0.000000e+00	-0.000000e+00	
135	5.000000e-02	2.380777e-05	
136	1.000000e-01	4.606940e-05	
137	1.500000e-01	6.679548e-05	
138	2.000000e-01	8.599649e-05	
139	2.500000e-01	1.036829e-04	
140	3.000000e-01	1.198649e-04	
141	3.500000e-01	1.345529e-04	
142	4.000000e-01	1.477569e-04	
143	4.500000e-01	1.594872e-04	
144	5.000000e-01	1.697540e-04	
145	5.500000e-01	1.785675e-04	
146	6.000000e-01	1.859386e-04	
147	6.500000e-01	1.918798e-04	
148	7.000000e-01	1.964092e-04	
149	7.500000e-01	1.995671e-04	
150	8.000000e-01	2.014797e-04	
151	8.500000e-01	2.024712e-04	
152	9.000000e-01	2.029728e-04	
153	9.500000e-01	2.032617e-04	
154	1.000000e+00	2.034546e-04	
155	1.050000e+00	2.035981e-04	
156	1.100000e+00	2.037128e-04	
157	1.150000e+00	2.038090e-04	
158	1.200000e+00	2.038924e-04	
159	1.250000e+00	2.039666e-04	
160	1.300000e+00	2.040338e-04	
161	1.350000e+00	2.040955e-04	
162	1.400000e+00	2.041528e-04	
163	1.450000e+00	2.042066e-04	
164	1.500000e+00	2.042573e-04	
165	1.550000e+00	2.043056e-04	
166	1.600000e+00	2.043516e-04	
167	1.650000e+00	2.043958e-04	
168	1.700000e+00	2.044384e-04	
169	1.750000e+00	2.044795e-04	
170	1.800000e+00	2.045193e-04	

Index   v-sweep         -i(vds)         
--------------------------------------------------------------------------------
171	1.850000e+00	2.045580e-04	
172	1.900000e+00	2.045957e-04	
173	1.950000e+00	2.046324e-04	
174	2.000000e+00	2.046683e-04	
175	2.050000e+00	2.047034e-04	
176	2.100000e+00	2.047378e-04	
177	2.150000e+00	2.047716e-04	
178	2.200000e+00	2.048048e-04	
179	2.250000e+00	2.048376e-04	
180	2.300000e+00	2.048699e-04	
181	2.350000e+00	2.049019e-04	
182	2.400000e+00	2.049337e-04	
183	2.450000e+00	2.049654e-04	
184	2.500000e+00	2.049973e-04	
185	2.550000e+00	2.050295e-04	
186	2.600000e+00	2.050623e-04	
187	2.650000e+00	2.050960e-04	
188	2.700000e+00	2.051312e-04	
189	2.750000e+00	2.051683e-04	
190	2.800000e+00	2.052080e-04	
191	2.850000e+00	2.052509e-04	
192	2.900000e+00	2.052980e-04	
193	2.950000e+00	2.053503e-04	
194	3.000000e+00	2.054089e-04	
195	3.050000e+00	2.054753e-04	
196	3.100000e+00	2.055508e-04	
197	3.150000e+00	2.056372e-04	
198	3.200000e+00	2.057365e-04	
199	3.250000e+00	2.058506e-04	
200	3.300000e+00	2.059818e-04	
201	0.000000e+00	-0.000000e+00	
202	5.000000e-02	3.218486e-05	
203	1.000000e-01	6.296441e-05	
204	1.500000e-01	9.234751e-05	
205	2.000000e-01	1.203430e-04	
206	2.500000e-01	1.469595e-04	
207	3.000000e-01	1.722059e-04	
208	3.500000e-01	1.960905e-04	
209	4.000000e-01	2.186220e-04	
210	4.500000e-01	2.398088e-04	
211	5.000000e-01	2.596592e-04	
212	5.500000e-01	2.781816e-04	
213	6.000000e-01	2.953842e-04	
214	6.500000e-01	3.112751e-04	
215	7.000000e-01	3.258624e-04	
216	7.500000e-01	3.391540e-04	
217	8.000000e-01	3.511580e-04	
218	8.500000e-01	3.618820e-04	
219	9.000000e-01	3.713339e-04	
220	9.500000e-01	3.795211e-04	
221	1.000000e+00	3.864515e-04	
222	1.050000e+00	3.921335e-04	
223	1.100000e+00	3.965806e-04	
224	1.150000e+00	3.998269e-04	
225	1.200000e+00	4.019788e-04	
226	1.250000e+00	4.032836e-04	
227	1.300000e+00	4.040655e-04	
228	1.350000e+00	4.045679e-04	

Index   v-sweep         -i(vds)         
--------------------------------------------------------------------------------
229	1.400000e+00	4.049211e-04	
230	1.450000e+00	4.051891e-04	
231	1.500000e+00	4.054041e-04	
232	1.550000e+00	4.055839e-04	
233	1.600000e+00	4.057389e-04	
234	1.650000e+00	4.058757e-04	
235	1.700000e+00	4.059985e-04	
236	1.750000e+00	4.061104e-04	
237	1.800000e+00	4.062134e-04	
238	1.850000e+00	4.063093e-04	
239	1.900000e+00	4.063991e-04	
240	1.950000e+00	4.064839e-04	
241	2.000000e+00	4.065642e-04	
242	2.050000e+00	4.066408e-04	
243	2.100000e+00	4.067141e-04	
244	2.150000e+00	4.067845e-04	
245	2.200000e+00	4.068522e-04	
246	2.250000e+00	4.069177e-04	
247	2.300000e+00	4.069811e-04	
248	2.350000e+00	4.070427e-04	
249	2.400000e+00	4.071025e-04	
250	2.450000e+00	4.071608e-04	
251	2.500000e+00	4.072177e-04	
252	2.550000e+00	4.072734e-04	
253	2.600000e+00	4.073279e-04	
254	2.650000e+00	4.073815e-04	
255	2.700000e+00	4.074342e-04	
256	2.750000e+00	4.074863e-04	
257	2.800000e+00	4.075381e-04	
258	2.850000e+00	4.075897e-04	
259	2.900000e+00	4.076417e-04	
260	2.950000e+00	4.076944e-04	
261	3.000000e+00	4.077484e-04	
262	3.050000e+00	4.078044e-04	
263	3.100000e+00	4.078634e-04	
264	3.150000e+00	4.079265e-04	
265	3.200000e+00	4.079948e-04	
266	3.250000e+00	4.080699e-04	
267	3.300000e+00	4.081536e-04	
268	0.000000e+00	-0.000000e+00	
269	5.000000e-02	3.836197e-05	
270	1.000000e-01	7.547782e-05	
271	1.500000e-01	1.113547e-04	
272	2.000000e-01	1.459999e-04	
273	2.500000e-01	1.794203e-04	
274	3.000000e-01	2.116231e-04	
275	3.500000e-01	2.426152e-04	
276	4.000000e-01	2.724035e-04	
277	4.500000e-01	3.009949e-04	
278	5.000000e-01	3.283962e-04	
279	5.500000e-01	3.546142e-04	
280	6.000000e-01	3.796555e-04	
281	6.500000e-01	4.035269e-04	
282	7.000000e-01	4.262349e-04	
283	7.500000e-01	4.477861e-04	
284	8.000000e-01	4.681870e-04	
285	8.500000e-01	4.874440e-04	
286	9.000000e-01	5.055634e-04	

Index   v-sweep         -i(vds)         
--------------------------------------------------------------------------------
287	9.500000e-01	5.225517e-04	
288	1.000000e+00	5.384151e-04	
289	1.050000e+00	5.531597e-04	
290	1.100000e+00	5.667915e-04	
291	1.150000e+00	5.793166e-04	
292	1.200000e+00	5.907407e-04	
293	1.250000e+00	6.010693e-04	
294	1.300000e+00	6.103077e-04	
295	1.350000e+00	6.184604e-04	
296	1.400000e+00	6.255313e-04	
297	1.450000e+00	6.315232e-04	
298	1.500000e+00	6.364389e-04	
299	1.550000e+00	6.402880e-04	
300	1.600000e+00	6.431140e-04	
301	1.650000e+00	6.450480e-04	
302	1.700000e+00	6.463218e-04	
303	1.750000e+00	6.471769e-04	
304	1.800000e+00	6.477835e-04	
305	1.850000e+00	6.482403e-04	
306	1.900000e+00	6.486024e-04	
307	1.950000e+00	6.489009e-04	
308	2.000000e+00	6.491549e-04	
309	2.050000e+00	6.493762e-04	
310	2.100000e+00	6.495727e-04	
311	2.150000e+00	6.497498e-04	
312	2.200000e+00	6.499114e-04	
313	2.250000e+00	6.500604e-04	
314	2.300000e+00	6.501989e-04	
315	2.350000e+00	6.503285e-04	
316	2.400000e+00	6.504507e-04	
317	2.450000e+00	6.505663e-04	
318	2.500000e+00	6.506763e-04	
319	2.550000e+00	6.507813e-04	
320	2.600000e+00	6.508819e-04	
321	2.650000e+00	6.509786e-04	
322	2.700000e+00	6.510718e-04	
323	2.750000e+00	6.511618e-04	
324	2.800000e+00	6.512490e-04	
325	2.850000e+00	6.513337e-04	
326	2.900000e+00	6.514159e-04	
327	2.950000e+00	6.514961e-04	
328	3.000000e+00	6.515743e-04	
329	3.050000e+00	6.516509e-04	
330	3.100000e+00	6.517261e-04	
331	3.150000e+00	6.518002e-04	
332	3.200000e+00	6.518735e-04	
333	3.250000e+00	6.519464e-04	
334	3.300000e+00	6.520196e-04	
335	0.000000e+00	-0.000000e+00	
336	5.000000e-02	4.260021e-05	
337	1.000000e-01	8.411344e-05	
338	1.500000e-01	1.245454e-04	
339	2.000000e-01	1.639017e-04	
340	2.500000e-01	2.021879e-04	
341	3.000000e-01	2.394097e-04	
342	3.500000e-01	2.755726e-04	
343	4.000000e-01	3.106821e-04	
344	4.500000e-01	3.447435e-04	

Index   v-sweep         -i(vds)         
--------------------------------------------------------------------------------
345	5.000000e-01	3.777625e-04	
346	5.500000e-01	4.097443e-04	
347	6.000000e-01	4.406942e-04	
348	6.500000e-01	4.706177e-04	
349	7.000000e-01	4.995199e-04	
350	7.500000e-01	5.274061e-04	
351	8.000000e-01	5.542815e-04	
352	8.500000e-01	5.801513e-04	
353	9.000000e-01	6.050205e-04	
354	9.500000e-01	6.288943e-04	
355	1.000000e+00	6.517777e-04	
356	1.050000e+00	6.736757e-04	
357	1.100000e+00	6.945932e-04	
358	1.150000e+00	7.145353e-04	
359	1.200000e+00	7.335068e-04	
360	1.250000e+00	7.515126e-04	
361	1.300000e+00	7.685573e-04	
362	1.350000e+00	7.846458e-04	
363	1.400000e+00	7.997828e-04	
364	1.450000e+00	8.139727e-04	
365	1.500000e+00	8.272201e-04	
366	1.550000e+00	8.395294e-04	
367	1.600000e+00	8.509046e-04	
368	1.650000e+00	8.613496e-04	
369	1.700000e+00	8.708679e-04	
370	1.750000e+00	8.794622e-04	
371	1.800000e+00	8.871342e-04	
372	1.850000e+00	8.938837e-04	
373	1.900000e+00	8.997084e-04	
374	1.950000e+00	9.046031e-04	
375	2.000000e+00	9.085654e-04	
376	2.050000e+00	9.116166e-04	
377	2.100000e+00	9.138425e-04	
378	2.150000e+00	9.154127e-04	
379	2.200000e+00	9.165258e-04	
380	2.250000e+00	9.173426e-04	
381	2.300000e+00	9.179690e-04	
382	2.350000e+00	9.184695e-04	
383	2.400000e+00	9.188835e-04	
384	2.450000e+00	9.192356e-04	
385	2.500000e+00	9.195419e-04	
386	2.550000e+00	9.198131e-04	
387	2.600000e+00	9.200568e-04	
388	2.650000e+00	9.202784e-04	
389	2.700000e+00	9.204819e-04	
390	2.750000e+00	9.206705e-04	
391	2.800000e+00	9.208464e-04	
392	2.850000e+00	9.210116e-04	
393	2.900000e+00	9.211674e-04	
394	2.950000e+00	9.213152e-04	
395	3.000000e+00	9.214558e-04	
396	3.050000e+00	9.215902e-04	
397	3.100000e+00	9.217189e-04	
398	3.150000e+00	9.218427e-04	
399	3.200000e+00	9.219619e-04	
400	3.250000e+00	9.220771e-04	
401	3.300000e+00	9.221886e-04	
Note: No ".plot", ".print", or ".fourier" lines; no simulations run
