
Note: Compatibility modes selected: hs

Warning: m=xx on .subckt line will override multiplier m hierarchy!


Circuit: ***************************

Doing analysis at TEMP = 125.000000 and TNOM = 125.000000


No. of Data Rows : 402
                          ***************************
                          DC transfer characteristic  Mon Jan  9 13:57:18  2023
--------------------------------------------------------------------------------
Index   v-sweep         -i(vds)         
--------------------------------------------------------------------------------
0	0.000000e+00	-0.000000e+00	
1	5.000000e-02	6.213686e-07	
2	1.000000e-01	1.057416e-06	
3	1.500000e-01	1.342221e-06	
4	2.000000e-01	1.487984e-06	
5	2.500000e-01	1.528536e-06	
6	3.000000e-01	1.535136e-06	
7	3.500000e-01	1.537123e-06	
8	4.000000e-01	1.538248e-06	
9	4.500000e-01	1.539093e-06	
10	5.000000e-01	1.539810e-06	
11	5.500000e-01	1.540455e-06	
12	6.000000e-01	1.541055e-06	
13	6.500000e-01	1.541623e-06	
14	7.000000e-01	1.542167e-06	
15	7.500000e-01	1.542693e-06	
16	8.000000e-01	1.543205e-06	
17	8.500000e-01	1.543704e-06	
18	9.000000e-01	1.544194e-06	
19	9.500000e-01	1.544675e-06	
20	1.000000e+00	1.545149e-06	
21	1.050000e+00	1.545617e-06	
22	1.100000e+00	1.546079e-06	
23	1.150000e+00	1.546536e-06	
24	1.200000e+00	1.546989e-06	
25	1.250000e+00	1.547438e-06	
26	1.300000e+00	1.547883e-06	
27	1.350000e+00	1.548325e-06	
28	1.400000e+00	1.548764e-06	
29	1.450000e+00	1.549200e-06	
30	1.500000e+00	1.549634e-06	
31	1.550000e+00	1.550066e-06	
32	1.600000e+00	1.550495e-06	
33	1.650000e+00	1.550923e-06	
34	1.700000e+00	1.551349e-06	
35	1.750000e+00	1.551774e-06	
36	1.800000e+00	1.552198e-06	
37	1.850000e+00	1.552622e-06	
38	1.900000e+00	1.553046e-06	
39	1.950000e+00	1.553470e-06	
40	2.000000e+00	1.553897e-06	
41	2.050000e+00	1.554326e-06	
42	2.100000e+00	1.554759e-06	
43	2.150000e+00	1.555199e-06	
44	2.200000e+00	1.555646e-06	
45	2.250000e+00	1.556105e-06	
46	2.300000e+00	1.556577e-06	
47	2.350000e+00	1.557066e-06	
48	2.400000e+00	1.557576e-06	
49	2.450000e+00	1.558113e-06	
50	2.500000e+00	1.558681e-06	
51	2.550000e+00	1.559286e-06	
52	2.600000e+00	1.559935e-06	
53	2.650000e+00	1.560636e-06	
54	2.700000e+00	1.561398e-06	

Index   v-sweep         -i(vds)         
--------------------------------------------------------------------------------
55	2.750000e+00	1.562228e-06	
56	2.800000e+00	1.563138e-06	
57	2.850000e+00	1.564138e-06	
58	2.900000e+00	1.565240e-06	
59	2.950000e+00	1.566456e-06	
60	3.000000e+00	1.567800e-06	
61	3.050000e+00	1.569287e-06	
62	3.100000e+00	1.570931e-06	
63	3.150000e+00	1.572749e-06	
64	3.200000e+00	1.574757e-06	
65	3.250000e+00	1.576974e-06	
66	3.300000e+00	1.579417e-06	
67	0.000000e+00	-0.000000e+00	
68	5.000000e-02	1.779440e-06	
69	1.000000e-01	3.362181e-06	
70	1.500000e-01	4.781731e-06	
71	2.000000e-01	6.046220e-06	
72	2.500000e-01	7.157792e-06	
73	3.000000e-01	8.117192e-06	
74	3.500000e-01	8.924874e-06	
75	4.000000e-01	9.581320e-06	
76	4.500000e-01	1.008731e-05	
77	5.000000e-01	1.044472e-05	
78	5.500000e-01	1.066016e-05	
79	6.000000e-01	1.075843e-05	
80	6.500000e-01	1.079276e-05	
81	7.000000e-01	1.080610e-05	
82	7.500000e-01	1.081330e-05	
83	8.000000e-01	1.081823e-05	
84	8.500000e-01	1.082208e-05	
85	9.000000e-01	1.082534e-05	
86	9.500000e-01	1.082822e-05	
87	1.000000e+00	1.083083e-05	
88	1.050000e+00	1.083325e-05	
89	1.100000e+00	1.083552e-05	
90	1.150000e+00	1.083767e-05	
91	1.200000e+00	1.083973e-05	
92	1.250000e+00	1.084171e-05	
93	1.300000e+00	1.084362e-05	
94	1.350000e+00	1.084547e-05	
95	1.400000e+00	1.084727e-05	
96	1.450000e+00	1.084903e-05	
97	1.500000e+00	1.085076e-05	
98	1.550000e+00	1.085244e-05	
99	1.600000e+00	1.085410e-05	
100	1.650000e+00	1.085573e-05	
101	1.700000e+00	1.085733e-05	
102	1.750000e+00	1.085892e-05	
103	1.800000e+00	1.086048e-05	
104	1.850000e+00	1.086202e-05	
105	1.900000e+00	1.086354e-05	
106	1.950000e+00	1.086505e-05	
107	2.000000e+00	1.086655e-05	
108	2.050000e+00	1.086803e-05	
109	2.100000e+00	1.086950e-05	
110	2.150000e+00	1.087097e-05	
111	2.200000e+00	1.087243e-05	
112	2.250000e+00	1.087389e-05	

Index   v-sweep         -i(vds)         
--------------------------------------------------------------------------------
113	2.300000e+00	1.087535e-05	
114	2.350000e+00	1.087682e-05	
115	2.400000e+00	1.087832e-05	
116	2.450000e+00	1.087984e-05	
117	2.500000e+00	1.088139e-05	
118	2.550000e+00	1.088301e-05	
119	2.600000e+00	1.088469e-05	
120	2.650000e+00	1.088647e-05	
121	2.700000e+00	1.088837e-05	
122	2.750000e+00	1.089041e-05	
123	2.800000e+00	1.089263e-05	
124	2.850000e+00	1.089507e-05	
125	2.900000e+00	1.089776e-05	
126	2.950000e+00	1.090076e-05	
127	3.000000e+00	1.090412e-05	
128	3.050000e+00	1.090790e-05	
129	3.100000e+00	1.091217e-05	
130	3.150000e+00	1.091698e-05	
131	3.200000e+00	1.092243e-05	
132	3.250000e+00	1.092859e-05	
133	3.300000e+00	1.093556e-05	
134	0.000000e+00	-0.000000e+00	
135	5.000000e-02	2.819365e-06	
136	1.000000e-01	5.450591e-06	
137	1.500000e-01	7.927151e-06	
138	2.000000e-01	1.025714e-05	
139	2.500000e-01	1.244264e-05	
140	3.000000e-01	1.448435e-05	
141	3.500000e-01	1.638260e-05	
142	4.000000e-01	1.813766e-05	
143	4.500000e-01	1.974979e-05	
144	5.000000e-01	2.121923e-05	
145	5.500000e-01	2.254623e-05	
146	6.000000e-01	2.373107e-05	
147	6.500000e-01	2.477404e-05	
148	7.000000e-01	2.567545e-05	
149	7.500000e-01	2.643574e-05	
150	8.000000e-01	2.705557e-05	
151	8.500000e-01	2.753620e-05	
152	9.000000e-01	2.788077e-05	
153	9.500000e-01	2.809841e-05	
154	1.000000e+00	2.821352e-05	
155	1.050000e+00	2.826722e-05	
156	1.100000e+00	2.829410e-05	
157	1.150000e+00	2.831028e-05	
158	1.200000e+00	2.832171e-05	
159	1.250000e+00	2.833064e-05	
160	1.300000e+00	2.833810e-05	
161	1.350000e+00	2.834458e-05	
162	1.400000e+00	2.835039e-05	
163	1.450000e+00	2.835568e-05	
164	1.500000e+00	2.836059e-05	
165	1.550000e+00	2.836519e-05	
166	1.600000e+00	2.836953e-05	
167	1.650000e+00	2.837367e-05	
168	1.700000e+00	2.837762e-05	
169	1.750000e+00	2.838142e-05	
170	1.800000e+00	2.838509e-05	

Index   v-sweep         -i(vds)         
--------------------------------------------------------------------------------
171	1.850000e+00	2.838865e-05	
172	1.900000e+00	2.839210e-05	
173	1.950000e+00	2.839547e-05	
174	2.000000e+00	2.839875e-05	
175	2.050000e+00	2.840195e-05	
176	2.100000e+00	2.840510e-05	
177	2.150000e+00	2.840818e-05	
178	2.200000e+00	2.841120e-05	
179	2.250000e+00	2.841418e-05	
180	2.300000e+00	2.841711e-05	
181	2.350000e+00	2.842000e-05	
182	2.400000e+00	2.842285e-05	
183	2.450000e+00	2.842567e-05	
184	2.500000e+00	2.842846e-05	
185	2.550000e+00	2.843123e-05	
186	2.600000e+00	2.843399e-05	
187	2.650000e+00	2.843675e-05	
188	2.700000e+00	2.843952e-05	
189	2.750000e+00	2.844232e-05	
190	2.800000e+00	2.844516e-05	
191	2.850000e+00	2.844809e-05	
192	2.900000e+00	2.845111e-05	
193	2.950000e+00	2.845429e-05	
194	3.000000e+00	2.845766e-05	
195	3.050000e+00	2.846127e-05	
196	3.100000e+00	2.846520e-05	
197	3.150000e+00	2.846951e-05	
198	3.200000e+00	2.847430e-05	
199	3.250000e+00	2.847967e-05	
200	3.300000e+00	2.848572e-05	
201	0.000000e+00	-0.000000e+00	
202	5.000000e-02	3.699141e-06	
203	1.000000e-01	7.222570e-06	
204	1.500000e-01	1.060373e-05	
205	2.000000e-01	1.385067e-05	
206	2.500000e-01	1.696546e-05	
207	3.000000e-01	1.994875e-05	
208	3.500000e-01	2.280083e-05	
209	4.000000e-01	2.552195e-05	
210	4.500000e-01	2.811231e-05	
211	5.000000e-01	3.057212e-05	
212	5.500000e-01	3.290158e-05	
213	6.000000e-01	3.510091e-05	
214	6.500000e-01	3.717031e-05	
215	7.000000e-01	3.910998e-05	
216	7.500000e-01	4.092013e-05	
217	8.000000e-01	4.260097e-05	
218	8.500000e-01	4.415272e-05	
219	9.000000e-01	4.557558e-05	
220	9.500000e-01	4.686979e-05	
221	1.000000e+00	4.803558e-05	
222	1.050000e+00	4.907321e-05	
223	1.100000e+00	4.998298e-05	
224	1.150000e+00	5.076530e-05	
225	1.200000e+00	5.142075e-05	
226	1.250000e+00	5.195038e-05	
227	1.300000e+00	5.235643e-05	
228	1.350000e+00	5.264436e-05	

Index   v-sweep         -i(vds)         
--------------------------------------------------------------------------------
229	1.400000e+00	5.282752e-05	
230	1.450000e+00	5.293199e-05	
231	1.500000e+00	5.298998e-05	
232	1.550000e+00	5.302497e-05	
233	1.600000e+00	5.304879e-05	
234	1.650000e+00	5.306672e-05	
235	1.700000e+00	5.308119e-05	
236	1.750000e+00	5.309343e-05	
237	1.800000e+00	5.310415e-05	
238	1.850000e+00	5.311374e-05	
239	1.900000e+00	5.312249e-05	
240	1.950000e+00	5.313056e-05	
241	2.000000e+00	5.313810e-05	
242	2.050000e+00	5.314520e-05	
243	2.100000e+00	5.315192e-05	
244	2.150000e+00	5.315833e-05	
245	2.200000e+00	5.316446e-05	
246	2.250000e+00	5.317036e-05	
247	2.300000e+00	5.317605e-05	
248	2.350000e+00	5.318156e-05	
249	2.400000e+00	5.318690e-05	
250	2.450000e+00	5.319209e-05	
251	2.500000e+00	5.319715e-05	
252	2.550000e+00	5.320209e-05	
253	2.600000e+00	5.320692e-05	
254	2.650000e+00	5.321165e-05	
255	2.700000e+00	5.321629e-05	
256	2.750000e+00	5.322084e-05	
257	2.800000e+00	5.322532e-05	
258	2.850000e+00	5.322973e-05	
259	2.900000e+00	5.323409e-05	
260	2.950000e+00	5.323840e-05	
261	3.000000e+00	5.324267e-05	
262	3.050000e+00	5.324694e-05	
263	3.100000e+00	5.325121e-05	
264	3.150000e+00	5.325551e-05	
265	3.200000e+00	5.325988e-05	
266	3.250000e+00	5.326436e-05	
267	3.300000e+00	5.326901e-05	
268	0.000000e+00	-0.000000e+00	
269	5.000000e-02	4.414474e-06	
270	1.000000e-01	8.666676e-06	
271	1.500000e-01	1.279001e-05	
272	2.000000e-01	1.679251e-05	
273	2.500000e-01	2.067620e-05	
274	3.000000e-01	2.444169e-05	
275	3.500000e-01	2.808926e-05	
276	4.000000e-01	3.161910e-05	
277	4.500000e-01	3.503140e-05	
278	5.000000e-01	3.832633e-05	
279	5.500000e-01	4.150406e-05	
280	6.000000e-01	4.456476e-05	
281	6.500000e-01	4.750862e-05	
282	7.000000e-01	5.033579e-05	
283	7.500000e-01	5.304645e-05	
284	8.000000e-01	5.564077e-05	
285	8.500000e-01	5.811893e-05	
286	9.000000e-01	6.048109e-05	

Index   v-sweep         -i(vds)         
--------------------------------------------------------------------------------
287	9.500000e-01	6.272742e-05	
288	1.000000e+00	6.485810e-05	
289	1.050000e+00	6.687330e-05	
290	1.100000e+00	6.877319e-05	
291	1.150000e+00	7.055794e-05	
292	1.200000e+00	7.222773e-05	
293	1.250000e+00	7.378273e-05	
294	1.300000e+00	7.522313e-05	
295	1.350000e+00	7.654911e-05	
296	1.400000e+00	7.776086e-05	
297	1.450000e+00	7.885859e-05	
298	1.500000e+00	7.984254e-05	
299	1.550000e+00	8.071298e-05	
300	1.600000e+00	8.147029e-05	
301	1.650000e+00	8.211502e-05	
302	1.700000e+00	8.264810e-05	
303	1.750000e+00	8.307143e-05	
304	1.800000e+00	8.338912e-05	
305	1.850000e+00	8.361034e-05	
306	1.900000e+00	8.375272e-05	
307	1.950000e+00	8.384082e-05	
308	2.000000e+00	8.389714e-05	
309	2.050000e+00	8.393606e-05	
310	2.100000e+00	8.396522e-05	
311	2.150000e+00	8.398849e-05	
312	2.200000e+00	8.400794e-05	
313	2.250000e+00	8.402476e-05	
314	2.300000e+00	8.403966e-05	
315	2.350000e+00	8.405311e-05	
316	2.400000e+00	8.406542e-05	
317	2.450000e+00	8.407682e-05	
318	2.500000e+00	8.408748e-05	
319	2.550000e+00	8.409751e-05	
320	2.600000e+00	8.410701e-05	
321	2.650000e+00	8.411605e-05	
322	2.700000e+00	8.412470e-05	
323	2.750000e+00	8.413301e-05	
324	2.800000e+00	8.414101e-05	
325	2.850000e+00	8.414873e-05	
326	2.900000e+00	8.415622e-05	
327	2.950000e+00	8.416348e-05	
328	3.000000e+00	8.417054e-05	
329	3.050000e+00	8.417743e-05	
330	3.100000e+00	8.418415e-05	
331	3.150000e+00	8.419072e-05	
332	3.200000e+00	8.419715e-05	
333	3.250000e+00	8.420346e-05	
334	3.300000e+00	8.420966e-05	
335	0.000000e+00	-0.000000e+00	
336	5.000000e-02	4.974855e-06	
337	1.000000e-01	9.800757e-06	
338	1.500000e-01	1.451108e-05	
339	2.000000e-01	1.911383e-05	
340	2.500000e-01	2.361099e-05	
341	3.000000e-01	2.800315e-05	
342	3.500000e-01	3.229056e-05	
343	4.000000e-01	3.647338e-05	
344	4.500000e-01	4.055178e-05	

Index   v-sweep         -i(vds)         
--------------------------------------------------------------------------------
345	5.000000e-01	4.452588e-05	
346	5.500000e-01	4.839584e-05	
347	6.000000e-01	5.216179e-05	
348	6.500000e-01	5.582388e-05	
349	7.000000e-01	5.938226e-05	
350	7.500000e-01	6.283706e-05	
351	8.000000e-01	6.618842e-05	
352	8.500000e-01	6.943649e-05	
353	9.000000e-01	7.258141e-05	
354	9.500000e-01	7.562333e-05	
355	1.000000e+00	7.856237e-05	
356	1.050000e+00	8.139868e-05	
357	1.100000e+00	8.413241e-05	
358	1.150000e+00	8.676369e-05	
359	1.200000e+00	8.929267e-05	
360	1.250000e+00	9.171948e-05	
361	1.300000e+00	9.404426e-05	
362	1.350000e+00	9.626716e-05	
363	1.400000e+00	9.838832e-05	
364	1.450000e+00	1.004079e-04	
365	1.500000e+00	1.023259e-04	
366	1.550000e+00	1.041427e-04	
367	1.600000e+00	1.058583e-04	
368	1.650000e+00	1.074728e-04	
369	1.700000e+00	1.089865e-04	
370	1.750000e+00	1.103994e-04	
371	1.800000e+00	1.117117e-04	
372	1.850000e+00	1.129236e-04	
373	1.900000e+00	1.140351e-04	
374	1.950000e+00	1.150467e-04	
375	2.000000e+00	1.159583e-04	
376	2.050000e+00	1.167703e-04	
377	2.100000e+00	1.174830e-04	
378	2.150000e+00	1.180969e-04	
379	2.200000e+00	1.186129e-04	
380	2.250000e+00	1.190326e-04	
381	2.300000e+00	1.193594e-04	
382	2.350000e+00	1.196002e-04	
383	2.400000e+00	1.197677e-04	
384	2.450000e+00	1.198803e-04	
385	2.500000e+00	1.199568e-04	
386	2.550000e+00	1.200114e-04	
387	2.600000e+00	1.200529e-04	
388	2.650000e+00	1.200860e-04	
389	2.700000e+00	1.201136e-04	
390	2.750000e+00	1.201373e-04	
391	2.800000e+00	1.201583e-04	
392	2.850000e+00	1.201771e-04	
393	2.900000e+00	1.201942e-04	
394	2.950000e+00	1.202100e-04	
395	3.000000e+00	1.202246e-04	
396	3.050000e+00	1.202384e-04	
397	3.100000e+00	1.202514e-04	
398	3.150000e+00	1.202637e-04	
399	3.200000e+00	1.202754e-04	
400	3.250000e+00	1.202866e-04	
401	3.300000e+00	1.202974e-04	
Note: No ".plot", ".print", or ".fourier" lines; no simulations run
