
Note: Compatibility modes selected: hs

Warning: m=xx on .subckt line will override multiplier m hierarchy!


Circuit: ***************************

Doing analysis at TEMP = -40.000000 and TNOM = -40.000000


No. of Data Rows : 402
                          ***************************
                          DC transfer characteristic  Mon Jan  9 13:57:17  2023
--------------------------------------------------------------------------------
Index   v-sweep         -i(vds)         
--------------------------------------------------------------------------------
0	0.000000e+00	-0.000000e+00	
1	5.000000e-02	1.339055e-07	
2	1.000000e-01	1.706823e-07	
3	1.500000e-01	1.734688e-07	
4	2.000000e-01	1.740329e-07	
5	2.500000e-01	1.743569e-07	
6	3.000000e-01	1.746117e-07	
7	3.500000e-01	1.748353e-07	
8	4.000000e-01	1.750412e-07	
9	4.500000e-01	1.752357e-07	
10	5.000000e-01	1.754223e-07	
11	5.500000e-01	1.756029e-07	
12	6.000000e-01	1.757789e-07	
13	6.500000e-01	1.759512e-07	
14	7.000000e-01	1.761205e-07	
15	7.500000e-01	1.762873e-07	
16	8.000000e-01	1.764519e-07	
17	8.500000e-01	1.766147e-07	
18	9.000000e-01	1.767760e-07	
19	9.500000e-01	1.769358e-07	
20	1.000000e+00	1.770944e-07	
21	1.050000e+00	1.772519e-07	
22	1.100000e+00	1.774084e-07	
23	1.150000e+00	1.775641e-07	
24	1.200000e+00	1.777189e-07	
25	1.250000e+00	1.778730e-07	
26	1.300000e+00	1.780264e-07	
27	1.350000e+00	1.781792e-07	
28	1.400000e+00	1.783315e-07	
29	1.450000e+00	1.784833e-07	
30	1.500000e+00	1.786346e-07	
31	1.550000e+00	1.787856e-07	
32	1.600000e+00	1.789362e-07	
33	1.650000e+00	1.790867e-07	
34	1.700000e+00	1.792370e-07	
35	1.750000e+00	1.793874e-07	
36	1.800000e+00	1.795380e-07	
37	1.850000e+00	1.796891e-07	
38	1.900000e+00	1.798410e-07	
39	1.950000e+00	1.799940e-07	
40	2.000000e+00	1.801485e-07	
41	2.050000e+00	1.803051e-07	
42	2.100000e+00	1.804645e-07	
43	2.150000e+00	1.806273e-07	
44	2.200000e+00	1.807945e-07	
45	2.250000e+00	1.809670e-07	
46	2.300000e+00	1.811461e-07	
47	2.350000e+00	1.813330e-07	
48	2.400000e+00	1.815293e-07	
49	2.450000e+00	1.817367e-07	
50	2.500000e+00	1.819569e-07	
51	2.550000e+00	1.821920e-07	
52	2.600000e+00	1.824443e-07	
53	2.650000e+00	1.827162e-07	
54	2.700000e+00	1.830103e-07	

Index   v-sweep         -i(vds)         
--------------------------------------------------------------------------------
55	2.750000e+00	1.833295e-07	
56	2.800000e+00	1.836769e-07	
57	2.850000e+00	1.840557e-07	
58	2.900000e+00	1.844693e-07	
59	2.950000e+00	1.849214e-07	
60	3.000000e+00	1.854160e-07	
61	3.050000e+00	1.859570e-07	
62	3.100000e+00	1.865487e-07	
63	3.150000e+00	1.871955e-07	
64	3.200000e+00	1.879022e-07	
65	3.250000e+00	1.886734e-07	
66	3.300000e+00	1.895141e-07	
67	0.000000e+00	-0.000000e+00	
68	5.000000e-02	1.150066e-06	
69	1.000000e-01	2.156479e-06	
70	1.500000e-01	3.020191e-06	
71	2.000000e-01	3.742178e-06	
72	2.500000e-01	4.323477e-06	
73	3.000000e-01	4.765358e-06	
74	3.500000e-01	5.070026e-06	
75	4.000000e-01	5.244510e-06	
76	4.500000e-01	5.316775e-06	
77	5.000000e-01	5.341045e-06	
78	5.500000e-01	5.351512e-06	
79	6.000000e-01	5.357752e-06	
80	6.500000e-01	5.362250e-06	
81	7.000000e-01	5.365845e-06	
82	7.500000e-01	5.368895e-06	
83	8.000000e-01	5.371583e-06	
84	8.500000e-01	5.374014e-06	
85	9.000000e-01	5.376252e-06	
86	9.500000e-01	5.378341e-06	
87	1.000000e+00	5.380309e-06	
88	1.050000e+00	5.382180e-06	
89	1.100000e+00	5.383970e-06	
90	1.150000e+00	5.385690e-06	
91	1.200000e+00	5.387352e-06	
92	1.250000e+00	5.388962e-06	
93	1.300000e+00	5.390527e-06	
94	1.350000e+00	5.392053e-06	
95	1.400000e+00	5.393543e-06	
96	1.450000e+00	5.395002e-06	
97	1.500000e+00	5.396433e-06	
98	1.550000e+00	5.397837e-06	
99	1.600000e+00	5.399219e-06	
100	1.650000e+00	5.400579e-06	
101	1.700000e+00	5.401920e-06	
102	1.750000e+00	5.403243e-06	
103	1.800000e+00	5.404551e-06	
104	1.850000e+00	5.405845e-06	
105	1.900000e+00	5.407126e-06	
106	1.950000e+00	5.408399e-06	
107	2.000000e+00	5.409664e-06	
108	2.050000e+00	5.410927e-06	
109	2.100000e+00	5.412192e-06	
110	2.150000e+00	5.413464e-06	
111	2.200000e+00	5.414750e-06	
112	2.250000e+00	5.416061e-06	

Index   v-sweep         -i(vds)         
--------------------------------------------------------------------------------
113	2.300000e+00	5.417407e-06	
114	2.350000e+00	5.418801e-06	
115	2.400000e+00	5.420261e-06	
116	2.450000e+00	5.421805e-06	
117	2.500000e+00	5.423457e-06	
118	2.550000e+00	5.425243e-06	
119	2.600000e+00	5.427196e-06	
120	2.650000e+00	5.429349e-06	
121	2.700000e+00	5.431743e-06	
122	2.750000e+00	5.434424e-06	
123	2.800000e+00	5.437441e-06	
124	2.850000e+00	5.440851e-06	
125	2.900000e+00	5.444714e-06	
126	2.950000e+00	5.449098e-06	
127	3.000000e+00	5.454076e-06	
128	3.050000e+00	5.459726e-06	
129	3.100000e+00	5.466133e-06	
130	3.150000e+00	5.473388e-06	
131	3.200000e+00	5.481587e-06	
132	3.250000e+00	5.490832e-06	
133	3.300000e+00	5.501233e-06	
134	0.000000e+00	-0.000000e+00	
135	5.000000e-02	2.088607e-06	
136	1.000000e-01	4.039851e-06	
137	1.500000e-01	5.854570e-06	
138	2.000000e-01	7.533597e-06	
139	2.500000e-01	9.077759e-06	
140	3.000000e-01	1.048788e-05	
141	3.500000e-01	1.176477e-05	
142	4.000000e-01	1.290926e-05	
143	4.500000e-01	1.392215e-05	
144	5.000000e-01	1.480428e-05	
145	5.500000e-01	1.555651e-05	
146	6.000000e-01	1.617976e-05	
147	6.500000e-01	1.667522e-05	
148	7.000000e-01	1.704484e-05	
149	7.500000e-01	1.729364e-05	
150	8.000000e-01	1.743698e-05	
151	8.500000e-01	1.750882e-05	
152	9.000000e-01	1.754583e-05	
153	9.500000e-01	1.756808e-05	
154	1.000000e+00	1.758351e-05	
155	1.050000e+00	1.759531e-05	
156	1.100000e+00	1.760492e-05	
157	1.150000e+00	1.761309e-05	
158	1.200000e+00	1.762025e-05	
159	1.250000e+00	1.762666e-05	
160	1.300000e+00	1.763250e-05	
161	1.350000e+00	1.763789e-05	
162	1.400000e+00	1.764292e-05	
163	1.450000e+00	1.764764e-05	
164	1.500000e+00	1.765211e-05	
165	1.550000e+00	1.765637e-05	
166	1.600000e+00	1.766044e-05	
167	1.650000e+00	1.766435e-05	
168	1.700000e+00	1.766811e-05	
169	1.750000e+00	1.767175e-05	
170	1.800000e+00	1.767528e-05	

Index   v-sweep         -i(vds)         
--------------------------------------------------------------------------------
171	1.850000e+00	1.767871e-05	
172	1.900000e+00	1.768205e-05	
173	1.950000e+00	1.768530e-05	
174	2.000000e+00	1.768849e-05	
175	2.050000e+00	1.769160e-05	
176	2.100000e+00	1.769465e-05	
177	2.150000e+00	1.769765e-05	
178	2.200000e+00	1.770060e-05	
179	2.250000e+00	1.770350e-05	
180	2.300000e+00	1.770637e-05	
181	2.350000e+00	1.770922e-05	
182	2.400000e+00	1.771205e-05	
183	2.450000e+00	1.771488e-05	
184	2.500000e+00	1.771772e-05	
185	2.550000e+00	1.772060e-05	
186	2.600000e+00	1.772355e-05	
187	2.650000e+00	1.772660e-05	
188	2.700000e+00	1.772979e-05	
189	2.750000e+00	1.773318e-05	
190	2.800000e+00	1.773681e-05	
191	2.850000e+00	1.774077e-05	
192	2.900000e+00	1.774513e-05	
193	2.950000e+00	1.775000e-05	
194	3.000000e+00	1.775548e-05	
195	3.050000e+00	1.776170e-05	
196	3.100000e+00	1.776880e-05	
197	3.150000e+00	1.777693e-05	
198	3.200000e+00	1.778628e-05	
199	3.250000e+00	1.779704e-05	
200	3.300000e+00	1.780941e-05	
201	0.000000e+00	-0.000000e+00	
202	5.000000e-02	2.851217e-06	
203	1.000000e-01	5.576695e-06	
204	1.500000e-01	8.177151e-06	
205	2.000000e-01	1.065329e-05	
206	2.500000e-01	1.300583e-05	
207	3.000000e-01	1.523546e-05	
208	3.500000e-01	1.734288e-05	
209	4.000000e-01	1.932877e-05	
210	4.500000e-01	2.119382e-05	
211	5.000000e-01	2.293872e-05	
212	5.500000e-01	2.456413e-05	
213	6.000000e-01	2.607072e-05	
214	6.500000e-01	2.745916e-05	
215	7.000000e-01	2.873011e-05	
216	7.500000e-01	2.988423e-05	
217	8.000000e-01	3.092217e-05	
218	8.500000e-01	3.184459e-05	
219	9.000000e-01	3.265214e-05	
220	9.500000e-01	3.334552e-05	
221	1.000000e+00	3.392546e-05	
222	1.050000e+00	3.439299e-05	
223	1.100000e+00	3.475001e-05	
224	1.150000e+00	3.500166e-05	
225	1.200000e+00	3.516200e-05	
226	1.250000e+00	3.525737e-05	
227	1.300000e+00	3.531549e-05	
228	1.350000e+00	3.535414e-05	

Index   v-sweep         -i(vds)         
--------------------------------------------------------------------------------
229	1.400000e+00	3.538223e-05	
230	1.450000e+00	3.540412e-05	
231	1.500000e+00	3.542204e-05	
232	1.550000e+00	3.543727e-05	
233	1.600000e+00	3.545055e-05	
234	1.650000e+00	3.546237e-05	
235	1.700000e+00	3.547307e-05	
236	1.750000e+00	3.548287e-05	
237	1.800000e+00	3.549195e-05	
238	1.850000e+00	3.550042e-05	
239	1.900000e+00	3.550839e-05	
240	1.950000e+00	3.551592e-05	
241	2.000000e+00	3.552308e-05	
242	2.050000e+00	3.552991e-05	
243	2.100000e+00	3.553646e-05	
244	2.150000e+00	3.554276e-05	
245	2.200000e+00	3.554883e-05	
246	2.250000e+00	3.555470e-05	
247	2.300000e+00	3.556039e-05	
248	2.350000e+00	3.556592e-05	
249	2.400000e+00	3.557129e-05	
250	2.450000e+00	3.557653e-05	
251	2.500000e+00	3.558165e-05	
252	2.550000e+00	3.558666e-05	
253	2.600000e+00	3.559157e-05	
254	2.650000e+00	3.559639e-05	
255	2.700000e+00	3.560115e-05	
256	2.750000e+00	3.560585e-05	
257	2.800000e+00	3.561054e-05	
258	2.850000e+00	3.561522e-05	
259	2.900000e+00	3.561995e-05	
260	2.950000e+00	3.562477e-05	
261	3.000000e+00	3.562974e-05	
262	3.050000e+00	3.563492e-05	
263	3.100000e+00	3.564041e-05	
264	3.150000e+00	3.564631e-05	
265	3.200000e+00	3.565275e-05	
266	3.250000e+00	3.565988e-05	
267	3.300000e+00	3.566787e-05	
268	0.000000e+00	-0.000000e+00	
269	5.000000e-02	3.429376e-06	
270	1.000000e-01	6.746470e-06	
271	1.500000e-01	9.951869e-06	
272	2.000000e-01	1.304616e-05	
273	2.500000e-01	1.602992e-05	
274	3.000000e-01	1.890374e-05	
275	3.500000e-01	2.166818e-05	
276	4.000000e-01	2.432381e-05	
277	4.500000e-01	2.687119e-05	
278	5.000000e-01	2.931090e-05	
279	5.500000e-01	3.164348e-05	
280	6.000000e-01	3.386949e-05	
281	6.500000e-01	3.598948e-05	
282	7.000000e-01	3.800400e-05	
283	7.500000e-01	3.991358e-05	
284	8.000000e-01	4.171876e-05	
285	8.500000e-01	4.342008e-05	
286	9.000000e-01	4.501807e-05	

Index   v-sweep         -i(vds)         
--------------------------------------------------------------------------------
287	9.500000e-01	4.651325e-05	
288	1.000000e+00	4.790615e-05	
289	1.050000e+00	4.919727e-05	
290	1.100000e+00	5.038713e-05	
291	1.150000e+00	5.147623e-05	
292	1.200000e+00	5.246506e-05	
293	1.250000e+00	5.335410e-05	
294	1.300000e+00	5.414382e-05	
295	1.350000e+00	5.483465e-05	
296	1.400000e+00	5.542704e-05	
297	1.450000e+00	5.592143e-05	
298	1.500000e+00	5.631867e-05	
299	1.550000e+00	5.662111e-05	
300	1.600000e+00	5.683605e-05	
301	1.650000e+00	5.697977e-05	
302	1.700000e+00	5.707463e-05	
303	1.750000e+00	5.713983e-05	
304	1.800000e+00	5.718747e-05	
305	1.850000e+00	5.722434e-05	
306	1.900000e+00	5.725422e-05	
307	1.950000e+00	5.727931e-05	
308	2.000000e+00	5.730095e-05	
309	2.050000e+00	5.732003e-05	
310	2.100000e+00	5.733712e-05	
311	2.150000e+00	5.735265e-05	
312	2.200000e+00	5.736690e-05	
313	2.250000e+00	5.738010e-05	
314	2.300000e+00	5.739243e-05	
315	2.350000e+00	5.740401e-05	
316	2.400000e+00	5.741495e-05	
317	2.450000e+00	5.742534e-05	
318	2.500000e+00	5.743523e-05	
319	2.550000e+00	5.744470e-05	
320	2.600000e+00	5.745379e-05	
321	2.650000e+00	5.746254e-05	
322	2.700000e+00	5.747098e-05	
323	2.750000e+00	5.747914e-05	
324	2.800000e+00	5.748705e-05	
325	2.850000e+00	5.749473e-05	
326	2.900000e+00	5.750221e-05	
327	2.950000e+00	5.750950e-05	
328	3.000000e+00	5.751662e-05	
329	3.050000e+00	5.752360e-05	
330	3.100000e+00	5.753047e-05	
331	3.150000e+00	5.753724e-05	
332	3.200000e+00	5.754395e-05	
333	3.250000e+00	5.755066e-05	
334	3.300000e+00	5.755742e-05	
335	0.000000e+00	-0.000000e+00	
336	5.000000e-02	3.838706e-06	
337	1.000000e-01	7.578829e-06	
338	1.500000e-01	1.122084e-05	
339	2.000000e-01	1.476522e-05	
340	2.500000e-01	1.821242e-05	
341	3.000000e-01	2.156292e-05	
342	3.500000e-01	2.481717e-05	
343	4.000000e-01	2.797564e-05	
344	4.500000e-01	3.103877e-05	

Index   v-sweep         -i(vds)         
--------------------------------------------------------------------------------
345	5.000000e-01	3.400702e-05	
346	5.500000e-01	3.688085e-05	
347	6.000000e-01	3.966069e-05	
348	6.500000e-01	4.234699e-05	
349	7.000000e-01	4.494019e-05	
350	7.500000e-01	4.744073e-05	
351	8.000000e-01	4.984905e-05	
352	8.500000e-01	5.216558e-05	
353	9.000000e-01	5.439075e-05	
354	9.500000e-01	5.652498e-05	
355	1.000000e+00	5.856870e-05	
356	1.050000e+00	6.052233e-05	
357	1.100000e+00	6.238629e-05	
358	1.150000e+00	6.416100e-05	
359	1.200000e+00	6.584686e-05	
360	1.250000e+00	6.744429e-05	
361	1.300000e+00	6.895368e-05	
362	1.350000e+00	7.037545e-05	
363	1.400000e+00	7.170998e-05	
364	1.450000e+00	7.295768e-05	
365	1.500000e+00	7.411891e-05	
366	1.550000e+00	7.519405e-05	
367	1.600000e+00	7.618347e-05	
368	1.650000e+00	7.708750e-05	
369	1.700000e+00	7.790645e-05	
370	1.750000e+00	7.864058e-05	
371	1.800000e+00	7.929010e-05	
372	1.850000e+00	7.985508e-05	
373	1.900000e+00	8.033552e-05	
374	1.950000e+00	8.073153e-05	
375	2.000000e+00	8.104428e-05	
376	2.050000e+00	8.127865e-05	
377	2.100000e+00	8.144639e-05	
378	2.150000e+00	8.156472e-05	
379	2.200000e+00	8.165011e-05	
380	2.250000e+00	8.171437e-05	
381	2.300000e+00	8.176489e-05	
382	2.350000e+00	8.180615e-05	
383	2.400000e+00	8.184090e-05	
384	2.450000e+00	8.187089e-05	
385	2.500000e+00	8.189730e-05	
386	2.550000e+00	8.192091e-05	
387	2.600000e+00	8.194231e-05	
388	2.650000e+00	8.196190e-05	
389	2.700000e+00	8.198000e-05	
390	2.750000e+00	8.199684e-05	
391	2.800000e+00	8.201262e-05	
392	2.850000e+00	8.202749e-05	
393	2.900000e+00	8.204156e-05	
394	2.950000e+00	8.205494e-05	
395	3.000000e+00	8.206770e-05	
396	3.050000e+00	8.207992e-05	
397	3.100000e+00	8.209165e-05	
398	3.150000e+00	8.210293e-05	
399	3.200000e+00	8.211382e-05	
400	3.250000e+00	8.212436e-05	
401	3.300000e+00	8.213456e-05	
Note: No ".plot", ".print", or ".fourier" lines; no simulations run
