
Note: Compatibility modes selected: hs

Warning: m=xx on .subckt line will override multiplier m hierarchy!


Circuit: ***************************

Doing analysis at TEMP = -40.000000 and TNOM = -40.000000


No. of Data Rows : 402
                          ***************************
                          DC transfer characteristic  Mon Jan  9 13:57:17  2023
--------------------------------------------------------------------------------
Index   v-sweep         -i(vds)         
--------------------------------------------------------------------------------
0	0.000000e+00	-0.000000e+00	
1	5.000000e-02	3.898740e-08	
2	1.000000e-01	5.498019e-08	
3	1.500000e-01	5.722405e-08	
4	2.000000e-01	5.750497e-08	
5	2.500000e-01	5.762665e-08	
6	3.000000e-01	5.771272e-08	
7	3.500000e-01	5.778455e-08	
8	4.000000e-01	5.784883e-08	
9	4.500000e-01	5.790840e-08	
10	5.000000e-01	5.796475e-08	
11	5.500000e-01	5.801872e-08	
12	6.000000e-01	5.807089e-08	
13	6.500000e-01	5.812163e-08	
14	7.000000e-01	5.817120e-08	
15	7.500000e-01	5.821980e-08	
16	8.000000e-01	5.826759e-08	
17	8.500000e-01	5.831468e-08	
18	9.000000e-01	5.836117e-08	
19	9.500000e-01	5.840712e-08	
20	1.000000e+00	5.845261e-08	
21	1.050000e+00	5.849769e-08	
22	1.100000e+00	5.854239e-08	
23	1.150000e+00	5.858676e-08	
24	1.200000e+00	5.863083e-08	
25	1.250000e+00	5.867462e-08	
26	1.300000e+00	5.871817e-08	
27	1.350000e+00	5.876148e-08	
28	1.400000e+00	5.880459e-08	
29	1.450000e+00	5.884751e-08	
30	1.500000e+00	5.889026e-08	
31	1.550000e+00	5.893286e-08	
32	1.600000e+00	5.897534e-08	
33	1.650000e+00	5.901772e-08	
34	1.700000e+00	5.906004e-08	
35	1.750000e+00	5.910235e-08	
36	1.800000e+00	5.914470e-08	
37	1.850000e+00	5.918717e-08	
38	1.900000e+00	5.922986e-08	
39	1.950000e+00	5.927286e-08	
40	2.000000e+00	5.931634e-08	
41	2.050000e+00	5.936046e-08	
42	2.100000e+00	5.940543e-08	
43	2.150000e+00	5.945152e-08	
44	2.200000e+00	5.949900e-08	
45	2.250000e+00	5.954823e-08	
46	2.300000e+00	5.959961e-08	
47	2.350000e+00	5.965359e-08	
48	2.400000e+00	5.971069e-08	
49	2.450000e+00	5.977150e-08	
50	2.500000e+00	5.983667e-08	
51	2.550000e+00	5.990691e-08	
52	2.600000e+00	5.998303e-08	
53	2.650000e+00	6.006589e-08	
54	2.700000e+00	6.015645e-08	

Index   v-sweep         -i(vds)         
--------------------------------------------------------------------------------
55	2.750000e+00	6.025572e-08	
56	2.800000e+00	6.036482e-08	
57	2.850000e+00	6.048494e-08	
58	2.900000e+00	6.061732e-08	
59	2.950000e+00	6.076332e-08	
60	3.000000e+00	6.092436e-08	
61	3.050000e+00	6.110194e-08	
62	3.100000e+00	6.129762e-08	
63	3.150000e+00	6.151307e-08	
64	3.200000e+00	6.174998e-08	
65	3.250000e+00	6.201017e-08	
66	3.300000e+00	6.229547e-08	
67	0.000000e+00	-0.000000e+00	
68	5.000000e-02	2.545421e-07	
69	1.000000e-01	4.795965e-07	
70	1.500000e-01	6.753679e-07	
71	2.000000e-01	8.420628e-07	
72	2.500000e-01	9.798951e-07	
73	3.000000e-01	1.089101e-06	
74	3.500000e-01	1.169999e-06	
75	4.000000e-01	1.223264e-06	
76	4.500000e-01	1.251352e-06	
77	5.000000e-01	1.262216e-06	
78	5.500000e-01	1.266267e-06	
79	6.000000e-01	1.268316e-06	
80	6.500000e-01	1.269657e-06	
81	7.000000e-01	1.270669e-06	
82	7.500000e-01	1.271498e-06	
83	8.000000e-01	1.272211e-06	
84	8.500000e-01	1.272844e-06	
85	9.000000e-01	1.273419e-06	
86	9.500000e-01	1.273950e-06	
87	1.000000e+00	1.274446e-06	
88	1.050000e+00	1.274913e-06	
89	1.100000e+00	1.275358e-06	
90	1.150000e+00	1.275782e-06	
91	1.200000e+00	1.276191e-06	
92	1.250000e+00	1.276584e-06	
93	1.300000e+00	1.276966e-06	
94	1.350000e+00	1.277336e-06	
95	1.400000e+00	1.277697e-06	
96	1.450000e+00	1.278049e-06	
97	1.500000e+00	1.278393e-06	
98	1.550000e+00	1.278730e-06	
99	1.600000e+00	1.279061e-06	
100	1.650000e+00	1.279385e-06	
101	1.700000e+00	1.279705e-06	
102	1.750000e+00	1.280020e-06	
103	1.800000e+00	1.280330e-06	
104	1.850000e+00	1.280637e-06	
105	1.900000e+00	1.280940e-06	
106	1.950000e+00	1.281240e-06	
107	2.000000e+00	1.281538e-06	
108	2.050000e+00	1.281835e-06	
109	2.100000e+00	1.282131e-06	
110	2.150000e+00	1.282427e-06	
111	2.200000e+00	1.282726e-06	
112	2.250000e+00	1.283029e-06	

Index   v-sweep         -i(vds)         
--------------------------------------------------------------------------------
113	2.300000e+00	1.283339e-06	
114	2.350000e+00	1.283659e-06	
115	2.400000e+00	1.283992e-06	
116	2.450000e+00	1.284344e-06	
117	2.500000e+00	1.284718e-06	
118	2.550000e+00	1.285123e-06	
119	2.600000e+00	1.285564e-06	
120	2.650000e+00	1.286051e-06	
121	2.700000e+00	1.286593e-06	
122	2.750000e+00	1.287201e-06	
123	2.800000e+00	1.287887e-06	
124	2.850000e+00	1.288666e-06	
125	2.900000e+00	1.289553e-06	
126	2.950000e+00	1.290564e-06	
127	3.000000e+00	1.291718e-06	
128	3.050000e+00	1.293036e-06	
129	3.100000e+00	1.294537e-06	
130	3.150000e+00	1.296247e-06	
131	3.200000e+00	1.298191e-06	
132	3.250000e+00	1.300393e-06	
133	3.300000e+00	1.302884e-06	
134	0.000000e+00	-0.000000e+00	
135	5.000000e-02	4.550932e-07	
136	1.000000e-01	8.816064e-07	
137	1.500000e-01	1.279726e-06	
138	2.000000e-01	1.649637e-06	
139	2.500000e-01	1.991523e-06	
140	3.000000e-01	2.305567e-06	
141	3.500000e-01	2.591949e-06	
142	4.000000e-01	2.850849e-06	
143	4.500000e-01	3.082448e-06	
144	5.000000e-01	3.286925e-06	
145	5.500000e-01	3.464462e-06	
146	6.000000e-01	3.615251e-06	
147	6.500000e-01	3.739503e-06	
148	7.000000e-01	3.837492e-06	
149	7.500000e-01	3.909714e-06	
150	8.000000e-01	3.957485e-06	
151	8.500000e-01	3.984654e-06	
152	9.000000e-01	3.998592e-06	
153	9.500000e-01	4.006200e-06	
154	1.000000e+00	4.011015e-06	
155	1.050000e+00	4.014466e-06	
156	1.100000e+00	4.017157e-06	
157	1.150000e+00	4.019377e-06	
158	1.200000e+00	4.021278e-06	
159	1.250000e+00	4.022953e-06	
160	1.300000e+00	4.024457e-06	
161	1.350000e+00	4.025830e-06	
162	1.400000e+00	4.027098e-06	
163	1.450000e+00	4.028280e-06	
164	1.500000e+00	4.029392e-06	
165	1.550000e+00	4.030443e-06	
166	1.600000e+00	4.031444e-06	
167	1.650000e+00	4.032400e-06	
168	1.700000e+00	4.033318e-06	
169	1.750000e+00	4.034202e-06	
170	1.800000e+00	4.035055e-06	

Index   v-sweep         -i(vds)         
--------------------------------------------------------------------------------
171	1.850000e+00	4.035882e-06	
172	1.900000e+00	4.036685e-06	
173	1.950000e+00	4.037466e-06	
174	2.000000e+00	4.038227e-06	
175	2.050000e+00	4.038970e-06	
176	2.100000e+00	4.039697e-06	
177	2.150000e+00	4.040409e-06	
178	2.200000e+00	4.041107e-06	
179	2.250000e+00	4.041794e-06	
180	2.300000e+00	4.042470e-06	
181	2.350000e+00	4.043138e-06	
182	2.400000e+00	4.043799e-06	
183	2.450000e+00	4.044457e-06	
184	2.500000e+00	4.045115e-06	
185	2.550000e+00	4.045778e-06	
186	2.600000e+00	4.046450e-06	
187	2.650000e+00	4.047140e-06	
188	2.700000e+00	4.047856e-06	
189	2.750000e+00	4.048607e-06	
190	2.800000e+00	4.049408e-06	
191	2.850000e+00	4.050274e-06	
192	2.900000e+00	4.051223e-06	
193	2.950000e+00	4.052276e-06	
194	3.000000e+00	4.053459e-06	
195	3.050000e+00	4.054799e-06	
196	3.100000e+00	4.056330e-06	
197	3.150000e+00	4.058088e-06	
198	3.200000e+00	4.060114e-06	
199	3.250000e+00	4.062454e-06	
200	3.300000e+00	4.065160e-06	
201	0.000000e+00	-0.000000e+00	
202	5.000000e-02	6.232669e-07	
203	1.000000e-01	1.219949e-06	
204	1.500000e-01	1.790209e-06	
205	2.000000e-01	2.334211e-06	
206	2.500000e-01	2.852115e-06	
207	3.000000e-01	3.344081e-06	
208	3.500000e-01	3.810268e-06	
209	4.000000e-01	4.250833e-06	
210	4.500000e-01	4.665931e-06	
211	5.000000e-01	5.055718e-06	
212	5.500000e-01	5.420347e-06	
213	6.000000e-01	5.759971e-06	
214	6.500000e-01	6.074740e-06	
215	7.000000e-01	6.364804e-06	
216	7.500000e-01	6.630313e-06	
217	8.000000e-01	6.871413e-06	
218	8.500000e-01	7.088252e-06	
219	9.000000e-01	7.280977e-06	
220	9.500000e-01	7.449734e-06	
221	1.000000e+00	7.594675e-06	
222	1.050000e+00	7.715966e-06	
223	1.100000e+00	7.813825e-06	
224	1.150000e+00	7.888672e-06	
225	1.200000e+00	7.941637e-06	
226	1.250000e+00	7.975757e-06	
227	1.300000e+00	7.996510e-06	
228	1.350000e+00	8.009504e-06	

Index   v-sweep         -i(vds)         
--------------------------------------------------------------------------------
229	1.400000e+00	8.018337e-06	
230	1.450000e+00	8.024855e-06	
231	1.500000e+00	8.029980e-06	
232	1.550000e+00	8.034203e-06	
233	1.600000e+00	8.037803e-06	
234	1.650000e+00	8.040950e-06	
235	1.700000e+00	8.043757e-06	
236	1.750000e+00	8.046298e-06	
237	1.800000e+00	8.048626e-06	
238	1.850000e+00	8.050782e-06	
239	1.900000e+00	8.052794e-06	
240	1.950000e+00	8.054684e-06	
241	2.000000e+00	8.056470e-06	
242	2.050000e+00	8.058167e-06	
243	2.100000e+00	8.059786e-06	
244	2.150000e+00	8.061336e-06	
245	2.200000e+00	8.062825e-06	
246	2.250000e+00	8.064260e-06	
247	2.300000e+00	8.065645e-06	
248	2.350000e+00	8.066987e-06	
249	2.400000e+00	8.068289e-06	
250	2.450000e+00	8.069555e-06	
251	2.500000e+00	8.070788e-06	
252	2.550000e+00	8.071991e-06	
253	2.600000e+00	8.073167e-06	
254	2.650000e+00	8.074319e-06	
255	2.700000e+00	8.075450e-06	
256	2.750000e+00	8.076565e-06	
257	2.800000e+00	8.077668e-06	
258	2.850000e+00	8.078764e-06	
259	2.900000e+00	8.079862e-06	
260	2.950000e+00	8.080969e-06	
261	3.000000e+00	8.082097e-06	
262	3.050000e+00	8.083261e-06	
263	3.100000e+00	8.084479e-06	
264	3.150000e+00	8.085772e-06	
265	3.200000e+00	8.087167e-06	
266	3.250000e+00	8.088695e-06	
267	3.300000e+00	8.090393e-06	
268	0.000000e+00	-0.000000e+00	
269	5.000000e-02	7.553744e-07	
270	1.000000e-01	1.486629e-06	
271	1.500000e-01	2.193901e-06	
272	2.000000e-01	2.877330e-06	
273	2.500000e-01	3.537051e-06	
274	3.000000e-01	4.173200e-06	
275	3.500000e-01	4.785911e-06	
276	4.000000e-01	5.375318e-06	
277	4.500000e-01	5.941553e-06	
278	5.000000e-01	6.484747e-06	
279	5.500000e-01	7.005032e-06	
280	6.000000e-01	7.502535e-06	
281	6.500000e-01	7.977386e-06	
282	7.000000e-01	8.429712e-06	
283	7.500000e-01	8.859640e-06	
284	8.000000e-01	9.267294e-06	
285	8.500000e-01	9.652800e-06	
286	9.000000e-01	1.001628e-05	

Index   v-sweep         -i(vds)         
--------------------------------------------------------------------------------
287	9.500000e-01	1.035786e-05	
288	1.000000e+00	1.067765e-05	
289	1.050000e+00	1.097578e-05	
290	1.100000e+00	1.125237e-05	
291	1.150000e+00	1.150754e-05	
292	1.200000e+00	1.174139e-05	
293	1.250000e+00	1.195404e-05	
294	1.300000e+00	1.214560e-05	
295	1.350000e+00	1.231618e-05	
296	1.400000e+00	1.246587e-05	
297	1.450000e+00	1.259475e-05	
298	1.500000e+00	1.270292e-05	
299	1.550000e+00	1.279051e-05	
300	1.600000e+00	1.285795e-05	
301	1.650000e+00	1.290662e-05	
302	1.700000e+00	1.293977e-05	
303	1.750000e+00	1.296203e-05	
304	1.800000e+00	1.297751e-05	
305	1.850000e+00	1.298891e-05	
306	1.900000e+00	1.299777e-05	
307	1.950000e+00	1.300497e-05	
308	2.000000e+00	1.301102e-05	
309	2.050000e+00	1.301624e-05	
310	2.100000e+00	1.302085e-05	
311	2.150000e+00	1.302497e-05	
312	2.200000e+00	1.302871e-05	
313	2.250000e+00	1.303214e-05	
314	2.300000e+00	1.303532e-05	
315	2.350000e+00	1.303829e-05	
316	2.400000e+00	1.304107e-05	
317	2.450000e+00	1.304369e-05	
318	2.500000e+00	1.304618e-05	
319	2.550000e+00	1.304855e-05	
320	2.600000e+00	1.305082e-05	
321	2.650000e+00	1.305299e-05	
322	2.700000e+00	1.305508e-05	
323	2.750000e+00	1.305710e-05	
324	2.800000e+00	1.305904e-05	
325	2.850000e+00	1.306093e-05	
326	2.900000e+00	1.306276e-05	
327	2.950000e+00	1.306453e-05	
328	3.000000e+00	1.306626e-05	
329	3.050000e+00	1.306795e-05	
330	3.100000e+00	1.306961e-05	
331	3.150000e+00	1.307123e-05	
332	3.200000e+00	1.307284e-05	
333	3.250000e+00	1.307442e-05	
334	3.300000e+00	1.307601e-05	
335	0.000000e+00	-0.000000e+00	
336	5.000000e-02	8.527362e-07	
337	1.000000e-01	1.683982e-06	
338	1.500000e-01	2.493850e-06	
339	2.000000e-01	3.282456e-06	
340	2.500000e-01	4.049910e-06	
341	3.000000e-01	4.796325e-06	
342	3.500000e-01	5.521812e-06	
343	4.000000e-01	6.226481e-06	
344	4.500000e-01	6.910441e-06	

Index   v-sweep         -i(vds)         
--------------------------------------------------------------------------------
345	5.000000e-01	7.573801e-06	
346	5.500000e-01	8.216668e-06	
347	6.000000e-01	8.839150e-06	
348	6.500000e-01	9.441353e-06	
349	7.000000e-01	1.002338e-05	
350	7.500000e-01	1.058534e-05	
351	8.000000e-01	1.112734e-05	
352	8.500000e-01	1.164947e-05	
353	9.000000e-01	1.215185e-05	
354	9.500000e-01	1.263457e-05	
355	1.000000e+00	1.309773e-05	
356	1.050000e+00	1.354144e-05	
357	1.100000e+00	1.396579e-05	
358	1.150000e+00	1.437089e-05	
359	1.200000e+00	1.475683e-05	
360	1.250000e+00	1.512370e-05	
361	1.300000e+00	1.547161e-05	
362	1.350000e+00	1.580065e-05	
363	1.400000e+00	1.611092e-05	
364	1.450000e+00	1.640250e-05	
365	1.500000e+00	1.667549e-05	
366	1.550000e+00	1.692998e-05	
367	1.600000e+00	1.716606e-05	
368	1.650000e+00	1.738381e-05	
369	1.700000e+00	1.758330e-05	
370	1.750000e+00	1.776462e-05	
371	1.800000e+00	1.792781e-05	
372	1.850000e+00	1.807291e-05	
373	1.900000e+00	1.819994e-05	
374	1.950000e+00	1.830887e-05	
375	2.000000e+00	1.839965e-05	
376	2.050000e+00	1.847239e-05	
377	2.100000e+00	1.852786e-05	
378	2.150000e+00	1.856827e-05	
379	2.200000e+00	1.859715e-05	
380	2.250000e+00	1.861814e-05	
381	2.300000e+00	1.863397e-05	
382	2.350000e+00	1.864643e-05	
383	2.400000e+00	1.865660e-05	
384	2.450000e+00	1.866515e-05	
385	2.500000e+00	1.867252e-05	
386	2.550000e+00	1.867900e-05	
387	2.600000e+00	1.868479e-05	
388	2.650000e+00	1.869002e-05	
389	2.700000e+00	1.869481e-05	
390	2.750000e+00	1.869923e-05	
391	2.800000e+00	1.870333e-05	
392	2.850000e+00	1.870717e-05	
393	2.900000e+00	1.871078e-05	
394	2.950000e+00	1.871420e-05	
395	3.000000e+00	1.871744e-05	
396	3.050000e+00	1.872053e-05	
397	3.100000e+00	1.872349e-05	
398	3.150000e+00	1.872632e-05	
399	3.200000e+00	1.872905e-05	
400	3.250000e+00	1.873167e-05	
401	3.300000e+00	1.873421e-05	
Note: No ".plot", ".print", or ".fourier" lines; no simulations run
