
Note: Compatibility modes selected: hs

Warning: m=xx on .subckt line will override multiplier m hierarchy!


Circuit: ***************************

Doing analysis at TEMP = 25.000000 and TNOM = 25.000000


No. of Data Rows : 402
                          ***************************
                          DC transfer characteristic  Mon Jan  9 13:57:17  2023
--------------------------------------------------------------------------------
Index   v-sweep         -i(vds)         
--------------------------------------------------------------------------------
0	0.000000e+00	-0.000000e+00	
1	5.000000e-02	1.767107e-07	
2	1.000000e-01	2.755448e-07	
3	1.500000e-01	3.064630e-07	
4	2.000000e-01	3.102986e-07	
5	2.500000e-01	3.111723e-07	
6	3.000000e-01	3.116486e-07	
7	3.500000e-01	3.120072e-07	
8	4.000000e-01	3.123127e-07	
9	4.500000e-01	3.125879e-07	
10	5.000000e-01	3.128436e-07	
11	5.500000e-01	3.130855e-07	
12	6.000000e-01	3.133171e-07	
13	6.500000e-01	3.135408e-07	
14	7.000000e-01	3.137580e-07	
15	7.500000e-01	3.139700e-07	
16	8.000000e-01	3.141776e-07	
17	8.500000e-01	3.143815e-07	
18	9.000000e-01	3.145822e-07	
19	9.500000e-01	3.147801e-07	
20	1.000000e+00	3.149755e-07	
21	1.050000e+00	3.151688e-07	
22	1.100000e+00	3.153601e-07	
23	1.150000e+00	3.155497e-07	
24	1.200000e+00	3.157377e-07	
25	1.250000e+00	3.159242e-07	
26	1.300000e+00	3.161095e-07	
27	1.350000e+00	3.162936e-07	
28	1.400000e+00	3.164767e-07	
29	1.450000e+00	3.166587e-07	
30	1.500000e+00	3.168399e-07	
31	1.550000e+00	3.170203e-07	
32	1.600000e+00	3.172000e-07	
33	1.650000e+00	3.173791e-07	
34	1.700000e+00	3.175579e-07	
35	1.750000e+00	3.177365e-07	
36	1.800000e+00	3.179152e-07	
37	1.850000e+00	3.180943e-07	
38	1.900000e+00	3.182742e-07	
39	1.950000e+00	3.184554e-07	
40	2.000000e+00	3.186385e-07	
41	2.050000e+00	3.188244e-07	
42	2.100000e+00	3.190139e-07	
43	2.150000e+00	3.192082e-07	
44	2.200000e+00	3.194086e-07	
45	2.250000e+00	3.196166e-07	
46	2.300000e+00	3.198340e-07	
47	2.350000e+00	3.200629e-07	
48	2.400000e+00	3.203055e-07	
49	2.450000e+00	3.205646e-07	
50	2.500000e+00	3.208429e-07	
51	2.550000e+00	3.211439e-07	
52	2.600000e+00	3.214709e-07	
53	2.650000e+00	3.218281e-07	
54	2.700000e+00	3.222195e-07	

Index   v-sweep         -i(vds)         
--------------------------------------------------------------------------------
55	2.750000e+00	3.226499e-07	
56	2.800000e+00	3.231242e-07	
57	2.850000e+00	3.236477e-07	
58	2.900000e+00	3.242262e-07	
59	2.950000e+00	3.248657e-07	
60	3.000000e+00	3.255725e-07	
61	3.050000e+00	3.263535e-07	
62	3.100000e+00	3.272156e-07	
63	3.150000e+00	3.281664e-07	
64	3.200000e+00	3.292135e-07	
65	3.250000e+00	3.303650e-07	
66	3.300000e+00	3.316292e-07	
67	0.000000e+00	-0.000000e+00	
68	5.000000e-02	8.604361e-07	
69	1.000000e-01	1.627732e-06	
70	1.500000e-01	2.302331e-06	
71	2.000000e-01	2.884683e-06	
72	2.500000e-01	3.375256e-06	
73	3.000000e-01	3.774565e-06	
74	3.500000e-01	4.083274e-06	
75	4.000000e-01	4.302586e-06	
76	4.500000e-01	4.436148e-06	
77	5.000000e-01	4.498022e-06	
78	5.500000e-01	4.520330e-06	
79	6.000000e-01	4.529594e-06	
80	6.500000e-01	4.534885e-06	
81	7.000000e-01	4.538613e-06	
82	7.500000e-01	4.541556e-06	
83	8.000000e-01	4.544036e-06	
84	8.500000e-01	4.546211e-06	
85	9.000000e-01	4.548171e-06	
86	9.500000e-01	4.549970e-06	
87	1.000000e+00	4.551644e-06	
88	1.050000e+00	4.553218e-06	
89	1.100000e+00	4.554711e-06	
90	1.150000e+00	4.556136e-06	
91	1.200000e+00	4.557503e-06	
92	1.250000e+00	4.558822e-06	
93	1.300000e+00	4.560097e-06	
94	1.350000e+00	4.561335e-06	
95	1.400000e+00	4.562539e-06	
96	1.450000e+00	4.563715e-06	
97	1.500000e+00	4.564863e-06	
98	1.550000e+00	4.565988e-06	
99	1.600000e+00	4.567092e-06	
100	1.650000e+00	4.568176e-06	
101	1.700000e+00	4.569242e-06	
102	1.750000e+00	4.570291e-06	
103	1.800000e+00	4.571326e-06	
104	1.850000e+00	4.572348e-06	
105	1.900000e+00	4.573357e-06	
106	1.950000e+00	4.574357e-06	
107	2.000000e+00	4.575348e-06	
108	2.050000e+00	4.576333e-06	
109	2.100000e+00	4.577315e-06	
110	2.150000e+00	4.578298e-06	
111	2.200000e+00	4.579286e-06	
112	2.250000e+00	4.580285e-06	

Index   v-sweep         -i(vds)         
--------------------------------------------------------------------------------
113	2.300000e+00	4.581302e-06	
114	2.350000e+00	4.582347e-06	
115	2.400000e+00	4.583430e-06	
116	2.450000e+00	4.584564e-06	
117	2.500000e+00	4.585766e-06	
118	2.550000e+00	4.587054e-06	
119	2.600000e+00	4.588450e-06	
120	2.650000e+00	4.589980e-06	
121	2.700000e+00	4.591672e-06	
122	2.750000e+00	4.593560e-06	
123	2.800000e+00	4.595680e-06	
124	2.850000e+00	4.598075e-06	
125	2.900000e+00	4.600789e-06	
126	2.950000e+00	4.603874e-06	
127	3.000000e+00	4.607385e-06	
128	3.050000e+00	4.611383e-06	
129	3.100000e+00	4.615932e-06	
130	3.150000e+00	4.621104e-06	
131	3.200000e+00	4.626974e-06	
132	3.250000e+00	4.633622e-06	
133	3.300000e+00	4.641133e-06	
134	0.000000e+00	-0.000000e+00	
135	5.000000e-02	1.488912e-06	
136	1.000000e-01	2.888499e-06	
137	1.500000e-01	4.199157e-06	
138	2.000000e-01	5.421281e-06	
139	2.500000e-01	6.555262e-06	
140	3.000000e-01	7.601493e-06	
141	3.500000e-01	8.560363e-06	
142	4.000000e-01	9.432262e-06	
143	4.500000e-01	1.021758e-05	
144	5.000000e-01	1.091672e-05	
145	5.500000e-01	1.153008e-05	
146	6.000000e-01	1.205808e-05	
147	6.500000e-01	1.250123e-05	
148	7.000000e-01	1.286012e-05	
149	7.500000e-01	1.313581e-05	
150	8.000000e-01	1.333068e-05	
151	8.500000e-01	1.345164e-05	
152	9.000000e-01	1.351603e-05	
153	9.500000e-01	1.354871e-05	
154	1.000000e+00	1.356737e-05	
155	1.050000e+00	1.357981e-05	
156	1.100000e+00	1.358910e-05	
157	1.150000e+00	1.359657e-05	
158	1.200000e+00	1.360287e-05	
159	1.250000e+00	1.360837e-05	
160	1.300000e+00	1.361327e-05	
161	1.350000e+00	1.361773e-05	
162	1.400000e+00	1.362183e-05	
163	1.450000e+00	1.362565e-05	
164	1.500000e+00	1.362923e-05	
165	1.550000e+00	1.363261e-05	
166	1.600000e+00	1.363583e-05	
167	1.650000e+00	1.363891e-05	
168	1.700000e+00	1.364186e-05	
169	1.750000e+00	1.364470e-05	
170	1.800000e+00	1.364745e-05	

Index   v-sweep         -i(vds)         
--------------------------------------------------------------------------------
171	1.850000e+00	1.365011e-05	
172	1.900000e+00	1.365269e-05	
173	1.950000e+00	1.365520e-05	
174	2.000000e+00	1.365764e-05	
175	2.050000e+00	1.366003e-05	
176	2.100000e+00	1.366237e-05	
177	2.150000e+00	1.366466e-05	
178	2.200000e+00	1.366690e-05	
179	2.250000e+00	1.366911e-05	
180	2.300000e+00	1.367128e-05	
181	2.350000e+00	1.367343e-05	
182	2.400000e+00	1.367555e-05	
183	2.450000e+00	1.367765e-05	
184	2.500000e+00	1.367976e-05	
185	2.550000e+00	1.368186e-05	
186	2.600000e+00	1.368399e-05	
187	2.650000e+00	1.368617e-05	
188	2.700000e+00	1.368840e-05	
189	2.750000e+00	1.369073e-05	
190	2.800000e+00	1.369319e-05	
191	2.850000e+00	1.369583e-05	
192	2.900000e+00	1.369868e-05	
193	2.950000e+00	1.370182e-05	
194	3.000000e+00	1.370532e-05	
195	3.050000e+00	1.370924e-05	
196	3.100000e+00	1.371370e-05	
197	3.150000e+00	1.371878e-05	
198	3.200000e+00	1.372460e-05	
199	3.250000e+00	1.373130e-05	
200	3.300000e+00	1.373901e-05	
201	0.000000e+00	-0.000000e+00	
202	5.000000e-02	2.016264e-06	
203	1.000000e-01	3.950120e-06	
204	1.500000e-01	5.801913e-06	
205	2.000000e-01	7.571984e-06	
206	2.500000e-01	9.260674e-06	
207	3.000000e-01	1.086832e-05	
208	3.500000e-01	1.239527e-05	
209	4.000000e-01	1.384184e-05	
210	4.500000e-01	1.520838e-05	
211	5.000000e-01	1.649521e-05	
212	5.500000e-01	1.770267e-05	
213	6.000000e-01	1.883109e-05	
214	6.500000e-01	1.988079e-05	
215	7.000000e-01	2.085210e-05	
216	7.500000e-01	2.174535e-05	
217	8.000000e-01	2.256086e-05	
218	8.500000e-01	2.329897e-05	
219	9.000000e-01	2.396001e-05	
220	9.500000e-01	2.454432e-05	
221	1.000000e+00	2.505229e-05	
222	1.050000e+00	2.548434e-05	
223	1.100000e+00	2.584105e-05	
224	1.150000e+00	2.612341e-05	
225	1.200000e+00	2.633359e-05	
226	1.250000e+00	2.647716e-05	
227	1.300000e+00	2.656658e-05	
228	1.350000e+00	2.662029e-05	

Index   v-sweep         -i(vds)         
--------------------------------------------------------------------------------
229	1.400000e+00	2.665432e-05	
230	1.450000e+00	2.667795e-05	
231	1.500000e+00	2.669578e-05	
232	1.550000e+00	2.671007e-05	
233	1.600000e+00	2.672203e-05	
234	1.650000e+00	2.673236e-05	
235	1.700000e+00	2.674149e-05	
236	1.750000e+00	2.674972e-05	
237	1.800000e+00	2.675722e-05	
238	1.850000e+00	2.676414e-05	
239	1.900000e+00	2.677059e-05	
240	1.950000e+00	2.677663e-05	
241	2.000000e+00	2.678234e-05	
242	2.050000e+00	2.678776e-05	
243	2.100000e+00	2.679292e-05	
244	2.150000e+00	2.679786e-05	
245	2.200000e+00	2.680261e-05	
246	2.250000e+00	2.680718e-05	
247	2.300000e+00	2.681159e-05	
248	2.350000e+00	2.681587e-05	
249	2.400000e+00	2.682002e-05	
250	2.450000e+00	2.682405e-05	
251	2.500000e+00	2.682798e-05	
252	2.550000e+00	2.683181e-05	
253	2.600000e+00	2.683556e-05	
254	2.650000e+00	2.683922e-05	
255	2.700000e+00	2.684282e-05	
256	2.750000e+00	2.684636e-05	
257	2.800000e+00	2.684986e-05	
258	2.850000e+00	2.685332e-05	
259	2.900000e+00	2.685678e-05	
260	2.950000e+00	2.686024e-05	
261	3.000000e+00	2.686374e-05	
262	3.050000e+00	2.686733e-05	
263	3.100000e+00	2.687104e-05	
264	3.150000e+00	2.687492e-05	
265	3.200000e+00	2.687906e-05	
266	3.250000e+00	2.688354e-05	
267	3.300000e+00	2.688844e-05	
268	0.000000e+00	-0.000000e+00	
269	5.000000e-02	2.435415e-06	
270	1.000000e-01	4.796429e-06	
271	1.500000e-01	7.083333e-06	
272	2.000000e-01	9.296415e-06	
273	2.500000e-01	1.143596e-05	
274	3.000000e-01	1.350227e-05	
275	3.500000e-01	1.549560e-05	
276	4.000000e-01	1.741626e-05	
277	4.500000e-01	1.926452e-05	
278	5.000000e-01	2.104066e-05	
279	5.500000e-01	2.274496e-05	
280	6.000000e-01	2.437770e-05	
281	6.500000e-01	2.593916e-05	
282	7.000000e-01	2.742960e-05	
283	7.500000e-01	2.884931e-05	
284	8.000000e-01	3.019854e-05	
285	8.500000e-01	3.147759e-05	
286	9.000000e-01	3.268670e-05	

Index   v-sweep         -i(vds)         
--------------------------------------------------------------------------------
287	9.500000e-01	3.382616e-05	
288	1.000000e+00	3.489623e-05	
289	1.050000e+00	3.589717e-05	
290	1.100000e+00	3.682925e-05	
291	1.150000e+00	3.769274e-05	
292	1.200000e+00	3.848790e-05	
293	1.250000e+00	3.921499e-05	
294	1.300000e+00	3.987428e-05	
295	1.350000e+00	4.046604e-05	
296	1.400000e+00	4.099055e-05	
297	1.450000e+00	4.144813e-05	
298	1.500000e+00	4.183915e-05	
299	1.550000e+00	4.216414e-05	
300	1.600000e+00	4.242414e-05	
301	1.650000e+00	4.262155e-05	
302	1.700000e+00	4.276213e-05	
303	1.750000e+00	4.285694e-05	
304	1.800000e+00	4.292032e-05	
305	1.850000e+00	4.296445e-05	
306	1.900000e+00	4.299710e-05	
307	1.950000e+00	4.302265e-05	
308	2.000000e+00	4.304355e-05	
309	2.050000e+00	4.306126e-05	
310	2.100000e+00	4.307664e-05	
311	2.150000e+00	4.309028e-05	
312	2.200000e+00	4.310256e-05	
313	2.250000e+00	4.311377e-05	
314	2.300000e+00	4.312409e-05	
315	2.350000e+00	4.313369e-05	
316	2.400000e+00	4.314267e-05	
317	2.450000e+00	4.315113e-05	
318	2.500000e+00	4.315914e-05	
319	2.550000e+00	4.316676e-05	
320	2.600000e+00	4.317403e-05	
321	2.650000e+00	4.318099e-05	
322	2.700000e+00	4.318769e-05	
323	2.750000e+00	4.319413e-05	
324	2.800000e+00	4.320036e-05	
325	2.850000e+00	4.320639e-05	
326	2.900000e+00	4.321224e-05	
327	2.950000e+00	4.321792e-05	
328	3.000000e+00	4.322345e-05	
329	3.050000e+00	4.322885e-05	
330	3.100000e+00	4.323412e-05	
331	3.150000e+00	4.323929e-05	
332	3.200000e+00	4.324437e-05	
333	3.250000e+00	4.324939e-05	
334	3.300000e+00	4.325437e-05	
335	0.000000e+00	-0.000000e+00	
336	5.000000e-02	2.751713e-06	
337	1.000000e-01	5.437259e-06	
338	1.500000e-01	8.056876e-06	
339	2.000000e-01	1.061080e-05	
340	2.500000e-01	1.309928e-05	
341	3.000000e-01	1.552254e-05	
342	3.500000e-01	1.788082e-05	
343	4.000000e-01	2.017435e-05	
344	4.500000e-01	2.240337e-05	

Index   v-sweep         -i(vds)         
--------------------------------------------------------------------------------
345	5.000000e-01	2.456810e-05	
346	5.500000e-01	2.666878e-05	
347	6.000000e-01	2.870565e-05	
348	6.500000e-01	3.067891e-05	
349	7.000000e-01	3.258881e-05	
350	7.500000e-01	3.443557e-05	
351	8.000000e-01	3.621942e-05	
352	8.500000e-01	3.794058e-05	
353	9.000000e-01	3.959926e-05	
354	9.500000e-01	4.119570e-05	
355	1.000000e+00	4.273012e-05	
356	1.050000e+00	4.420273e-05	
357	1.100000e+00	4.561376e-05	
358	1.150000e+00	4.696342e-05	
359	1.200000e+00	4.825192e-05	
360	1.250000e+00	4.947949e-05	
361	1.300000e+00	5.064634e-05	
362	1.350000e+00	5.175268e-05	
363	1.400000e+00	5.279873e-05	
364	1.450000e+00	5.378469e-05	
365	1.500000e+00	5.471078e-05	
366	1.550000e+00	5.557720e-05	
367	1.600000e+00	5.638417e-05	
368	1.650000e+00	5.713189e-05	
369	1.700000e+00	5.782056e-05	
370	1.750000e+00	5.845039e-05	
371	1.800000e+00	5.902157e-05	
372	1.850000e+00	5.953432e-05	
373	1.900000e+00	5.998883e-05	
374	1.950000e+00	6.038533e-05	
375	2.000000e+00	6.072411e-05	
376	2.050000e+00	6.100569e-05	
377	2.100000e+00	6.123131e-05	
378	2.150000e+00	6.140400e-05	
379	2.200000e+00	6.153036e-05	
380	2.250000e+00	6.162063e-05	
381	2.300000e+00	6.168585e-05	
382	2.350000e+00	6.173473e-05	
383	2.400000e+00	6.177297e-05	
384	2.450000e+00	6.180409e-05	
385	2.500000e+00	6.183024e-05	
386	2.550000e+00	6.185279e-05	
387	2.600000e+00	6.187263e-05	
388	2.650000e+00	6.189037e-05	
389	2.700000e+00	6.190645e-05	
390	2.750000e+00	6.192117e-05	
391	2.800000e+00	6.193478e-05	
392	2.850000e+00	6.194745e-05	
393	2.900000e+00	6.195933e-05	
394	2.950000e+00	6.197053e-05	
395	3.000000e+00	6.198112e-05	
396	3.050000e+00	6.199120e-05	
397	3.100000e+00	6.200082e-05	
398	3.150000e+00	6.201003e-05	
399	3.200000e+00	6.201887e-05	
400	3.250000e+00	6.202739e-05	
401	3.300000e+00	6.203560e-05	
Note: No ".plot", ".print", or ".fourier" lines; no simulations run
