
Note: Compatibility modes selected: hs

Warning: m=xx on .subckt line will override multiplier m hierarchy!


Circuit: ***************************

Doing analysis at TEMP = 125.000000 and TNOM = 125.000000


No. of Data Rows : 402
                          ***************************
                          DC transfer characteristic  Mon Jan  9 13:57:19  2023
--------------------------------------------------------------------------------
Index   v-sweep         -i(vds)         
--------------------------------------------------------------------------------
0	0.000000e+00	-0.000000e+00	
1	5.000000e-02	1.792712e-06	
2	1.000000e-01	3.180682e-06	
3	1.500000e-01	4.189550e-06	
4	2.000000e-01	4.849145e-06	
5	2.500000e-01	5.217767e-06	
6	3.000000e-01	5.400338e-06	
7	3.500000e-01	5.498536e-06	
8	4.000000e-01	5.562903e-06	
9	4.500000e-01	5.611749e-06	
10	5.000000e-01	5.652061e-06	
11	5.500000e-01	5.686998e-06	
12	6.000000e-01	5.718224e-06	
13	6.500000e-01	5.746724e-06	
14	7.000000e-01	5.773130e-06	
15	7.500000e-01	5.797875e-06	
16	8.000000e-01	5.821268e-06	
17	8.500000e-01	5.843537e-06	
18	9.000000e-01	5.864859e-06	
19	9.500000e-01	5.885371e-06	
20	1.000000e+00	5.905181e-06	
21	1.050000e+00	5.924378e-06	
22	1.100000e+00	5.943034e-06	
23	1.150000e+00	5.961212e-06	
24	1.200000e+00	5.978961e-06	
25	1.250000e+00	5.996326e-06	
26	1.300000e+00	6.013342e-06	
27	1.350000e+00	6.030043e-06	
28	1.400000e+00	6.046457e-06	
29	1.450000e+00	6.062607e-06	
30	1.500000e+00	6.078517e-06	
31	1.550000e+00	6.094204e-06	
32	1.600000e+00	6.109688e-06	
33	1.650000e+00	6.124983e-06	
34	1.700000e+00	6.140105e-06	
35	1.750000e+00	6.155068e-06	
36	1.800000e+00	6.169885e-06	
37	1.850000e+00	6.184570e-06	
38	1.900000e+00	6.199137e-06	
39	1.950000e+00	6.213600e-06	
40	2.000000e+00	6.227973e-06	
41	2.050000e+00	6.242273e-06	
42	2.100000e+00	6.256517e-06	
43	2.150000e+00	6.270725e-06	
44	2.200000e+00	6.284917e-06	
45	2.250000e+00	6.299117e-06	
46	2.300000e+00	6.313352e-06	
47	2.350000e+00	6.327650e-06	
48	2.400000e+00	6.342043e-06	
49	2.450000e+00	6.356569e-06	
50	2.500000e+00	6.371265e-06	
51	2.550000e+00	6.386175e-06	
52	2.600000e+00	6.401348e-06	
53	2.650000e+00	6.416836e-06	
54	2.700000e+00	6.432695e-06	

Index   v-sweep         -i(vds)         
--------------------------------------------------------------------------------
55	2.750000e+00	6.448988e-06	
56	2.800000e+00	6.465782e-06	
57	2.850000e+00	6.483149e-06	
58	2.900000e+00	6.501168e-06	
59	2.950000e+00	6.519923e-06	
60	3.000000e+00	6.539504e-06	
61	3.050000e+00	6.560007e-06	
62	3.100000e+00	6.581536e-06	
63	3.150000e+00	6.604198e-06	
64	3.200000e+00	6.628110e-06	
65	3.250000e+00	6.653395e-06	
66	3.300000e+00	6.680182e-06	
67	0.000000e+00	-0.000000e+00	
68	5.000000e-02	5.675674e-06	
69	1.000000e-01	1.083531e-05	
70	1.500000e-01	1.550175e-05	
71	2.000000e-01	1.969216e-05	
72	2.500000e-01	2.342193e-05	
73	3.000000e-01	2.670575e-05	
74	3.500000e-01	2.955792e-05	
75	4.000000e-01	3.199281e-05	
76	4.500000e-01	3.402548e-05	
77	5.000000e-01	3.567341e-05	
78	5.500000e-01	3.696025e-05	
79	6.000000e-01	3.792330e-05	
80	6.500000e-01	3.862069e-05	
81	7.000000e-01	3.912496e-05	
82	7.500000e-01	3.950177e-05	
83	8.000000e-01	3.979689e-05	
84	8.500000e-01	4.003831e-05	
85	9.000000e-01	4.024280e-05	
86	9.500000e-01	4.042069e-05	
87	1.000000e+00	4.057866e-05	
88	1.050000e+00	4.072118e-05	
89	1.100000e+00	4.085142e-05	
90	1.150000e+00	4.097167e-05	
91	1.200000e+00	4.108362e-05	
92	1.250000e+00	4.118860e-05	
93	1.300000e+00	4.128762e-05	
94	1.350000e+00	4.138151e-05	
95	1.400000e+00	4.147091e-05	
96	1.450000e+00	4.155638e-05	
97	1.500000e+00	4.163836e-05	
98	1.550000e+00	4.171722e-05	
99	1.600000e+00	4.179329e-05	
100	1.650000e+00	4.186685e-05	
101	1.700000e+00	4.193811e-05	
102	1.750000e+00	4.200730e-05	
103	1.800000e+00	4.207458e-05	
104	1.850000e+00	4.214012e-05	
105	1.900000e+00	4.220406e-05	
106	1.950000e+00	4.226651e-05	
107	2.000000e+00	4.232760e-05	
108	2.050000e+00	4.238743e-05	
109	2.100000e+00	4.244610e-05	
110	2.150000e+00	4.250370e-05	
111	2.200000e+00	4.256033e-05	
112	2.250000e+00	4.261609e-05	

Index   v-sweep         -i(vds)         
--------------------------------------------------------------------------------
113	2.300000e+00	4.267106e-05	
114	2.350000e+00	4.272535e-05	
115	2.400000e+00	4.277906e-05	
116	2.450000e+00	4.283232e-05	
117	2.500000e+00	4.288524e-05	
118	2.550000e+00	4.293797e-05	
119	2.600000e+00	4.299065e-05	
120	2.650000e+00	4.304347e-05	
121	2.700000e+00	4.309662e-05	
122	2.750000e+00	4.315029e-05	
123	2.800000e+00	4.320472e-05	
124	2.850000e+00	4.326018e-05	
125	2.900000e+00	4.331694e-05	
126	2.950000e+00	4.337530e-05	
127	3.000000e+00	4.343562e-05	
128	3.050000e+00	4.349825e-05	
129	3.100000e+00	4.356361e-05	
130	3.150000e+00	4.363211e-05	
131	3.200000e+00	4.370423e-05	
132	3.250000e+00	4.378048e-05	
133	3.300000e+00	4.386138e-05	
134	0.000000e+00	-0.000000e+00	
135	5.000000e-02	8.895722e-06	
136	1.000000e-01	1.724571e-05	
137	1.500000e-01	2.507203e-05	
138	2.000000e-01	3.239112e-05	
139	2.500000e-01	3.921766e-05	
140	3.000000e-01	4.556549e-05	
141	3.500000e-01	5.144791e-05	
142	4.000000e-01	5.687772e-05	
143	4.500000e-01	6.186726e-05	
144	5.000000e-01	6.642845e-05	
145	5.500000e-01	7.057278e-05	
146	6.000000e-01	7.431139e-05	
147	6.500000e-01	7.765508e-05	
148	7.000000e-01	8.061439e-05	
149	7.500000e-01	8.319983e-05	
150	8.000000e-01	8.542244e-05	
151	8.500000e-01	8.729533e-05	
152	9.000000e-01	8.883729e-05	
153	9.500000e-01	9.007864e-05	
154	1.000000e+00	9.106460e-05	
155	1.050000e+00	9.184945e-05	
156	1.100000e+00	9.248446e-05	
157	1.150000e+00	9.301022e-05	
158	1.200000e+00	9.345592e-05	
159	1.250000e+00	9.384181e-05	
160	1.300000e+00	9.418195e-05	
161	1.350000e+00	9.448627e-05	
162	1.400000e+00	9.476192e-05	
163	1.450000e+00	9.501420e-05	
164	1.500000e+00	9.524709e-05	
165	1.550000e+00	9.546368e-05	
166	1.600000e+00	9.566637e-05	
167	1.650000e+00	9.585708e-05	
168	1.700000e+00	9.603738e-05	
169	1.750000e+00	9.620855e-05	
170	1.800000e+00	9.637163e-05	

Index   v-sweep         -i(vds)         
--------------------------------------------------------------------------------
171	1.850000e+00	9.652751e-05	
172	1.900000e+00	9.667695e-05	
173	1.950000e+00	9.682059e-05	
174	2.000000e+00	9.695897e-05	
175	2.050000e+00	9.709257e-05	
176	2.100000e+00	9.722181e-05	
177	2.150000e+00	9.734705e-05	
178	2.200000e+00	9.746862e-05	
179	2.250000e+00	9.758681e-05	
180	2.300000e+00	9.770188e-05	
181	2.350000e+00	9.781407e-05	
182	2.400000e+00	9.792361e-05	
183	2.450000e+00	9.803072e-05	
184	2.500000e+00	9.813561e-05	
185	2.550000e+00	9.823849e-05	
186	2.600000e+00	9.833957e-05	
187	2.650000e+00	9.843907e-05	
188	2.700000e+00	9.853724e-05	
189	2.750000e+00	9.863433e-05	
190	2.800000e+00	9.873062e-05	
191	2.850000e+00	9.882642e-05	
192	2.900000e+00	9.892207e-05	
193	2.950000e+00	9.901795e-05	
194	3.000000e+00	9.911447e-05	
195	3.050000e+00	9.921212e-05	
196	3.100000e+00	9.931139e-05	
197	3.150000e+00	9.941286e-05	
198	3.200000e+00	9.951715e-05	
199	3.250000e+00	9.962496e-05	
200	3.300000e+00	9.973703e-05	
201	0.000000e+00	-0.000000e+00	
202	5.000000e-02	1.154246e-05	
203	1.000000e-01	2.253287e-05	
204	1.500000e-01	3.299214e-05	
205	2.000000e-01	4.293561e-05	
206	2.500000e-01	5.237693e-05	
207	3.000000e-01	6.132904e-05	
208	3.500000e-01	6.980435e-05	
209	4.000000e-01	7.781486e-05	
210	4.500000e-01	8.537215e-05	
211	5.000000e-01	9.248741e-05	
212	5.500000e-01	9.917146e-05	
213	6.000000e-01	1.054347e-04	
214	6.500000e-01	1.112873e-04	
215	7.000000e-01	1.167390e-04	
216	7.500000e-01	1.217990e-04	
217	8.000000e-01	1.264764e-04	
218	8.500000e-01	1.307798e-04	
219	9.000000e-01	1.347170e-04	
220	9.500000e-01	1.382955e-04	
221	1.000000e+00	1.415220e-04	
222	1.050000e+00	1.444021e-04	
223	1.100000e+00	1.469407e-04	
224	1.150000e+00	1.491434e-04	
225	1.200000e+00	1.510202e-04	
226	1.250000e+00	1.525917e-04	
227	1.300000e+00	1.538931e-04	
228	1.350000e+00	1.549699e-04	

Index   v-sweep         -i(vds)         
--------------------------------------------------------------------------------
229	1.400000e+00	1.558690e-04	
230	1.450000e+00	1.566306e-04	
231	1.500000e+00	1.572865e-04	
232	1.550000e+00	1.578602e-04	
233	1.600000e+00	1.583693e-04	
234	1.650000e+00	1.588266e-04	
235	1.700000e+00	1.592417e-04	
236	1.750000e+00	1.596220e-04	
237	1.800000e+00	1.599732e-04	
238	1.850000e+00	1.602996e-04	
239	1.900000e+00	1.606048e-04	
240	1.950000e+00	1.608917e-04	
241	2.000000e+00	1.611624e-04	
242	2.050000e+00	1.614191e-04	
243	2.100000e+00	1.616632e-04	
244	2.150000e+00	1.618961e-04	
245	2.200000e+00	1.621189e-04	
246	2.250000e+00	1.623327e-04	
247	2.300000e+00	1.625382e-04	
248	2.350000e+00	1.627363e-04	
249	2.400000e+00	1.629275e-04	
250	2.450000e+00	1.631124e-04	
251	2.500000e+00	1.632916e-04	
252	2.550000e+00	1.634654e-04	
253	2.600000e+00	1.636344e-04	
254	2.650000e+00	1.637988e-04	
255	2.700000e+00	1.639591e-04	
256	2.750000e+00	1.641155e-04	
257	2.800000e+00	1.642685e-04	
258	2.850000e+00	1.644184e-04	
259	2.900000e+00	1.645655e-04	
260	2.950000e+00	1.647102e-04	
261	3.000000e+00	1.648530e-04	
262	3.050000e+00	1.649942e-04	
263	3.100000e+00	1.651343e-04	
264	3.150000e+00	1.652739e-04	
265	3.200000e+00	1.654135e-04	
266	3.250000e+00	1.655539e-04	
267	3.300000e+00	1.656956e-04	
268	0.000000e+00	-0.000000e+00	
269	5.000000e-02	1.372821e-05	
270	1.000000e-01	2.690993e-05	
271	1.500000e-01	3.956477e-05	
272	2.000000e-01	5.170689e-05	
273	2.500000e-01	6.334880e-05	
274	3.000000e-01	7.450239e-05	
275	3.500000e-01	8.517909e-05	
276	4.000000e-01	9.538995e-05	
277	4.500000e-01	1.051457e-04	
278	5.000000e-01	1.144567e-04	
279	5.500000e-01	1.233331e-04	
280	6.000000e-01	1.317846e-04	
281	6.500000e-01	1.398206e-04	
282	7.000000e-01	1.474503e-04	
283	7.500000e-01	1.546826e-04	
284	8.000000e-01	1.615261e-04	
285	8.500000e-01	1.679890e-04	
286	9.000000e-01	1.740793e-04	

Index   v-sweep         -i(vds)         
--------------------------------------------------------------------------------
287	9.500000e-01	1.798048e-04	
288	1.000000e+00	1.851726e-04	
289	1.050000e+00	1.901898e-04	
290	1.100000e+00	1.948626e-04	
291	1.150000e+00	1.991967e-04	
292	1.200000e+00	2.031969e-04	
293	1.250000e+00	2.068666e-04	
294	1.300000e+00	2.102076e-04	
295	1.350000e+00	2.132197e-04	
296	1.400000e+00	2.159014e-04	
297	1.450000e+00	2.182529e-04	
298	1.500000e+00	2.202821e-04	
299	1.550000e+00	2.220102e-04	
300	1.600000e+00	2.234727e-04	
301	1.650000e+00	2.247126e-04	
302	1.700000e+00	2.257725e-04	
303	1.750000e+00	2.266891e-04	
304	1.800000e+00	2.274920e-04	
305	1.850000e+00	2.282040e-04	
306	1.900000e+00	2.288424e-04	
307	1.950000e+00	2.294207e-04	
308	2.000000e+00	2.299491e-04	
309	2.050000e+00	2.304356e-04	
310	2.100000e+00	2.308865e-04	
311	2.150000e+00	2.313070e-04	
312	2.200000e+00	2.317011e-04	
313	2.250000e+00	2.320721e-04	
314	2.300000e+00	2.324228e-04	
315	2.350000e+00	2.327555e-04	
316	2.400000e+00	2.330722e-04	
317	2.450000e+00	2.333745e-04	
318	2.500000e+00	2.336638e-04	
319	2.550000e+00	2.339414e-04	
320	2.600000e+00	2.342083e-04	
321	2.650000e+00	2.344654e-04	
322	2.700000e+00	2.347135e-04	
323	2.750000e+00	2.349535e-04	
324	2.800000e+00	2.351858e-04	
325	2.850000e+00	2.354112e-04	
326	2.900000e+00	2.356301e-04	
327	2.950000e+00	2.358432e-04	
328	3.000000e+00	2.360508e-04	
329	3.050000e+00	2.362534e-04	
330	3.100000e+00	2.364516e-04	
331	3.150000e+00	2.366459e-04	
332	3.200000e+00	2.368367e-04	
333	3.250000e+00	2.370246e-04	
334	3.300000e+00	2.372103e-04	
335	0.000000e+00	-0.000000e+00	
336	5.000000e-02	1.554166e-05	
337	1.000000e-01	3.054912e-05	
338	1.500000e-01	4.504076e-05	
339	2.000000e-01	5.902951e-05	
340	2.500000e-01	7.252679e-05	
341	3.000000e-01	8.554341e-05	
342	3.500000e-01	9.808980e-05	
343	4.000000e-01	1.101761e-04	
344	4.500000e-01	1.218120e-04	

Index   v-sweep         -i(vds)         
--------------------------------------------------------------------------------
345	5.000000e-01	1.330072e-04	
346	5.500000e-01	1.437710e-04	
347	6.000000e-01	1.541122e-04	
348	6.500000e-01	1.640397e-04	
349	7.000000e-01	1.735620e-04	
350	7.500000e-01	1.826873e-04	
351	8.000000e-01	1.914236e-04	
352	8.500000e-01	1.997789e-04	
353	9.000000e-01	2.077605e-04	
354	9.500000e-01	2.153760e-04	
355	1.000000e+00	2.226323e-04	
356	1.050000e+00	2.295363e-04	
357	1.100000e+00	2.360946e-04	
358	1.150000e+00	2.423136e-04	
359	1.200000e+00	2.481993e-04	
360	1.250000e+00	2.537573e-04	
361	1.300000e+00	2.589926e-04	
362	1.350000e+00	2.639098e-04	
363	1.400000e+00	2.685124e-04	
364	1.450000e+00	2.728027e-04	
365	1.500000e+00	2.767813e-04	
366	1.550000e+00	2.804465e-04	
367	1.600000e+00	2.837937e-04	
368	1.650000e+00	2.868167e-04	
369	1.700000e+00	2.895100e-04	
370	1.750000e+00	2.918747e-04	
371	1.800000e+00	2.939249e-04	
372	1.850000e+00	2.956891e-04	
373	1.900000e+00	2.972059e-04	
374	1.950000e+00	2.985164e-04	
375	2.000000e+00	2.996584e-04	
376	2.050000e+00	3.006637e-04	
377	2.100000e+00	3.015581e-04	
378	2.150000e+00	3.023616e-04	
379	2.200000e+00	3.030901e-04	
380	2.250000e+00	3.037560e-04	
381	2.300000e+00	3.043690e-04	
382	2.350000e+00	3.049370e-04	
383	2.400000e+00	3.054663e-04	
384	2.450000e+00	3.059620e-04	
385	2.500000e+00	3.064282e-04	
386	2.550000e+00	3.068685e-04	
387	2.600000e+00	3.072858e-04	
388	2.650000e+00	3.076826e-04	
389	2.700000e+00	3.080610e-04	
390	2.750000e+00	3.084227e-04	
391	2.800000e+00	3.087693e-04	
392	2.850000e+00	3.091022e-04	
393	2.900000e+00	3.094226e-04	
394	2.950000e+00	3.097315e-04	
395	3.000000e+00	3.100299e-04	
396	3.050000e+00	3.103185e-04	
397	3.100000e+00	3.105982e-04	
398	3.150000e+00	3.108696e-04	
399	3.200000e+00	3.111334e-04	
400	3.250000e+00	3.113903e-04	
401	3.300000e+00	3.116408e-04	
Note: No ".plot", ".print", or ".fourier" lines; no simulations run
