
Note: Compatibility modes selected: hs

Warning: m=xx on .subckt line will override multiplier m hierarchy!


Circuit: ***************************

Doing analysis at TEMP = -40.000000 and TNOM = -40.000000


No. of Data Rows : 402
                          ***************************
                          DC transfer characteristic  Mon Jan  9 13:57:17  2023
--------------------------------------------------------------------------------
Index   v-sweep         -i(vds)         
--------------------------------------------------------------------------------
0	0.000000e+00	-0.000000e+00	
1	5.000000e-02	3.956664e-07	
2	1.000000e-01	5.044029e-07	
3	1.500000e-01	5.116776e-07	
4	2.000000e-01	5.129232e-07	
5	2.500000e-01	5.136013e-07	
6	3.000000e-01	5.141319e-07	
7	3.500000e-01	5.146015e-07	
8	4.000000e-01	5.150387e-07	
9	4.500000e-01	5.154558e-07	
10	5.000000e-01	5.158595e-07	
11	5.500000e-01	5.162532e-07	
12	6.000000e-01	5.166395e-07	
13	6.500000e-01	5.170200e-07	
14	7.000000e-01	5.173957e-07	
15	7.500000e-01	5.177674e-07	
16	8.000000e-01	5.181359e-07	
17	8.500000e-01	5.185015e-07	
18	9.000000e-01	5.188647e-07	
19	9.500000e-01	5.192257e-07	
20	1.000000e+00	5.195849e-07	
21	1.050000e+00	5.199424e-07	
22	1.100000e+00	5.202985e-07	
23	1.150000e+00	5.206532e-07	
24	1.200000e+00	5.210066e-07	
25	1.250000e+00	5.213590e-07	
26	1.300000e+00	5.217104e-07	
27	1.350000e+00	5.220608e-07	
28	1.400000e+00	5.224105e-07	
29	1.450000e+00	5.227594e-07	
30	1.500000e+00	5.231076e-07	
31	1.550000e+00	5.234552e-07	
32	1.600000e+00	5.238023e-07	
33	1.650000e+00	5.241491e-07	
34	1.700000e+00	5.244956e-07	
35	1.750000e+00	5.248422e-07	
36	1.800000e+00	5.251889e-07	
37	1.850000e+00	5.255362e-07	
38	1.900000e+00	5.258844e-07	
39	1.950000e+00	5.262340e-07	
40	2.000000e+00	5.265855e-07	
41	2.050000e+00	5.269398e-07	
42	2.100000e+00	5.272976e-07	
43	2.150000e+00	5.276601e-07	
44	2.200000e+00	5.280283e-07	
45	2.250000e+00	5.284038e-07	
46	2.300000e+00	5.287882e-07	
47	2.350000e+00	5.291832e-07	
48	2.400000e+00	5.295911e-07	
49	2.450000e+00	5.300141e-07	
50	2.500000e+00	5.304550e-07	
51	2.550000e+00	5.309167e-07	
52	2.600000e+00	5.314023e-07	
53	2.650000e+00	5.319155e-07	
54	2.700000e+00	5.324601e-07	

Index   v-sweep         -i(vds)         
--------------------------------------------------------------------------------
55	2.750000e+00	5.330401e-07	
56	2.800000e+00	5.336602e-07	
57	2.850000e+00	5.343250e-07	
58	2.900000e+00	5.350397e-07	
59	2.950000e+00	5.358098e-07	
60	3.000000e+00	5.366409e-07	
61	3.050000e+00	5.375391e-07	
62	3.100000e+00	5.385108e-07	
63	3.150000e+00	5.395627e-07	
64	3.200000e+00	5.407016e-07	
65	3.250000e+00	5.419349e-07	
66	3.300000e+00	5.432700e-07	
67	0.000000e+00	-0.000000e+00	
68	5.000000e-02	3.323795e-06	
69	1.000000e-01	6.235608e-06	
70	1.500000e-01	8.736999e-06	
71	2.000000e-01	1.082959e-05	
72	2.500000e-01	1.251520e-05	
73	3.000000e-01	1.379622e-05	
74	3.500000e-01	1.467753e-05	
75	4.000000e-01	1.517694e-05	
76	4.500000e-01	1.537342e-05	
77	5.000000e-01	1.543081e-05	
78	5.500000e-01	1.545221e-05	
79	6.000000e-01	1.546398e-05	
80	6.500000e-01	1.547219e-05	
81	7.000000e-01	1.547868e-05	
82	7.500000e-01	1.548420e-05	
83	8.000000e-01	1.548909e-05	
84	8.500000e-01	1.549356e-05	
85	9.000000e-01	1.549771e-05	
86	9.500000e-01	1.550162e-05	
87	1.000000e+00	1.550534e-05	
88	1.050000e+00	1.550891e-05	
89	1.100000e+00	1.551235e-05	
90	1.150000e+00	1.551569e-05	
91	1.200000e+00	1.551893e-05	
92	1.250000e+00	1.552210e-05	
93	1.300000e+00	1.552520e-05	
94	1.350000e+00	1.552824e-05	
95	1.400000e+00	1.553122e-05	
96	1.450000e+00	1.553416e-05	
97	1.500000e+00	1.553706e-05	
98	1.550000e+00	1.553992e-05	
99	1.600000e+00	1.554274e-05	
100	1.650000e+00	1.554553e-05	
101	1.700000e+00	1.554830e-05	
102	1.750000e+00	1.555103e-05	
103	1.800000e+00	1.555374e-05	
104	1.850000e+00	1.555644e-05	
105	1.900000e+00	1.555911e-05	
106	1.950000e+00	1.556177e-05	
107	2.000000e+00	1.556441e-05	
108	2.050000e+00	1.556705e-05	
109	2.100000e+00	1.556969e-05	
110	2.150000e+00	1.557234e-05	
111	2.200000e+00	1.557500e-05	
112	2.250000e+00	1.557769e-05	

Index   v-sweep         -i(vds)         
--------------------------------------------------------------------------------
113	2.300000e+00	1.558042e-05	
114	2.350000e+00	1.558321e-05	
115	2.400000e+00	1.558609e-05	
116	2.450000e+00	1.558907e-05	
117	2.500000e+00	1.559220e-05	
118	2.550000e+00	1.559549e-05	
119	2.600000e+00	1.559901e-05	
120	2.650000e+00	1.560280e-05	
121	2.700000e+00	1.560690e-05	
122	2.750000e+00	1.561140e-05	
123	2.800000e+00	1.561634e-05	
124	2.850000e+00	1.562182e-05	
125	2.900000e+00	1.562793e-05	
126	2.950000e+00	1.563474e-05	
127	3.000000e+00	1.564238e-05	
128	3.050000e+00	1.565095e-05	
129	3.100000e+00	1.566058e-05	
130	3.150000e+00	1.567139e-05	
131	3.200000e+00	1.568352e-05	
132	3.250000e+00	1.569714e-05	
133	3.300000e+00	1.571238e-05	
134	0.000000e+00	-0.000000e+00	
135	5.000000e-02	6.017069e-06	
136	1.000000e-01	1.164590e-05	
137	1.500000e-01	1.688784e-05	
138	2.000000e-01	2.174420e-05	
139	2.500000e-01	2.621632e-05	
140	3.000000e-01	3.030551e-05	
141	3.500000e-01	3.401311e-05	
142	4.000000e-01	3.734045e-05	
143	4.500000e-01	4.028887e-05	
144	5.000000e-01	4.285977e-05	
145	5.500000e-01	4.505464e-05	
146	6.000000e-01	4.687519e-05	
147	6.500000e-01	4.832380e-05	
148	7.000000e-01	4.940486e-05	
149	7.500000e-01	5.013031e-05	
150	8.000000e-01	5.053923e-05	
151	8.500000e-01	5.072815e-05	
152	9.000000e-01	5.081300e-05	
153	9.500000e-01	5.085835e-05	
154	1.000000e+00	5.088764e-05	
155	1.050000e+00	5.090919e-05	
156	1.100000e+00	5.092643e-05	
157	1.150000e+00	5.094097e-05	
158	1.200000e+00	5.095370e-05	
159	1.250000e+00	5.096513e-05	
160	1.300000e+00	5.097559e-05	
161	1.350000e+00	5.098529e-05	
162	1.400000e+00	5.099439e-05	
163	1.450000e+00	5.100300e-05	
164	1.500000e+00	5.101120e-05	
165	1.550000e+00	5.101906e-05	
166	1.600000e+00	5.102662e-05	
167	1.650000e+00	5.103393e-05	
168	1.700000e+00	5.104101e-05	
169	1.750000e+00	5.104790e-05	
170	1.800000e+00	5.105462e-05	

Index   v-sweep         -i(vds)         
--------------------------------------------------------------------------------
171	1.850000e+00	5.106118e-05	
172	1.900000e+00	5.106760e-05	
173	1.950000e+00	5.107389e-05	
174	2.000000e+00	5.108007e-05	
175	2.050000e+00	5.108615e-05	
176	2.100000e+00	5.109213e-05	
177	2.150000e+00	5.109803e-05	
178	2.200000e+00	5.110385e-05	
179	2.250000e+00	5.110960e-05	
180	2.300000e+00	5.111529e-05	
181	2.350000e+00	5.112094e-05	
182	2.400000e+00	5.112655e-05	
183	2.450000e+00	5.113215e-05	
184	2.500000e+00	5.113776e-05	
185	2.550000e+00	5.114340e-05	
186	2.600000e+00	5.114911e-05	
187	2.650000e+00	5.115493e-05	
188	2.700000e+00	5.116092e-05	
189	2.750000e+00	5.116713e-05	
190	2.800000e+00	5.117366e-05	
191	2.850000e+00	5.118059e-05	
192	2.900000e+00	5.118803e-05	
193	2.950000e+00	5.119610e-05	
194	3.000000e+00	5.120497e-05	
195	3.050000e+00	5.121480e-05	
196	3.100000e+00	5.122578e-05	
197	3.150000e+00	5.123812e-05	
198	3.200000e+00	5.125209e-05	
199	3.250000e+00	5.126793e-05	
200	3.300000e+00	5.128595e-05	
201	0.000000e+00	-0.000000e+00	
202	5.000000e-02	8.187367e-06	
203	1.000000e-01	1.602451e-05	
204	1.500000e-01	2.351256e-05	
205	2.000000e-01	3.065261e-05	
206	2.500000e-01	3.744578e-05	
207	3.000000e-01	4.389317e-05	
208	3.500000e-01	4.999588e-05	
209	4.000000e-01	5.575501e-05	
210	4.500000e-01	6.117164e-05	
211	5.000000e-01	6.624686e-05	
212	5.500000e-01	7.098176e-05	
213	6.000000e-01	7.537742e-05	
214	6.500000e-01	7.943491e-05	
215	7.000000e-01	8.315533e-05	
216	7.500000e-01	8.653976e-05	
217	8.000000e-01	8.958929e-05	
218	8.500000e-01	9.230504e-05	
219	9.000000e-01	9.468818e-05	
220	9.500000e-01	9.673999e-05	
221	1.000000e+00	9.846200e-05	
222	1.050000e+00	9.985649e-05	
223	1.100000e+00	1.009278e-04	
224	1.150000e+00	1.016873e-04	
225	1.200000e+00	1.021664e-04	
226	1.250000e+00	1.024343e-04	
227	1.300000e+00	1.025797e-04	
228	1.350000e+00	1.026657e-04	

Index   v-sweep         -i(vds)         
--------------------------------------------------------------------------------
229	1.400000e+00	1.027233e-04	
230	1.450000e+00	1.027657e-04	
231	1.500000e+00	1.027993e-04	
232	1.550000e+00	1.028273e-04	
233	1.600000e+00	1.028514e-04	
234	1.650000e+00	1.028727e-04	
235	1.700000e+00	1.028920e-04	
236	1.750000e+00	1.029096e-04	
237	1.800000e+00	1.029260e-04	
238	1.850000e+00	1.029413e-04	
239	1.900000e+00	1.029558e-04	
240	1.950000e+00	1.029695e-04	
241	2.000000e+00	1.029826e-04	
242	2.050000e+00	1.029951e-04	
243	2.100000e+00	1.030072e-04	
244	2.150000e+00	1.030189e-04	
245	2.200000e+00	1.030302e-04	
246	2.250000e+00	1.030411e-04	
247	2.300000e+00	1.030518e-04	
248	2.350000e+00	1.030622e-04	
249	2.400000e+00	1.030724e-04	
250	2.450000e+00	1.030824e-04	
251	2.500000e+00	1.030921e-04	
252	2.550000e+00	1.031017e-04	
253	2.600000e+00	1.031111e-04	
254	2.650000e+00	1.031204e-04	
255	2.700000e+00	1.031295e-04	
256	2.750000e+00	1.031386e-04	
257	2.800000e+00	1.031476e-04	
258	2.850000e+00	1.031565e-04	
259	2.900000e+00	1.031655e-04	
260	2.950000e+00	1.031745e-04	
261	3.000000e+00	1.031837e-04	
262	3.050000e+00	1.031931e-04	
263	3.100000e+00	1.032028e-04	
264	3.150000e+00	1.032129e-04	
265	3.200000e+00	1.032237e-04	
266	3.250000e+00	1.032353e-04	
267	3.300000e+00	1.032479e-04	
268	0.000000e+00	-0.000000e+00	
269	5.000000e-02	9.810279e-06	
270	1.000000e-01	1.931221e-05	
271	1.500000e-01	2.850669e-05	
272	2.000000e-01	3.739464e-05	
273	2.500000e-01	4.597693e-05	
274	3.000000e-01	5.425447e-05	
275	3.500000e-01	6.222814e-05	
276	4.000000e-01	6.989884e-05	
277	4.500000e-01	7.726745e-05	
278	5.000000e-01	8.433484e-05	
279	5.500000e-01	9.110189e-05	
280	6.000000e-01	9.756948e-05	
281	6.500000e-01	1.037385e-04	
282	7.000000e-01	1.096097e-04	
283	7.500000e-01	1.151841e-04	
284	8.000000e-01	1.204626e-04	
285	8.500000e-01	1.254458e-04	
286	9.000000e-01	1.301348e-04	

Index   v-sweep         -i(vds)         
--------------------------------------------------------------------------------
287	9.500000e-01	1.345303e-04	
288	1.000000e+00	1.386332e-04	
289	1.050000e+00	1.424444e-04	
290	1.100000e+00	1.459647e-04	
291	1.150000e+00	1.491950e-04	
292	1.200000e+00	1.521360e-04	
293	1.250000e+00	1.547887e-04	
294	1.300000e+00	1.571540e-04	
295	1.350000e+00	1.592326e-04	
296	1.400000e+00	1.610258e-04	
297	1.450000e+00	1.625349e-04	
298	1.500000e+00	1.637621e-04	
299	1.550000e+00	1.647123e-04	
300	1.600000e+00	1.653985e-04	
301	1.650000e+00	1.658527e-04	
302	1.700000e+00	1.661331e-04	
303	1.750000e+00	1.663060e-04	
304	1.800000e+00	1.664196e-04	
305	1.850000e+00	1.665005e-04	
306	1.900000e+00	1.665623e-04	
307	1.950000e+00	1.666120e-04	
308	2.000000e+00	1.666538e-04	
309	2.050000e+00	1.666899e-04	
310	2.100000e+00	1.667219e-04	
311	2.150000e+00	1.667506e-04	
312	2.200000e+00	1.667769e-04	
313	2.250000e+00	1.668011e-04	
314	2.300000e+00	1.668238e-04	
315	2.350000e+00	1.668450e-04	
316	2.400000e+00	1.668651e-04	
317	2.450000e+00	1.668842e-04	
318	2.500000e+00	1.669024e-04	
319	2.550000e+00	1.669199e-04	
320	2.600000e+00	1.669367e-04	
321	2.650000e+00	1.669529e-04	
322	2.700000e+00	1.669686e-04	
323	2.750000e+00	1.669838e-04	
324	2.800000e+00	1.669986e-04	
325	2.850000e+00	1.670130e-04	
326	2.900000e+00	1.670271e-04	
327	2.950000e+00	1.670409e-04	
328	3.000000e+00	1.670543e-04	
329	3.050000e+00	1.670676e-04	
330	3.100000e+00	1.670805e-04	
331	3.150000e+00	1.670933e-04	
332	3.200000e+00	1.671060e-04	
333	3.250000e+00	1.671185e-04	
334	3.300000e+00	1.671310e-04	
335	0.000000e+00	-0.000000e+00	
336	5.000000e-02	1.093626e-05	
337	1.000000e-01	2.160538e-05	
338	1.500000e-01	3.200809e-05	
339	2.000000e-01	4.214508e-05	
340	2.500000e-01	5.201708e-05	
341	3.000000e-01	6.162478e-05	
342	3.500000e-01	7.096889e-05	
343	4.000000e-01	8.005011e-05	
344	4.500000e-01	8.886915e-05	

Index   v-sweep         -i(vds)         
--------------------------------------------------------------------------------
345	5.000000e-01	9.742669e-05	
346	5.500000e-01	1.057234e-04	
347	6.000000e-01	1.137601e-04	
348	6.500000e-01	1.215373e-04	
349	7.000000e-01	1.290558e-04	
350	7.500000e-01	1.363162e-04	
351	8.000000e-01	1.433193e-04	
352	8.500000e-01	1.500656e-04	
353	9.000000e-01	1.565560e-04	
354	9.500000e-01	1.627910e-04	
355	1.000000e+00	1.687714e-04	
356	1.050000e+00	1.744978e-04	
357	1.100000e+00	1.799708e-04	
358	1.150000e+00	1.851912e-04	
359	1.200000e+00	1.901596e-04	
360	1.250000e+00	1.948766e-04	
361	1.300000e+00	1.993430e-04	
362	1.350000e+00	2.035593e-04	
363	1.400000e+00	2.075263e-04	
364	1.450000e+00	2.112445e-04	
365	1.500000e+00	2.147146e-04	
366	1.550000e+00	2.179373e-04	
367	1.600000e+00	2.209132e-04	
368	1.650000e+00	2.236429e-04	
369	1.700000e+00	2.261270e-04	
370	1.750000e+00	2.283662e-04	
371	1.800000e+00	2.303611e-04	
372	1.850000e+00	2.321124e-04	
373	1.900000e+00	2.336209e-04	
374	1.950000e+00	2.348877e-04	
375	2.000000e+00	2.359153e-04	
376	2.050000e+00	2.367101e-04	
377	2.100000e+00	2.372883e-04	
378	2.150000e+00	2.376840e-04	
379	2.200000e+00	2.379468e-04	
380	2.250000e+00	2.381247e-04	
381	2.300000e+00	2.382516e-04	
382	2.350000e+00	2.383475e-04	
383	2.400000e+00	2.384236e-04	
384	2.450000e+00	2.384865e-04	
385	2.500000e+00	2.385401e-04	
386	2.550000e+00	2.385869e-04	
387	2.600000e+00	2.386286e-04	
388	2.650000e+00	2.386663e-04	
389	2.700000e+00	2.387007e-04	
390	2.750000e+00	2.387326e-04	
391	2.800000e+00	2.387623e-04	
392	2.850000e+00	2.387901e-04	
393	2.900000e+00	2.388165e-04	
394	2.950000e+00	2.388415e-04	
395	3.000000e+00	2.388653e-04	
396	3.050000e+00	2.388881e-04	
397	3.100000e+00	2.389100e-04	
398	3.150000e+00	2.389311e-04	
399	3.200000e+00	2.389515e-04	
400	3.250000e+00	2.389713e-04	
401	3.300000e+00	2.389905e-04	
Note: No ".plot", ".print", or ".fourier" lines; no simulations run
