
Note: Compatibility modes selected: hs


Circuit: ***************************

Doing analysis at TEMP = 25.000000 and TNOM = 25.000000


No. of Data Rows : 10018

  Measurements for Transient Analysis

cv                  =  4.381288e+00


