
Note: Compatibility modes selected: hs


Circuit: ***************************

Doing analysis at TEMP = 25.000000 and TNOM = 25.000000


No. of Data Rows : 10010

  Measurements for Transient Analysis

cv                  =  9.895638e+03


