
Note: Compatibility modes selected: hs

Warning: m=xx on .subckt line will override multiplier m hierarchy!


Circuit: ***************************

Doing analysis at TEMP = 125.000000 and TNOM = 125.000000


No. of Data Rows : 402
                          ***************************
                          DC transfer characteristic  Mon Jan  9 13:58:24  2023
--------------------------------------------------------------------------------
Index   v-sweep         i(vds)          
--------------------------------------------------------------------------------
0	0.000000e+00	5.167772e-23	
1	-5.00000e-02	3.198419e-07	
2	-1.00000e-01	5.227894e-07	
3	-1.50000e-01	6.257074e-07	
4	-2.00000e-01	6.629935e-07	
5	-2.50000e-01	6.755491e-07	
6	-3.00000e-01	6.816233e-07	
7	-3.50000e-01	6.857743e-07	
8	-4.00000e-01	6.891586e-07	
9	-4.50000e-01	6.921459e-07	
10	-5.00000e-01	6.948847e-07	
11	-5.50000e-01	6.974463e-07	
12	-6.00000e-01	6.998706e-07	
13	-6.50000e-01	7.021827e-07	
14	-7.00000e-01	7.043996e-07	
15	-7.50000e-01	7.065340e-07	
16	-8.00000e-01	7.085955e-07	
17	-8.50000e-01	7.105919e-07	
18	-9.00000e-01	7.125297e-07	
19	-9.50000e-01	7.144141e-07	
20	-1.00000e+00	7.162497e-07	
21	-1.05000e+00	7.180405e-07	
22	-1.10000e+00	7.197900e-07	
23	-1.15000e+00	7.215012e-07	
24	-1.20000e+00	7.231768e-07	
25	-1.25000e+00	7.248192e-07	
26	-1.30000e+00	7.264307e-07	
27	-1.35000e+00	7.280131e-07	
28	-1.40000e+00	7.295684e-07	
29	-1.45000e+00	7.310979e-07	
30	-1.50000e+00	7.326034e-07	
31	-1.55000e+00	7.340861e-07	
32	-1.60000e+00	7.355472e-07	
33	-1.65000e+00	7.369880e-07	
34	-1.70000e+00	7.384094e-07	
35	-1.75000e+00	7.398124e-07	
36	-1.80000e+00	7.411981e-07	
37	-1.85000e+00	7.425671e-07	
38	-1.90000e+00	7.439204e-07	
39	-1.95000e+00	7.452586e-07	
40	-2.00000e+00	7.465825e-07	
41	-2.05000e+00	7.478928e-07	
42	-2.10000e+00	7.491902e-07	
43	-2.15000e+00	7.504753e-07	
44	-2.20000e+00	7.517488e-07	
45	-2.25000e+00	7.530113e-07	
46	-2.30000e+00	7.542637e-07	
47	-2.35000e+00	7.555067e-07	
48	-2.40000e+00	7.567411e-07	
49	-2.45000e+00	7.579679e-07	
50	-2.50000e+00	7.591880e-07	
51	-2.55000e+00	7.604027e-07	
52	-2.60000e+00	7.616132e-07	
53	-2.65000e+00	7.628211e-07	
54	-2.70000e+00	7.640280e-07	

Index   v-sweep         i(vds)          
--------------------------------------------------------------------------------
55	-2.75000e+00	7.652359e-07	
56	-2.80000e+00	7.664470e-07	
57	-2.85000e+00	7.676637e-07	
58	-2.90000e+00	7.688889e-07	
59	-2.95000e+00	7.701257e-07	
60	-3.00000e+00	7.713776e-07	
61	-3.05000e+00	7.726486e-07	
62	-3.10000e+00	7.739430e-07	
63	-3.15000e+00	7.752658e-07	
64	-3.20000e+00	7.766221e-07	
65	-3.25000e+00	7.780180e-07	
66	-3.30000e+00	7.794598e-07	
67	0.000000e+00	-4.09142e-25	
68	-5.00000e-02	1.525304e-06	
69	-1.00000e-01	2.902129e-06	
70	-1.50000e-01	4.136594e-06	
71	-2.00000e-01	5.230804e-06	
72	-2.50000e-01	6.185990e-06	
73	-3.00000e-01	7.003336e-06	
74	-3.50000e-01	7.684359e-06	
75	-4.00000e-01	8.231428e-06	
76	-4.50000e-01	8.648932e-06	
77	-5.00000e-01	8.945888e-06	
78	-5.50000e-01	9.140255e-06	
79	-6.00000e-01	9.260506e-06	
80	-6.50000e-01	9.337096e-06	
81	-7.00000e-01	9.391334e-06	
82	-7.50000e-01	9.434237e-06	
83	-8.00000e-01	9.470859e-06	
84	-8.50000e-01	9.503555e-06	
85	-9.00000e-01	9.533517e-06	
86	-9.50000e-01	9.561408e-06	
87	-1.00000e+00	9.587638e-06	
88	-1.05000e+00	9.612478e-06	
89	-1.10000e+00	9.636124e-06	
90	-1.15000e+00	9.658722e-06	
91	-1.20000e+00	9.680389e-06	
92	-1.25000e+00	9.701218e-06	
93	-1.30000e+00	9.721287e-06	
94	-1.35000e+00	9.740662e-06	
95	-1.40000e+00	9.759400e-06	
96	-1.45000e+00	9.777550e-06	
97	-1.50000e+00	9.795157e-06	
98	-1.55000e+00	9.812258e-06	
99	-1.60000e+00	9.828888e-06	
100	-1.65000e+00	9.845077e-06	
101	-1.70000e+00	9.860854e-06	
102	-1.75000e+00	9.876243e-06	
103	-1.80000e+00	9.891267e-06	
104	-1.85000e+00	9.905947e-06	
105	-1.90000e+00	9.920302e-06	
106	-1.95000e+00	9.934349e-06	
107	-2.00000e+00	9.948106e-06	
108	-2.05000e+00	9.961585e-06	
109	-2.10000e+00	9.974802e-06	
110	-2.15000e+00	9.987769e-06	
111	-2.20000e+00	1.000050e-05	
112	-2.25000e+00	1.001300e-05	

Index   v-sweep         i(vds)          
--------------------------------------------------------------------------------
113	-2.30000e+00	1.002528e-05	
114	-2.35000e+00	1.003736e-05	
115	-2.40000e+00	1.004924e-05	
116	-2.45000e+00	1.006094e-05	
117	-2.50000e+00	1.007245e-05	
118	-2.55000e+00	1.008380e-05	
119	-2.60000e+00	1.009498e-05	
120	-2.65000e+00	1.010601e-05	
121	-2.70000e+00	1.011690e-05	
122	-2.75000e+00	1.012766e-05	
123	-2.80000e+00	1.013829e-05	
124	-2.85000e+00	1.014882e-05	
125	-2.90000e+00	1.015925e-05	
126	-2.95000e+00	1.016961e-05	
127	-3.00000e+00	1.017990e-05	
128	-3.05000e+00	1.019016e-05	
129	-3.10000e+00	1.020039e-05	
130	-3.15000e+00	1.021064e-05	
131	-3.20000e+00	1.022092e-05	
132	-3.25000e+00	1.023127e-05	
133	-3.30000e+00	1.024173e-05	
134	0.000000e+00	3.472197e-25	
135	-5.00000e-02	2.573032e-06	
136	-1.00000e-01	5.002933e-06	
137	-1.50000e-01	7.295510e-06	
138	-2.00000e-01	9.452602e-06	
139	-2.50000e-01	1.147510e-05	
140	-3.00000e-01	1.336366e-05	
141	-3.50000e-01	1.511892e-05	
142	-4.00000e-01	1.674148e-05	
143	-4.50000e-01	1.823200e-05	
144	-5.00000e-01	1.959114e-05	
145	-5.50000e-01	2.081965e-05	
146	-6.00000e-01	2.191835e-05	
147	-6.50000e-01	2.288826e-05	
148	-7.00000e-01	2.373072e-05	
149	-7.50000e-01	2.444765e-05	
150	-8.00000e-01	2.504217e-05	
151	-8.50000e-01	2.551959e-05	
152	-9.00000e-01	2.588919e-05	
153	-9.50000e-01	2.616609e-05	
154	-1.00000e+00	2.637108e-05	
155	-1.05000e+00	2.652642e-05	
156	-1.10000e+00	2.665024e-05	
157	-1.15000e+00	2.675447e-05	
158	-1.20000e+00	2.684606e-05	
159	-1.25000e+00	2.692892e-05	
160	-1.30000e+00	2.700531e-05	
161	-1.35000e+00	2.707663e-05	
162	-1.40000e+00	2.714379e-05	
163	-1.45000e+00	2.720741e-05	
164	-1.50000e+00	2.726798e-05	
165	-1.55000e+00	2.732584e-05	
166	-1.60000e+00	2.738128e-05	
167	-1.65000e+00	2.743453e-05	
168	-1.70000e+00	2.748580e-05	
169	-1.75000e+00	2.753525e-05	
170	-1.80000e+00	2.758303e-05	

Index   v-sweep         i(vds)          
--------------------------------------------------------------------------------
171	-1.85000e+00	2.762926e-05	
172	-1.90000e+00	2.767405e-05	
173	-1.95000e+00	2.771750e-05	
174	-2.00000e+00	2.775970e-05	
175	-2.05000e+00	2.780074e-05	
176	-2.10000e+00	2.784067e-05	
177	-2.15000e+00	2.787958e-05	
178	-2.20000e+00	2.791751e-05	
179	-2.25000e+00	2.795452e-05	
180	-2.30000e+00	2.799066e-05	
181	-2.35000e+00	2.802598e-05	
182	-2.40000e+00	2.806052e-05	
183	-2.45000e+00	2.809432e-05	
184	-2.50000e+00	2.812741e-05	
185	-2.55000e+00	2.815983e-05	
186	-2.60000e+00	2.819161e-05	
187	-2.65000e+00	2.822278e-05	
188	-2.70000e+00	2.825336e-05	
189	-2.75000e+00	2.828339e-05	
190	-2.80000e+00	2.831288e-05	
191	-2.85000e+00	2.834187e-05	
192	-2.90000e+00	2.837037e-05	
193	-2.95000e+00	2.839842e-05	
194	-3.00000e+00	2.842602e-05	
195	-3.05000e+00	2.845322e-05	
196	-3.10000e+00	2.848003e-05	
197	-3.15000e+00	2.850648e-05	
198	-3.20000e+00	2.853261e-05	
199	-3.25000e+00	2.855844e-05	
200	-3.30000e+00	2.858402e-05	
201	0.000000e+00	3.666751e-25	
202	-5.00000e-02	3.455707e-06	
203	-1.00000e-01	6.776521e-06	
204	-1.50000e-01	9.968051e-06	
205	-2.00000e-01	1.303202e-05	
206	-2.50000e-01	1.596919e-05	
207	-3.00000e-01	1.878013e-05	
208	-3.50000e-01	2.146532e-05	
209	-4.00000e-01	2.402524e-05	
210	-4.50000e-01	2.646037e-05	
211	-5.00000e-01	2.877119e-05	
212	-5.50000e-01	3.095819e-05	
213	-6.00000e-01	3.302185e-05	
214	-6.50000e-01	3.496268e-05	
215	-7.00000e-01	3.678118e-05	
216	-7.50000e-01	3.847788e-05	
217	-8.00000e-01	4.005333e-05	
218	-8.50000e-01	4.150810e-05	
219	-9.00000e-01	4.284284e-05	
220	-9.50000e-01	4.405826e-05	
221	-1.00000e+00	4.515524e-05	
222	-1.05000e+00	4.613487e-05	
223	-1.10000e+00	4.699863e-05	
224	-1.15000e+00	4.774872e-05	
225	-1.20000e+00	4.838851e-05	
226	-1.25000e+00	4.892338e-05	
227	-1.30000e+00	4.936185e-05	
228	-1.35000e+00	4.971637e-05	

Index   v-sweep         i(vds)          
--------------------------------------------------------------------------------
229	-1.40000e+00	5.000289e-05	
230	-1.45000e+00	5.023841e-05	
231	-1.50000e+00	5.043776e-05	
232	-1.55000e+00	5.061191e-05	
233	-1.60000e+00	5.076817e-05	
234	-1.65000e+00	5.091119e-05	
235	-1.70000e+00	5.104393e-05	
236	-1.75000e+00	5.116837e-05	
237	-1.80000e+00	5.128585e-05	
238	-1.85000e+00	5.139736e-05	
239	-1.90000e+00	5.150363e-05	
240	-1.95000e+00	5.160526e-05	
241	-2.00000e+00	5.170270e-05	
242	-2.05000e+00	5.179636e-05	
243	-2.10000e+00	5.188655e-05	
244	-2.15000e+00	5.197356e-05	
245	-2.20000e+00	5.205764e-05	
246	-2.25000e+00	5.213900e-05	
247	-2.30000e+00	5.221783e-05	
248	-2.35000e+00	5.229430e-05	
249	-2.40000e+00	5.236857e-05	
250	-2.45000e+00	5.244076e-05	
251	-2.50000e+00	5.251101e-05	
252	-2.55000e+00	5.257943e-05	
253	-2.60000e+00	5.264612e-05	
254	-2.65000e+00	5.271118e-05	
255	-2.70000e+00	5.277469e-05	
256	-2.75000e+00	5.283673e-05	
257	-2.80000e+00	5.289738e-05	
258	-2.85000e+00	5.295670e-05	
259	-2.90000e+00	5.301476e-05	
260	-2.95000e+00	5.307162e-05	
261	-3.00000e+00	5.312733e-05	
262	-3.05000e+00	5.318194e-05	
263	-3.10000e+00	5.323551e-05	
264	-3.15000e+00	5.328807e-05	
265	-3.20000e+00	5.333968e-05	
266	-3.25000e+00	5.339038e-05	
267	-3.30000e+00	5.344020e-05	
268	0.000000e+00	-2.16703e-22	
269	-5.00000e-02	4.210587e-06	
270	-1.00000e-01	8.294460e-06	
271	-1.50000e-01	1.225708e-05	
272	-2.00000e-01	1.610007e-05	
273	-2.50000e-01	1.982414e-05	
274	-3.00000e-01	2.342976e-05	
275	-3.50000e-01	2.691734e-05	
276	-4.00000e-01	3.028729e-05	
277	-4.50000e-01	3.353999e-05	
278	-5.00000e-01	3.667586e-05	
279	-5.50000e-01	3.969528e-05	
280	-6.00000e-01	4.259867e-05	
281	-6.50000e-01	4.538641e-05	
282	-7.00000e-01	4.805891e-05	
283	-7.50000e-01	5.061657e-05	
284	-8.00000e-01	5.305981e-05	
285	-8.50000e-01	5.538902e-05	
286	-9.00000e-01	5.760463e-05	

Index   v-sweep         i(vds)          
--------------------------------------------------------------------------------
287	-9.50000e-01	5.970705e-05	
288	-1.00000e+00	6.169671e-05	
289	-1.05000e+00	6.357405e-05	
290	-1.10000e+00	6.533951e-05	
291	-1.15000e+00	6.699357e-05	
292	-1.20000e+00	6.853674e-05	
293	-1.25000e+00	6.996955e-05	
294	-1.30000e+00	7.129263e-05	
295	-1.35000e+00	7.250669e-05	
296	-1.40000e+00	7.361261e-05	
297	-1.45000e+00	7.461154e-05	
298	-1.50000e+00	7.550503e-05	
299	-1.55000e+00	7.629533e-05	
300	-1.60000e+00	7.698579e-05	
301	-1.65000e+00	7.758146e-05	
302	-1.70000e+00	7.808978e-05	
303	-1.75000e+00	7.852099e-05	
304	-1.80000e+00	7.888767e-05	
305	-1.85000e+00	7.920323e-05	
306	-1.90000e+00	7.947987e-05	
307	-1.95000e+00	7.972733e-05	
308	-2.00000e+00	7.995269e-05	
309	-2.05000e+00	8.016085e-05	
310	-2.10000e+00	8.035519e-05	
311	-2.15000e+00	8.053808e-05	
312	-2.20000e+00	8.071121e-05	
313	-2.25000e+00	8.087588e-05	
314	-2.30000e+00	8.103306e-05	
315	-2.35000e+00	8.118355e-05	
316	-2.40000e+00	8.132800e-05	
317	-2.45000e+00	8.146694e-05	
318	-2.50000e+00	8.160083e-05	
319	-2.55000e+00	8.173009e-05	
320	-2.60000e+00	8.185504e-05	
321	-2.65000e+00	8.197601e-05	
322	-2.70000e+00	8.209325e-05	
323	-2.75000e+00	8.220702e-05	
324	-2.80000e+00	8.231753e-05	
325	-2.85000e+00	8.242498e-05	
326	-2.90000e+00	8.252956e-05	
327	-2.95000e+00	8.263141e-05	
328	-3.00000e+00	8.273070e-05	
329	-3.05000e+00	8.282757e-05	
330	-3.10000e+00	8.292213e-05	
331	-3.15000e+00	8.301450e-05	
332	-3.20000e+00	8.310480e-05	
333	-3.25000e+00	8.319312e-05	
334	-3.30000e+00	8.327956e-05	
335	0.000000e+00	-2.04191e-22	
336	-5.00000e-02	4.865649e-06	
337	-1.00000e-01	9.612132e-06	
338	-1.50000e-01	1.424478e-05	
339	-2.00000e-01	1.876517e-05	
340	-2.50000e-01	2.317394e-05	
341	-3.00000e-01	2.747150e-05	
342	-3.50000e-01	3.165821e-05	
343	-4.00000e-01	3.573441e-05	
344	-4.50000e-01	3.970045e-05	

Index   v-sweep         i(vds)          
--------------------------------------------------------------------------------
345	-5.00000e-01	4.355665e-05	
346	-5.50000e-01	4.730337e-05	
347	-6.00000e-01	5.094094e-05	
348	-6.50000e-01	5.446970e-05	
349	-7.00000e-01	5.788999e-05	
350	-7.50000e-01	6.120216e-05	
351	-8.00000e-01	6.440654e-05	
352	-8.50000e-01	6.750348e-05	
353	-9.00000e-01	7.049333e-05	
354	-9.50000e-01	7.337642e-05	
355	-1.00000e+00	7.615310e-05	
356	-1.05000e+00	7.882372e-05	
357	-1.10000e+00	8.138863e-05	
358	-1.15000e+00	8.384818e-05	
359	-1.20000e+00	8.620273e-05	
360	-1.25000e+00	8.845263e-05	
361	-1.30000e+00	9.059824e-05	
362	-1.35000e+00	9.263994e-05	
363	-1.40000e+00	9.457811e-05	
364	-1.45000e+00	9.641313e-05	
365	-1.50000e+00	9.814542e-05	
366	-1.55000e+00	9.977541e-05	
367	-1.60000e+00	1.013036e-04	
368	-1.65000e+00	1.027304e-04	
369	-1.70000e+00	1.040566e-04	
370	-1.75000e+00	1.052827e-04	
371	-1.80000e+00	1.064096e-04	
372	-1.85000e+00	1.074386e-04	
373	-1.90000e+00	1.083711e-04	
374	-1.95000e+00	1.092093e-04	
375	-2.00000e+00	1.099563e-04	
376	-2.05000e+00	1.106167e-04	
377	-2.10000e+00	1.111968e-04	
378	-2.15000e+00	1.117050e-04	
379	-2.20000e+00	1.121514e-04	
380	-2.25000e+00	1.125468e-04	
381	-2.30000e+00	1.129013e-04	
382	-2.35000e+00	1.132235e-04	
383	-2.40000e+00	1.135202e-04	
384	-2.45000e+00	1.137961e-04	
385	-2.50000e+00	1.140550e-04	
386	-2.55000e+00	1.142995e-04	
387	-2.60000e+00	1.145315e-04	
388	-2.65000e+00	1.147526e-04	
389	-2.70000e+00	1.149640e-04	
390	-2.75000e+00	1.151666e-04	
391	-2.80000e+00	1.153613e-04	
392	-2.85000e+00	1.155487e-04	
393	-2.90000e+00	1.157295e-04	
394	-2.95000e+00	1.159041e-04	
395	-3.00000e+00	1.160730e-04	
396	-3.05000e+00	1.162365e-04	
397	-3.10000e+00	1.163952e-04	
398	-3.15000e+00	1.165491e-04	
399	-3.20000e+00	1.166988e-04	
400	-3.25000e+00	1.168443e-04	
401	-3.30000e+00	1.169860e-04	
Note: No ".plot", ".print", or ".fourier" lines; no simulations run
