
Note: Compatibility modes selected: hs

Warning: m=xx on .subckt line will override multiplier m hierarchy!


Circuit: ***************************

Doing analysis at TEMP = -40.000000 and TNOM = -40.000000


No. of Data Rows : 402
                          ***************************
                          DC transfer characteristic  Mon Jan  9 13:58:23  2023
--------------------------------------------------------------------------------
Index   v-sweep         i(vds)          
--------------------------------------------------------------------------------
0	0.000000e+00	-1.48071e-23	
1	-5.00000e-02	1.501731e-07	
2	-1.00000e-01	1.832728e-07	
3	-1.50000e-01	1.926510e-07	
4	-2.00000e-01	1.990186e-07	
5	-2.50000e-01	2.047090e-07	
6	-3.00000e-01	2.101533e-07	
7	-3.50000e-01	2.154818e-07	
8	-4.00000e-01	2.207501e-07	
9	-4.50000e-01	2.259876e-07	
10	-5.00000e-01	2.312130e-07	
11	-5.50000e-01	2.364392e-07	
12	-6.00000e-01	2.416759e-07	
13	-6.50000e-01	2.469307e-07	
14	-7.00000e-01	2.522097e-07	
15	-7.50000e-01	2.575180e-07	
16	-8.00000e-01	2.628599e-07	
17	-8.50000e-01	2.682392e-07	
18	-9.00000e-01	2.736592e-07	
19	-9.50000e-01	2.791227e-07	
20	-1.00000e+00	2.846323e-07	
21	-1.05000e+00	2.901903e-07	
22	-1.10000e+00	2.957988e-07	
23	-1.15000e+00	3.014597e-07	
24	-1.20000e+00	3.071748e-07	
25	-1.25000e+00	3.129456e-07	
26	-1.30000e+00	3.187738e-07	
27	-1.35000e+00	3.246606e-07	
28	-1.40000e+00	3.306075e-07	
29	-1.45000e+00	3.366157e-07	
30	-1.50000e+00	3.426862e-07	
31	-1.55000e+00	3.488204e-07	
32	-1.60000e+00	3.550191e-07	
33	-1.65000e+00	3.612835e-07	
34	-1.70000e+00	3.676146e-07	
35	-1.75000e+00	3.740132e-07	
36	-1.80000e+00	3.804803e-07	
37	-1.85000e+00	3.870168e-07	
38	-1.90000e+00	3.936235e-07	
39	-1.95000e+00	4.003015e-07	
40	-2.00000e+00	4.070515e-07	
41	-2.05000e+00	4.138744e-07	
42	-2.10000e+00	4.207712e-07	
43	-2.15000e+00	4.277429e-07	
44	-2.20000e+00	4.347904e-07	
45	-2.25000e+00	4.419149e-07	
46	-2.30000e+00	4.491176e-07	
47	-2.35000e+00	4.563997e-07	
48	-2.40000e+00	4.637628e-07	
49	-2.45000e+00	4.712085e-07	
50	-2.50000e+00	4.787386e-07	
51	-2.55000e+00	4.863552e-07	
52	-2.60000e+00	4.940608e-07	
53	-2.65000e+00	5.018579e-07	
54	-2.70000e+00	5.097496e-07	

Index   v-sweep         i(vds)          
--------------------------------------------------------------------------------
55	-2.75000e+00	5.177395e-07	
56	-2.80000e+00	5.258314e-07	
57	-2.85000e+00	5.340298e-07	
58	-2.90000e+00	5.423398e-07	
59	-2.95000e+00	5.507670e-07	
60	-3.00000e+00	5.593177e-07	
61	-3.05000e+00	5.679991e-07	
62	-3.10000e+00	5.768189e-07	
63	-3.15000e+00	5.857862e-07	
64	-3.20000e+00	5.949104e-07	
65	-3.25000e+00	6.042025e-07	
66	-3.30000e+00	6.136742e-07	
67	0.000000e+00	-3.81008e-22	
68	-5.00000e-02	3.679228e-06	
69	-1.00000e-01	6.938579e-06	
70	-1.50000e-01	9.784788e-06	
71	-2.00000e-01	1.222493e-05	
72	-2.50000e-01	1.426690e-05	
73	-3.00000e-01	1.592059e-05	
74	-3.50000e-01	1.720095e-05	
75	-4.00000e-01	1.813568e-05	
76	-4.50000e-01	1.877926e-05	
77	-5.00000e-01	1.921827e-05	
78	-5.50000e-01	1.954116e-05	
79	-6.00000e-01	1.980449e-05	
80	-6.50000e-01	2.003522e-05	
81	-7.00000e-01	2.024546e-05	
82	-7.50000e-01	2.044117e-05	
83	-8.00000e-01	2.062569e-05	
84	-8.50000e-01	2.080116e-05	
85	-9.00000e-01	2.096903e-05	
86	-9.50000e-01	2.113039e-05	
87	-1.00000e+00	2.128610e-05	
88	-1.05000e+00	2.143683e-05	
89	-1.10000e+00	2.158314e-05	
90	-1.15000e+00	2.172549e-05	
91	-1.20000e+00	2.186428e-05	
92	-1.25000e+00	2.199984e-05	
93	-1.30000e+00	2.213246e-05	
94	-1.35000e+00	2.226241e-05	
95	-1.40000e+00	2.238990e-05	
96	-1.45000e+00	2.251513e-05	
97	-1.50000e+00	2.263828e-05	
98	-1.55000e+00	2.275951e-05	
99	-1.60000e+00	2.287895e-05	
100	-1.65000e+00	2.299673e-05	
101	-1.70000e+00	2.311296e-05	
102	-1.75000e+00	2.322775e-05	
103	-1.80000e+00	2.334120e-05	
104	-1.85000e+00	2.345338e-05	
105	-1.90000e+00	2.356438e-05	
106	-1.95000e+00	2.367427e-05	
107	-2.00000e+00	2.378311e-05	
108	-2.05000e+00	2.389097e-05	
109	-2.10000e+00	2.399790e-05	
110	-2.15000e+00	2.410396e-05	
111	-2.20000e+00	2.420919e-05	
112	-2.25000e+00	2.431365e-05	

Index   v-sweep         i(vds)          
--------------------------------------------------------------------------------
113	-2.30000e+00	2.441737e-05	
114	-2.35000e+00	2.452040e-05	
115	-2.40000e+00	2.462279e-05	
116	-2.45000e+00	2.472456e-05	
117	-2.50000e+00	2.482577e-05	
118	-2.55000e+00	2.492645e-05	
119	-2.60000e+00	2.502664e-05	
120	-2.65000e+00	2.512641e-05	
121	-2.70000e+00	2.522578e-05	
122	-2.75000e+00	2.532482e-05	
123	-2.80000e+00	2.542359e-05	
124	-2.85000e+00	2.552215e-05	
125	-2.90000e+00	2.562058e-05	
126	-2.95000e+00	2.571896e-05	
127	-3.00000e+00	2.581739e-05	
128	-3.05000e+00	2.591596e-05	
129	-3.10000e+00	2.601481e-05	
130	-3.15000e+00	2.611406e-05	
131	-3.20000e+00	2.621387e-05	
132	-3.25000e+00	2.631440e-05	
133	-3.30000e+00	2.641584e-05	
134	0.000000e+00	-1.09233e-21	
135	-5.00000e-02	6.540316e-06	
136	-1.00000e-01	1.268675e-05	
137	-1.50000e-01	1.844376e-05	
138	-2.00000e-01	2.381584e-05	
139	-2.50000e-01	2.880746e-05	
140	-3.00000e-01	3.342312e-05	
141	-3.50000e-01	3.766738e-05	
142	-4.00000e-01	4.154485e-05	
143	-4.50000e-01	4.506028e-05	
144	-5.00000e-01	4.821867e-05	
145	-5.50000e-01	5.102545e-05	
146	-6.00000e-01	5.348692e-05	
147	-6.50000e-01	5.561110e-05	
148	-7.00000e-01	5.740939e-05	
149	-7.50000e-01	5.889995e-05	
150	-8.00000e-01	6.011283e-05	
151	-8.50000e-01	6.109406e-05	
152	-9.00000e-01	6.190096e-05	
153	-9.50000e-01	6.258740e-05	
154	-1.00000e+00	6.319251e-05	
155	-1.05000e+00	6.374064e-05	
156	-1.10000e+00	6.424634e-05	
157	-1.15000e+00	6.471866e-05	
158	-1.20000e+00	6.516363e-05	
159	-1.25000e+00	6.558553e-05	
160	-1.30000e+00	6.598756e-05	
161	-1.35000e+00	6.637223e-05	
162	-1.40000e+00	6.674156e-05	
163	-1.45000e+00	6.709721e-05	
164	-1.50000e+00	6.744057e-05	
165	-1.55000e+00	6.777283e-05	
166	-1.60000e+00	6.809499e-05	
167	-1.65000e+00	6.840795e-05	
168	-1.70000e+00	6.871246e-05	
169	-1.75000e+00	6.900920e-05	
170	-1.80000e+00	6.929878e-05	

Index   v-sweep         i(vds)          
--------------------------------------------------------------------------------
171	-1.85000e+00	6.958171e-05	
172	-1.90000e+00	6.985849e-05	
173	-1.95000e+00	7.012952e-05	
174	-2.00000e+00	7.039521e-05	
175	-2.05000e+00	7.065588e-05	
176	-2.10000e+00	7.091187e-05	
177	-2.15000e+00	7.116346e-05	
178	-2.20000e+00	7.141090e-05	
179	-2.25000e+00	7.165445e-05	
180	-2.30000e+00	7.189431e-05	
181	-2.35000e+00	7.213069e-05	
182	-2.40000e+00	7.236378e-05	
183	-2.45000e+00	7.259376e-05	
184	-2.50000e+00	7.282078e-05	
185	-2.55000e+00	7.304499e-05	
186	-2.60000e+00	7.326655e-05	
187	-2.65000e+00	7.348557e-05	
188	-2.70000e+00	7.370220e-05	
189	-2.75000e+00	7.391654e-05	
190	-2.80000e+00	7.412874e-05	
191	-2.85000e+00	7.433890e-05	
192	-2.90000e+00	7.454714e-05	
193	-2.95000e+00	7.475360e-05	
194	-3.00000e+00	7.495841e-05	
195	-3.05000e+00	7.516169e-05	
196	-3.10000e+00	7.536361e-05	
197	-3.15000e+00	7.556433e-05	
198	-3.20000e+00	7.576403e-05	
199	-3.25000e+00	7.596291e-05	
200	-3.30000e+00	7.616120e-05	
201	0.000000e+00	-6.73907e-22	
202	-5.00000e-02	8.650752e-06	
203	-1.00000e-01	1.694294e-05	
204	-1.50000e-01	2.487978e-05	
205	-2.00000e-01	3.246448e-05	
206	-2.50000e-01	3.970026e-05	
207	-3.00000e-01	4.659035e-05	
208	-3.50000e-01	5.313797e-05	
209	-4.00000e-01	5.934637e-05	
210	-4.50000e-01	6.521879e-05	
211	-5.00000e-01	7.075848e-05	
212	-5.50000e-01	7.596872e-05	
213	-6.00000e-01	8.085279e-05	
214	-6.50000e-01	8.541405e-05	
215	-7.00000e-01	8.965588e-05	
216	-7.50000e-01	9.358178e-05	
217	-8.00000e-01	9.719543e-05	
218	-8.50000e-01	1.005008e-04	
219	-9.00000e-01	1.035022e-04	
220	-9.50000e-01	1.062050e-04	
221	-1.00000e+00	1.086158e-04	
222	-1.05000e+00	1.107441e-04	
223	-1.10000e+00	1.126040e-04	
224	-1.15000e+00	1.142167e-04	
225	-1.20000e+00	1.156127e-04	
226	-1.25000e+00	1.168300e-04	
227	-1.30000e+00	1.179075e-04	
228	-1.35000e+00	1.188785e-04	

Index   v-sweep         i(vds)          
--------------------------------------------------------------------------------
229	-1.40000e+00	1.197674e-04	
230	-1.45000e+00	1.205914e-04	
231	-1.50000e+00	1.213624e-04	
232	-1.55000e+00	1.220889e-04	
233	-1.60000e+00	1.227772e-04	
234	-1.65000e+00	1.234324e-04	
235	-1.70000e+00	1.240583e-04	
236	-1.75000e+00	1.246581e-04	
237	-1.80000e+00	1.252346e-04	
238	-1.85000e+00	1.257901e-04	
239	-1.90000e+00	1.263264e-04	
240	-1.95000e+00	1.268452e-04	
241	-2.00000e+00	1.273481e-04	
242	-2.05000e+00	1.278363e-04	
243	-2.10000e+00	1.283109e-04	
244	-2.15000e+00	1.287730e-04	
245	-2.20000e+00	1.292234e-04	
246	-2.25000e+00	1.296630e-04	
247	-2.30000e+00	1.300924e-04	
248	-2.35000e+00	1.305124e-04	
249	-2.40000e+00	1.309235e-04	
250	-2.45000e+00	1.313263e-04	
251	-2.50000e+00	1.317212e-04	
252	-2.55000e+00	1.321088e-04	
253	-2.60000e+00	1.324894e-04	
254	-2.65000e+00	1.328634e-04	
255	-2.70000e+00	1.332311e-04	
256	-2.75000e+00	1.335930e-04	
257	-2.80000e+00	1.339492e-04	
258	-2.85000e+00	1.343001e-04	
259	-2.90000e+00	1.346460e-04	
260	-2.95000e+00	1.349870e-04	
261	-3.00000e+00	1.353234e-04	
262	-3.05000e+00	1.356555e-04	
263	-3.10000e+00	1.359834e-04	
264	-3.15000e+00	1.363074e-04	
265	-3.20000e+00	1.366276e-04	
266	-3.25000e+00	1.369444e-04	
267	-3.30000e+00	1.372579e-04	
268	0.000000e+00	2.626932e-36	
269	-5.00000e-02	1.024303e-05	
270	-1.00000e-01	2.016096e-05	
271	-1.50000e-01	2.975618e-05	
272	-2.00000e-01	3.903109e-05	
273	-2.50000e-01	4.798810e-05	
274	-3.00000e-01	5.662960e-05	
275	-3.50000e-01	6.495801e-05	
276	-4.00000e-01	7.297576e-05	
277	-4.50000e-01	8.068526e-05	
278	-5.00000e-01	8.808896e-05	
279	-5.50000e-01	9.518928e-05	
280	-6.00000e-01	1.019887e-04	
281	-6.50000e-01	1.084895e-04	
282	-7.00000e-01	1.146944e-04	
283	-7.50000e-01	1.206057e-04	
284	-8.00000e-01	1.262258e-04	
285	-8.50000e-01	1.315574e-04	
286	-9.00000e-01	1.366029e-04	

Index   v-sweep         i(vds)          
--------------------------------------------------------------------------------
287	-9.50000e-01	1.413648e-04	
288	-1.00000e+00	1.458457e-04	
289	-1.05000e+00	1.500483e-04	
290	-1.10000e+00	1.539755e-04	
291	-1.15000e+00	1.576301e-04	
292	-1.20000e+00	1.610154e-04	
293	-1.25000e+00	1.641353e-04	
294	-1.30000e+00	1.669941e-04	
295	-1.35000e+00	1.695978e-04	
296	-1.40000e+00	1.719545e-04	
297	-1.45000e+00	1.740757e-04	
298	-1.50000e+00	1.759781e-04	
299	-1.55000e+00	1.776840e-04	
300	-1.60000e+00	1.792207e-04	
301	-1.65000e+00	1.806163e-04	
302	-1.70000e+00	1.818967e-04	
303	-1.75000e+00	1.830827e-04	
304	-1.80000e+00	1.841902e-04	
305	-1.85000e+00	1.852315e-04	
306	-1.90000e+00	1.862159e-04	
307	-1.95000e+00	1.871506e-04	
308	-2.00000e+00	1.880416e-04	
309	-2.05000e+00	1.888936e-04	
310	-2.10000e+00	1.897106e-04	
311	-2.15000e+00	1.904960e-04	
312	-2.20000e+00	1.912528e-04	
313	-2.25000e+00	1.919834e-04	
314	-2.30000e+00	1.926901e-04	
315	-2.35000e+00	1.933747e-04	
316	-2.40000e+00	1.940389e-04	
317	-2.45000e+00	1.946844e-04	
318	-2.50000e+00	1.953123e-04	
319	-2.55000e+00	1.959240e-04	
320	-2.60000e+00	1.965204e-04	
321	-2.65000e+00	1.971027e-04	
322	-2.70000e+00	1.976716e-04	
323	-2.75000e+00	1.982280e-04	
324	-2.80000e+00	1.987726e-04	
325	-2.85000e+00	1.993061e-04	
326	-2.90000e+00	1.998291e-04	
327	-2.95000e+00	2.003423e-04	
328	-3.00000e+00	2.008460e-04	
329	-3.05000e+00	2.013408e-04	
330	-3.10000e+00	2.018272e-04	
331	-3.15000e+00	2.023055e-04	
332	-3.20000e+00	2.027762e-04	
333	-3.25000e+00	2.032396e-04	
334	-3.30000e+00	2.036960e-04	
335	0.000000e+00	-2.84959e-21	
336	-5.00000e-02	1.146705e-05	
337	-1.00000e-01	2.263880e-05	
338	-1.50000e-01	3.351707e-05	
339	-2.00000e-01	4.410371e-05	
340	-2.50000e-01	5.440054e-05	
341	-3.00000e-01	6.440943e-05	
342	-3.50000e-01	7.413222e-05	
343	-4.00000e-01	8.357078e-05	
344	-4.50000e-01	9.272698e-05	

Index   v-sweep         i(vds)          
--------------------------------------------------------------------------------
345	-5.00000e-01	1.016027e-04	
346	-5.50000e-01	1.101998e-04	
347	-6.00000e-01	1.185201e-04	
348	-6.50000e-01	1.265657e-04	
349	-7.00000e-01	1.343382e-04	
350	-7.50000e-01	1.418397e-04	
351	-8.00000e-01	1.490721e-04	
352	-8.50000e-01	1.560371e-04	
353	-9.00000e-01	1.627369e-04	
354	-9.50000e-01	1.691732e-04	
355	-1.00000e+00	1.753479e-04	
356	-1.05000e+00	1.812631e-04	
357	-1.10000e+00	1.869207e-04	
358	-1.15000e+00	1.923225e-04	
359	-1.20000e+00	1.974706e-04	
360	-1.25000e+00	2.023670e-04	
361	-1.30000e+00	2.070137e-04	
362	-1.35000e+00	2.114128e-04	
363	-1.40000e+00	2.155665e-04	
364	-1.45000e+00	2.194771e-04	
365	-1.50000e+00	2.231470e-04	
366	-1.55000e+00	2.265792e-04	
367	-1.60000e+00	2.297767e-04	
368	-1.65000e+00	2.327437e-04	
369	-1.70000e+00	2.354854e-04	
370	-1.75000e+00	2.380088e-04	
371	-1.80000e+00	2.403238e-04	
372	-1.85000e+00	2.424437e-04	
373	-1.90000e+00	2.443859e-04	
374	-1.95000e+00	2.461708e-04	
375	-2.00000e+00	2.478194e-04	
376	-2.05000e+00	2.493517e-04	
377	-2.10000e+00	2.507848e-04	
378	-2.15000e+00	2.521325e-04	
379	-2.20000e+00	2.534063e-04	
380	-2.25000e+00	2.546151e-04	
381	-2.30000e+00	2.557665e-04	
382	-2.35000e+00	2.568665e-04	
383	-2.40000e+00	2.579205e-04	
384	-2.45000e+00	2.589327e-04	
385	-2.50000e+00	2.599071e-04	
386	-2.55000e+00	2.608468e-04	
387	-2.60000e+00	2.617547e-04	
388	-2.65000e+00	2.626333e-04	
389	-2.70000e+00	2.634850e-04	
390	-2.75000e+00	2.643116e-04	
391	-2.80000e+00	2.651149e-04	
392	-2.85000e+00	2.658965e-04	
393	-2.90000e+00	2.666580e-04	
394	-2.95000e+00	2.674004e-04	
395	-3.00000e+00	2.681251e-04	
396	-3.05000e+00	2.688332e-04	
397	-3.10000e+00	2.695254e-04	
398	-3.15000e+00	2.702029e-04	
399	-3.20000e+00	2.708664e-04	
400	-3.25000e+00	2.715166e-04	
401	-3.30000e+00	2.721542e-04	
Note: No ".plot", ".print", or ".fourier" lines; no simulations run
