
Note: Compatibility modes selected: hs

Warning: m=xx on .subckt line will override multiplier m hierarchy!


Circuit: ***************************

Doing analysis at TEMP = -40.000000 and TNOM = -40.000000


No. of Data Rows : 402
                          ***************************
                          DC transfer characteristic  Mon Jan  9 13:58:23  2023
--------------------------------------------------------------------------------
Index   v-sweep         i(vds)          
--------------------------------------------------------------------------------
0	0.000000e+00	-1.50840e-24	
1	-5.00000e-02	1.228231e-08	
2	-1.00000e-01	1.319299e-08	
3	-1.50000e-01	1.333709e-08	
4	-2.00000e-01	1.338772e-08	
5	-2.50000e-01	1.341461e-08	
6	-3.00000e-01	1.343264e-08	
7	-3.50000e-01	1.344653e-08	
8	-4.00000e-01	1.345815e-08	
9	-4.50000e-01	1.346837e-08	
10	-5.00000e-01	1.347766e-08	
11	-5.50000e-01	1.348630e-08	
12	-6.00000e-01	1.349444e-08	
13	-6.50000e-01	1.350220e-08	
14	-7.00000e-01	1.350965e-08	
15	-7.50000e-01	1.351686e-08	
16	-8.00000e-01	1.352385e-08	
17	-8.50000e-01	1.353066e-08	
18	-9.00000e-01	1.353732e-08	
19	-9.50000e-01	1.354384e-08	
20	-1.00000e+00	1.355024e-08	
21	-1.05000e+00	1.355653e-08	
22	-1.10000e+00	1.356273e-08	
23	-1.15000e+00	1.356884e-08	
24	-1.20000e+00	1.357487e-08	
25	-1.25000e+00	1.358083e-08	
26	-1.30000e+00	1.358672e-08	
27	-1.35000e+00	1.359255e-08	
28	-1.40000e+00	1.359832e-08	
29	-1.45000e+00	1.360405e-08	
30	-1.50000e+00	1.360972e-08	
31	-1.55000e+00	1.361534e-08	
32	-1.60000e+00	1.362093e-08	
33	-1.65000e+00	1.362647e-08	
34	-1.70000e+00	1.363198e-08	
35	-1.75000e+00	1.363745e-08	
36	-1.80000e+00	1.364288e-08	
37	-1.85000e+00	1.364829e-08	
38	-1.90000e+00	1.365366e-08	
39	-1.95000e+00	1.365901e-08	
40	-2.00000e+00	1.366433e-08	
41	-2.05000e+00	1.366962e-08	
42	-2.10000e+00	1.367490e-08	
43	-2.15000e+00	1.368015e-08	
44	-2.20000e+00	1.368539e-08	
45	-2.25000e+00	1.369061e-08	
46	-2.30000e+00	1.369582e-08	
47	-2.35000e+00	1.370102e-08	
48	-2.40000e+00	1.370623e-08	
49	-2.45000e+00	1.371144e-08	
50	-2.50000e+00	1.371666e-08	
51	-2.55000e+00	1.372192e-08	
52	-2.60000e+00	1.372722e-08	
53	-2.65000e+00	1.373258e-08	
54	-2.70000e+00	1.373802e-08	

Index   v-sweep         i(vds)          
--------------------------------------------------------------------------------
55	-2.75000e+00	1.374358e-08	
56	-2.80000e+00	1.374928e-08	
57	-2.85000e+00	1.375516e-08	
58	-2.90000e+00	1.376128e-08	
59	-2.95000e+00	1.376769e-08	
60	-3.00000e+00	1.377445e-08	
61	-3.05000e+00	1.378165e-08	
62	-3.10000e+00	1.378938e-08	
63	-3.15000e+00	1.379774e-08	
64	-3.20000e+00	1.380686e-08	
65	-3.25000e+00	1.381687e-08	
66	-3.30000e+00	1.382793e-08	
67	0.000000e+00	-2.48056e-22	
68	-5.00000e-02	9.912563e-07	
69	-1.00000e-01	1.816161e-06	
70	-1.50000e-01	2.475655e-06	
71	-2.00000e-01	2.971912e-06	
72	-2.50000e-01	3.310768e-06	
73	-3.00000e-01	3.508603e-06	
74	-3.50000e-01	3.602420e-06	
75	-4.00000e-01	3.641036e-06	
76	-4.50000e-01	3.657638e-06	
77	-5.00000e-01	3.666016e-06	
78	-5.50000e-01	3.671008e-06	
79	-6.00000e-01	3.674401e-06	
80	-6.50000e-01	3.676937e-06	
81	-7.00000e-01	3.678964e-06	
82	-7.50000e-01	3.680663e-06	
83	-8.00000e-01	3.682134e-06	
84	-8.50000e-01	3.683440e-06	
85	-9.00000e-01	3.684620e-06	
86	-9.50000e-01	3.685702e-06	
87	-1.00000e+00	3.686703e-06	
88	-1.05000e+00	3.687638e-06	
89	-1.10000e+00	3.688517e-06	
90	-1.15000e+00	3.689348e-06	
91	-1.20000e+00	3.690137e-06	
92	-1.25000e+00	3.690890e-06	
93	-1.30000e+00	3.691611e-06	
94	-1.35000e+00	3.692302e-06	
95	-1.40000e+00	3.692968e-06	
96	-1.45000e+00	3.693610e-06	
97	-1.50000e+00	3.694230e-06	
98	-1.55000e+00	3.694831e-06	
99	-1.60000e+00	3.695414e-06	
100	-1.65000e+00	3.695980e-06	
101	-1.70000e+00	3.696531e-06	
102	-1.75000e+00	3.697067e-06	
103	-1.80000e+00	3.697590e-06	
104	-1.85000e+00	3.698100e-06	
105	-1.90000e+00	3.698599e-06	
106	-1.95000e+00	3.699086e-06	
107	-2.00000e+00	3.699564e-06	
108	-2.05000e+00	3.700031e-06	
109	-2.10000e+00	3.700490e-06	
110	-2.15000e+00	3.700939e-06	
111	-2.20000e+00	3.701381e-06	
112	-2.25000e+00	3.701815e-06	

Index   v-sweep         i(vds)          
--------------------------------------------------------------------------------
113	-2.30000e+00	3.702241e-06	
114	-2.35000e+00	3.702661e-06	
115	-2.40000e+00	3.703075e-06	
116	-2.45000e+00	3.703484e-06	
117	-2.50000e+00	3.703887e-06	
118	-2.55000e+00	3.704286e-06	
119	-2.60000e+00	3.704683e-06	
120	-2.65000e+00	3.705078e-06	
121	-2.70000e+00	3.705473e-06	
122	-2.75000e+00	3.705870e-06	
123	-2.80000e+00	3.706271e-06	
124	-2.85000e+00	3.706681e-06	
125	-2.90000e+00	3.707102e-06	
126	-2.95000e+00	3.707541e-06	
127	-3.00000e+00	3.708003e-06	
128	-3.05000e+00	3.708496e-06	
129	-3.10000e+00	3.709029e-06	
130	-3.15000e+00	3.709613e-06	
131	-3.20000e+00	3.710261e-06	
132	-3.25000e+00	3.710988e-06	
133	-3.30000e+00	3.711815e-06	
134	0.000000e+00	-1.74001e-21	
135	-5.00000e-02	2.051943e-06	
136	-1.00000e-01	3.944409e-06	
137	-1.50000e-01	5.677551e-06	
138	-2.00000e-01	7.251548e-06	
139	-2.50000e-01	8.666620e-06	
140	-3.00000e-01	9.923061e-06	
141	-3.50000e-01	1.102130e-05	
142	-4.00000e-01	1.196201e-05	
143	-4.50000e-01	1.274638e-05	
144	-5.00000e-01	1.337667e-05	
145	-5.50000e-01	1.385749e-05	
146	-6.00000e-01	1.419843e-05	
147	-6.50000e-01	1.441824e-05	
148	-7.00000e-01	1.454671e-05	
149	-7.50000e-01	1.461771e-05	
150	-8.00000e-01	1.465768e-05	
151	-8.50000e-01	1.468193e-05	
152	-9.00000e-01	1.469808e-05	
153	-9.50000e-01	1.470977e-05	
154	-1.00000e+00	1.471882e-05	
155	-1.05000e+00	1.472619e-05	
156	-1.10000e+00	1.473244e-05	
157	-1.15000e+00	1.473787e-05	
158	-1.20000e+00	1.474270e-05	
159	-1.25000e+00	1.474707e-05	
160	-1.30000e+00	1.475106e-05	
161	-1.35000e+00	1.475475e-05	
162	-1.40000e+00	1.475818e-05	
163	-1.45000e+00	1.476141e-05	
164	-1.50000e+00	1.476444e-05	
165	-1.55000e+00	1.476732e-05	
166	-1.60000e+00	1.477005e-05	
167	-1.65000e+00	1.477266e-05	
168	-1.70000e+00	1.477515e-05	
169	-1.75000e+00	1.477754e-05	
170	-1.80000e+00	1.477984e-05	

Index   v-sweep         i(vds)          
--------------------------------------------------------------------------------
171	-1.85000e+00	1.478205e-05	
172	-1.90000e+00	1.478419e-05	
173	-1.95000e+00	1.478626e-05	
174	-2.00000e+00	1.478826e-05	
175	-2.05000e+00	1.479020e-05	
176	-2.10000e+00	1.479208e-05	
177	-2.15000e+00	1.479391e-05	
178	-2.20000e+00	1.479570e-05	
179	-2.25000e+00	1.479743e-05	
180	-2.30000e+00	1.479912e-05	
181	-2.35000e+00	1.480077e-05	
182	-2.40000e+00	1.480239e-05	
183	-2.45000e+00	1.480396e-05	
184	-2.50000e+00	1.480551e-05	
185	-2.55000e+00	1.480702e-05	
186	-2.60000e+00	1.480850e-05	
187	-2.65000e+00	1.480995e-05	
188	-2.70000e+00	1.481137e-05	
189	-2.75000e+00	1.481277e-05	
190	-2.80000e+00	1.481415e-05	
191	-2.85000e+00	1.481551e-05	
192	-2.90000e+00	1.481686e-05	
193	-2.95000e+00	1.481819e-05	
194	-3.00000e+00	1.481952e-05	
195	-3.05000e+00	1.482084e-05	
196	-3.10000e+00	1.482218e-05	
197	-3.15000e+00	1.482354e-05	
198	-3.20000e+00	1.482493e-05	
199	-3.25000e+00	1.482637e-05	
200	-3.30000e+00	1.482788e-05	
201	0.000000e+00	-1.07041e-20	
202	-5.00000e-02	2.961639e-06	
203	-1.00000e-01	5.776416e-06	
204	-1.50000e-01	8.444428e-06	
205	-2.00000e-01	1.096578e-05	
206	-2.50000e-01	1.334057e-05	
207	-3.00000e-01	1.556893e-05	
208	-3.50000e-01	1.765096e-05	
209	-4.00000e-01	1.958680e-05	
210	-4.50000e-01	2.137659e-05	
211	-5.00000e-01	2.302053e-05	
212	-5.50000e-01	2.451881e-05	
213	-6.00000e-01	2.587174e-05	
214	-6.50000e-01	2.707969e-05	
215	-7.00000e-01	2.814325e-05	
216	-7.50000e-01	2.906333e-05	
217	-8.00000e-01	2.984145e-05	
218	-8.50000e-01	3.048027e-05	
219	-9.00000e-01	3.098458e-05	
220	-9.50000e-01	3.136302e-05	
221	-1.00000e+00	3.163023e-05	
222	-1.05000e+00	3.180778e-05	
223	-1.10000e+00	3.192108e-05	
224	-1.15000e+00	3.199326e-05	
225	-1.20000e+00	3.204096e-05	
226	-1.25000e+00	3.207432e-05	
227	-1.30000e+00	3.209913e-05	
228	-1.35000e+00	3.211857e-05	

Index   v-sweep         i(vds)          
--------------------------------------------------------------------------------
229	-1.40000e+00	3.213451e-05	
230	-1.45000e+00	3.214801e-05	
231	-1.50000e+00	3.215975e-05	
232	-1.55000e+00	3.217018e-05	
233	-1.60000e+00	3.217958e-05	
234	-1.65000e+00	3.218816e-05	
235	-1.70000e+00	3.219607e-05	
236	-1.75000e+00	3.220343e-05	
237	-1.80000e+00	3.221031e-05	
238	-1.85000e+00	3.221678e-05	
239	-1.90000e+00	3.222289e-05	
240	-1.95000e+00	3.222869e-05	
241	-2.00000e+00	3.223422e-05	
242	-2.05000e+00	3.223949e-05	
243	-2.10000e+00	3.224454e-05	
244	-2.15000e+00	3.224939e-05	
245	-2.20000e+00	3.225405e-05	
246	-2.25000e+00	3.225854e-05	
247	-2.30000e+00	3.226288e-05	
248	-2.35000e+00	3.226707e-05	
249	-2.40000e+00	3.227113e-05	
250	-2.45000e+00	3.227506e-05	
251	-2.50000e+00	3.227888e-05	
252	-2.55000e+00	3.228259e-05	
253	-2.60000e+00	3.228620e-05	
254	-2.65000e+00	3.228971e-05	
255	-2.70000e+00	3.229314e-05	
256	-2.75000e+00	3.229647e-05	
257	-2.80000e+00	3.229973e-05	
258	-2.85000e+00	3.230292e-05	
259	-2.90000e+00	3.230603e-05	
260	-2.95000e+00	3.230908e-05	
261	-3.00000e+00	3.231207e-05	
262	-3.05000e+00	3.231499e-05	
263	-3.10000e+00	3.231787e-05	
264	-3.15000e+00	3.232069e-05	
265	-3.20000e+00	3.232347e-05	
266	-3.25000e+00	3.232622e-05	
267	-3.30000e+00	3.232894e-05	
268	0.000000e+00	-1.03755e-21	
269	-5.00000e-02	3.724025e-06	
270	-1.00000e-01	7.314471e-06	
271	-1.50000e-01	1.077142e-05	
272	-2.00000e-01	1.409495e-05	
273	-2.50000e-01	1.728515e-05	
274	-3.00000e-01	2.034209e-05	
275	-3.50000e-01	2.326586e-05	
276	-4.00000e-01	2.605655e-05	
277	-4.50000e-01	2.871425e-05	
278	-5.00000e-01	3.123904e-05	
279	-5.50000e-01	3.363103e-05	
280	-6.00000e-01	3.589030e-05	
281	-6.50000e-01	3.801697e-05	
282	-7.00000e-01	4.001116e-05	
283	-7.50000e-01	4.187299e-05	
284	-8.00000e-01	4.360263e-05	
285	-8.50000e-01	4.520024e-05	
286	-9.00000e-01	4.666606e-05	

Index   v-sweep         i(vds)          
--------------------------------------------------------------------------------
287	-9.50000e-01	4.800038e-05	
288	-1.00000e+00	4.920360e-05	
289	-1.05000e+00	5.027629e-05	
290	-1.10000e+00	5.121933e-05	
291	-1.15000e+00	5.203406e-05	
292	-1.20000e+00	5.272267e-05	
293	-1.25000e+00	5.328878e-05	
294	-1.30000e+00	5.373841e-05	
295	-1.35000e+00	5.408121e-05	
296	-1.40000e+00	5.433149e-05	
297	-1.45000e+00	5.450764e-05	
298	-1.50000e+00	5.462943e-05	
299	-1.55000e+00	5.471428e-05	
300	-1.60000e+00	5.477520e-05	
301	-1.65000e+00	5.482081e-05	
302	-1.70000e+00	5.485646e-05	
303	-1.75000e+00	5.488546e-05	
304	-1.80000e+00	5.490983e-05	
305	-1.85000e+00	5.493086e-05	
306	-1.90000e+00	5.494939e-05	
307	-1.95000e+00	5.496599e-05	
308	-2.00000e+00	5.498107e-05	
309	-2.05000e+00	5.499490e-05	
310	-2.10000e+00	5.500770e-05	
311	-2.15000e+00	5.501963e-05	
312	-2.20000e+00	5.503082e-05	
313	-2.25000e+00	5.504136e-05	
314	-2.30000e+00	5.505134e-05	
315	-2.35000e+00	5.506082e-05	
316	-2.40000e+00	5.506985e-05	
317	-2.45000e+00	5.507848e-05	
318	-2.50000e+00	5.508674e-05	
319	-2.55000e+00	5.509468e-05	
320	-2.60000e+00	5.510231e-05	
321	-2.65000e+00	5.510967e-05	
322	-2.70000e+00	5.511677e-05	
323	-2.75000e+00	5.512364e-05	
324	-2.80000e+00	5.513029e-05	
325	-2.85000e+00	5.513673e-05	
326	-2.90000e+00	5.514298e-05	
327	-2.95000e+00	5.514906e-05	
328	-3.00000e+00	5.515496e-05	
329	-3.05000e+00	5.516071e-05	
330	-3.10000e+00	5.516632e-05	
331	-3.15000e+00	5.517178e-05	
332	-3.20000e+00	5.517711e-05	
333	-3.25000e+00	5.518232e-05	
334	-3.30000e+00	5.518741e-05	
335	0.000000e+00	1.150313e-36	
336	-5.00000e-02	4.351835e-06	
337	-1.00000e-01	8.582934e-06	
338	-1.50000e-01	1.269336e-05	
339	-2.00000e-01	1.668319e-05	
340	-2.50000e-01	2.055249e-05	
341	-3.00000e-01	2.430132e-05	
342	-3.50000e-01	2.792976e-05	
343	-4.00000e-01	3.143787e-05	
344	-4.50000e-01	3.482573e-05	

Index   v-sweep         i(vds)          
--------------------------------------------------------------------------------
345	-5.00000e-01	3.809340e-05	
346	-5.50000e-01	4.124095e-05	
347	-6.00000e-01	4.426846e-05	
348	-6.50000e-01	4.717600e-05	
349	-7.00000e-01	4.996365e-05	
350	-7.50000e-01	5.263147e-05	
351	-8.00000e-01	5.517956e-05	
352	-8.50000e-01	5.760799e-05	
353	-9.00000e-01	5.991684e-05	
354	-9.50000e-01	6.210622e-05	
355	-1.00000e+00	6.417621e-05	
356	-1.05000e+00	6.612692e-05	
357	-1.10000e+00	6.795848e-05	
358	-1.15000e+00	6.967101e-05	
359	-1.20000e+00	7.126470e-05	
360	-1.25000e+00	7.273973e-05	
361	-1.30000e+00	7.409635e-05	
362	-1.35000e+00	7.533491e-05	
363	-1.40000e+00	7.645587e-05	
364	-1.45000e+00	7.745986e-05	
365	-1.50000e+00	7.834784e-05	
366	-1.55000e+00	7.912126e-05	
367	-1.60000e+00	7.978236e-05	
368	-1.65000e+00	8.033465e-05	
369	-1.70000e+00	8.078358e-05	
370	-1.75000e+00	8.113736e-05	
371	-1.80000e+00	8.140750e-05	
372	-1.85000e+00	8.160844e-05	
373	-1.90000e+00	8.175586e-05	
374	-1.95000e+00	8.186440e-05	
375	-2.00000e+00	8.194588e-05	
376	-2.05000e+00	8.200889e-05	
377	-2.10000e+00	8.205926e-05	
378	-2.15000e+00	8.210081e-05	
379	-2.20000e+00	8.213605e-05	
380	-2.25000e+00	8.216664e-05	
381	-2.30000e+00	8.219370e-05	
382	-2.35000e+00	8.221800e-05	
383	-2.40000e+00	8.224010e-05	
384	-2.45000e+00	8.226039e-05	
385	-2.50000e+00	8.227918e-05	
386	-2.55000e+00	8.229670e-05	
387	-2.60000e+00	8.231313e-05	
388	-2.65000e+00	8.232862e-05	
389	-2.70000e+00	8.234327e-05	
390	-2.75000e+00	8.235719e-05	
391	-2.80000e+00	8.237045e-05	
392	-2.85000e+00	8.238311e-05	
393	-2.90000e+00	8.239525e-05	
394	-2.95000e+00	8.240689e-05	
395	-3.00000e+00	8.241809e-05	
396	-3.05000e+00	8.242888e-05	
397	-3.10000e+00	8.243930e-05	
398	-3.15000e+00	8.244936e-05	
399	-3.20000e+00	8.245910e-05	
400	-3.25000e+00	8.246854e-05	
401	-3.30000e+00	8.247769e-05	
Note: No ".plot", ".print", or ".fourier" lines; no simulations run
