
Note: Compatibility modes selected: hs

Warning: m=xx on .subckt line will override multiplier m hierarchy!


Circuit: ***************************

Doing analysis at TEMP = 125.000000 and TNOM = 125.000000


No. of Data Rows : 402
                          ***************************
                          DC transfer characteristic  Mon Jan  9 13:58:24  2023
--------------------------------------------------------------------------------
Index   v-sweep         i(vds)          
--------------------------------------------------------------------------------
0	0.000000e+00	1.739953e-24	
1	-5.00000e-02	9.791783e-09	
2	-1.00000e-01	1.470733e-08	
3	-1.50000e-01	1.658605e-08	
4	-2.00000e-01	1.708115e-08	
5	-2.50000e-01	1.721583e-08	
6	-3.00000e-01	1.726611e-08	
7	-3.50000e-01	1.729124e-08	
8	-4.00000e-01	1.730677e-08	
9	-4.50000e-01	1.731785e-08	
10	-5.00000e-01	1.732654e-08	
11	-5.50000e-01	1.733381e-08	
12	-6.00000e-01	1.734015e-08	
13	-6.50000e-01	1.734584e-08	
14	-7.00000e-01	1.735105e-08	
15	-7.50000e-01	1.735589e-08	
16	-8.00000e-01	1.736045e-08	
17	-8.50000e-01	1.736476e-08	
18	-9.00000e-01	1.736888e-08	
19	-9.50000e-01	1.737282e-08	
20	-1.00000e+00	1.737662e-08	
21	-1.05000e+00	1.738028e-08	
22	-1.10000e+00	1.738383e-08	
23	-1.15000e+00	1.738728e-08	
24	-1.20000e+00	1.739063e-08	
25	-1.25000e+00	1.739390e-08	
26	-1.30000e+00	1.739709e-08	
27	-1.35000e+00	1.740021e-08	
28	-1.40000e+00	1.740327e-08	
29	-1.45000e+00	1.740626e-08	
30	-1.50000e+00	1.740920e-08	
31	-1.55000e+00	1.741208e-08	
32	-1.60000e+00	1.741491e-08	
33	-1.65000e+00	1.741770e-08	
34	-1.70000e+00	1.742044e-08	
35	-1.75000e+00	1.742314e-08	
36	-1.80000e+00	1.742580e-08	
37	-1.85000e+00	1.742842e-08	
38	-1.90000e+00	1.743101e-08	
39	-1.95000e+00	1.743357e-08	
40	-2.00000e+00	1.743609e-08	
41	-2.05000e+00	1.743859e-08	
42	-2.10000e+00	1.744106e-08	
43	-2.15000e+00	1.744350e-08	
44	-2.20000e+00	1.744591e-08	
45	-2.25000e+00	1.744830e-08	
46	-2.30000e+00	1.745067e-08	
47	-2.35000e+00	1.745302e-08	
48	-2.40000e+00	1.745536e-08	
49	-2.45000e+00	1.745768e-08	
50	-2.50000e+00	1.746000e-08	
51	-2.55000e+00	1.746231e-08	
52	-2.60000e+00	1.746463e-08	
53	-2.65000e+00	1.746695e-08	
54	-2.70000e+00	1.746930e-08	

Index   v-sweep         i(vds)          
--------------------------------------------------------------------------------
55	-2.75000e+00	1.747169e-08	
56	-2.80000e+00	1.747412e-08	
57	-2.85000e+00	1.747662e-08	
58	-2.90000e+00	1.747921e-08	
59	-2.95000e+00	1.748192e-08	
60	-3.00000e+00	1.748479e-08	
61	-3.05000e+00	1.748785e-08	
62	-3.10000e+00	1.749115e-08	
63	-3.15000e+00	1.749475e-08	
64	-3.20000e+00	1.749871e-08	
65	-3.25000e+00	1.750311e-08	
66	-3.30000e+00	1.750804e-08	
67	0.000000e+00	-1.35369e-23	
68	-5.00000e-02	3.956343e-08	
69	-1.00000e-01	7.325432e-08	
70	-1.50000e-01	1.022823e-07	
71	-2.00000e-01	1.269393e-07	
72	-2.50000e-01	1.473112e-07	
73	-3.00000e-01	1.634565e-07	
74	-3.50000e-01	1.754782e-07	
75	-4.00000e-01	1.836195e-07	
76	-4.50000e-01	1.884339e-07	
77	-5.00000e-01	1.908889e-07	
78	-5.50000e-01	1.920477e-07	
79	-6.00000e-01	1.926191e-07	
80	-6.50000e-01	1.929362e-07	
81	-7.00000e-01	1.931362e-07	
82	-7.50000e-01	1.932771e-07	
83	-8.00000e-01	1.933848e-07	
84	-8.50000e-01	1.934724e-07	
85	-9.00000e-01	1.935469e-07	
86	-9.50000e-01	1.936122e-07	
87	-1.00000e+00	1.936709e-07	
88	-1.05000e+00	1.937244e-07	
89	-1.10000e+00	1.937738e-07	
90	-1.15000e+00	1.938200e-07	
91	-1.20000e+00	1.938634e-07	
92	-1.25000e+00	1.939045e-07	
93	-1.30000e+00	1.939436e-07	
94	-1.35000e+00	1.939809e-07	
95	-1.40000e+00	1.940167e-07	
96	-1.45000e+00	1.940511e-07	
97	-1.50000e+00	1.940842e-07	
98	-1.55000e+00	1.941161e-07	
99	-1.60000e+00	1.941471e-07	
100	-1.65000e+00	1.941770e-07	
101	-1.70000e+00	1.942061e-07	
102	-1.75000e+00	1.942344e-07	
103	-1.80000e+00	1.942619e-07	
104	-1.85000e+00	1.942887e-07	
105	-1.90000e+00	1.943149e-07	
106	-1.95000e+00	1.943404e-07	
107	-2.00000e+00	1.943653e-07	
108	-2.05000e+00	1.943897e-07	
109	-2.10000e+00	1.944136e-07	
110	-2.15000e+00	1.944370e-07	
111	-2.20000e+00	1.944599e-07	
112	-2.25000e+00	1.944824e-07	

Index   v-sweep         i(vds)          
--------------------------------------------------------------------------------
113	-2.30000e+00	1.945044e-07	
114	-2.35000e+00	1.945261e-07	
115	-2.40000e+00	1.945474e-07	
116	-2.45000e+00	1.945683e-07	
117	-2.50000e+00	1.945889e-07	
118	-2.55000e+00	1.946092e-07	
119	-2.60000e+00	1.946292e-07	
120	-2.65000e+00	1.946489e-07	
121	-2.70000e+00	1.946684e-07	
122	-2.75000e+00	1.946878e-07	
123	-2.80000e+00	1.947070e-07	
124	-2.85000e+00	1.947261e-07	
125	-2.90000e+00	1.947453e-07	
126	-2.95000e+00	1.947645e-07	
127	-3.00000e+00	1.947839e-07	
128	-3.05000e+00	1.948037e-07	
129	-3.10000e+00	1.948241e-07	
130	-3.15000e+00	1.948452e-07	
131	-3.20000e+00	1.948674e-07	
132	-3.25000e+00	1.948909e-07	
133	-3.30000e+00	1.949162e-07	
134	0.000000e+00	-3.67638e-23	
135	-5.00000e-02	6.895580e-08	
136	-1.00000e-01	1.320856e-07	
137	-1.50000e-01	1.905905e-07	
138	-2.00000e-01	2.447532e-07	
139	-2.50000e-01	2.946415e-07	
140	-3.00000e-01	3.402735e-07	
141	-3.50000e-01	3.816567e-07	
142	-4.00000e-01	4.187973e-07	
143	-4.50000e-01	4.517040e-07	
144	-5.00000e-01	4.803905e-07	
145	-5.50000e-01	5.048804e-07	
146	-6.00000e-01	5.252164e-07	
147	-6.50000e-01	5.414800e-07	
148	-7.00000e-01	5.538319e-07	
149	-7.50000e-01	5.625840e-07	
150	-8.00000e-01	5.682856e-07	
151	-8.50000e-01	5.717195e-07	
152	-9.00000e-01	5.737098e-07	
153	-9.50000e-01	5.748876e-07	
154	-1.00000e+00	5.756316e-07	
155	-1.05000e+00	5.761413e-07	
156	-1.10000e+00	5.765181e-07	
157	-1.15000e+00	5.768148e-07	
158	-1.20000e+00	5.770601e-07	
159	-1.25000e+00	5.772704e-07	
160	-1.30000e+00	5.774558e-07	
161	-1.35000e+00	5.776225e-07	
162	-1.40000e+00	5.777747e-07	
163	-1.45000e+00	5.779154e-07	
164	-1.50000e+00	5.780466e-07	
165	-1.55000e+00	5.781699e-07	
166	-1.60000e+00	5.782864e-07	
167	-1.65000e+00	5.783970e-07	
168	-1.70000e+00	5.785024e-07	
169	-1.75000e+00	5.786033e-07	
170	-1.80000e+00	5.787000e-07	

Index   v-sweep         i(vds)          
--------------------------------------------------------------------------------
171	-1.85000e+00	5.787930e-07	
172	-1.90000e+00	5.788827e-07	
173	-1.95000e+00	5.789693e-07	
174	-2.00000e+00	5.790531e-07	
175	-2.05000e+00	5.791343e-07	
176	-2.10000e+00	5.792130e-07	
177	-2.15000e+00	5.792895e-07	
178	-2.20000e+00	5.793639e-07	
179	-2.25000e+00	5.794363e-07	
180	-2.30000e+00	5.795069e-07	
181	-2.35000e+00	5.795758e-07	
182	-2.40000e+00	5.796430e-07	
183	-2.45000e+00	5.797086e-07	
184	-2.50000e+00	5.797728e-07	
185	-2.55000e+00	5.798357e-07	
186	-2.60000e+00	5.798972e-07	
187	-2.65000e+00	5.799575e-07	
188	-2.70000e+00	5.800166e-07	
189	-2.75000e+00	5.800745e-07	
190	-2.80000e+00	5.801315e-07	
191	-2.85000e+00	5.801874e-07	
192	-2.90000e+00	5.802424e-07	
193	-2.95000e+00	5.802966e-07	
194	-3.00000e+00	5.803500e-07	
195	-3.05000e+00	5.804027e-07	
196	-3.10000e+00	5.804549e-07	
197	-3.15000e+00	5.805067e-07	
198	-3.20000e+00	5.805583e-07	
199	-3.25000e+00	5.806100e-07	
200	-3.30000e+00	5.806619e-07	
201	0.000000e+00	1.417552e-22	
202	-5.00000e-02	9.696002e-08	
203	-1.00000e-01	1.882478e-07	
204	-1.50000e-01	2.750604e-07	
205	-2.00000e-01	3.576793e-07	
206	-2.50000e-01	4.361714e-07	
207	-3.00000e-01	5.105533e-07	
208	-3.50000e-01	5.808297e-07	
209	-4.00000e-01	6.470029e-07	
210	-4.50000e-01	7.090747e-07	
211	-5.00000e-01	7.670470e-07	
212	-5.50000e-01	8.209222e-07	
213	-6.00000e-01	8.707034e-07	
214	-6.50000e-01	9.163943e-07	
215	-7.00000e-01	9.580006e-07	
216	-7.50000e-01	9.955302e-07	
217	-8.00000e-01	1.028995e-06	
218	-8.50000e-01	1.058413e-06	
219	-9.00000e-01	1.083815e-06	
220	-9.50000e-01	1.105253e-06	
221	-1.00000e+00	1.122814e-06	
222	-1.05000e+00	1.136657e-06	
223	-1.10000e+00	1.147051e-06	
224	-1.15000e+00	1.154431e-06	
225	-1.20000e+00	1.159399e-06	
226	-1.25000e+00	1.162634e-06	
227	-1.30000e+00	1.164743e-06	
228	-1.35000e+00	1.166165e-06	

Index   v-sweep         i(vds)          
--------------------------------------------------------------------------------
229	-1.40000e+00	1.167176e-06	
230	-1.45000e+00	1.167937e-06	
231	-1.50000e+00	1.168542e-06	
232	-1.55000e+00	1.169042e-06	
233	-1.60000e+00	1.169471e-06	
234	-1.65000e+00	1.169848e-06	
235	-1.70000e+00	1.170187e-06	
236	-1.75000e+00	1.170495e-06	
237	-1.80000e+00	1.170779e-06	
238	-1.85000e+00	1.171043e-06	
239	-1.90000e+00	1.171291e-06	
240	-1.95000e+00	1.171525e-06	
241	-2.00000e+00	1.171746e-06	
242	-2.05000e+00	1.171957e-06	
243	-2.10000e+00	1.172159e-06	
244	-2.15000e+00	1.172351e-06	
245	-2.20000e+00	1.172537e-06	
246	-2.25000e+00	1.172715e-06	
247	-2.30000e+00	1.172887e-06	
248	-2.35000e+00	1.173053e-06	
249	-2.40000e+00	1.173214e-06	
250	-2.45000e+00	1.173369e-06	
251	-2.50000e+00	1.173520e-06	
252	-2.55000e+00	1.173667e-06	
253	-2.60000e+00	1.173810e-06	
254	-2.65000e+00	1.173949e-06	
255	-2.70000e+00	1.174084e-06	
256	-2.75000e+00	1.174216e-06	
257	-2.80000e+00	1.174345e-06	
258	-2.85000e+00	1.174471e-06	
259	-2.90000e+00	1.174594e-06	
260	-2.95000e+00	1.174714e-06	
261	-3.00000e+00	1.174832e-06	
262	-3.05000e+00	1.174948e-06	
263	-3.10000e+00	1.175061e-06	
264	-3.15000e+00	1.175172e-06	
265	-3.20000e+00	1.175281e-06	
266	-3.25000e+00	1.175388e-06	
267	-3.30000e+00	1.175493e-06	
268	0.000000e+00	-1.19837e-22	
269	-5.00000e-02	1.237763e-07	
270	-1.00000e-01	2.420551e-07	
271	-1.50000e-01	3.560299e-07	
272	-2.00000e-01	4.659819e-07	
273	-2.50000e-01	5.719778e-07	
274	-3.00000e-01	6.740338e-07	
275	-3.50000e-01	7.721546e-07	
276	-4.00000e-01	8.663420e-07	
277	-4.50000e-01	9.565971e-07	
278	-5.00000e-01	1.042921e-06	
279	-5.50000e-01	1.125315e-06	
280	-6.00000e-01	1.203780e-06	
281	-6.50000e-01	1.278317e-06	
282	-7.00000e-01	1.348928e-06	
283	-7.50000e-01	1.415614e-06	
284	-8.00000e-01	1.478378e-06	
285	-8.50000e-01	1.537221e-06	
286	-9.00000e-01	1.592146e-06	

Index   v-sweep         i(vds)          
--------------------------------------------------------------------------------
287	-9.50000e-01	1.643157e-06	
288	-1.00000e+00	1.690257e-06	
289	-1.05000e+00	1.733454e-06	
290	-1.10000e+00	1.772756e-06	
291	-1.15000e+00	1.808175e-06	
292	-1.20000e+00	1.839729e-06	
293	-1.25000e+00	1.867447e-06	
294	-1.30000e+00	1.891374e-06	
295	-1.35000e+00	1.911581e-06	
296	-1.40000e+00	1.928189e-06	
297	-1.45000e+00	1.941388e-06	
298	-1.50000e+00	1.951479e-06	
299	-1.55000e+00	1.958887e-06	
300	-1.60000e+00	1.964149e-06	
301	-1.65000e+00	1.967827e-06	
302	-1.70000e+00	1.970419e-06	
303	-1.75000e+00	1.972297e-06	
304	-1.80000e+00	1.973715e-06	
305	-1.85000e+00	1.974832e-06	
306	-1.90000e+00	1.975748e-06	
307	-1.95000e+00	1.976525e-06	
308	-2.00000e+00	1.977201e-06	
309	-2.05000e+00	1.977802e-06	
310	-2.10000e+00	1.978346e-06	
311	-2.15000e+00	1.978844e-06	
312	-2.20000e+00	1.979305e-06	
313	-2.25000e+00	1.979736e-06	
314	-2.30000e+00	1.980140e-06	
315	-2.35000e+00	1.980522e-06	
316	-2.40000e+00	1.980884e-06	
317	-2.45000e+00	1.981230e-06	
318	-2.50000e+00	1.981560e-06	
319	-2.55000e+00	1.981876e-06	
320	-2.60000e+00	1.982179e-06	
321	-2.65000e+00	1.982472e-06	
322	-2.70000e+00	1.982754e-06	
323	-2.75000e+00	1.983026e-06	
324	-2.80000e+00	1.983290e-06	
325	-2.85000e+00	1.983546e-06	
326	-2.90000e+00	1.983793e-06	
327	-2.95000e+00	1.984034e-06	
328	-3.00000e+00	1.984268e-06	
329	-3.05000e+00	1.984496e-06	
330	-3.10000e+00	1.984718e-06	
331	-3.15000e+00	1.984935e-06	
332	-3.20000e+00	1.985146e-06	
333	-3.25000e+00	1.985352e-06	
334	-3.30000e+00	1.985554e-06	
335	0.000000e+00	2.179134e-22	
336	-5.00000e-02	1.496341e-07	
337	-1.00000e-01	2.939453e-07	
338	-1.50000e-01	4.341240e-07	
339	-2.00000e-01	5.704510e-07	
340	-2.50000e-01	7.029929e-07	
341	-3.00000e-01	8.317661e-07	
342	-3.50000e-01	9.567751e-07	
343	-4.00000e-01	1.078022e-06	
344	-4.50000e-01	1.195507e-06	

Index   v-sweep         i(vds)          
--------------------------------------------------------------------------------
345	-5.00000e-01	1.309232e-06	
346	-5.50000e-01	1.419197e-06	
347	-6.00000e-01	1.525404e-06	
348	-6.50000e-01	1.627854e-06	
349	-7.00000e-01	1.726546e-06	
350	-7.50000e-01	1.821484e-06	
351	-8.00000e-01	1.912666e-06	
352	-8.50000e-01	2.000095e-06	
353	-9.00000e-01	2.083772e-06	
354	-9.50000e-01	2.163697e-06	
355	-1.00000e+00	2.239873e-06	
356	-1.05000e+00	2.312301e-06	
357	-1.10000e+00	2.380982e-06	
358	-1.15000e+00	2.445918e-06	
359	-1.20000e+00	2.507112e-06	
360	-1.25000e+00	2.564566e-06	
361	-1.30000e+00	2.618284e-06	
362	-1.35000e+00	2.668269e-06	
363	-1.40000e+00	2.714529e-06	
364	-1.45000e+00	2.757069e-06	
365	-1.50000e+00	2.795901e-06	
366	-1.55000e+00	2.831039e-06	
367	-1.60000e+00	2.862505e-06	
368	-1.65000e+00	2.890331e-06	
369	-1.70000e+00	2.914566e-06	
370	-1.75000e+00	2.935284e-06	
371	-1.80000e+00	2.952603e-06	
372	-1.85000e+00	2.966701e-06	
373	-1.90000e+00	2.977840e-06	
374	-1.95000e+00	2.986381e-06	
375	-2.00000e+00	2.992770e-06	
376	-2.05000e+00	2.997488e-06	
377	-2.10000e+00	3.000982e-06	
378	-2.15000e+00	3.003620e-06	
379	-2.20000e+00	3.005671e-06	
380	-2.25000e+00	3.007319e-06	
381	-2.30000e+00	3.008686e-06	
382	-2.35000e+00	3.009854e-06	
383	-2.40000e+00	3.010876e-06	
384	-2.45000e+00	3.011786e-06	
385	-2.50000e+00	3.012610e-06	
386	-2.55000e+00	3.013366e-06	
387	-2.60000e+00	3.014065e-06	
388	-2.65000e+00	3.014718e-06	
389	-2.70000e+00	3.015331e-06	
390	-2.75000e+00	3.015909e-06	
391	-2.80000e+00	3.016458e-06	
392	-2.85000e+00	3.016981e-06	
393	-2.90000e+00	3.017480e-06	
394	-2.95000e+00	3.017958e-06	
395	-3.00000e+00	3.018417e-06	
396	-3.05000e+00	3.018859e-06	
397	-3.10000e+00	3.019285e-06	
398	-3.15000e+00	3.019696e-06	
399	-3.20000e+00	3.020094e-06	
400	-3.25000e+00	3.020479e-06	
401	-3.30000e+00	3.020853e-06	
Note: No ".plot", ".print", or ".fourier" lines; no simulations run
