
Note: Compatibility modes selected: hs

Warning: m=xx on .subckt line will override multiplier m hierarchy!


Circuit: ***************************

Doing analysis at TEMP = 25.000000 and TNOM = 25.000000


No. of Data Rows : 402
                          ***************************
                          DC transfer characteristic  Mon Jan  9 13:58:23  2023
--------------------------------------------------------------------------------
Index   v-sweep         i(vds)          
--------------------------------------------------------------------------------
0	0.000000e+00	-1.02505e-24	
1	-5.00000e-02	1.055445e-06	
2	-1.00000e-01	1.327940e-06	
3	-1.50000e-01	1.378223e-06	
4	-2.00000e-01	1.396873e-06	
5	-2.50000e-01	1.408917e-06	
6	-3.00000e-01	1.418615e-06	
7	-3.50000e-01	1.427128e-06	
8	-4.00000e-01	1.434899e-06	
9	-4.50000e-01	1.442144e-06	
10	-5.00000e-01	1.448985e-06	
11	-5.50000e-01	1.455499e-06	
12	-6.00000e-01	1.461742e-06	
13	-6.50000e-01	1.467755e-06	
14	-7.00000e-01	1.473567e-06	
15	-7.50000e-01	1.479205e-06	
16	-8.00000e-01	1.484688e-06	
17	-8.50000e-01	1.490033e-06	
18	-9.00000e-01	1.495254e-06	
19	-9.50000e-01	1.500362e-06	
20	-1.00000e+00	1.505369e-06	
21	-1.05000e+00	1.510284e-06	
22	-1.10000e+00	1.515113e-06	
23	-1.15000e+00	1.519864e-06	
24	-1.20000e+00	1.524544e-06	
25	-1.25000e+00	1.529157e-06	
26	-1.30000e+00	1.533708e-06	
27	-1.35000e+00	1.538202e-06	
28	-1.40000e+00	1.542642e-06	
29	-1.45000e+00	1.547033e-06	
30	-1.50000e+00	1.551377e-06	
31	-1.55000e+00	1.555677e-06	
32	-1.60000e+00	1.559937e-06	
33	-1.65000e+00	1.564158e-06	
34	-1.70000e+00	1.568343e-06	
35	-1.75000e+00	1.572494e-06	
36	-1.80000e+00	1.576613e-06	
37	-1.85000e+00	1.580701e-06	
38	-1.90000e+00	1.584761e-06	
39	-1.95000e+00	1.588794e-06	
40	-2.00000e+00	1.592802e-06	
41	-2.05000e+00	1.596786e-06	
42	-2.10000e+00	1.600748e-06	
43	-2.15000e+00	1.604689e-06	
44	-2.20000e+00	1.608611e-06	
45	-2.25000e+00	1.612516e-06	
46	-2.30000e+00	1.616405e-06	
47	-2.35000e+00	1.620280e-06	
48	-2.40000e+00	1.624145e-06	
49	-2.45000e+00	1.628000e-06	
50	-2.50000e+00	1.631850e-06	
51	-2.55000e+00	1.635697e-06	
52	-2.60000e+00	1.639544e-06	
53	-2.65000e+00	1.643397e-06	
54	-2.70000e+00	1.647259e-06	

Index   v-sweep         i(vds)          
--------------------------------------------------------------------------------
55	-2.75000e+00	1.651135e-06	
56	-2.80000e+00	1.655033e-06	
57	-2.85000e+00	1.658958e-06	
58	-2.90000e+00	1.662918e-06	
59	-2.95000e+00	1.666921e-06	
60	-3.00000e+00	1.670977e-06	
61	-3.05000e+00	1.675097e-06	
62	-3.10000e+00	1.679291e-06	
63	-3.15000e+00	1.683572e-06	
64	-3.20000e+00	1.687954e-06	
65	-3.25000e+00	1.692452e-06	
66	-3.30000e+00	1.697083e-06	
67	0.000000e+00	-1.74994e-29	
68	-5.00000e-02	1.825503e-05	
69	-1.00000e-01	3.430872e-05	
70	-1.50000e-01	4.818123e-05	
71	-2.00000e-01	5.989536e-05	
72	-2.50000e-01	6.947997e-05	
73	-3.00000e-01	7.697885e-05	
74	-3.50000e-01	8.247465e-05	
75	-4.00000e-01	8.614734e-05	
76	-4.50000e-01	8.836290e-05	
77	-5.00000e-01	8.964853e-05	
78	-5.50000e-01	9.046017e-05	
79	-6.00000e-01	9.104813e-05	
80	-6.50000e-01	9.152152e-05	
81	-7.00000e-01	9.192737e-05	
82	-7.50000e-01	9.228810e-05	
83	-8.00000e-01	9.261576e-05	
84	-8.50000e-01	9.291766e-05	
85	-9.00000e-01	9.319862e-05	
86	-9.50000e-01	9.346203e-05	
87	-1.00000e+00	9.371046e-05	
88	-1.05000e+00	9.394587e-05	
89	-1.10000e+00	9.416984e-05	
90	-1.15000e+00	9.438364e-05	
91	-1.20000e+00	9.458835e-05	
92	-1.25000e+00	9.478486e-05	
93	-1.30000e+00	9.497394e-05	
94	-1.35000e+00	9.515625e-05	
95	-1.40000e+00	9.533235e-05	
96	-1.45000e+00	9.550276e-05	
97	-1.50000e+00	9.566791e-05	
98	-1.55000e+00	9.582819e-05	
99	-1.60000e+00	9.598396e-05	
100	-1.65000e+00	9.613552e-05	
101	-1.70000e+00	9.628316e-05	
102	-1.75000e+00	9.642713e-05	
103	-1.80000e+00	9.656765e-05	
104	-1.85000e+00	9.670495e-05	
105	-1.90000e+00	9.683919e-05	
106	-1.95000e+00	9.697057e-05	
107	-2.00000e+00	9.709924e-05	
108	-2.05000e+00	9.722534e-05	
109	-2.10000e+00	9.734901e-05	
110	-2.15000e+00	9.747039e-05	
111	-2.20000e+00	9.758958e-05	
112	-2.25000e+00	9.770669e-05	

Index   v-sweep         i(vds)          
--------------------------------------------------------------------------------
113	-2.30000e+00	9.782183e-05	
114	-2.35000e+00	9.793511e-05	
115	-2.40000e+00	9.804662e-05	
116	-2.45000e+00	9.815645e-05	
117	-2.50000e+00	9.826470e-05	
118	-2.55000e+00	9.837148e-05	
119	-2.60000e+00	9.847688e-05	
120	-2.65000e+00	9.858102e-05	
121	-2.70000e+00	9.868401e-05	
122	-2.75000e+00	9.878598e-05	
123	-2.80000e+00	9.888708e-05	
124	-2.85000e+00	9.898747e-05	
125	-2.90000e+00	9.908734e-05	
126	-2.95000e+00	9.918688e-05	
127	-3.00000e+00	9.928633e-05	
128	-3.05000e+00	9.938596e-05	
129	-3.10000e+00	9.948607e-05	
130	-3.15000e+00	9.958698e-05	
131	-3.20000e+00	9.968908e-05	
132	-3.25000e+00	9.979279e-05	
133	-3.30000e+00	9.989859e-05	
134	0.000000e+00	1.005326e-29	
135	-5.00000e-02	3.374121e-05	
136	-1.00000e-01	6.538384e-05	
137	-1.50000e-01	9.494140e-05	
138	-2.00000e-01	1.224275e-04	
139	-2.50000e-01	1.478557e-04	
140	-3.00000e-01	1.712400e-04	
141	-3.50000e-01	1.925947e-04	
142	-4.00000e-01	2.119344e-04	
143	-4.50000e-01	2.292750e-04	
144	-5.00000e-01	2.446338e-04	
145	-5.50000e-01	2.580318e-04	
146	-6.00000e-01	2.694956e-04	
147	-6.50000e-01	2.790648e-04	
148	-7.00000e-01	2.868037e-04	
149	-7.50000e-01	2.928264e-04	
150	-8.00000e-01	2.973313e-04	
151	-8.50000e-01	3.006204e-04	
152	-9.00000e-01	3.030491e-04	
153	-9.50000e-01	3.049265e-04	
154	-1.00000e+00	3.064606e-04	
155	-1.05000e+00	3.077727e-04	
156	-1.10000e+00	3.089313e-04	
157	-1.15000e+00	3.099765e-04	
158	-1.20000e+00	3.109334e-04	
159	-1.25000e+00	3.118186e-04	
160	-1.30000e+00	3.126441e-04	
161	-1.35000e+00	3.134188e-04	
162	-1.40000e+00	3.141494e-04	
163	-1.45000e+00	3.148414e-04	
164	-1.50000e+00	3.154991e-04	
165	-1.55000e+00	3.161263e-04	
166	-1.60000e+00	3.167259e-04	
167	-1.65000e+00	3.173006e-04	
168	-1.70000e+00	3.178526e-04	
169	-1.75000e+00	3.183839e-04	
170	-1.80000e+00	3.188962e-04	

Index   v-sweep         i(vds)          
--------------------------------------------------------------------------------
171	-1.85000e+00	3.193909e-04	
172	-1.90000e+00	3.198693e-04	
173	-1.95000e+00	3.203327e-04	
174	-2.00000e+00	3.207821e-04	
175	-2.05000e+00	3.212185e-04	
176	-2.10000e+00	3.216426e-04	
177	-2.15000e+00	3.220552e-04	
178	-2.20000e+00	3.224571e-04	
179	-2.25000e+00	3.228489e-04	
180	-2.30000e+00	3.232311e-04	
181	-2.35000e+00	3.236044e-04	
182	-2.40000e+00	3.239691e-04	
183	-2.45000e+00	3.243257e-04	
184	-2.50000e+00	3.246747e-04	
185	-2.55000e+00	3.250165e-04	
186	-2.60000e+00	3.253514e-04	
187	-2.65000e+00	3.256797e-04	
188	-2.70000e+00	3.260018e-04	
189	-2.75000e+00	3.263180e-04	
190	-2.80000e+00	3.266286e-04	
191	-2.85000e+00	3.269339e-04	
192	-2.90000e+00	3.272342e-04	
193	-2.95000e+00	3.275299e-04	
194	-3.00000e+00	3.278213e-04	
195	-3.05000e+00	3.281087e-04	
196	-3.10000e+00	3.283925e-04	
197	-3.15000e+00	3.286732e-04	
198	-3.20000e+00	3.289513e-04	
199	-3.25000e+00	3.292273e-04	
200	-3.30000e+00	3.295018e-04	
201	0.000000e+00	-2.04469e-29	
202	-5.00000e-02	4.604894e-05	
203	-1.00000e-01	9.016229e-05	
204	-1.50000e-01	1.323505e-04	
205	-2.00000e-01	1.726240e-04	
206	-2.50000e-01	2.109934e-04	
207	-3.00000e-01	2.474690e-04	
208	-3.50000e-01	2.820614e-04	
209	-4.00000e-01	3.147812e-04	
210	-4.50000e-01	3.456389e-04	
211	-5.00000e-01	3.746453e-04	
212	-5.50000e-01	4.018110e-04	
213	-6.00000e-01	4.271470e-04	
214	-6.50000e-01	4.506646e-04	
215	-7.00000e-01	4.723753e-04	
216	-7.50000e-01	4.922914e-04	
217	-8.00000e-01	5.104261e-04	
218	-8.50000e-01	5.267942e-04	
219	-9.00000e-01	5.414136e-04	
220	-9.50000e-01	5.543068e-04	
221	-1.00000e+00	5.655057e-04	
222	-1.05000e+00	5.750578e-04	
223	-1.10000e+00	5.830392e-04	
224	-1.15000e+00	5.895717e-04	
225	-1.20000e+00	5.948380e-04	
226	-1.25000e+00	5.990757e-04	
227	-1.30000e+00	6.025379e-04	
228	-1.35000e+00	6.054436e-04	

Index   v-sweep         i(vds)          
--------------------------------------------------------------------------------
229	-1.40000e+00	6.079532e-04	
230	-1.45000e+00	6.101741e-04	
231	-1.50000e+00	6.121762e-04	
232	-1.55000e+00	6.140061e-04	
233	-1.60000e+00	6.156959e-04	
234	-1.65000e+00	6.172686e-04	
235	-1.70000e+00	6.187416e-04	
236	-1.75000e+00	6.201283e-04	
237	-1.80000e+00	6.214393e-04	
238	-1.85000e+00	6.226834e-04	
239	-1.90000e+00	6.238676e-04	
240	-1.95000e+00	6.249980e-04	
241	-2.00000e+00	6.260798e-04	
242	-2.05000e+00	6.271172e-04	
243	-2.10000e+00	6.281142e-04	
244	-2.15000e+00	6.290740e-04	
245	-2.20000e+00	6.299996e-04	
246	-2.25000e+00	6.308935e-04	
247	-2.30000e+00	6.317581e-04	
248	-2.35000e+00	6.325954e-04	
249	-2.40000e+00	6.334072e-04	
250	-2.45000e+00	6.341952e-04	
251	-2.50000e+00	6.349609e-04	
252	-2.55000e+00	6.357057e-04	
253	-2.60000e+00	6.364308e-04	
254	-2.65000e+00	6.371374e-04	
255	-2.70000e+00	6.378264e-04	
256	-2.75000e+00	6.384989e-04	
257	-2.80000e+00	6.391556e-04	
258	-2.85000e+00	6.397975e-04	
259	-2.90000e+00	6.404253e-04	
260	-2.95000e+00	6.410397e-04	
261	-3.00000e+00	6.416413e-04	
262	-3.05000e+00	6.422309e-04	
263	-3.10000e+00	6.428089e-04	
264	-3.15000e+00	6.433760e-04	
265	-3.20000e+00	6.439327e-04	
266	-3.25000e+00	6.444797e-04	
267	-3.30000e+00	6.450175e-04	
268	0.000000e+00	9.741012e-30	
269	-5.00000e-02	5.588659e-05	
270	-1.00000e-01	1.099994e-04	
271	-1.50000e-01	1.623467e-04	
272	-2.00000e-01	2.129368e-04	
273	-2.50000e-01	2.617782e-04	
274	-3.00000e-01	3.088791e-04	
275	-3.50000e-01	3.542480e-04	
276	-4.00000e-01	3.978931e-04	
277	-4.50000e-01	4.398228e-04	
278	-5.00000e-01	4.800456e-04	
279	-5.50000e-01	5.185698e-04	
280	-6.00000e-01	5.554038e-04	
281	-6.50000e-01	5.905561e-04	
282	-7.00000e-01	6.240351e-04	
283	-7.50000e-01	6.558493e-04	
284	-8.00000e-01	6.860073e-04	
285	-8.50000e-01	7.145177e-04	
286	-9.00000e-01	7.413894e-04	

Index   v-sweep         i(vds)          
--------------------------------------------------------------------------------
287	-9.50000e-01	7.666312e-04	
288	-1.00000e+00	7.902524e-04	
289	-1.05000e+00	8.122625e-04	
290	-1.10000e+00	8.326717e-04	
291	-1.15000e+00	8.514911e-04	
292	-1.20000e+00	8.687330e-04	
293	-1.25000e+00	8.844121e-04	
294	-1.30000e+00	8.985468e-04	
295	-1.35000e+00	9.111615e-04	
296	-1.40000e+00	9.222910e-04	
297	-1.45000e+00	9.319871e-04	
298	-1.50000e+00	9.403281e-04	
299	-1.55000e+00	9.474292e-04	
300	-1.60000e+00	9.534462e-04	
301	-1.65000e+00	9.585636e-04	
302	-1.70000e+00	9.629687e-04	
303	-1.75000e+00	9.668241e-04	
304	-1.80000e+00	9.702561e-04	
305	-1.85000e+00	9.733569e-04	
306	-1.90000e+00	9.761924e-04	
307	-1.95000e+00	9.788099e-04	
308	-2.00000e+00	9.812447e-04	
309	-2.05000e+00	9.835234e-04	
310	-2.10000e+00	9.856669e-04	
311	-2.15000e+00	9.876917e-04	
312	-2.20000e+00	9.896114e-04	
313	-2.25000e+00	9.914373e-04	
314	-2.30000e+00	9.931788e-04	
315	-2.35000e+00	9.948440e-04	
316	-2.40000e+00	9.964397e-04	
317	-2.45000e+00	9.979719e-04	
318	-2.50000e+00	9.994459e-04	
319	-2.55000e+00	1.000866e-03	
320	-2.60000e+00	1.002237e-03	
321	-2.65000e+00	1.003561e-03	
322	-2.70000e+00	1.004843e-03	
323	-2.75000e+00	1.006085e-03	
324	-2.80000e+00	1.007290e-03	
325	-2.85000e+00	1.008460e-03	
326	-2.90000e+00	1.009597e-03	
327	-2.95000e+00	1.010703e-03	
328	-3.00000e+00	1.011780e-03	
329	-3.05000e+00	1.012829e-03	
330	-3.10000e+00	1.013853e-03	
331	-3.15000e+00	1.014852e-03	
332	-3.20000e+00	1.015828e-03	
333	-3.25000e+00	1.016781e-03	
334	-3.30000e+00	1.017714e-03	
335	0.000000e+00	-1.22013e-29	
336	-5.00000e-02	6.380270e-05	
337	-1.00000e-01	1.259809e-04	
338	-1.50000e-01	1.865414e-04	
339	-2.00000e-01	2.454909e-04	
340	-2.50000e-01	3.028361e-04	
341	-3.00000e-01	3.585840e-04	
342	-3.50000e-01	4.127412e-04	
343	-4.00000e-01	4.653146e-04	
344	-4.50000e-01	5.163110e-04	

Index   v-sweep         i(vds)          
--------------------------------------------------------------------------------
345	-5.00000e-01	5.657371e-04	
346	-5.50000e-01	6.135997e-04	
347	-6.00000e-01	6.599057e-04	
348	-6.50000e-01	7.046619e-04	
349	-7.00000e-01	7.478752e-04	
350	-7.50000e-01	7.895522e-04	
351	-8.00000e-01	8.297000e-04	
352	-8.50000e-01	8.683253e-04	
353	-9.00000e-01	9.054350e-04	
354	-9.50000e-01	9.410360e-04	
355	-1.00000e+00	9.751352e-04	
356	-1.05000e+00	1.007740e-03	
357	-1.10000e+00	1.038856e-03	
358	-1.15000e+00	1.068492e-03	
359	-1.20000e+00	1.096654e-03	
360	-1.25000e+00	1.123350e-03	
361	-1.30000e+00	1.148586e-03	
362	-1.35000e+00	1.172371e-03	
363	-1.40000e+00	1.194713e-03	
364	-1.45000e+00	1.215620e-03	
365	-1.50000e+00	1.235101e-03	
366	-1.55000e+00	1.253166e-03	
367	-1.60000e+00	1.269827e-03	
368	-1.65000e+00	1.285099e-03	
369	-1.70000e+00	1.299000e-03	
370	-1.75000e+00	1.311555e-03	
371	-1.80000e+00	1.322799e-03	
372	-1.85000e+00	1.332784e-03	
373	-1.90000e+00	1.341583e-03	
374	-1.95000e+00	1.349297e-03	
375	-2.00000e+00	1.356053e-03	
376	-2.05000e+00	1.361997e-03	
377	-2.10000e+00	1.367271e-03	
378	-2.15000e+00	1.372001e-03	
379	-2.20000e+00	1.376290e-03	
380	-2.25000e+00	1.380219e-03	
381	-2.30000e+00	1.383847e-03	
382	-2.35000e+00	1.387223e-03	
383	-2.40000e+00	1.390381e-03	
384	-2.45000e+00	1.393350e-03	
385	-2.50000e+00	1.396154e-03	
386	-2.55000e+00	1.398811e-03	
387	-2.60000e+00	1.401337e-03	
388	-2.65000e+00	1.403745e-03	
389	-2.70000e+00	1.406046e-03	
390	-2.75000e+00	1.408250e-03	
391	-2.80000e+00	1.410365e-03	
392	-2.85000e+00	1.412398e-03	
393	-2.90000e+00	1.414357e-03	
394	-2.95000e+00	1.416246e-03	
395	-3.00000e+00	1.418071e-03	
396	-3.05000e+00	1.419836e-03	
397	-3.10000e+00	1.421545e-03	
398	-3.15000e+00	1.423202e-03	
399	-3.20000e+00	1.424811e-03	
400	-3.25000e+00	1.426373e-03	
401	-3.30000e+00	1.427892e-03	
Note: No ".plot", ".print", or ".fourier" lines; no simulations run
