
Note: Compatibility modes selected: hs

Warning: m=xx on .subckt line will override multiplier m hierarchy!


Circuit: ***************************

Doing analysis at TEMP = 125.000000 and TNOM = 125.000000


No. of Data Rows : 402
                          ***************************
                          DC transfer characteristic  Mon Jan  9 13:58:24  2023
--------------------------------------------------------------------------------
Index   v-sweep         i(vds)          
--------------------------------------------------------------------------------
0	0.000000e+00	-2.36128e-21	
1	-5.00000e-02	3.414326e-06	
2	-1.00000e-01	5.529066e-06	
3	-1.50000e-01	6.550148e-06	
4	-2.00000e-01	6.900772e-06	
5	-2.50000e-01	7.021143e-06	
6	-3.00000e-01	7.082681e-06	
7	-3.50000e-01	7.125994e-06	
8	-4.00000e-01	7.161586e-06	
9	-4.50000e-01	7.192961e-06	
10	-5.00000e-01	7.221594e-06	
11	-5.50000e-01	7.248231e-06	
12	-6.00000e-01	7.273308e-06	
13	-6.50000e-01	7.297107e-06	
14	-7.00000e-01	7.319827e-06	
15	-7.50000e-01	7.341616e-06	
16	-8.00000e-01	7.362590e-06	
17	-8.50000e-01	7.382840e-06	
18	-9.00000e-01	7.402443e-06	
19	-9.50000e-01	7.421463e-06	
20	-1.00000e+00	7.439952e-06	
21	-1.05000e+00	7.457958e-06	
22	-1.10000e+00	7.475521e-06	
23	-1.15000e+00	7.492676e-06	
24	-1.20000e+00	7.509455e-06	
25	-1.25000e+00	7.525884e-06	
26	-1.30000e+00	7.541989e-06	
27	-1.35000e+00	7.557792e-06	
28	-1.40000e+00	7.573313e-06	
29	-1.45000e+00	7.588569e-06	
30	-1.50000e+00	7.603578e-06	
31	-1.55000e+00	7.618353e-06	
32	-1.60000e+00	7.632908e-06	
33	-1.65000e+00	7.647257e-06	
34	-1.70000e+00	7.661410e-06	
35	-1.75000e+00	7.675378e-06	
36	-1.80000e+00	7.689170e-06	
37	-1.85000e+00	7.702796e-06	
38	-1.90000e+00	7.716265e-06	
39	-1.95000e+00	7.729584e-06	
40	-2.00000e+00	7.742761e-06	
41	-2.05000e+00	7.755803e-06	
42	-2.10000e+00	7.768717e-06	
43	-2.15000e+00	7.781510e-06	
44	-2.20000e+00	7.794189e-06	
45	-2.25000e+00	7.806762e-06	
46	-2.30000e+00	7.819236e-06	
47	-2.35000e+00	7.831619e-06	
48	-2.40000e+00	7.843919e-06	
49	-2.45000e+00	7.856147e-06	
50	-2.50000e+00	7.868312e-06	
51	-2.55000e+00	7.880427e-06	
52	-2.60000e+00	7.892505e-06	
53	-2.65000e+00	7.904561e-06	
54	-2.70000e+00	7.916614e-06	

Index   v-sweep         i(vds)          
--------------------------------------------------------------------------------
55	-2.75000e+00	7.928683e-06	
56	-2.80000e+00	7.940789e-06	
57	-2.85000e+00	7.952960e-06	
58	-2.90000e+00	7.965222e-06	
59	-2.95000e+00	7.977610e-06	
60	-3.00000e+00	7.990157e-06	
61	-3.05000e+00	8.002906e-06	
62	-3.10000e+00	8.015900e-06	
63	-3.15000e+00	8.029189e-06	
64	-3.20000e+00	8.042827e-06	
65	-3.25000e+00	8.056874e-06	
66	-3.30000e+00	8.071395e-06	
67	0.000000e+00	-4.74721e-24	
68	-5.00000e-02	1.673161e-05	
69	-1.00000e-01	3.179812e-05	
70	-1.50000e-01	4.526303e-05	
71	-2.00000e-01	5.714992e-05	
72	-2.50000e-01	6.747385e-05	
73	-3.00000e-01	7.625001e-05	
74	-3.50000e-01	8.349820e-05	
75	-4.00000e-01	8.924996e-05	
76	-4.50000e-01	9.356487e-05	
77	-5.00000e-01	9.656598e-05	
78	-5.50000e-01	9.848944e-05	
79	-6.00000e-01	9.967689e-05	
80	-6.50000e-01	1.004516e-04	
81	-7.00000e-01	1.010169e-04	
82	-7.50000e-01	1.014724e-04	
83	-8.00000e-01	1.018637e-04	
84	-8.50000e-01	1.022129e-04	
85	-9.00000e-01	1.025316e-04	
86	-9.50000e-01	1.028269e-04	
87	-1.00000e+00	1.031030e-04	
88	-1.05000e+00	1.033630e-04	
89	-1.10000e+00	1.036094e-04	
90	-1.15000e+00	1.038437e-04	
91	-1.20000e+00	1.040674e-04	
92	-1.25000e+00	1.042816e-04	
93	-1.30000e+00	1.044873e-04	
94	-1.35000e+00	1.046851e-04	
95	-1.40000e+00	1.048760e-04	
96	-1.45000e+00	1.050603e-04	
97	-1.50000e+00	1.052387e-04	
98	-1.55000e+00	1.054115e-04	
99	-1.60000e+00	1.055792e-04	
100	-1.65000e+00	1.057422e-04	
101	-1.70000e+00	1.059008e-04	
102	-1.75000e+00	1.060552e-04	
103	-1.80000e+00	1.062057e-04	
104	-1.85000e+00	1.063526e-04	
105	-1.90000e+00	1.064961e-04	
106	-1.95000e+00	1.066363e-04	
107	-2.00000e+00	1.067735e-04	
108	-2.05000e+00	1.069077e-04	
109	-2.10000e+00	1.070393e-04	
110	-2.15000e+00	1.071682e-04	
111	-2.20000e+00	1.072947e-04	
112	-2.25000e+00	1.074189e-04	

Index   v-sweep         i(vds)          
--------------------------------------------------------------------------------
113	-2.30000e+00	1.075408e-04	
114	-2.35000e+00	1.076606e-04	
115	-2.40000e+00	1.077784e-04	
116	-2.45000e+00	1.078943e-04	
117	-2.50000e+00	1.080084e-04	
118	-2.55000e+00	1.081207e-04	
119	-2.60000e+00	1.082314e-04	
120	-2.65000e+00	1.083406e-04	
121	-2.70000e+00	1.084484e-04	
122	-2.75000e+00	1.085549e-04	
123	-2.80000e+00	1.086602e-04	
124	-2.85000e+00	1.087644e-04	
125	-2.90000e+00	1.088677e-04	
126	-2.95000e+00	1.089703e-04	
127	-3.00000e+00	1.090724e-04	
128	-3.05000e+00	1.091741e-04	
129	-3.10000e+00	1.092758e-04	
130	-3.15000e+00	1.093776e-04	
131	-3.20000e+00	1.094800e-04	
132	-3.25000e+00	1.095833e-04	
133	-3.30000e+00	1.096879e-04	
134	0.000000e+00	-3.31036e-24	
135	-5.00000e-02	2.805552e-05	
136	-1.00000e-01	5.452099e-05	
137	-1.50000e-01	7.945601e-05	
138	-2.00000e-01	1.028806e-04	
139	-2.50000e-01	1.248054e-04	
140	-3.00000e-01	1.452387e-04	
141	-3.50000e-01	1.641883e-04	
142	-4.00000e-01	1.816623e-04	
143	-4.50000e-01	1.976687e-04	
144	-5.00000e-01	2.122163e-04	
145	-5.50000e-01	2.253144e-04	
146	-6.00000e-01	2.369737e-04	
147	-6.50000e-01	2.472074e-04	
148	-7.00000e-01	2.560330e-04	
149	-7.50000e-01	2.634763e-04	
150	-8.00000e-01	2.695796e-04	
151	-8.50000e-01	2.744161e-04	
152	-9.00000e-01	2.781114e-04	
153	-9.50000e-01	2.808602e-04	
154	-1.00000e+00	2.829063e-04	
155	-1.05000e+00	2.844831e-04	
156	-1.10000e+00	2.857635e-04	
157	-1.15000e+00	2.868547e-04	
158	-1.20000e+00	2.878182e-04	
159	-1.25000e+00	2.886898e-04	
160	-1.30000e+00	2.894911e-04	
161	-1.35000e+00	2.902360e-04	
162	-1.40000e+00	2.909341e-04	
163	-1.45000e+00	2.915922e-04	
164	-1.50000e+00	2.922158e-04	
165	-1.55000e+00	2.928089e-04	
166	-1.60000e+00	2.933748e-04	
167	-1.65000e+00	2.939163e-04	
168	-1.70000e+00	2.944358e-04	
169	-1.75000e+00	2.949352e-04	
170	-1.80000e+00	2.954162e-04	

Index   v-sweep         i(vds)          
--------------------------------------------------------------------------------
171	-1.85000e+00	2.958803e-04	
172	-1.90000e+00	2.963288e-04	
173	-1.95000e+00	2.967629e-04	
174	-2.00000e+00	2.971835e-04	
175	-2.05000e+00	2.975917e-04	
176	-2.10000e+00	2.979882e-04	
177	-2.15000e+00	2.983737e-04	
178	-2.20000e+00	2.987490e-04	
179	-2.25000e+00	2.991147e-04	
180	-2.30000e+00	2.994712e-04	
181	-2.35000e+00	2.998192e-04	
182	-2.40000e+00	3.001590e-04	
183	-2.45000e+00	3.004912e-04	
184	-2.50000e+00	3.008161e-04	
185	-2.55000e+00	3.011341e-04	
186	-2.60000e+00	3.014455e-04	
187	-2.65000e+00	3.017507e-04	
188	-2.70000e+00	3.020499e-04	
189	-2.75000e+00	3.023434e-04	
190	-2.80000e+00	3.026316e-04	
191	-2.85000e+00	3.029146e-04	
192	-2.90000e+00	3.031927e-04	
193	-2.95000e+00	3.034662e-04	
194	-3.00000e+00	3.037354e-04	
195	-3.05000e+00	3.040005e-04	
196	-3.10000e+00	3.042618e-04	
197	-3.15000e+00	3.045196e-04	
198	-3.20000e+00	3.047742e-04	
199	-3.25000e+00	3.050260e-04	
200	-3.30000e+00	3.052755e-04	
201	0.000000e+00	-4.00009e-24	
202	-5.00000e-02	3.735292e-05	
203	-1.00000e-01	7.322232e-05	
204	-1.50000e-01	1.076654e-04	
205	-2.00000e-01	1.407006e-04	
206	-2.50000e-01	1.723368e-04	
207	-3.00000e-01	2.025809e-04	
208	-3.50000e-01	2.314388e-04	
209	-4.00000e-01	2.589168e-04	
210	-4.50000e-01	2.850208e-04	
211	-5.00000e-01	3.097568e-04	
212	-5.50000e-01	3.331309e-04	
213	-6.00000e-01	3.551494e-04	
214	-6.50000e-01	3.758183e-04	
215	-7.00000e-01	3.951442e-04	
216	-7.50000e-01	4.131336e-04	
217	-8.00000e-01	4.297933e-04	
218	-8.50000e-01	4.451307e-04	
219	-9.00000e-01	4.591538e-04	
220	-9.50000e-01	4.718717e-04	
221	-1.00000e+00	4.832956e-04	
222	-1.05000e+00	4.934397e-04	
223	-1.10000e+00	5.023238e-04	
224	-1.15000e+00	5.099774e-04	
225	-1.20000e+00	5.164467e-04	
226	-1.25000e+00	5.218057e-04	
227	-1.30000e+00	5.261674e-04	
228	-1.35000e+00	5.296882e-04	

Index   v-sweep         i(vds)          
--------------------------------------------------------------------------------
229	-1.40000e+00	5.325510e-04	
230	-1.45000e+00	5.349317e-04	
231	-1.50000e+00	5.369705e-04	
232	-1.55000e+00	5.387659e-04	
233	-1.60000e+00	5.403823e-04	
234	-1.65000e+00	5.418615e-04	
235	-1.70000e+00	5.432311e-04	
236	-1.75000e+00	5.445104e-04	
237	-1.80000e+00	5.457131e-04	
238	-1.85000e+00	5.468499e-04	
239	-1.90000e+00	5.479287e-04	
240	-1.95000e+00	5.489561e-04	
241	-2.00000e+00	5.499375e-04	
242	-2.05000e+00	5.508772e-04	
243	-2.10000e+00	5.517792e-04	
244	-2.15000e+00	5.526467e-04	
245	-2.20000e+00	5.534824e-04	
246	-2.25000e+00	5.542889e-04	
247	-2.30000e+00	5.550684e-04	
248	-2.35000e+00	5.558228e-04	
249	-2.40000e+00	5.565538e-04	
250	-2.45000e+00	5.572630e-04	
251	-2.50000e+00	5.579517e-04	
252	-2.55000e+00	5.586213e-04	
253	-2.60000e+00	5.592730e-04	
254	-2.65000e+00	5.599076e-04	
255	-2.70000e+00	5.605263e-04	
256	-2.75000e+00	5.611298e-04	
257	-2.80000e+00	5.617191e-04	
258	-2.85000e+00	5.622947e-04	
259	-2.90000e+00	5.628575e-04	
260	-2.95000e+00	5.634081e-04	
261	-3.00000e+00	5.639470e-04	
262	-3.05000e+00	5.644748e-04	
263	-3.10000e+00	5.649921e-04	
264	-3.15000e+00	5.654993e-04	
265	-3.20000e+00	5.659969e-04	
266	-3.25000e+00	5.664854e-04	
267	-3.30000e+00	5.669653e-04	
268	0.000000e+00	-2.38146e-21	
269	-5.00000e-02	4.510107e-05	
270	-1.00000e-01	8.882249e-05	
271	-1.50000e-01	1.312197e-04	
272	-2.00000e-01	1.723099e-04	
273	-2.50000e-01	2.121011e-04	
274	-3.00000e-01	2.505990e-04	
275	-3.50000e-01	2.878085e-04	
276	-4.00000e-01	3.237346e-04	
277	-4.50000e-01	3.583823e-04	
278	-5.00000e-01	3.917565e-04	
279	-5.50000e-01	4.238620e-04	
280	-6.00000e-01	4.547039e-04	
281	-6.50000e-01	4.842870e-04	
282	-7.00000e-01	5.126162e-04	
283	-7.50000e-01	5.396967e-04	
284	-8.00000e-01	5.655333e-04	
285	-8.50000e-01	5.901312e-04	
286	-9.00000e-01	6.134953e-04	

Index   v-sweep         i(vds)          
--------------------------------------------------------------------------------
287	-9.50000e-01	6.356309e-04	
288	-1.00000e+00	6.565432e-04	
289	-1.05000e+00	6.762376e-04	
290	-1.10000e+00	6.947195e-04	
291	-1.15000e+00	7.119949e-04	
292	-1.20000e+00	7.280699e-04	
293	-1.25000e+00	7.429513e-04	
294	-1.30000e+00	7.566468e-04	
295	-1.35000e+00	7.691653e-04	
296	-1.40000e+00	7.805183e-04	
297	-1.45000e+00	7.907205e-04	
298	-1.50000e+00	7.997927e-04	
299	-1.55000e+00	8.077651e-04	
300	-1.60000e+00	8.146833e-04	
301	-1.65000e+00	8.206153e-04	
302	-1.70000e+00	8.256576e-04	
303	-1.75000e+00	8.299356e-04	
304	-1.80000e+00	8.335906e-04	
305	-1.85000e+00	8.367599e-04	
306	-1.90000e+00	8.395590e-04	
307	-1.95000e+00	8.420754e-04	
308	-2.00000e+00	8.443716e-04	
309	-2.05000e+00	8.464915e-04	
310	-2.10000e+00	8.484664e-04	
311	-2.15000e+00	8.503190e-04	
312	-2.20000e+00	8.520665e-04	
313	-2.25000e+00	8.537220e-04	
314	-2.30000e+00	8.552963e-04	
315	-2.35000e+00	8.567979e-04	
316	-2.40000e+00	8.582341e-04	
317	-2.45000e+00	8.596109e-04	
318	-2.50000e+00	8.609335e-04	
319	-2.55000e+00	8.622065e-04	
320	-2.60000e+00	8.634337e-04	
321	-2.65000e+00	8.646187e-04	
322	-2.70000e+00	8.657644e-04	
323	-2.75000e+00	8.668737e-04	
324	-2.80000e+00	8.679489e-04	
325	-2.85000e+00	8.689923e-04	
326	-2.90000e+00	8.700058e-04	
327	-2.95000e+00	8.709913e-04	
328	-3.00000e+00	8.719504e-04	
329	-3.05000e+00	8.728847e-04	
330	-3.10000e+00	8.737954e-04	
331	-3.15000e+00	8.746838e-04	
332	-3.20000e+00	8.755512e-04	
333	-3.25000e+00	8.763986e-04	
334	-3.30000e+00	8.772269e-04	
335	0.000000e+00	-2.20274e-21	
336	-5.00000e-02	5.165068e-05	
337	-1.00000e-01	1.020167e-04	
338	-1.50000e-01	1.511520e-04	
339	-2.00000e-01	1.990732e-04	
340	-2.50000e-01	2.457872e-04	
341	-3.00000e-01	2.912989e-04	
342	-3.50000e-01	3.356127e-04	
343	-4.00000e-01	3.787327e-04	
344	-4.50000e-01	4.206630e-04	

Index   v-sweep         i(vds)          
--------------------------------------------------------------------------------
345	-5.00000e-01	4.614076e-04	
346	-5.50000e-01	5.009708e-04	
347	-6.00000e-01	5.393566e-04	
348	-6.50000e-01	5.765692e-04	
349	-7.00000e-01	6.126127e-04	
350	-7.50000e-01	6.474912e-04	
351	-8.00000e-01	6.812088e-04	
352	-8.50000e-01	7.137698e-04	
353	-9.00000e-01	7.451782e-04	
354	-9.50000e-01	7.754382e-04	
355	-1.00000e+00	8.045539e-04	
356	-1.05000e+00	8.325297e-04	
357	-1.10000e+00	8.593697e-04	
358	-1.15000e+00	8.850781e-04	
359	-1.20000e+00	9.096592e-04	
360	-1.25000e+00	9.331173e-04	
361	-1.30000e+00	9.554568e-04	
362	-1.35000e+00	9.766822e-04	
363	-1.40000e+00	9.967980e-04	
364	-1.45000e+00	1.015809e-03	
365	-1.50000e+00	1.033720e-03	
366	-1.55000e+00	1.050536e-03	
367	-1.60000e+00	1.066264e-03	
368	-1.65000e+00	1.080909e-03	
369	-1.70000e+00	1.094478e-03	
370	-1.75000e+00	1.106981e-03	
371	-1.80000e+00	1.118428e-03	
372	-1.85000e+00	1.128835e-03	
373	-1.90000e+00	1.138221e-03	
374	-1.95000e+00	1.146615e-03	
375	-2.00000e+00	1.154059e-03	
376	-2.05000e+00	1.160612e-03	
377	-2.10000e+00	1.166355e-03	
378	-2.15000e+00	1.171387e-03	
379	-2.20000e+00	1.175820e-03	
380	-2.25000e+00	1.179765e-03	
381	-2.30000e+00	1.183318e-03	
382	-2.35000e+00	1.186556e-03	
383	-2.40000e+00	1.189540e-03	
384	-2.45000e+00	1.192314e-03	
385	-2.50000e+00	1.194911e-03	
386	-2.55000e+00	1.197355e-03	
387	-2.60000e+00	1.199668e-03	
388	-2.65000e+00	1.201863e-03	
389	-2.70000e+00	1.203955e-03	
390	-2.75000e+00	1.205953e-03	
391	-2.80000e+00	1.207867e-03	
392	-2.85000e+00	1.209703e-03	
393	-2.90000e+00	1.211469e-03	
394	-2.95000e+00	1.213170e-03	
395	-3.00000e+00	1.214811e-03	
396	-3.05000e+00	1.216397e-03	
397	-3.10000e+00	1.217931e-03	
398	-3.15000e+00	1.219417e-03	
399	-3.20000e+00	1.220857e-03	
400	-3.25000e+00	1.222256e-03	
401	-3.30000e+00	1.223615e-03	
Note: No ".plot", ".print", or ".fourier" lines; no simulations run
