
Note: Compatibility modes selected: hs

Warning: m=xx on .subckt line will override multiplier m hierarchy!


Circuit: ***************************

Doing analysis at TEMP = -40.000000 and TNOM = -40.000000


No. of Data Rows : 402
                          ***************************
                          DC transfer characteristic  Mon Jan  9 13:58:23  2023
--------------------------------------------------------------------------------
Index   v-sweep         i(vds)          
--------------------------------------------------------------------------------
0	0.000000e+00	1.509471e-24	
1	-5.00000e-02	2.507177e-08	
2	-1.00000e-01	2.778834e-08	
3	-1.50000e-01	2.837985e-08	
4	-2.00000e-01	2.871056e-08	
5	-2.50000e-01	2.896961e-08	
6	-3.00000e-01	2.919687e-08	
7	-3.50000e-01	2.940555e-08	
8	-4.00000e-01	2.960147e-08	
9	-4.50000e-01	2.978780e-08	
10	-5.00000e-01	2.996647e-08	
11	-5.50000e-01	3.013884e-08	
12	-6.00000e-01	3.030588e-08	
13	-6.50000e-01	3.046832e-08	
14	-7.00000e-01	3.062677e-08	
15	-7.50000e-01	3.078169e-08	
16	-8.00000e-01	3.093348e-08	
17	-8.50000e-01	3.108248e-08	
18	-9.00000e-01	3.122896e-08	
19	-9.50000e-01	3.137317e-08	
20	-1.00000e+00	3.151532e-08	
21	-1.05000e+00	3.165560e-08	
22	-1.10000e+00	3.179416e-08	
23	-1.15000e+00	3.193114e-08	
24	-1.20000e+00	3.206669e-08	
25	-1.25000e+00	3.220090e-08	
26	-1.30000e+00	3.233388e-08	
27	-1.35000e+00	3.246573e-08	
28	-1.40000e+00	3.259653e-08	
29	-1.45000e+00	3.272635e-08	
30	-1.50000e+00	3.285526e-08	
31	-1.55000e+00	3.298333e-08	
32	-1.60000e+00	3.311062e-08	
33	-1.65000e+00	3.323717e-08	
34	-1.70000e+00	3.336303e-08	
35	-1.75000e+00	3.348826e-08	
36	-1.80000e+00	3.361289e-08	
37	-1.85000e+00	3.373697e-08	
38	-1.90000e+00	3.386053e-08	
39	-1.95000e+00	3.398360e-08	
40	-2.00000e+00	3.410624e-08	
41	-2.05000e+00	3.422846e-08	
42	-2.10000e+00	3.435030e-08	
43	-2.15000e+00	3.447181e-08	
44	-2.20000e+00	3.459301e-08	
45	-2.25000e+00	3.471395e-08	
46	-2.30000e+00	3.483467e-08	
47	-2.35000e+00	3.495522e-08	
48	-2.40000e+00	3.507566e-08	
49	-2.45000e+00	3.519604e-08	
50	-2.50000e+00	3.531644e-08	
51	-2.55000e+00	3.543692e-08	
52	-2.60000e+00	3.555759e-08	
53	-2.65000e+00	3.567854e-08	
54	-2.70000e+00	3.579988e-08	

Index   v-sweep         i(vds)          
--------------------------------------------------------------------------------
55	-2.75000e+00	3.592175e-08	
56	-2.80000e+00	3.604429e-08	
57	-2.85000e+00	3.616767e-08	
58	-2.90000e+00	3.629208e-08	
59	-2.95000e+00	3.641771e-08	
60	-3.00000e+00	3.654480e-08	
61	-3.05000e+00	3.667360e-08	
62	-3.10000e+00	3.680440e-08	
63	-3.15000e+00	3.693749e-08	
64	-3.20000e+00	3.707323e-08	
65	-3.25000e+00	3.721197e-08	
66	-3.30000e+00	3.735412e-08	
67	0.000000e+00	2.943788e-36	
68	-5.00000e-02	1.902174e-06	
69	-1.00000e-01	3.546929e-06	
70	-1.50000e-01	4.936994e-06	
71	-2.00000e-01	6.075671e-06	
72	-2.50000e-01	6.967702e-06	
73	-3.00000e-01	7.621732e-06	
74	-3.50000e-01	8.056911e-06	
75	-4.00000e-01	8.314734e-06	
76	-4.50000e-01	8.459278e-06	
77	-5.00000e-01	8.547775e-06	
78	-5.50000e-01	8.611046e-06	
79	-6.00000e-01	8.661875e-06	
80	-6.50000e-01	8.705515e-06	
81	-7.00000e-01	8.744383e-06	
82	-7.50000e-01	8.779757e-06	
83	-8.00000e-01	8.812401e-06	
84	-8.50000e-01	8.842820e-06	
85	-9.00000e-01	8.871371e-06	
86	-9.50000e-01	8.898321e-06	
87	-1.00000e+00	8.923876e-06	
88	-1.05000e+00	8.948202e-06	
89	-1.10000e+00	8.971437e-06	
90	-1.15000e+00	8.993692e-06	
91	-1.20000e+00	9.015063e-06	
92	-1.25000e+00	9.035631e-06	
93	-1.30000e+00	9.055468e-06	
94	-1.35000e+00	9.074635e-06	
95	-1.40000e+00	9.093184e-06	
96	-1.45000e+00	9.111164e-06	
97	-1.50000e+00	9.128617e-06	
98	-1.55000e+00	9.145580e-06	
99	-1.60000e+00	9.162086e-06	
100	-1.65000e+00	9.178167e-06	
101	-1.70000e+00	9.193848e-06	
102	-1.75000e+00	9.209156e-06	
103	-1.80000e+00	9.224111e-06	
104	-1.85000e+00	9.238736e-06	
105	-1.90000e+00	9.253049e-06	
106	-1.95000e+00	9.267067e-06	
107	-2.00000e+00	9.280805e-06	
108	-2.05000e+00	9.294279e-06	
109	-2.10000e+00	9.307502e-06	
110	-2.15000e+00	9.320488e-06	
111	-2.20000e+00	9.333247e-06	
112	-2.25000e+00	9.345791e-06	

Index   v-sweep         i(vds)          
--------------------------------------------------------------------------------
113	-2.30000e+00	9.358131e-06	
114	-2.35000e+00	9.370278e-06	
115	-2.40000e+00	9.382241e-06	
116	-2.45000e+00	9.394032e-06	
117	-2.50000e+00	9.405659e-06	
118	-2.55000e+00	9.417135e-06	
119	-2.60000e+00	9.428470e-06	
120	-2.65000e+00	9.439677e-06	
121	-2.70000e+00	9.450769e-06	
122	-2.75000e+00	9.461760e-06	
123	-2.80000e+00	9.472667e-06	
124	-2.85000e+00	9.483508e-06	
125	-2.90000e+00	9.494304e-06	
126	-2.95000e+00	9.505078e-06	
127	-3.00000e+00	9.515855e-06	
128	-3.05000e+00	9.526666e-06	
129	-3.10000e+00	9.537543e-06	
130	-3.15000e+00	9.548524e-06	
131	-3.20000e+00	9.559650e-06	
132	-3.25000e+00	9.570969e-06	
133	-3.30000e+00	9.582532e-06	
134	0.000000e+00	-9.55712e-36	
135	-5.00000e-02	3.736250e-06	
136	-1.00000e-01	7.226604e-06	
137	-1.50000e-01	1.047278e-05	
138	-2.00000e-01	1.347651e-05	
139	-2.50000e-01	1.623955e-05	
140	-3.00000e-01	1.876368e-05	
141	-3.50000e-01	2.105075e-05	
142	-4.00000e-01	2.310269e-05	
143	-4.50000e-01	2.492162e-05	
144	-5.00000e-01	2.651001e-05	
145	-5.50000e-01	2.787094e-05	
146	-6.00000e-01	2.900880e-05	
147	-6.50000e-01	2.993070e-05	
148	-7.00000e-01	3.064919e-05	
149	-7.50000e-01	3.118661e-05	
150	-8.00000e-01	3.157803e-05	
151	-8.50000e-01	3.186605e-05	
152	-9.00000e-01	3.208829e-05	
153	-9.50000e-01	3.227003e-05	
154	-1.00000e+00	3.242580e-05	
155	-1.05000e+00	3.256366e-05	
156	-1.10000e+00	3.268826e-05	
157	-1.15000e+00	3.280252e-05	
158	-1.20000e+00	3.290837e-05	
159	-1.25000e+00	3.300717e-05	
160	-1.30000e+00	3.309996e-05	
161	-1.35000e+00	3.318753e-05	
162	-1.40000e+00	3.327050e-05	
163	-1.45000e+00	3.334940e-05	
164	-1.50000e+00	3.342465e-05	
165	-1.55000e+00	3.349662e-05	
166	-1.60000e+00	3.356560e-05	
167	-1.65000e+00	3.363187e-05	
168	-1.70000e+00	3.369566e-05	
169	-1.75000e+00	3.375716e-05	
170	-1.80000e+00	3.381656e-05	

Index   v-sweep         i(vds)          
--------------------------------------------------------------------------------
171	-1.85000e+00	3.387400e-05	
172	-1.90000e+00	3.392964e-05	
173	-1.95000e+00	3.398359e-05	
174	-2.00000e+00	3.403596e-05	
175	-2.05000e+00	3.408687e-05	
176	-2.10000e+00	3.413640e-05	
177	-2.15000e+00	3.418463e-05	
178	-2.20000e+00	3.423164e-05	
179	-2.25000e+00	3.427750e-05	
180	-2.30000e+00	3.432228e-05	
181	-2.35000e+00	3.436602e-05	
182	-2.40000e+00	3.440880e-05	
183	-2.45000e+00	3.445065e-05	
184	-2.50000e+00	3.449162e-05	
185	-2.55000e+00	3.453176e-05	
186	-2.60000e+00	3.457111e-05	
187	-2.65000e+00	3.460971e-05	
188	-2.70000e+00	3.464759e-05	
189	-2.75000e+00	3.468479e-05	
190	-2.80000e+00	3.472136e-05	
191	-2.85000e+00	3.475731e-05	
192	-2.90000e+00	3.479270e-05	
193	-2.95000e+00	3.482756e-05	
194	-3.00000e+00	3.486192e-05	
195	-3.05000e+00	3.489585e-05	
196	-3.10000e+00	3.492938e-05	
197	-3.15000e+00	3.496257e-05	
198	-3.20000e+00	3.499547e-05	
199	-3.25000e+00	3.502817e-05	
200	-3.30000e+00	3.506073e-05	
201	0.000000e+00	-3.48513e-35	
202	-5.00000e-02	5.183225e-06	
203	-1.00000e-01	1.013990e-05	
204	-1.50000e-01	1.487135e-05	
205	-2.00000e-01	1.937890e-05	
206	-2.50000e-01	2.366385e-05	
207	-3.00000e-01	2.772753e-05	
208	-3.50000e-01	3.157128e-05	
209	-4.00000e-01	3.519642e-05	
210	-4.50000e-01	3.860429e-05	
211	-5.00000e-01	4.179625e-05	
212	-5.50000e-01	4.477367e-05	
213	-6.00000e-01	4.753796e-05	
214	-6.50000e-01	5.009054e-05	
215	-7.00000e-01	5.243293e-05	
216	-7.50000e-01	5.456675e-05	
217	-8.00000e-01	5.649379e-05	
218	-8.50000e-01	5.821618e-05	
219	-9.00000e-01	5.973657e-05	
220	-9.50000e-01	6.105861e-05	
221	-1.00000e+00	6.218777e-05	
222	-1.05000e+00	6.313275e-05	
223	-1.10000e+00	6.390761e-05	
224	-1.15000e+00	6.453367e-05	
225	-1.20000e+00	6.503895e-05	
226	-1.25000e+00	6.545339e-05	
227	-1.30000e+00	6.580280e-05	
228	-1.35000e+00	6.610596e-05	

Index   v-sweep         i(vds)          
--------------------------------------------------------------------------------
229	-1.40000e+00	6.637532e-05	
230	-1.45000e+00	6.661893e-05	
231	-1.50000e+00	6.684217e-05	
232	-1.55000e+00	6.704872e-05	
233	-1.60000e+00	6.724128e-05	
234	-1.65000e+00	6.742187e-05	
235	-1.70000e+00	6.759204e-05	
236	-1.75000e+00	6.775308e-05	
237	-1.80000e+00	6.790598e-05	
238	-1.85000e+00	6.805162e-05	
239	-1.90000e+00	6.819071e-05	
240	-1.95000e+00	6.832386e-05	
241	-2.00000e+00	6.845160e-05	
242	-2.05000e+00	6.857438e-05	
243	-2.10000e+00	6.869262e-05	
244	-2.15000e+00	6.880665e-05	
245	-2.20000e+00	6.891681e-05	
246	-2.25000e+00	6.902335e-05	
247	-2.30000e+00	6.912654e-05	
248	-2.35000e+00	6.922660e-05	
249	-2.40000e+00	6.932373e-05	
250	-2.45000e+00	6.941811e-05	
251	-2.50000e+00	6.950991e-05	
252	-2.55000e+00	6.959928e-05	
253	-2.60000e+00	6.968637e-05	
254	-2.65000e+00	6.977128e-05	
255	-2.70000e+00	6.985416e-05	
256	-2.75000e+00	6.993509e-05	
257	-2.80000e+00	7.001419e-05	
258	-2.85000e+00	7.009153e-05	
259	-2.90000e+00	7.016722e-05	
260	-2.95000e+00	7.024134e-05	
261	-3.00000e+00	7.031395e-05	
262	-3.05000e+00	7.038513e-05	
263	-3.10000e+00	7.045496e-05	
264	-3.15000e+00	7.052350e-05	
265	-3.20000e+00	7.059083e-05	
266	-3.25000e+00	7.065701e-05	
267	-3.30000e+00	7.072212e-05	
268	0.000000e+00	-4.34409e-35	
269	-5.00000e-02	6.323480e-06	
270	-1.00000e-01	1.243991e-05	
271	-1.50000e-01	1.835032e-05	
272	-2.00000e-01	2.405575e-05	
273	-2.50000e-01	2.955724e-05	
274	-3.00000e-01	3.485583e-05	
275	-3.50000e-01	3.995256e-05	
276	-4.00000e-01	4.484848e-05	
277	-4.50000e-01	4.954463e-05	
278	-5.00000e-01	5.404205e-05	
279	-5.50000e-01	5.834180e-05	
280	-6.00000e-01	6.244492e-05	
281	-6.50000e-01	6.635247e-05	
282	-7.00000e-01	7.006552e-05	
283	-7.50000e-01	7.358512e-05	
284	-8.00000e-01	7.691237e-05	
285	-8.50000e-01	8.004834e-05	
286	-9.00000e-01	8.299416e-05	

Index   v-sweep         i(vds)          
--------------------------------------------------------------------------------
287	-9.50000e-01	8.575095e-05	
288	-1.00000e+00	8.831991e-05	
289	-1.05000e+00	9.070228e-05	
290	-1.10000e+00	9.289941e-05	
291	-1.15000e+00	9.491282e-05	
292	-1.20000e+00	9.674426e-05	
293	-1.25000e+00	9.839593e-05	
294	-1.30000e+00	9.987076e-05	
295	-1.35000e+00	1.011729e-04	
296	-1.40000e+00	1.023085e-04	
297	-1.45000e+00	1.032869e-04	
298	-1.50000e+00	1.041219e-04	
299	-1.55000e+00	1.048321e-04	
300	-1.60000e+00	1.054393e-04	
301	-1.65000e+00	1.059651e-04	
302	-1.70000e+00	1.064281e-04	
303	-1.75000e+00	1.068427e-04	
304	-1.80000e+00	1.072189e-04	
305	-1.85000e+00	1.075643e-04	
306	-1.90000e+00	1.078842e-04	
307	-1.95000e+00	1.081824e-04	
308	-2.00000e+00	1.084621e-04	
309	-2.05000e+00	1.087257e-04	
310	-2.10000e+00	1.089750e-04	
311	-2.15000e+00	1.092116e-04	
312	-2.20000e+00	1.094369e-04	
313	-2.25000e+00	1.096520e-04	
314	-2.30000e+00	1.098578e-04	
315	-2.35000e+00	1.100552e-04	
316	-2.40000e+00	1.102448e-04	
317	-2.45000e+00	1.104273e-04	
318	-2.50000e+00	1.106032e-04	
319	-2.55000e+00	1.107730e-04	
320	-2.60000e+00	1.109372e-04	
321	-2.65000e+00	1.110961e-04	
322	-2.70000e+00	1.112502e-04	
323	-2.75000e+00	1.113996e-04	
324	-2.80000e+00	1.115447e-04	
325	-2.85000e+00	1.116858e-04	
326	-2.90000e+00	1.118231e-04	
327	-2.95000e+00	1.119568e-04	
328	-3.00000e+00	1.120870e-04	
329	-3.05000e+00	1.122141e-04	
330	-3.10000e+00	1.123382e-04	
331	-3.15000e+00	1.124593e-04	
332	-3.20000e+00	1.125777e-04	
333	-3.25000e+00	1.126935e-04	
334	-3.30000e+00	1.128068e-04	
335	0.000000e+00	-9.13011e-35	
336	-5.00000e-02	7.222901e-06	
337	-1.00000e-01	1.425691e-05	
338	-1.50000e-01	2.110286e-05	
339	-2.00000e-01	2.776157e-05	
340	-2.50000e-01	3.423389e-05	
341	-3.00000e-01	4.052064e-05	
342	-3.50000e-01	4.662265e-05	
343	-4.00000e-01	5.254077e-05	
344	-4.50000e-01	5.827583e-05	

Index   v-sweep         i(vds)          
--------------------------------------------------------------------------------
345	-5.00000e-01	6.382867e-05	
346	-5.50000e-01	6.920013e-05	
347	-6.00000e-01	7.439104e-05	
348	-6.50000e-01	7.940225e-05	
349	-7.00000e-01	8.423461e-05	
350	-7.50000e-01	8.888895e-05	
351	-8.00000e-01	9.336613e-05	
352	-8.50000e-01	9.766698e-05	
353	-9.00000e-01	1.017924e-04	
354	-9.50000e-01	1.057431e-04	
355	-1.00000e+00	1.095202e-04	
356	-1.05000e+00	1.131243e-04	
357	-1.10000e+00	1.165564e-04	
358	-1.15000e+00	1.198173e-04	
359	-1.20000e+00	1.229080e-04	
360	-1.25000e+00	1.258294e-04	
361	-1.30000e+00	1.285824e-04	
362	-1.35000e+00	1.311679e-04	
363	-1.40000e+00	1.335871e-04	
364	-1.45000e+00	1.358409e-04	
365	-1.50000e+00	1.379308e-04	
366	-1.55000e+00	1.398581e-04	
367	-1.60000e+00	1.416246e-04	
368	-1.65000e+00	1.432325e-04	
369	-1.70000e+00	1.446850e-04	
370	-1.75000e+00	1.459864e-04	
371	-1.80000e+00	1.471431e-04	
372	-1.85000e+00	1.481642e-04	
373	-1.90000e+00	1.490621e-04	
374	-1.95000e+00	1.498521e-04	
375	-2.00000e+00	1.505511e-04	
376	-2.05000e+00	1.511753e-04	
377	-2.10000e+00	1.517387e-04	
378	-2.15000e+00	1.522526e-04	
379	-2.20000e+00	1.527257e-04	
380	-2.25000e+00	1.531644e-04	
381	-2.30000e+00	1.535739e-04	
382	-2.35000e+00	1.539582e-04	
383	-2.40000e+00	1.543204e-04	
384	-2.45000e+00	1.546632e-04	
385	-2.50000e+00	1.549886e-04	
386	-2.55000e+00	1.552984e-04	
387	-2.60000e+00	1.555941e-04	
388	-2.65000e+00	1.558770e-04	
389	-2.70000e+00	1.561483e-04	
390	-2.75000e+00	1.564089e-04	
391	-2.80000e+00	1.566597e-04	
392	-2.85000e+00	1.569014e-04	
393	-2.90000e+00	1.571347e-04	
394	-2.95000e+00	1.573602e-04	
395	-3.00000e+00	1.575784e-04	
396	-3.05000e+00	1.577899e-04	
397	-3.10000e+00	1.579949e-04	
398	-3.15000e+00	1.581940e-04	
399	-3.20000e+00	1.583875e-04	
400	-3.25000e+00	1.585758e-04	
401	-3.30000e+00	1.587590e-04	
Note: No ".plot", ".print", or ".fourier" lines; no simulations run
