
Note: Compatibility modes selected: hs

Warning: m=xx on .subckt line will override multiplier m hierarchy!


Circuit: ***************************

Doing analysis at TEMP = 25.000000 and TNOM = 25.000000


No. of Data Rows : 402
                          ***************************
                          DC transfer characteristic  Mon Jan  9 13:58:23  2023
--------------------------------------------------------------------------------
Index   v-sweep         i(vds)          
--------------------------------------------------------------------------------
0	0.000000e+00	1.098767e-23	
1	-5.00000e-02	7.970546e-08	
2	-1.00000e-01	1.078082e-07	
3	-1.50000e-01	1.138248e-07	
4	-2.00000e-01	1.156770e-07	
5	-2.50000e-01	1.167391e-07	
6	-3.00000e-01	1.175606e-07	
7	-3.50000e-01	1.182742e-07	
8	-4.00000e-01	1.189252e-07	
9	-4.50000e-01	1.195333e-07	
10	-5.00000e-01	1.201089e-07	
11	-5.50000e-01	1.206584e-07	
12	-6.00000e-01	1.211859e-07	
13	-6.50000e-01	1.216945e-07	
14	-7.00000e-01	1.221867e-07	
15	-7.50000e-01	1.226642e-07	
16	-8.00000e-01	1.231286e-07	
17	-8.50000e-01	1.235812e-07	
18	-9.00000e-01	1.240230e-07	
19	-9.50000e-01	1.244550e-07	
20	-1.00000e+00	1.248780e-07	
21	-1.05000e+00	1.252927e-07	
22	-1.10000e+00	1.256997e-07	
23	-1.15000e+00	1.260996e-07	
24	-1.20000e+00	1.264929e-07	
25	-1.25000e+00	1.268800e-07	
26	-1.30000e+00	1.272614e-07	
27	-1.35000e+00	1.276374e-07	
28	-1.40000e+00	1.280083e-07	
29	-1.45000e+00	1.283745e-07	
30	-1.50000e+00	1.287362e-07	
31	-1.55000e+00	1.290936e-07	
32	-1.60000e+00	1.294471e-07	
33	-1.65000e+00	1.297969e-07	
34	-1.70000e+00	1.301431e-07	
35	-1.75000e+00	1.304859e-07	
36	-1.80000e+00	1.308255e-07	
37	-1.85000e+00	1.311620e-07	
38	-1.90000e+00	1.314957e-07	
39	-1.95000e+00	1.318266e-07	
40	-2.00000e+00	1.321550e-07	
41	-2.05000e+00	1.324809e-07	
42	-2.10000e+00	1.328045e-07	
43	-2.15000e+00	1.331258e-07	
44	-2.20000e+00	1.334452e-07	
45	-2.25000e+00	1.337626e-07	
46	-2.30000e+00	1.340783e-07	
47	-2.35000e+00	1.343924e-07	
48	-2.40000e+00	1.347052e-07	
49	-2.45000e+00	1.350167e-07	
50	-2.50000e+00	1.353272e-07	
51	-2.55000e+00	1.356371e-07	
52	-2.60000e+00	1.359465e-07	
53	-2.65000e+00	1.362559e-07	
54	-2.70000e+00	1.365655e-07	

Index   v-sweep         i(vds)          
--------------------------------------------------------------------------------
55	-2.75000e+00	1.368758e-07	
56	-2.80000e+00	1.371873e-07	
57	-2.85000e+00	1.375005e-07	
58	-2.90000e+00	1.378161e-07	
59	-2.95000e+00	1.381345e-07	
60	-3.00000e+00	1.384568e-07	
61	-3.05000e+00	1.387835e-07	
62	-3.10000e+00	1.391157e-07	
63	-3.15000e+00	1.394544e-07	
64	-3.20000e+00	1.398007e-07	
65	-3.25000e+00	1.401557e-07	
66	-3.30000e+00	1.405208e-07	
67	0.000000e+00	7.535843e-31	
68	-5.00000e-02	8.862382e-07	
69	-1.00000e-01	1.672483e-06	
70	-1.50000e-01	2.359449e-06	
71	-2.00000e-01	2.947938e-06	
72	-2.50000e-01	3.438948e-06	
73	-3.00000e-01	3.833930e-06	
74	-3.50000e-01	4.135454e-06	
75	-4.00000e-01	4.348924e-06	
76	-4.50000e-01	4.486050e-06	
77	-5.00000e-01	4.567479e-06	
78	-5.50000e-01	4.616875e-06	
79	-6.00000e-01	4.650769e-06	
80	-6.50000e-01	4.677224e-06	
81	-7.00000e-01	4.699684e-06	
82	-7.50000e-01	4.719671e-06	
83	-8.00000e-01	4.737931e-06	
84	-8.50000e-01	4.754878e-06	
85	-9.00000e-01	4.770766e-06	
86	-9.50000e-01	4.785767e-06	
87	-1.00000e+00	4.800006e-06	
88	-1.05000e+00	4.813577e-06	
89	-1.10000e+00	4.826555e-06	
90	-1.15000e+00	4.839001e-06	
91	-1.20000e+00	4.850967e-06	
92	-1.25000e+00	4.862495e-06	
93	-1.30000e+00	4.873622e-06	
94	-1.35000e+00	4.884381e-06	
95	-1.40000e+00	4.894800e-06	
96	-1.45000e+00	4.904904e-06	
97	-1.50000e+00	4.914715e-06	
98	-1.55000e+00	4.924253e-06	
99	-1.60000e+00	4.933537e-06	
100	-1.65000e+00	4.942582e-06	
101	-1.70000e+00	4.951402e-06	
102	-1.75000e+00	4.960012e-06	
103	-1.80000e+00	4.968422e-06	
104	-1.85000e+00	4.976646e-06	
105	-1.90000e+00	4.984691e-06	
106	-1.95000e+00	4.992569e-06	
107	-2.00000e+00	5.000287e-06	
108	-2.05000e+00	5.007853e-06	
109	-2.10000e+00	5.015276e-06	
110	-2.15000e+00	5.022562e-06	
111	-2.20000e+00	5.029717e-06	
112	-2.25000e+00	5.036747e-06	

Index   v-sweep         i(vds)          
--------------------------------------------------------------------------------
113	-2.30000e+00	5.043659e-06	
114	-2.35000e+00	5.050458e-06	
115	-2.40000e+00	5.057149e-06	
116	-2.45000e+00	5.063738e-06	
117	-2.50000e+00	5.070229e-06	
118	-2.55000e+00	5.076629e-06	
119	-2.60000e+00	5.082941e-06	
120	-2.65000e+00	5.089173e-06	
121	-2.70000e+00	5.095330e-06	
122	-2.75000e+00	5.101419e-06	
123	-2.80000e+00	5.107447e-06	
124	-2.85000e+00	5.113422e-06	
125	-2.90000e+00	5.119352e-06	
126	-2.95000e+00	5.125249e-06	
127	-3.00000e+00	5.131123e-06	
128	-3.05000e+00	5.136987e-06	
129	-3.10000e+00	5.142857e-06	
130	-3.15000e+00	5.148747e-06	
131	-3.20000e+00	5.154676e-06	
132	-3.25000e+00	5.160666e-06	
133	-3.30000e+00	5.166738e-06	
134	0.000000e+00	2.193965e-31	
135	-5.00000e-02	1.607892e-06	
136	-1.00000e-01	3.119737e-06	
137	-1.50000e-01	4.536020e-06	
138	-2.00000e-01	5.857229e-06	
139	-2.50000e-01	7.083858e-06	
140	-3.00000e-01	8.216410e-06	
141	-3.50000e-01	9.255400e-06	
142	-4.00000e-01	1.020137e-05	
143	-4.50000e-01	1.105489e-05	
144	-5.00000e-01	1.181661e-05	
145	-5.50000e-01	1.248728e-05	
146	-6.00000e-01	1.306787e-05	
147	-6.50000e-01	1.355976e-05	
148	-7.00000e-01	1.396518e-05	
149	-7.50000e-01	1.428797e-05	
150	-8.00000e-01	1.453507e-05	
151	-8.50000e-01	1.471797e-05	
152	-9.00000e-01	1.485236e-05	
153	-9.50000e-01	1.495439e-05	
154	-1.00000e+00	1.503644e-05	
155	-1.05000e+00	1.510615e-05	
156	-1.10000e+00	1.516779e-05	
157	-1.15000e+00	1.522372e-05	
158	-1.20000e+00	1.527533e-05	
159	-1.25000e+00	1.532347e-05	
160	-1.30000e+00	1.536874e-05	
161	-1.35000e+00	1.541155e-05	
162	-1.40000e+00	1.545221e-05	
163	-1.45000e+00	1.549097e-05	
164	-1.50000e+00	1.552803e-05	
165	-1.55000e+00	1.556356e-05	
166	-1.60000e+00	1.559769e-05	
167	-1.65000e+00	1.563054e-05	
168	-1.70000e+00	1.566223e-05	
169	-1.75000e+00	1.569283e-05	
170	-1.80000e+00	1.572244e-05	

Index   v-sweep         i(vds)          
--------------------------------------------------------------------------------
171	-1.85000e+00	1.575111e-05	
172	-1.90000e+00	1.577892e-05	
173	-1.95000e+00	1.580592e-05	
174	-2.00000e+00	1.583216e-05	
175	-2.05000e+00	1.585769e-05	
176	-2.10000e+00	1.588255e-05	
177	-2.15000e+00	1.590679e-05	
178	-2.20000e+00	1.593043e-05	
179	-2.25000e+00	1.595350e-05	
180	-2.30000e+00	1.597604e-05	
181	-2.35000e+00	1.599808e-05	
182	-2.40000e+00	1.601964e-05	
183	-2.45000e+00	1.604074e-05	
184	-2.50000e+00	1.606141e-05	
185	-2.55000e+00	1.608167e-05	
186	-2.60000e+00	1.610153e-05	
187	-2.65000e+00	1.612101e-05	
188	-2.70000e+00	1.614013e-05	
189	-2.75000e+00	1.615892e-05	
190	-2.80000e+00	1.617737e-05	
191	-2.85000e+00	1.619552e-05	
192	-2.90000e+00	1.621337e-05	
193	-2.95000e+00	1.623094e-05	
194	-3.00000e+00	1.624825e-05	
195	-3.05000e+00	1.626532e-05	
196	-3.10000e+00	1.628216e-05	
197	-3.15000e+00	1.629880e-05	
198	-3.20000e+00	1.631525e-05	
199	-3.25000e+00	1.633155e-05	
200	-3.30000e+00	1.634773e-05	
201	0.000000e+00	-8.25036e-31	
202	-5.00000e-02	2.205155e-06	
203	-1.00000e-01	4.320614e-06	
204	-1.50000e-01	6.346760e-06	
205	-2.00000e-01	8.283978e-06	
206	-2.50000e-01	1.013265e-05	
207	-3.00000e-01	1.189317e-05	
208	-3.50000e-01	1.356592e-05	
209	-4.00000e-01	1.515128e-05	
210	-4.50000e-01	1.664967e-05	
211	-5.00000e-01	1.806146e-05	
212	-5.50000e-01	1.938707e-05	
213	-6.00000e-01	2.062691e-05	
214	-6.50000e-01	2.178139e-05	
215	-7.00000e-01	2.285096e-05	
216	-7.50000e-01	2.383608e-05	
217	-8.00000e-01	2.473725e-05	
218	-8.50000e-01	2.555504e-05	
219	-9.00000e-01	2.629013e-05	
220	-9.50000e-01	2.694338e-05	
221	-1.00000e+00	2.751598e-05	
222	-1.05000e+00	2.800967e-05	
223	-1.10000e+00	2.842724e-05	
224	-1.15000e+00	2.877320e-05	
225	-1.20000e+00	2.905467e-05	
226	-1.25000e+00	2.928173e-05	
227	-1.30000e+00	2.946647e-05	
228	-1.35000e+00	2.962056e-05	

Index   v-sweep         i(vds)          
--------------------------------------------------------------------------------
229	-1.40000e+00	2.975326e-05	
230	-1.45000e+00	2.987090e-05	
231	-1.50000e+00	2.997753e-05	
232	-1.55000e+00	3.007573e-05	
233	-1.60000e+00	3.016715e-05	
234	-1.65000e+00	3.025296e-05	
235	-1.70000e+00	3.033397e-05	
236	-1.75000e+00	3.041081e-05	
237	-1.80000e+00	3.048396e-05	
238	-1.85000e+00	3.055382e-05	
239	-1.90000e+00	3.062071e-05	
240	-1.95000e+00	3.068491e-05	
241	-2.00000e+00	3.074664e-05	
242	-2.05000e+00	3.080610e-05	
243	-2.10000e+00	3.086348e-05	
244	-2.15000e+00	3.091893e-05	
245	-2.20000e+00	3.097258e-05	
246	-2.25000e+00	3.102457e-05	
247	-2.30000e+00	3.107499e-05	
248	-2.35000e+00	3.112395e-05	
249	-2.40000e+00	3.117154e-05	
250	-2.45000e+00	3.121784e-05	
251	-2.50000e+00	3.126292e-05	
252	-2.55000e+00	3.130686e-05	
253	-2.60000e+00	3.134971e-05	
254	-2.65000e+00	3.139154e-05	
255	-2.70000e+00	3.143239e-05	
256	-2.75000e+00	3.147231e-05	
257	-2.80000e+00	3.151136e-05	
258	-2.85000e+00	3.154956e-05	
259	-2.90000e+00	3.158697e-05	
260	-2.95000e+00	3.162362e-05	
261	-3.00000e+00	3.165954e-05	
262	-3.05000e+00	3.169477e-05	
263	-3.10000e+00	3.172933e-05	
264	-3.15000e+00	3.176327e-05	
265	-3.20000e+00	3.179660e-05	
266	-3.25000e+00	3.182936e-05	
267	-3.30000e+00	3.186157e-05	
268	0.000000e+00	-1.15195e-31	
269	-5.00000e-02	2.702925e-06	
270	-1.00000e-01	5.322540e-06	
271	-1.50000e-01	7.859158e-06	
272	-2.00000e-01	1.031309e-05	
273	-2.50000e-01	1.268466e-05	
274	-3.00000e-01	1.497416e-05	
275	-3.50000e-01	1.718193e-05	
276	-4.00000e-01	1.930828e-05	
277	-4.50000e-01	2.135352e-05	
278	-5.00000e-01	2.331797e-05	
279	-5.50000e-01	2.520195e-05	
280	-6.00000e-01	2.700579e-05	
281	-6.50000e-01	2.872980e-05	
282	-7.00000e-01	3.037431e-05	
283	-7.50000e-01	3.193964e-05	
284	-8.00000e-01	3.342614e-05	
285	-8.50000e-01	3.483412e-05	
286	-9.00000e-01	3.616394e-05	

Index   v-sweep         i(vds)          
--------------------------------------------------------------------------------
287	-9.50000e-01	3.741594e-05	
288	-1.00000e+00	3.859048e-05	
289	-1.05000e+00	3.968794e-05	
290	-1.10000e+00	4.070872e-05	
291	-1.15000e+00	4.165326e-05	
292	-1.20000e+00	4.252205e-05	
293	-1.25000e+00	4.331569e-05	
294	-1.30000e+00	4.403489e-05	
295	-1.35000e+00	4.468064e-05	
296	-1.40000e+00	4.525429e-05	
297	-1.45000e+00	4.575787e-05	
298	-1.50000e+00	4.619446e-05	
299	-1.55000e+00	4.656870e-05	
300	-1.60000e+00	4.688721e-05	
301	-1.65000e+00	4.715850e-05	
302	-1.70000e+00	4.739195e-05	
303	-1.75000e+00	4.759633e-05	
304	-1.80000e+00	4.777876e-05	
305	-1.85000e+00	4.794447e-05	
306	-1.90000e+00	4.809706e-05	
307	-1.95000e+00	4.823905e-05	
308	-2.00000e+00	4.837221e-05	
309	-2.05000e+00	4.849784e-05	
310	-2.10000e+00	4.861692e-05	
311	-2.15000e+00	4.873021e-05	
312	-2.20000e+00	4.883834e-05	
313	-2.25000e+00	4.894182e-05	
314	-2.30000e+00	4.904107e-05	
315	-2.35000e+00	4.913646e-05	
316	-2.40000e+00	4.922830e-05	
317	-2.45000e+00	4.931688e-05	
318	-2.50000e+00	4.940243e-05	
319	-2.55000e+00	4.948518e-05	
320	-2.60000e+00	4.956531e-05	
321	-2.65000e+00	4.964299e-05	
322	-2.70000e+00	4.971839e-05	
323	-2.75000e+00	4.979164e-05	
324	-2.80000e+00	4.986287e-05	
325	-2.85000e+00	4.993219e-05	
326	-2.90000e+00	4.999972e-05	
327	-2.95000e+00	5.006555e-05	
328	-3.00000e+00	5.012977e-05	
329	-3.05000e+00	5.019247e-05	
330	-3.10000e+00	5.025371e-05	
331	-3.15000e+00	5.031358e-05	
332	-3.20000e+00	5.037214e-05	
333	-3.25000e+00	5.042944e-05	
334	-3.30000e+00	5.048555e-05	
335	0.000000e+00	-1.01579e-31	
336	-5.00000e-02	3.121127e-06	
337	-1.00000e-01	6.164908e-06	
338	-1.50000e-01	9.131602e-06	
339	-2.00000e-01	1.202147e-05	
340	-2.50000e-01	1.483477e-05	
341	-3.00000e-01	1.757177e-05	
342	-3.50000e-01	2.023272e-05	
343	-4.00000e-01	2.281789e-05	
344	-4.50000e-01	2.532755e-05	

Index   v-sweep         i(vds)          
--------------------------------------------------------------------------------
345	-5.00000e-01	2.776196e-05	
346	-5.50000e-01	3.012138e-05	
347	-6.00000e-01	3.240608e-05	
348	-6.50000e-01	3.461633e-05	
349	-7.00000e-01	3.675239e-05	
350	-7.50000e-01	3.881453e-05	
351	-8.00000e-01	4.080303e-05	
352	-8.50000e-01	4.271814e-05	
353	-9.00000e-01	4.456014e-05	
354	-9.50000e-01	4.632930e-05	
355	-1.00000e+00	4.802591e-05	
356	-1.05000e+00	4.965022e-05	
357	-1.10000e+00	5.120253e-05	
358	-1.15000e+00	5.268312e-05	
359	-1.20000e+00	5.409226e-05	
360	-1.25000e+00	5.543026e-05	
361	-1.30000e+00	5.669741e-05	
362	-1.35000e+00	5.789403e-05	
363	-1.40000e+00	5.902043e-05	
364	-1.45000e+00	6.007697e-05	
365	-1.50000e+00	6.106403e-05	
366	-1.55000e+00	6.198203e-05	
367	-1.60000e+00	6.283146e-05	
368	-1.65000e+00	6.361293e-05	
369	-1.70000e+00	6.432723e-05	
370	-1.75000e+00	6.497539e-05	
371	-1.80000e+00	6.555889e-05	
372	-1.85000e+00	6.607987e-05	
373	-1.90000e+00	6.654144e-05	
374	-1.95000e+00	6.694801e-05	
375	-2.00000e+00	6.730543e-05	
376	-2.05000e+00	6.762069e-05	
377	-2.10000e+00	6.790118e-05	
378	-2.15000e+00	6.815372e-05	
379	-2.20000e+00	6.838397e-05	
380	-2.25000e+00	6.859629e-05	
381	-2.30000e+00	6.879391e-05	
382	-2.35000e+00	6.897921e-05	
383	-2.40000e+00	6.915397e-05	
384	-2.45000e+00	6.931956e-05	
385	-2.50000e+00	6.947705e-05	
386	-2.55000e+00	6.962731e-05	
387	-2.60000e+00	6.977106e-05	
388	-2.65000e+00	6.990889e-05	
389	-2.70000e+00	7.004133e-05	
390	-2.75000e+00	7.016880e-05	
391	-2.80000e+00	7.029171e-05	
392	-2.85000e+00	7.041038e-05	
393	-2.90000e+00	7.052513e-05	
394	-2.95000e+00	7.063622e-05	
395	-3.00000e+00	7.074388e-05	
396	-3.05000e+00	7.084835e-05	
397	-3.10000e+00	7.094981e-05	
398	-3.15000e+00	7.104844e-05	
399	-3.20000e+00	7.114441e-05	
400	-3.25000e+00	7.123787e-05	
401	-3.30000e+00	7.132894e-05	
Note: No ".plot", ".print", or ".fourier" lines; no simulations run
