
Note: Compatibility modes selected: hs

Warning: m=xx on .subckt line will override multiplier m hierarchy!


Circuit: ***************************

Doing analysis at TEMP = 125.000000 and TNOM = 125.000000


No. of Data Rows : 402
                          ***************************
                          DC transfer characteristic  Mon Jan  9 13:58:24  2023
--------------------------------------------------------------------------------
Index   v-sweep         i(vds)          
--------------------------------------------------------------------------------
0	0.000000e+00	2.987521e-26	
1	-5.00000e-02	8.891804e-06	
2	-1.00000e-01	1.537610e-05	
3	-1.50000e-01	1.961509e-05	
4	-2.00000e-01	2.192242e-05	
5	-2.50000e-01	2.298806e-05	
6	-3.00000e-01	2.355105e-05	
7	-3.50000e-01	2.395548e-05	
8	-4.00000e-01	2.430247e-05	
9	-4.50000e-01	2.462212e-05	
10	-5.00000e-01	2.492545e-05	
11	-5.50000e-01	2.521749e-05	
12	-6.00000e-01	2.550095e-05	
13	-6.50000e-01	2.577757e-05	
14	-7.00000e-01	2.604852e-05	
15	-7.50000e-01	2.631468e-05	
16	-8.00000e-01	2.657673e-05	
17	-8.50000e-01	2.683522e-05	
18	-9.00000e-01	2.709061e-05	
19	-9.50000e-01	2.734327e-05	
20	-1.00000e+00	2.759353e-05	
21	-1.05000e+00	2.784166e-05	
22	-1.10000e+00	2.808792e-05	
23	-1.15000e+00	2.833251e-05	
24	-1.20000e+00	2.857562e-05	
25	-1.25000e+00	2.881742e-05	
26	-1.30000e+00	2.905805e-05	
27	-1.35000e+00	2.929765e-05	
28	-1.40000e+00	2.953635e-05	
29	-1.45000e+00	2.977424e-05	
30	-1.50000e+00	3.001144e-05	
31	-1.55000e+00	3.024801e-05	
32	-1.60000e+00	3.048406e-05	
33	-1.65000e+00	3.071966e-05	
34	-1.70000e+00	3.095486e-05	
35	-1.75000e+00	3.118974e-05	
36	-1.80000e+00	3.142436e-05	
37	-1.85000e+00	3.165877e-05	
38	-1.90000e+00	3.189302e-05	
39	-1.95000e+00	3.212715e-05	
40	-2.00000e+00	3.236122e-05	
41	-2.05000e+00	3.259526e-05	
42	-2.10000e+00	3.282933e-05	
43	-2.15000e+00	3.306345e-05	
44	-2.20000e+00	3.329768e-05	
45	-2.25000e+00	3.353205e-05	
46	-2.30000e+00	3.376661e-05	
47	-2.35000e+00	3.400140e-05	
48	-2.40000e+00	3.423649e-05	
49	-2.45000e+00	3.447193e-05	
50	-2.50000e+00	3.470777e-05	
51	-2.55000e+00	3.494411e-05	
52	-2.60000e+00	3.518102e-05	
53	-2.65000e+00	3.541860e-05	
54	-2.70000e+00	3.565695e-05	

Index   v-sweep         i(vds)          
--------------------------------------------------------------------------------
55	-2.75000e+00	3.589622e-05	
56	-2.80000e+00	3.613654e-05	
57	-2.85000e+00	3.637808e-05	
58	-2.90000e+00	3.662104e-05	
59	-2.95000e+00	3.686563e-05	
60	-3.00000e+00	3.711209e-05	
61	-3.05000e+00	3.736071e-05	
62	-3.10000e+00	3.761179e-05	
63	-3.15000e+00	3.786568e-05	
64	-3.20000e+00	3.812275e-05	
65	-3.25000e+00	3.838345e-05	
66	-3.30000e+00	3.864823e-05	
67	0.000000e+00	-2.46148e-21	
68	-5.00000e-02	3.277254e-05	
69	-1.00000e-01	6.275451e-05	
70	-1.50000e-01	9.002680e-05	
71	-2.00000e-01	1.146316e-04	
72	-2.50000e-01	1.366024e-04	
73	-3.00000e-01	1.559720e-04	
74	-3.50000e-01	1.727760e-04	
75	-4.00000e-01	1.870564e-04	
76	-4.50000e-01	1.988703e-04	
77	-5.00000e-01	2.083074e-04	
78	-5.50000e-01	2.155302e-04	
79	-6.00000e-01	2.208371e-04	
80	-6.50000e-01	2.246940e-04	
81	-7.00000e-01	2.276224e-04	
82	-7.50000e-01	2.300203e-04	
83	-8.00000e-01	2.321145e-04	
84	-8.50000e-01	2.340191e-04	
85	-9.00000e-01	2.357918e-04	
86	-9.50000e-01	2.374648e-04	
87	-1.00000e+00	2.390578e-04	
88	-1.05000e+00	2.405840e-04	
89	-1.10000e+00	2.420528e-04	
90	-1.15000e+00	2.434717e-04	
91	-1.20000e+00	2.448463e-04	
92	-1.25000e+00	2.461814e-04	
93	-1.30000e+00	2.474810e-04	
94	-1.35000e+00	2.487484e-04	
95	-1.40000e+00	2.499864e-04	
96	-1.45000e+00	2.511976e-04	
97	-1.50000e+00	2.523841e-04	
98	-1.55000e+00	2.535479e-04	
99	-1.60000e+00	2.546908e-04	
100	-1.65000e+00	2.558141e-04	
101	-1.70000e+00	2.569194e-04	
102	-1.75000e+00	2.580077e-04	
103	-1.80000e+00	2.590804e-04	
104	-1.85000e+00	2.601383e-04	
105	-1.90000e+00	2.611824e-04	
106	-1.95000e+00	2.622135e-04	
107	-2.00000e+00	2.632325e-04	
108	-2.05000e+00	2.642399e-04	
109	-2.10000e+00	2.652365e-04	
110	-2.15000e+00	2.662229e-04	
111	-2.20000e+00	2.671996e-04	
112	-2.25000e+00	2.681672e-04	

Index   v-sweep         i(vds)          
--------------------------------------------------------------------------------
113	-2.30000e+00	2.691260e-04	
114	-2.35000e+00	2.700767e-04	
115	-2.40000e+00	2.710196e-04	
116	-2.45000e+00	2.719551e-04	
117	-2.50000e+00	2.728837e-04	
118	-2.55000e+00	2.738056e-04	
119	-2.60000e+00	2.747214e-04	
120	-2.65000e+00	2.756314e-04	
121	-2.70000e+00	2.765359e-04	
122	-2.75000e+00	2.774355e-04	
123	-2.80000e+00	2.783305e-04	
124	-2.85000e+00	2.792214e-04	
125	-2.90000e+00	2.801089e-04	
126	-2.95000e+00	2.809935e-04	
127	-3.00000e+00	2.818758e-04	
128	-3.05000e+00	2.827566e-04	
129	-3.10000e+00	2.836368e-04	
130	-3.15000e+00	2.845174e-04	
131	-3.20000e+00	2.853995e-04	
132	-3.25000e+00	2.862843e-04	
133	-3.30000e+00	2.871733e-04	
134	0.000000e+00	-1.17584e-20	
135	-5.00000e-02	5.111328e-05	
136	-1.00000e-01	9.960400e-05	
137	-1.50000e-01	1.455429e-04	
138	-2.00000e-01	1.889632e-04	
139	-2.50000e-01	2.298890e-04	
140	-3.00000e-01	2.683418e-04	
141	-3.50000e-01	3.043430e-04	
142	-4.00000e-01	3.379138e-04	
143	-4.50000e-01	3.690757e-04	
144	-5.00000e-01	3.978504e-04	
145	-5.50000e-01	4.242605e-04	
146	-6.00000e-01	4.483295e-04	
147	-6.50000e-01	4.700828e-04	
148	-7.00000e-01	4.895489e-04	
149	-7.50000e-01	5.067623e-04	
150	-8.00000e-01	5.217682e-04	
151	-8.50000e-01	5.346325e-04	
152	-9.00000e-01	5.454588e-04	
153	-9.50000e-01	5.544163e-04	
154	-1.00000e+00	5.617644e-04	
155	-1.05000e+00	5.678435e-04	
156	-1.10000e+00	5.730068e-04	
157	-1.15000e+00	5.775412e-04	
158	-1.20000e+00	5.816408e-04	
159	-1.25000e+00	5.854252e-04	
160	-1.30000e+00	5.889680e-04	
161	-1.35000e+00	5.923162e-04	
162	-1.40000e+00	5.955018e-04	
163	-1.45000e+00	5.985480e-04	
164	-1.50000e+00	6.014725e-04	
165	-1.55000e+00	6.042891e-04	
166	-1.60000e+00	6.070092e-04	
167	-1.65000e+00	6.096424e-04	
168	-1.70000e+00	6.121965e-04	
169	-1.75000e+00	6.146786e-04	
170	-1.80000e+00	6.170946e-04	

Index   v-sweep         i(vds)          
--------------------------------------------------------------------------------
171	-1.85000e+00	6.194497e-04	
172	-1.90000e+00	6.217486e-04	
173	-1.95000e+00	6.239954e-04	
174	-2.00000e+00	6.261937e-04	
175	-2.05000e+00	6.283469e-04	
176	-2.10000e+00	6.304579e-04	
177	-2.15000e+00	6.325294e-04	
178	-2.20000e+00	6.345638e-04	
179	-2.25000e+00	6.365635e-04	
180	-2.30000e+00	6.385303e-04	
181	-2.35000e+00	6.404662e-04	
182	-2.40000e+00	6.423729e-04	
183	-2.45000e+00	6.442520e-04	
184	-2.50000e+00	6.461049e-04	
185	-2.55000e+00	6.479330e-04	
186	-2.60000e+00	6.497375e-04	
187	-2.65000e+00	6.515196e-04	
188	-2.70000e+00	6.532803e-04	
189	-2.75000e+00	6.550209e-04	
190	-2.80000e+00	6.567421e-04	
191	-2.85000e+00	6.584450e-04	
192	-2.90000e+00	6.601304e-04	
193	-2.95000e+00	6.617993e-04	
194	-3.00000e+00	6.634526e-04	
195	-3.05000e+00	6.650912e-04	
196	-3.10000e+00	6.667160e-04	
197	-3.15000e+00	6.683280e-04	
198	-3.20000e+00	6.699283e-04	
199	-3.25000e+00	6.715181e-04	
200	-3.30000e+00	6.730987e-04	
201	0.000000e+00	-1.75591e-20	
202	-5.00000e-02	6.526687e-05	
203	-1.00000e-01	1.281153e-04	
204	-1.50000e-01	1.886095e-04	
205	-2.00000e-01	2.467774e-04	
206	-2.50000e-01	3.026377e-04	
207	-3.00000e-01	3.562069e-04	
208	-3.50000e-01	4.075010e-04	
209	-4.00000e-01	4.565358e-04	
210	-4.50000e-01	5.033270e-04	
211	-5.00000e-01	5.478906e-04	
212	-5.50000e-01	5.902424e-04	
213	-6.00000e-01	6.303983e-04	
214	-6.50000e-01	6.683745e-04	
215	-7.00000e-01	7.041872e-04	
216	-7.50000e-01	7.378527e-04	
217	-8.00000e-01	7.693878e-04	
218	-8.50000e-01	7.988096e-04	
219	-9.00000e-01	8.261361e-04	
220	-9.50000e-01	8.513863e-04	
221	-1.00000e+00	8.745809e-04	
222	-1.05000e+00	8.957439e-04	
223	-1.10000e+00	9.149039e-04	
224	-1.15000e+00	9.320983e-04	
225	-1.20000e+00	9.473791e-04	
226	-1.25000e+00	9.608233e-04	
227	-1.30000e+00	9.725474e-04	
228	-1.35000e+00	9.827226e-04	

Index   v-sweep         i(vds)          
--------------------------------------------------------------------------------
229	-1.40000e+00	9.915767e-04	
230	-1.45000e+00	9.993693e-04	
231	-1.50000e+00	1.006347e-03	
232	-1.55000e+00	1.012709e-03	
233	-1.60000e+00	1.018597e-03	
234	-1.65000e+00	1.024109e-03	
235	-1.70000e+00	1.029314e-03	
236	-1.75000e+00	1.034259e-03	
237	-1.80000e+00	1.038979e-03	
238	-1.85000e+00	1.043503e-03	
239	-1.90000e+00	1.047852e-03	
240	-1.95000e+00	1.052043e-03	
241	-2.00000e+00	1.056093e-03	
242	-2.05000e+00	1.060013e-03	
243	-2.10000e+00	1.063814e-03	
244	-2.15000e+00	1.067507e-03	
245	-2.20000e+00	1.071099e-03	
246	-2.25000e+00	1.074599e-03	
247	-2.30000e+00	1.078012e-03	
248	-2.35000e+00	1.081344e-03	
249	-2.40000e+00	1.084602e-03	
250	-2.45000e+00	1.087789e-03	
251	-2.50000e+00	1.090910e-03	
252	-2.55000e+00	1.093969e-03	
253	-2.60000e+00	1.096970e-03	
254	-2.65000e+00	1.099916e-03	
255	-2.70000e+00	1.102810e-03	
256	-2.75000e+00	1.105655e-03	
257	-2.80000e+00	1.108454e-03	
258	-2.85000e+00	1.111208e-03	
259	-2.90000e+00	1.113920e-03	
260	-2.95000e+00	1.116592e-03	
261	-3.00000e+00	1.119226e-03	
262	-3.05000e+00	1.121824e-03	
263	-3.10000e+00	1.124388e-03	
264	-3.15000e+00	1.126919e-03	
265	-3.20000e+00	1.129418e-03	
266	-3.25000e+00	1.131887e-03	
267	-3.30000e+00	1.134329e-03	
268	0.000000e+00	-1.22273e-20	
269	-5.00000e-02	7.650714e-05	
270	-1.00000e-01	1.507858e-04	
271	-1.50000e-01	2.228957e-04	
272	-2.00000e-01	2.928610e-04	
273	-2.50000e-01	3.606971e-04	
274	-3.00000e-01	4.264169e-04	
275	-3.50000e-01	4.900330e-04	
276	-4.00000e-01	5.515575e-04	
277	-4.50000e-01	6.110030e-04	
278	-5.00000e-01	6.683816e-04	
279	-5.50000e-01	7.237057e-04	
280	-6.00000e-01	7.769877e-04	
281	-6.50000e-01	8.282400e-04	
282	-7.00000e-01	8.774750e-04	
283	-7.50000e-01	9.247052e-04	
284	-8.00000e-01	9.699430e-04	
285	-8.50000e-01	1.013201e-03	
286	-9.00000e-01	1.054492e-03	

Index   v-sweep         i(vds)          
--------------------------------------------------------------------------------
287	-9.50000e-01	1.093828e-03	
288	-1.00000e+00	1.131223e-03	
289	-1.05000e+00	1.166689e-03	
290	-1.10000e+00	1.200240e-03	
291	-1.15000e+00	1.231888e-03	
292	-1.20000e+00	1.261649e-03	
293	-1.25000e+00	1.289537e-03	
294	-1.30000e+00	1.315568e-03	
295	-1.35000e+00	1.339759e-03	
296	-1.40000e+00	1.362132e-03	
297	-1.45000e+00	1.382710e-03	
298	-1.50000e+00	1.401525e-03	
299	-1.55000e+00	1.418621e-03	
300	-1.60000e+00	1.434060e-03	
301	-1.65000e+00	1.447929e-03	
302	-1.70000e+00	1.460355e-03	
303	-1.75000e+00	1.471501e-03	
304	-1.80000e+00	1.481561e-03	
305	-1.85000e+00	1.490729e-03	
306	-1.90000e+00	1.499179e-03	
307	-1.95000e+00	1.507049e-03	
308	-2.00000e+00	1.514444e-03	
309	-2.05000e+00	1.521439e-03	
310	-2.10000e+00	1.528091e-03	
311	-2.15000e+00	1.534445e-03	
312	-2.20000e+00	1.540535e-03	
313	-2.25000e+00	1.546389e-03	
314	-2.30000e+00	1.552029e-03	
315	-2.35000e+00	1.557476e-03	
316	-2.40000e+00	1.562746e-03	
317	-2.45000e+00	1.567854e-03	
318	-2.50000e+00	1.572812e-03	
319	-2.55000e+00	1.577632e-03	
320	-2.60000e+00	1.582323e-03	
321	-2.65000e+00	1.586894e-03	
322	-2.70000e+00	1.591354e-03	
323	-2.75000e+00	1.595710e-03	
324	-2.80000e+00	1.599967e-03	
325	-2.85000e+00	1.604133e-03	
326	-2.90000e+00	1.608212e-03	
327	-2.95000e+00	1.612209e-03	
328	-3.00000e+00	1.616129e-03	
329	-3.05000e+00	1.619976e-03	
330	-3.10000e+00	1.623754e-03	
331	-3.15000e+00	1.627467e-03	
332	-3.20000e+00	1.631117e-03	
333	-3.25000e+00	1.634708e-03	
334	-3.30000e+00	1.638242e-03	
335	0.000000e+00	7.649736e-19	
336	-5.00000e-02	8.565136e-05	
337	-1.00000e-01	1.692423e-04	
338	-1.50000e-01	2.508293e-04	
339	-2.00000e-01	3.304340e-04	
340	-2.50000e-01	4.080692e-04	
341	-3.00000e-01	4.837456e-04	
342	-3.50000e-01	5.574730e-04	
343	-4.00000e-01	6.292614e-04	
344	-4.50000e-01	6.991207e-04	

Index   v-sweep         i(vds)          
--------------------------------------------------------------------------------
345	-5.00000e-01	7.670606e-04	
346	-5.50000e-01	8.330912e-04	
347	-6.00000e-01	8.972222e-04	
348	-6.50000e-01	9.594636e-04	
349	-7.00000e-01	1.019825e-03	
350	-7.50000e-01	1.078318e-03	
351	-8.00000e-01	1.134950e-03	
352	-8.50000e-01	1.189733e-03	
353	-9.00000e-01	1.242676e-03	
354	-9.50000e-01	1.293790e-03	
355	-1.00000e+00	1.343084e-03	
356	-1.05000e+00	1.390569e-03	
357	-1.10000e+00	1.436254e-03	
358	-1.15000e+00	1.480150e-03	
359	-1.20000e+00	1.522268e-03	
360	-1.25000e+00	1.562617e-03	
361	-1.30000e+00	1.601208e-03	
362	-1.35000e+00	1.638051e-03	
363	-1.40000e+00	1.673158e-03	
364	-1.45000e+00	1.706539e-03	
365	-1.50000e+00	1.738205e-03	
366	-1.55000e+00	1.768169e-03	
367	-1.60000e+00	1.796443e-03	
368	-1.65000e+00	1.823040e-03	
369	-1.70000e+00	1.847977e-03	
370	-1.75000e+00	1.871270e-03	
371	-1.80000e+00	1.892943e-03	
372	-1.85000e+00	1.913021e-03	
373	-1.90000e+00	1.931543e-03	
374	-1.95000e+00	1.948560e-03	
375	-2.00000e+00	1.964142e-03	
376	-2.05000e+00	1.978389e-03	
377	-2.10000e+00	1.991425e-03	
378	-2.15000e+00	2.003398e-03	
379	-2.20000e+00	2.014462e-03	
380	-2.25000e+00	2.024761e-03	
381	-2.30000e+00	2.034418e-03	
382	-2.35000e+00	2.043532e-03	
383	-2.40000e+00	2.052180e-03	
384	-2.45000e+00	2.060423e-03	
385	-2.50000e+00	2.068307e-03	
386	-2.55000e+00	2.075872e-03	
387	-2.60000e+00	2.083149e-03	
388	-2.65000e+00	2.090166e-03	
389	-2.70000e+00	2.096944e-03	
390	-2.75000e+00	2.103503e-03	
391	-2.80000e+00	2.109862e-03	
392	-2.85000e+00	2.116034e-03	
393	-2.90000e+00	2.122033e-03	
394	-2.95000e+00	2.127872e-03	
395	-3.00000e+00	2.133561e-03	
396	-3.05000e+00	2.139109e-03	
397	-3.10000e+00	2.144526e-03	
398	-3.15000e+00	2.149819e-03	
399	-3.20000e+00	2.154996e-03	
400	-3.25000e+00	2.160064e-03	
401	-3.30000e+00	2.165028e-03	
Note: No ".plot", ".print", or ".fourier" lines; no simulations run
