
Note: Compatibility modes selected: hs

Warning: m=xx on .subckt line will override multiplier m hierarchy!


Circuit: ***************************

Doing analysis at TEMP = 125.000000 and TNOM = 125.000000


No. of Data Rows : 402
                          ***************************
                          DC transfer characteristic  Mon Jan  9 13:58:24  2023
--------------------------------------------------------------------------------
Index   v-sweep         i(vds)          
--------------------------------------------------------------------------------
0	0.000000e+00	-3.34419e-23	
1	-5.00000e-02	2.425430e-07	
2	-1.00000e-01	3.450516e-07	
3	-1.50000e-01	3.789448e-07	
4	-2.00000e-01	3.871377e-07	
5	-2.50000e-01	3.893352e-07	
6	-3.00000e-01	3.901321e-07	
7	-3.50000e-01	3.905102e-07	
8	-4.00000e-01	3.907303e-07	
9	-4.50000e-01	3.908784e-07	
10	-5.00000e-01	3.909886e-07	
11	-5.50000e-01	3.910767e-07	
12	-6.00000e-01	3.911507e-07	
13	-6.50000e-01	3.912151e-07	
14	-7.00000e-01	3.912728e-07	
15	-7.50000e-01	3.913255e-07	
16	-8.00000e-01	3.913743e-07	
17	-8.50000e-01	3.914200e-07	
18	-9.00000e-01	3.914633e-07	
19	-9.50000e-01	3.915045e-07	
20	-1.00000e+00	3.915440e-07	
21	-1.05000e+00	3.915820e-07	
22	-1.10000e+00	3.916188e-07	
23	-1.15000e+00	3.916545e-07	
24	-1.20000e+00	3.916891e-07	
25	-1.25000e+00	3.917229e-07	
26	-1.30000e+00	3.917559e-07	
27	-1.35000e+00	3.917882e-07	
28	-1.40000e+00	3.918198e-07	
29	-1.45000e+00	3.918509e-07	
30	-1.50000e+00	3.918813e-07	
31	-1.55000e+00	3.919113e-07	
32	-1.60000e+00	3.919408e-07	
33	-1.65000e+00	3.919699e-07	
34	-1.70000e+00	3.919986e-07	
35	-1.75000e+00	3.920269e-07	
36	-1.80000e+00	3.920548e-07	
37	-1.85000e+00	3.920824e-07	
38	-1.90000e+00	3.921097e-07	
39	-1.95000e+00	3.921367e-07	
40	-2.00000e+00	3.921635e-07	
41	-2.05000e+00	3.921899e-07	
42	-2.10000e+00	3.922161e-07	
43	-2.15000e+00	3.922421e-07	
44	-2.20000e+00	3.922679e-07	
45	-2.25000e+00	3.922935e-07	
46	-2.30000e+00	3.923189e-07	
47	-2.35000e+00	3.923442e-07	
48	-2.40000e+00	3.923693e-07	
49	-2.45000e+00	3.923944e-07	
50	-2.50000e+00	3.924196e-07	
51	-2.55000e+00	3.924447e-07	
52	-2.60000e+00	3.924701e-07	
53	-2.65000e+00	3.924957e-07	
54	-2.70000e+00	3.925217e-07	

Index   v-sweep         i(vds)          
--------------------------------------------------------------------------------
55	-2.75000e+00	3.925483e-07	
56	-2.80000e+00	3.925757e-07	
57	-2.85000e+00	3.926041e-07	
58	-2.90000e+00	3.926339e-07	
59	-2.95000e+00	3.926655e-07	
60	-3.00000e+00	3.926993e-07	
61	-3.05000e+00	3.927358e-07	
62	-3.10000e+00	3.927758e-07	
63	-3.15000e+00	3.928200e-07	
64	-3.20000e+00	3.928692e-07	
65	-3.25000e+00	3.929246e-07	
66	-3.30000e+00	3.929872e-07	
67	0.000000e+00	-2.49092e-22	
68	-5.00000e-02	8.650049e-07	
69	-1.00000e-01	1.567846e-06	
70	-1.50000e-01	2.163526e-06	
71	-2.00000e-01	2.665083e-06	
72	-2.50000e-01	3.075976e-06	
73	-3.00000e-01	3.397937e-06	
74	-3.50000e-01	3.633569e-06	
75	-4.00000e-01	3.788905e-06	
76	-4.50000e-01	3.877333e-06	
77	-5.00000e-01	3.920643e-06	
78	-5.50000e-01	3.940493e-06	
79	-6.00000e-01	3.950054e-06	
80	-6.50000e-01	3.955193e-06	
81	-7.00000e-01	3.958297e-06	
82	-7.50000e-01	3.960371e-06	
83	-8.00000e-01	3.961873e-06	
84	-8.50000e-01	3.963034e-06	
85	-9.00000e-01	3.963976e-06	
86	-9.50000e-01	3.964771e-06	
87	-1.00000e+00	3.965460e-06	
88	-1.05000e+00	3.966072e-06	
89	-1.10000e+00	3.966625e-06	
90	-1.15000e+00	3.967132e-06	
91	-1.20000e+00	3.967601e-06	
92	-1.25000e+00	3.968039e-06	
93	-1.30000e+00	3.968451e-06	
94	-1.35000e+00	3.968842e-06	
95	-1.40000e+00	3.969214e-06	
96	-1.45000e+00	3.969569e-06	
97	-1.50000e+00	3.969910e-06	
98	-1.55000e+00	3.970237e-06	
99	-1.60000e+00	3.970553e-06	
100	-1.65000e+00	3.970859e-06	
101	-1.70000e+00	3.971155e-06	
102	-1.75000e+00	3.971442e-06	
103	-1.80000e+00	3.971722e-06	
104	-1.85000e+00	3.971994e-06	
105	-1.90000e+00	3.972259e-06	
106	-1.95000e+00	3.972518e-06	
107	-2.00000e+00	3.972771e-06	
108	-2.05000e+00	3.973018e-06	
109	-2.10000e+00	3.973261e-06	
110	-2.15000e+00	3.973498e-06	
111	-2.20000e+00	3.973731e-06	
112	-2.25000e+00	3.973960e-06	

Index   v-sweep         i(vds)          
--------------------------------------------------------------------------------
113	-2.30000e+00	3.974184e-06	
114	-2.35000e+00	3.974405e-06	
115	-2.40000e+00	3.974622e-06	
116	-2.45000e+00	3.974836e-06	
117	-2.50000e+00	3.975047e-06	
118	-2.55000e+00	3.975255e-06	
119	-2.60000e+00	3.975460e-06	
120	-2.65000e+00	3.975664e-06	
121	-2.70000e+00	3.975865e-06	
122	-2.75000e+00	3.976066e-06	
123	-2.80000e+00	3.976266e-06	
124	-2.85000e+00	3.976467e-06	
125	-2.90000e+00	3.976669e-06	
126	-2.95000e+00	3.976874e-06	
127	-3.00000e+00	3.977084e-06	
128	-3.05000e+00	3.977301e-06	
129	-3.10000e+00	3.977528e-06	
130	-3.15000e+00	3.977768e-06	
131	-3.20000e+00	3.978026e-06	
132	-3.25000e+00	3.978306e-06	
133	-3.30000e+00	3.978614e-06	
134	0.000000e+00	-1.04715e-21	
135	-5.00000e-02	1.450491e-06	
136	-1.00000e-01	2.742070e-06	
137	-1.50000e-01	3.929576e-06	
138	-2.00000e-01	5.025832e-06	
139	-2.50000e-01	6.033864e-06	
140	-3.00000e-01	6.954430e-06	
141	-3.50000e-01	7.787773e-06	
142	-4.00000e-01	8.534051e-06	
143	-4.50000e-01	9.193459e-06	
144	-5.00000e-01	9.766300e-06	
145	-5.50000e-01	1.025310e-05	
146	-6.00000e-01	1.065481e-05	
147	-6.50000e-01	1.097329e-05	
148	-7.00000e-01	1.121217e-05	
149	-7.50000e-01	1.137849e-05	
150	-8.00000e-01	1.148439e-05	
151	-8.50000e-01	1.154650e-05	
152	-9.00000e-01	1.158145e-05	
153	-9.50000e-01	1.160143e-05	
154	-1.00000e+00	1.161351e-05	
155	-1.05000e+00	1.162137e-05	
156	-1.10000e+00	1.162686e-05	
157	-1.15000e+00	1.163095e-05	
158	-1.20000e+00	1.163416e-05	
159	-1.25000e+00	1.163678e-05	
160	-1.30000e+00	1.163900e-05	
161	-1.35000e+00	1.164092e-05	
162	-1.40000e+00	1.164263e-05	
163	-1.45000e+00	1.164417e-05	
164	-1.50000e+00	1.164558e-05	
165	-1.55000e+00	1.164688e-05	
166	-1.60000e+00	1.164809e-05	
167	-1.65000e+00	1.164922e-05	
168	-1.70000e+00	1.165030e-05	
169	-1.75000e+00	1.165131e-05	
170	-1.80000e+00	1.165228e-05	

Index   v-sweep         i(vds)          
--------------------------------------------------------------------------------
171	-1.85000e+00	1.165321e-05	
172	-1.90000e+00	1.165410e-05	
173	-1.95000e+00	1.165495e-05	
174	-2.00000e+00	1.165577e-05	
175	-2.05000e+00	1.165657e-05	
176	-2.10000e+00	1.165734e-05	
177	-2.15000e+00	1.165808e-05	
178	-2.20000e+00	1.165881e-05	
179	-2.25000e+00	1.165951e-05	
180	-2.30000e+00	1.166020e-05	
181	-2.35000e+00	1.166087e-05	
182	-2.40000e+00	1.166152e-05	
183	-2.45000e+00	1.166216e-05	
184	-2.50000e+00	1.166278e-05	
185	-2.55000e+00	1.166339e-05	
186	-2.60000e+00	1.166399e-05	
187	-2.65000e+00	1.166457e-05	
188	-2.70000e+00	1.166514e-05	
189	-2.75000e+00	1.166571e-05	
190	-2.80000e+00	1.166626e-05	
191	-2.85000e+00	1.166680e-05	
192	-2.90000e+00	1.166734e-05	
193	-2.95000e+00	1.166787e-05	
194	-3.00000e+00	1.166839e-05	
195	-3.05000e+00	1.166891e-05	
196	-3.10000e+00	1.166942e-05	
197	-3.15000e+00	1.166993e-05	
198	-3.20000e+00	1.167045e-05	
199	-3.25000e+00	1.167097e-05	
200	-3.30000e+00	1.167149e-05	
201	0.000000e+00	-1.35350e-25	
202	-5.00000e-02	1.975301e-06	
203	-1.00000e-01	3.797161e-06	
204	-1.50000e-01	5.520356e-06	
205	-2.00000e-01	7.157686e-06	
206	-2.50000e-01	8.712155e-06	
207	-3.00000e-01	1.018448e-05	
208	-3.50000e-01	1.157485e-05	
209	-4.00000e-01	1.288333e-05	
210	-4.50000e-01	1.410996e-05	
211	-5.00000e-01	1.525479e-05	
212	-5.50000e-01	1.631785e-05	
213	-6.00000e-01	1.729921e-05	
214	-6.50000e-01	1.819896e-05	
215	-7.00000e-01	1.901720e-05	
216	-7.50000e-01	1.975411e-05	
217	-8.00000e-01	2.040992e-05	
218	-8.50000e-01	2.098502e-05	
219	-9.00000e-01	2.148005e-05	
220	-9.50000e-01	2.189607e-05	
221	-1.00000e+00	2.223496e-05	
222	-1.05000e+00	2.250000e-05	
223	-1.10000e+00	2.269686e-05	
224	-1.15000e+00	2.283453e-05	
225	-1.20000e+00	2.292531e-05	
226	-1.25000e+00	2.298281e-05	
227	-1.30000e+00	2.301894e-05	
228	-1.35000e+00	2.304221e-05	

Index   v-sweep         i(vds)          
--------------------------------------------------------------------------------
229	-1.40000e+00	2.305788e-05	
230	-1.45000e+00	2.306901e-05	
231	-1.50000e+00	2.307734e-05	
232	-1.55000e+00	2.308386e-05	
233	-1.60000e+00	2.308918e-05	
234	-1.65000e+00	2.309365e-05	
235	-1.70000e+00	2.309752e-05	
236	-1.75000e+00	2.310093e-05	
237	-1.80000e+00	2.310399e-05	
238	-1.85000e+00	2.310677e-05	
239	-1.90000e+00	2.310932e-05	
240	-1.95000e+00	2.311170e-05	
241	-2.00000e+00	2.311392e-05	
242	-2.05000e+00	2.311601e-05	
243	-2.10000e+00	2.311798e-05	
244	-2.15000e+00	2.311986e-05	
245	-2.20000e+00	2.312165e-05	
246	-2.25000e+00	2.312336e-05	
247	-2.30000e+00	2.312500e-05	
248	-2.35000e+00	2.312658e-05	
249	-2.40000e+00	2.312810e-05	
250	-2.45000e+00	2.312958e-05	
251	-2.50000e+00	2.313100e-05	
252	-2.55000e+00	2.313238e-05	
253	-2.60000e+00	2.313372e-05	
254	-2.65000e+00	2.313502e-05	
255	-2.70000e+00	2.313629e-05	
256	-2.75000e+00	2.313752e-05	
257	-2.80000e+00	2.313873e-05	
258	-2.85000e+00	2.313990e-05	
259	-2.90000e+00	2.314105e-05	
260	-2.95000e+00	2.314217e-05	
261	-3.00000e+00	2.314327e-05	
262	-3.05000e+00	2.314435e-05	
263	-3.10000e+00	2.314540e-05	
264	-3.15000e+00	2.314644e-05	
265	-3.20000e+00	2.314745e-05	
266	-3.25000e+00	2.314845e-05	
267	-3.30000e+00	2.314943e-05	
268	0.000000e+00	2.270126e-25	
269	-5.00000e-02	2.446084e-06	
270	-1.00000e-01	4.744453e-06	
271	-1.50000e-01	6.949833e-06	
272	-2.00000e-01	9.075015e-06	
273	-2.50000e-01	1.112300e-05	
274	-3.00000e-01	1.309450e-05	
275	-3.50000e-01	1.498969e-05	
276	-4.00000e-01	1.680862e-05	
277	-4.50000e-01	1.855133e-05	
278	-5.00000e-01	2.021784e-05	
279	-5.50000e-01	2.180816e-05	
280	-6.00000e-01	2.332231e-05	
281	-6.50000e-01	2.476032e-05	
282	-7.00000e-01	2.612222e-05	
283	-7.50000e-01	2.740802e-05	
284	-8.00000e-01	2.861778e-05	
285	-8.50000e-01	2.975153e-05	
286	-9.00000e-01	3.080933e-05	

Index   v-sweep         i(vds)          
--------------------------------------------------------------------------------
287	-9.50000e-01	3.179123e-05	
288	-1.00000e+00	3.269733e-05	
289	-1.05000e+00	3.352774e-05	
290	-1.10000e+00	3.428264e-05	
291	-1.15000e+00	3.496225e-05	
292	-1.20000e+00	3.556695e-05	
293	-1.25000e+00	3.609727e-05	
294	-1.30000e+00	3.655409e-05	
295	-1.35000e+00	3.693882e-05	
296	-1.40000e+00	3.725376e-05	
297	-1.45000e+00	3.750262e-05	
298	-1.50000e+00	3.769121e-05	
299	-1.55000e+00	3.782782e-05	
300	-1.60000e+00	3.792285e-05	
301	-1.65000e+00	3.798728e-05	
302	-1.70000e+00	3.803082e-05	
303	-1.75000e+00	3.806080e-05	
304	-1.80000e+00	3.808213e-05	
305	-1.85000e+00	3.809795e-05	
306	-1.90000e+00	3.811016e-05	
307	-1.95000e+00	3.811995e-05	
308	-2.00000e+00	3.812806e-05	
309	-2.05000e+00	3.813496e-05	
310	-2.10000e+00	3.814098e-05	
311	-2.15000e+00	3.814632e-05	
312	-2.20000e+00	3.815113e-05	
313	-2.25000e+00	3.815552e-05	
314	-2.30000e+00	3.815956e-05	
315	-2.35000e+00	3.816332e-05	
316	-2.40000e+00	3.816684e-05	
317	-2.45000e+00	3.817015e-05	
318	-2.50000e+00	3.817329e-05	
319	-2.55000e+00	3.817627e-05	
320	-2.60000e+00	3.817911e-05	
321	-2.65000e+00	3.818183e-05	
322	-2.70000e+00	3.818444e-05	
323	-2.75000e+00	3.818695e-05	
324	-2.80000e+00	3.818937e-05	
325	-2.85000e+00	3.819171e-05	
326	-2.90000e+00	3.819397e-05	
327	-2.95000e+00	3.819616e-05	
328	-3.00000e+00	3.819828e-05	
329	-3.05000e+00	3.820035e-05	
330	-3.10000e+00	3.820236e-05	
331	-3.15000e+00	3.820431e-05	
332	-3.20000e+00	3.820622e-05	
333	-3.25000e+00	3.820808e-05	
334	-3.30000e+00	3.820989e-05	
335	0.000000e+00	-1.60308e-25	
336	-5.00000e-02	2.869667e-06	
337	-1.00000e-01	5.597145e-06	
338	-1.50000e-01	8.237120e-06	
339	-2.00000e-01	1.080238e-05	
340	-2.50000e-01	1.329592e-05	
341	-3.00000e-01	1.571844e-05	
342	-3.50000e-01	1.807014e-05	
343	-4.00000e-01	2.035105e-05	
344	-4.50000e-01	2.256119e-05	

Index   v-sweep         i(vds)          
--------------------------------------------------------------------------------
345	-5.00000e-01	2.470060e-05	
346	-5.50000e-01	2.676927e-05	
347	-6.00000e-01	2.876723e-05	
348	-6.50000e-01	3.069449e-05	
349	-7.00000e-01	3.255107e-05	
350	-7.50000e-01	3.433697e-05	
351	-8.00000e-01	3.605222e-05	
352	-8.50000e-01	3.769684e-05	
353	-9.00000e-01	3.927084e-05	
354	-9.50000e-01	4.077425e-05	
355	-1.00000e+00	4.220708e-05	
356	-1.05000e+00	4.356937e-05	
357	-1.10000e+00	4.486114e-05	
358	-1.15000e+00	4.608242e-05	
359	-1.20000e+00	4.723326e-05	
360	-1.25000e+00	4.831370e-05	
361	-1.30000e+00	4.932381e-05	
362	-1.35000e+00	5.026366e-05	
363	-1.40000e+00	5.113335e-05	
364	-1.45000e+00	5.193302e-05	
365	-1.50000e+00	5.266285e-05	
366	-1.55000e+00	5.332312e-05	
367	-1.60000e+00	5.391421e-05	
368	-1.65000e+00	5.443670e-05	
369	-1.70000e+00	5.489145e-05	
370	-1.75000e+00	5.527981e-05	
371	-1.80000e+00	5.560386e-05	
372	-1.85000e+00	5.586678e-05	
373	-1.90000e+00	5.607330e-05	
374	-1.95000e+00	5.622998e-05	
375	-2.00000e+00	5.634506e-05	
376	-2.05000e+00	5.642763e-05	
377	-2.10000e+00	5.648636e-05	
378	-2.15000e+00	5.652847e-05	
379	-2.20000e+00	5.655930e-05	
380	-2.25000e+00	5.658258e-05	
381	-2.30000e+00	5.660073e-05	
382	-2.35000e+00	5.661536e-05	
383	-2.40000e+00	5.662749e-05	
384	-2.45000e+00	5.663783e-05	
385	-2.50000e+00	5.664681e-05	
386	-2.55000e+00	5.665478e-05	
387	-2.60000e+00	5.666194e-05	
388	-2.65000e+00	5.666846e-05	
389	-2.70000e+00	5.667446e-05	
390	-2.75000e+00	5.668003e-05	
391	-2.80000e+00	5.668523e-05	
392	-2.85000e+00	5.669012e-05	
393	-2.90000e+00	5.669474e-05	
394	-2.95000e+00	5.669913e-05	
395	-3.00000e+00	5.670331e-05	
396	-3.05000e+00	5.670730e-05	
397	-3.10000e+00	5.671113e-05	
398	-3.15000e+00	5.671481e-05	
399	-3.20000e+00	5.671836e-05	
400	-3.25000e+00	5.672178e-05	
401	-3.30000e+00	5.672508e-05	
Note: No ".plot", ".print", or ".fourier" lines; no simulations run
