
Note: Compatibility modes selected: hs

Warning: m=xx on .subckt line will override multiplier m hierarchy!


Circuit: ***************************

Doing analysis at TEMP = 25.000000 and TNOM = 25.000000


No. of Data Rows : 402
                          ***************************
                          DC transfer characteristic  Mon Jan  9 13:58:23  2023
--------------------------------------------------------------------------------
Index   v-sweep         i(vds)          
--------------------------------------------------------------------------------
0	0.000000e+00	-5.57327e-32	
1	-5.00000e-02	2.040279e-06	
2	-1.00000e-01	2.977263e-06	
3	-1.50000e-01	3.271169e-06	
4	-2.00000e-01	3.389577e-06	
5	-2.50000e-01	3.472545e-06	
6	-3.00000e-01	3.545218e-06	
7	-3.50000e-01	3.613421e-06	
8	-4.00000e-01	3.679101e-06	
9	-4.50000e-01	3.743124e-06	
10	-5.00000e-01	3.805967e-06	
11	-5.50000e-01	3.867931e-06	
12	-6.00000e-01	3.929224e-06	
13	-6.50000e-01	3.990003e-06	
14	-7.00000e-01	4.050389e-06	
15	-7.50000e-01	4.110478e-06	
16	-8.00000e-01	4.170351e-06	
17	-8.50000e-01	4.230074e-06	
18	-9.00000e-01	4.289703e-06	
19	-9.50000e-01	4.349287e-06	
20	-1.00000e+00	4.408868e-06	
21	-1.05000e+00	4.468483e-06	
22	-1.10000e+00	4.528162e-06	
23	-1.15000e+00	4.587936e-06	
24	-1.20000e+00	4.647829e-06	
25	-1.25000e+00	4.707864e-06	
26	-1.30000e+00	4.768061e-06	
27	-1.35000e+00	4.828439e-06	
28	-1.40000e+00	4.889014e-06	
29	-1.45000e+00	4.949802e-06	
30	-1.50000e+00	5.010817e-06	
31	-1.55000e+00	5.072071e-06	
32	-1.60000e+00	5.133576e-06	
33	-1.65000e+00	5.195343e-06	
34	-1.70000e+00	5.257382e-06	
35	-1.75000e+00	5.319702e-06	
36	-1.80000e+00	5.382312e-06	
37	-1.85000e+00	5.445221e-06	
38	-1.90000e+00	5.508435e-06	
39	-1.95000e+00	5.571964e-06	
40	-2.00000e+00	5.635815e-06	
41	-2.05000e+00	5.699994e-06	
42	-2.10000e+00	5.764509e-06	
43	-2.15000e+00	5.829369e-06	
44	-2.20000e+00	5.894582e-06	
45	-2.25000e+00	5.960155e-06	
46	-2.30000e+00	6.026100e-06	
47	-2.35000e+00	6.092427e-06	
48	-2.40000e+00	6.159149e-06	
49	-2.45000e+00	6.226280e-06	
50	-2.50000e+00	6.293836e-06	
51	-2.55000e+00	6.361836e-06	
52	-2.60000e+00	6.430302e-06	
53	-2.65000e+00	6.499259e-06	
54	-2.70000e+00	6.568735e-06	

Index   v-sweep         i(vds)          
--------------------------------------------------------------------------------
55	-2.75000e+00	6.638765e-06	
56	-2.80000e+00	6.709386e-06	
57	-2.85000e+00	6.780641e-06	
58	-2.90000e+00	6.852581e-06	
59	-2.95000e+00	6.925260e-06	
60	-3.00000e+00	6.998742e-06	
61	-3.05000e+00	7.073098e-06	
62	-3.10000e+00	7.148406e-06	
63	-3.15000e+00	7.224755e-06	
64	-3.20000e+00	7.302242e-06	
65	-3.25000e+00	7.380975e-06	
66	-3.30000e+00	7.461072e-06	
67	0.000000e+00	-3.26973e-21	
68	-5.00000e-02	1.761546e-05	
69	-1.00000e-01	3.342690e-05	
70	-1.50000e-01	4.745990e-05	
71	-2.00000e-01	5.974084e-05	
72	-2.50000e-01	7.029787e-05	
73	-3.00000e-01	7.916318e-05	
74	-3.50000e-01	8.637842e-05	
75	-4.00000e-01	9.200832e-05	
76	-4.50000e-01	9.617260e-05	
77	-5.00000e-01	9.909973e-05	
78	-5.50000e-01	1.011431e-04	
79	-6.00000e-01	1.026660e-04	
80	-6.50000e-01	1.039108e-04	
81	-7.00000e-01	1.049995e-04	
82	-7.50000e-01	1.059892e-04	
83	-8.00000e-01	1.069089e-04	
84	-8.50000e-01	1.077749e-04	
85	-9.00000e-01	1.085975e-04	
86	-9.50000e-01	1.093838e-04	
87	-1.00000e+00	1.101391e-04	
88	-1.05000e+00	1.108676e-04	
89	-1.10000e+00	1.115724e-04	
90	-1.15000e+00	1.122562e-04	
91	-1.20000e+00	1.129212e-04	
92	-1.25000e+00	1.135694e-04	
93	-1.30000e+00	1.142022e-04	
94	-1.35000e+00	1.148212e-04	
95	-1.40000e+00	1.154275e-04	
96	-1.45000e+00	1.160221e-04	
97	-1.50000e+00	1.166061e-04	
98	-1.55000e+00	1.171802e-04	
99	-1.60000e+00	1.177452e-04	
100	-1.65000e+00	1.183017e-04	
101	-1.70000e+00	1.188503e-04	
102	-1.75000e+00	1.193917e-04	
103	-1.80000e+00	1.199261e-04	
104	-1.85000e+00	1.204542e-04	
105	-1.90000e+00	1.209764e-04	
106	-1.95000e+00	1.214928e-04	
107	-2.00000e+00	1.220041e-04	
108	-2.05000e+00	1.225103e-04	
109	-2.10000e+00	1.230119e-04	
110	-2.15000e+00	1.235090e-04	
111	-2.20000e+00	1.240020e-04	
112	-2.25000e+00	1.244911e-04	

Index   v-sweep         i(vds)          
--------------------------------------------------------------------------------
113	-2.30000e+00	1.249765e-04	
114	-2.35000e+00	1.254584e-04	
115	-2.40000e+00	1.259369e-04	
116	-2.45000e+00	1.264124e-04	
117	-2.50000e+00	1.268850e-04	
118	-2.55000e+00	1.273548e-04	
119	-2.60000e+00	1.278222e-04	
120	-2.65000e+00	1.282872e-04	
121	-2.70000e+00	1.287502e-04	
122	-2.75000e+00	1.292113e-04	
123	-2.80000e+00	1.296709e-04	
124	-2.85000e+00	1.301292e-04	
125	-2.90000e+00	1.305865e-04	
126	-2.95000e+00	1.310433e-04	
127	-3.00000e+00	1.314999e-04	
128	-3.05000e+00	1.319569e-04	
129	-3.10000e+00	1.324147e-04	
130	-3.15000e+00	1.328739e-04	
131	-3.20000e+00	1.333353e-04	
132	-3.25000e+00	1.337997e-04	
133	-3.30000e+00	1.342678e-04	
134	0.000000e+00	-7.79202e-21	
135	-5.00000e-02	2.972209e-05	
136	-1.00000e-01	5.775186e-05	
137	-1.50000e-01	8.410679e-05	
138	-2.00000e-01	1.088044e-04	
139	-2.50000e-01	1.318622e-04	
140	-3.00000e-01	1.532978e-04	
141	-3.50000e-01	1.731289e-04	
142	-4.00000e-01	1.913734e-04	
143	-4.50000e-01	2.080495e-04	
144	-5.00000e-01	2.231761e-04	
145	-5.50000e-01	2.367733e-04	
146	-6.00000e-01	2.488633e-04	
147	-6.50000e-01	2.594722e-04	
148	-7.00000e-01	2.686339e-04	
149	-7.50000e-01	2.763979e-04	
150	-8.00000e-01	2.828430e-04	
151	-8.50000e-01	2.880988e-04	
152	-9.00000e-01	2.923611e-04	
153	-9.50000e-01	2.958712e-04	
154	-1.00000e+00	2.988570e-04	
155	-1.05000e+00	3.014862e-04	
156	-1.10000e+00	3.038650e-04	
157	-1.15000e+00	3.060579e-04	
158	-1.20000e+00	3.081050e-04	
159	-1.25000e+00	3.100331e-04	
160	-1.30000e+00	3.118611e-04	
161	-1.35000e+00	3.136033e-04	
162	-1.40000e+00	3.152705e-04	
163	-1.45000e+00	3.168715e-04	
164	-1.50000e+00	3.184137e-04	
165	-1.55000e+00	3.199030e-04	
166	-1.60000e+00	3.213447e-04	
167	-1.65000e+00	3.227430e-04	
168	-1.70000e+00	3.241017e-04	
169	-1.75000e+00	3.254243e-04	
170	-1.80000e+00	3.267135e-04	

Index   v-sweep         i(vds)          
--------------------------------------------------------------------------------
171	-1.85000e+00	3.279720e-04	
172	-1.90000e+00	3.292021e-04	
173	-1.95000e+00	3.304058e-04	
174	-2.00000e+00	3.315849e-04	
175	-2.05000e+00	3.327412e-04	
176	-2.10000e+00	3.338759e-04	
177	-2.15000e+00	3.349907e-04	
178	-2.20000e+00	3.360865e-04	
179	-2.25000e+00	3.371647e-04	
180	-2.30000e+00	3.382262e-04	
181	-2.35000e+00	3.392719e-04	
182	-2.40000e+00	3.403028e-04	
183	-2.45000e+00	3.413196e-04	
184	-2.50000e+00	3.423231e-04	
185	-2.55000e+00	3.433139e-04	
186	-2.60000e+00	3.442928e-04	
187	-2.65000e+00	3.452603e-04	
188	-2.70000e+00	3.462169e-04	
189	-2.75000e+00	3.471634e-04	
190	-2.80000e+00	3.481001e-04	
191	-2.85000e+00	3.490276e-04	
192	-2.90000e+00	3.499464e-04	
193	-2.95000e+00	3.508572e-04	
194	-3.00000e+00	3.517603e-04	
195	-3.05000e+00	3.526564e-04	
196	-3.10000e+00	3.535461e-04	
197	-3.15000e+00	3.544302e-04	
198	-3.20000e+00	3.553092e-04	
199	-3.25000e+00	3.561841e-04	
200	-3.30000e+00	3.570558e-04	
201	0.000000e+00	-2.88512e-21	
202	-5.00000e-02	3.873984e-05	
203	-1.00000e-01	7.593513e-05	
204	-1.50000e-01	1.115986e-04	
205	-2.00000e-01	1.457431e-04	
206	-2.50000e-01	1.783813e-04	
207	-3.00000e-01	2.095261e-04	
208	-3.50000e-01	2.391902e-04	
209	-4.00000e-01	2.673864e-04	
210	-4.50000e-01	2.941277e-04	
211	-5.00000e-01	3.194268e-04	
212	-5.50000e-01	3.432967e-04	
213	-6.00000e-01	3.657504e-04	
214	-6.50000e-01	3.868010e-04	
215	-7.00000e-01	4.064617e-04	
216	-7.50000e-01	4.247463e-04	
217	-8.00000e-01	4.416686e-04	
218	-8.50000e-01	4.572436e-04	
219	-9.00000e-01	4.714873e-04	
220	-9.50000e-01	4.844179e-04	
221	-1.00000e+00	4.960575e-04	
222	-1.05000e+00	5.064346e-04	
223	-1.10000e+00	5.155895e-04	
224	-1.15000e+00	5.235827e-04	
225	-1.20000e+00	5.305057e-04	
226	-1.25000e+00	5.364890e-04	
227	-1.30000e+00	5.416952e-04	
228	-1.35000e+00	5.462926e-04	

Index   v-sweep         i(vds)          
--------------------------------------------------------------------------------
229	-1.40000e+00	5.504256e-04	
230	-1.45000e+00	5.542026e-04	
231	-1.50000e+00	5.576993e-04	
232	-1.55000e+00	5.609684e-04	
233	-1.60000e+00	5.640474e-04	
234	-1.65000e+00	5.669642e-04	
235	-1.70000e+00	5.697402e-04	
236	-1.75000e+00	5.723925e-04	
237	-1.80000e+00	5.749350e-04	
238	-1.85000e+00	5.773790e-04	
239	-1.90000e+00	5.797344e-04	
240	-1.95000e+00	5.820093e-04	
241	-2.00000e+00	5.842110e-04	
242	-2.05000e+00	5.863456e-04	
243	-2.10000e+00	5.884185e-04	
244	-2.15000e+00	5.904346e-04	
245	-2.20000e+00	5.923981e-04	
246	-2.25000e+00	5.943128e-04	
247	-2.30000e+00	5.961821e-04	
248	-2.35000e+00	5.980091e-04	
249	-2.40000e+00	5.997965e-04	
250	-2.45000e+00	6.015468e-04	
251	-2.50000e+00	6.032622e-04	
252	-2.55000e+00	6.049450e-04	
253	-2.60000e+00	6.065968e-04	
254	-2.65000e+00	6.082196e-04	
255	-2.70000e+00	6.098149e-04	
256	-2.75000e+00	6.113841e-04	
257	-2.80000e+00	6.129286e-04	
258	-2.85000e+00	6.144498e-04	
259	-2.90000e+00	6.159486e-04	
260	-2.95000e+00	6.174264e-04	
261	-3.00000e+00	6.188840e-04	
262	-3.05000e+00	6.203225e-04	
263	-3.10000e+00	6.217429e-04	
264	-3.15000e+00	6.231459e-04	
265	-3.20000e+00	6.245326e-04	
266	-3.25000e+00	6.259038e-04	
267	-3.30000e+00	6.272604e-04	
268	0.000000e+00	5.049364e-30	
269	-5.00000e-02	4.561865e-05	
270	-1.00000e-01	8.983231e-05	
271	-1.50000e-01	1.326506e-04	
272	-2.00000e-01	1.740832e-04	
273	-2.50000e-01	2.141397e-04	
274	-3.00000e-01	2.528298e-04	
275	-3.50000e-01	2.901632e-04	
276	-4.00000e-01	3.261497e-04	
277	-4.50000e-01	3.607988e-04	
278	-5.00000e-01	3.941205e-04	
279	-5.50000e-01	4.261244e-04	
280	-6.00000e-01	4.568203e-04	
281	-6.50000e-01	4.862179e-04	
282	-7.00000e-01	5.143271e-04	
283	-7.50000e-01	5.411577e-04	
284	-8.00000e-01	5.667195e-04	
285	-8.50000e-01	5.910225e-04	
286	-9.00000e-01	6.140767e-04	

Index   v-sweep         i(vds)          
--------------------------------------------------------------------------------
287	-9.50000e-01	6.358921e-04	
288	-1.00000e+00	6.564789e-04	
289	-1.05000e+00	6.758477e-04	
290	-1.10000e+00	6.940093e-04	
291	-1.15000e+00	7.109749e-04	
292	-1.20000e+00	7.267567e-04	
293	-1.25000e+00	7.413682e-04	
294	-1.30000e+00	7.548249e-04	
295	-1.35000e+00	7.671458e-04	
296	-1.40000e+00	7.783558e-04	
297	-1.45000e+00	7.884892e-04	
298	-1.50000e+00	7.975955e-04	
299	-1.55000e+00	8.057455e-04	
300	-1.60000e+00	8.130352e-04	
301	-1.65000e+00	8.195819e-04	
302	-1.70000e+00	8.255100e-04	
303	-1.75000e+00	8.309334e-04	
304	-1.80000e+00	8.359458e-04	
305	-1.85000e+00	8.406194e-04	
306	-1.90000e+00	8.450084e-04	
307	-1.95000e+00	8.491544e-04	
308	-2.00000e+00	8.530893e-04	
309	-2.05000e+00	8.568389e-04	
310	-2.10000e+00	8.604240e-04	
311	-2.15000e+00	8.638618e-04	
312	-2.20000e+00	8.671670e-04	
313	-2.25000e+00	8.703518e-04	
314	-2.30000e+00	8.734271e-04	
315	-2.35000e+00	8.764021e-04	
316	-2.40000e+00	8.792849e-04	
317	-2.45000e+00	8.820827e-04	
318	-2.50000e+00	8.848019e-04	
319	-2.55000e+00	8.874482e-04	
320	-2.60000e+00	8.900265e-04	
321	-2.65000e+00	8.925416e-04	
322	-2.70000e+00	8.949974e-04	
323	-2.75000e+00	8.973978e-04	
324	-2.80000e+00	8.997462e-04	
325	-2.85000e+00	9.020455e-04	
326	-2.90000e+00	9.042987e-04	
327	-2.95000e+00	9.065084e-04	
328	-3.00000e+00	9.086768e-04	
329	-3.05000e+00	9.108063e-04	
330	-3.10000e+00	9.128988e-04	
331	-3.15000e+00	9.149563e-04	
332	-3.20000e+00	9.169804e-04	
333	-3.25000e+00	9.189728e-04	
334	-3.30000e+00	9.209350e-04	
335	0.000000e+00	-4.89569e-21	
336	-5.00000e-02	5.097064e-05	
337	-1.00000e-01	1.006605e-04	
338	-1.50000e-01	1.490769e-04	
339	-2.00000e-01	1.962275e-04	
340	-2.50000e-01	2.421197e-04	
341	-3.00000e-01	2.867610e-04	
342	-3.50000e-01	3.301591e-04	
343	-4.00000e-01	3.723213e-04	
344	-4.50000e-01	4.132554e-04	

Index   v-sweep         i(vds)          
--------------------------------------------------------------------------------
345	-5.00000e-01	4.529689e-04	
346	-5.50000e-01	4.914694e-04	
347	-6.00000e-01	5.287646e-04	
348	-6.50000e-01	5.648620e-04	
349	-7.00000e-01	5.997693e-04	
350	-7.50000e-01	6.334942e-04	
351	-8.00000e-01	6.660444e-04	
352	-8.50000e-01	6.974274e-04	
353	-9.00000e-01	7.276510e-04	
354	-9.50000e-01	7.567230e-04	
355	-1.00000e+00	7.846510e-04	
356	-1.05000e+00	8.114428e-04	
357	-1.10000e+00	8.371062e-04	
358	-1.15000e+00	8.616490e-04	
359	-1.20000e+00	8.850791e-04	
360	-1.25000e+00	9.074046e-04	
361	-1.30000e+00	9.286334e-04	
362	-1.35000e+00	9.487739e-04	
363	-1.40000e+00	9.678346e-04	
364	-1.45000e+00	9.858243e-04	
365	-1.50000e+00	1.002753e-03	
366	-1.55000e+00	1.018630e-03	
367	-1.60000e+00	1.033467e-03	
368	-1.65000e+00	1.047279e-03	
369	-1.70000e+00	1.060081e-03	
370	-1.75000e+00	1.071896e-03	
371	-1.80000e+00	1.082754e-03	
372	-1.85000e+00	1.092696e-03	
373	-1.90000e+00	1.101780e-03	
374	-1.95000e+00	1.110079e-03	
375	-2.00000e+00	1.117683e-03	
376	-2.05000e+00	1.124686e-03	
377	-2.10000e+00	1.131177e-03	
378	-2.15000e+00	1.137234e-03	
379	-2.20000e+00	1.142920e-03	
380	-2.25000e+00	1.148288e-03	
381	-2.30000e+00	1.153377e-03	
382	-2.35000e+00	1.158220e-03	
383	-2.40000e+00	1.162846e-03	
384	-2.45000e+00	1.167276e-03	
385	-2.50000e+00	1.171529e-03	
386	-2.55000e+00	1.175623e-03	
387	-2.60000e+00	1.179571e-03	
388	-2.65000e+00	1.183385e-03	
389	-2.70000e+00	1.187076e-03	
390	-2.75000e+00	1.190654e-03	
391	-2.80000e+00	1.194128e-03	
392	-2.85000e+00	1.197504e-03	
393	-2.90000e+00	1.200789e-03	
394	-2.95000e+00	1.203990e-03	
395	-3.00000e+00	1.207112e-03	
396	-3.05000e+00	1.210159e-03	
397	-3.10000e+00	1.213138e-03	
398	-3.15000e+00	1.216050e-03	
399	-3.20000e+00	1.218901e-03	
400	-3.25000e+00	1.221694e-03	
401	-3.30000e+00	1.224432e-03	
Note: No ".plot", ".print", or ".fourier" lines; no simulations run
