
Note: Compatibility modes selected: hs

Warning: m=xx on .subckt line will override multiplier m hierarchy!


Circuit: ***************************

Doing analysis at TEMP = 125.000000 and TNOM = 125.000000


No. of Data Rows : 402
                          ***************************
                          DC transfer characteristic  Mon Jan  9 13:58:24  2023
--------------------------------------------------------------------------------
Index   v-sweep         i(vds)          
--------------------------------------------------------------------------------
0	0.000000e+00	9.020633e-24	
1	-5.00000e-02	7.936985e-08	
2	-1.00000e-01	1.246444e-07	
3	-1.50000e-01	1.436887e-07	
4	-2.00000e-01	1.491933e-07	
5	-2.50000e-01	1.508730e-07	
6	-3.00000e-01	1.516385e-07	
7	-3.50000e-01	1.521245e-07	
8	-4.00000e-01	1.524971e-07	
9	-4.50000e-01	1.528118e-07	
10	-5.00000e-01	1.530917e-07	
11	-5.50000e-01	1.533479e-07	
12	-6.00000e-01	1.535864e-07	
13	-6.50000e-01	1.538110e-07	
14	-7.00000e-01	1.540240e-07	
15	-7.50000e-01	1.542272e-07	
16	-8.00000e-01	1.544220e-07	
17	-8.50000e-01	1.546092e-07	
18	-9.00000e-01	1.547898e-07	
19	-9.50000e-01	1.549643e-07	
20	-1.00000e+00	1.551332e-07	
21	-1.05000e+00	1.552972e-07	
22	-1.10000e+00	1.554564e-07	
23	-1.15000e+00	1.556114e-07	
24	-1.20000e+00	1.557625e-07	
25	-1.25000e+00	1.559098e-07	
26	-1.30000e+00	1.560536e-07	
27	-1.35000e+00	1.561942e-07	
28	-1.40000e+00	1.563318e-07	
29	-1.45000e+00	1.564665e-07	
30	-1.50000e+00	1.565984e-07	
31	-1.55000e+00	1.567279e-07	
32	-1.60000e+00	1.568549e-07	
33	-1.65000e+00	1.569796e-07	
34	-1.70000e+00	1.571022e-07	
35	-1.75000e+00	1.572227e-07	
36	-1.80000e+00	1.573412e-07	
37	-1.85000e+00	1.574579e-07	
38	-1.90000e+00	1.575727e-07	
39	-1.95000e+00	1.576859e-07	
40	-2.00000e+00	1.577975e-07	
41	-2.05000e+00	1.579075e-07	
42	-2.10000e+00	1.580160e-07	
43	-2.15000e+00	1.581232e-07	
44	-2.20000e+00	1.582290e-07	
45	-2.25000e+00	1.583336e-07	
46	-2.30000e+00	1.584370e-07	
47	-2.35000e+00	1.585393e-07	
48	-2.40000e+00	1.586406e-07	
49	-2.45000e+00	1.587411e-07	
50	-2.50000e+00	1.588408e-07	
51	-2.55000e+00	1.589399e-07	
52	-2.60000e+00	1.590386e-07	
53	-2.65000e+00	1.591370e-07	
54	-2.70000e+00	1.592354e-07	

Index   v-sweep         i(vds)          
--------------------------------------------------------------------------------
55	-2.75000e+00	1.593339e-07	
56	-2.80000e+00	1.594330e-07	
57	-2.85000e+00	1.595329e-07	
58	-2.90000e+00	1.596340e-07	
59	-2.95000e+00	1.597367e-07	
60	-3.00000e+00	1.598416e-07	
61	-3.05000e+00	1.599491e-07	
62	-3.10000e+00	1.600601e-07	
63	-3.15000e+00	1.601750e-07	
64	-3.20000e+00	1.602949e-07	
65	-3.25000e+00	1.604205e-07	
66	-3.30000e+00	1.605527e-07	
67	0.000000e+00	1.796491e-26	
68	-5.00000e-02	3.832439e-07	
69	-1.00000e-01	7.229857e-07	
70	-1.50000e-01	1.022045e-06	
71	-2.00000e-01	1.281200e-06	
72	-2.50000e-01	1.500801e-06	
73	-3.00000e-01	1.681200e-06	
74	-3.50000e-01	1.823008e-06	
75	-4.00000e-01	1.927516e-06	
76	-4.50000e-01	1.997662e-06	
77	-5.00000e-01	2.039523e-06	
78	-5.50000e-01	2.062350e-06	
79	-6.00000e-01	2.075010e-06	
80	-6.50000e-01	2.082936e-06	
81	-7.00000e-01	2.088642e-06	
82	-7.50000e-01	2.093206e-06	
83	-8.00000e-01	2.097108e-06	
84	-8.50000e-01	2.100580e-06	
85	-9.00000e-01	2.103747e-06	
86	-9.50000e-01	2.106682e-06	
87	-1.00000e+00	2.109430e-06	
88	-1.05000e+00	2.112025e-06	
89	-1.10000e+00	2.114487e-06	
90	-1.15000e+00	2.116833e-06	
91	-1.20000e+00	2.119078e-06	
92	-1.25000e+00	2.121231e-06	
93	-1.30000e+00	2.123301e-06	
94	-1.35000e+00	2.125296e-06	
95	-1.40000e+00	2.127222e-06	
96	-1.45000e+00	2.129084e-06	
97	-1.50000e+00	2.130887e-06	
98	-1.55000e+00	2.132636e-06	
99	-1.60000e+00	2.134333e-06	
100	-1.65000e+00	2.135982e-06	
101	-1.70000e+00	2.137587e-06	
102	-1.75000e+00	2.139150e-06	
103	-1.80000e+00	2.140673e-06	
104	-1.85000e+00	2.142159e-06	
105	-1.90000e+00	2.143609e-06	
106	-1.95000e+00	2.145026e-06	
107	-2.00000e+00	2.146411e-06	
108	-2.05000e+00	2.147766e-06	
109	-2.10000e+00	2.149093e-06	
110	-2.15000e+00	2.150392e-06	
111	-2.20000e+00	2.151665e-06	
112	-2.25000e+00	2.152913e-06	

Index   v-sweep         i(vds)          
--------------------------------------------------------------------------------
113	-2.30000e+00	2.154137e-06	
114	-2.35000e+00	2.155339e-06	
115	-2.40000e+00	2.156520e-06	
116	-2.45000e+00	2.157680e-06	
117	-2.50000e+00	2.158820e-06	
118	-2.55000e+00	2.159942e-06	
119	-2.60000e+00	2.161047e-06	
120	-2.65000e+00	2.162135e-06	
121	-2.70000e+00	2.163208e-06	
122	-2.75000e+00	2.164267e-06	
123	-2.80000e+00	2.165314e-06	
124	-2.85000e+00	2.166351e-06	
125	-2.90000e+00	2.167378e-06	
126	-2.95000e+00	2.168400e-06	
127	-3.00000e+00	2.169417e-06	
128	-3.05000e+00	2.170434e-06	
129	-3.10000e+00	2.171454e-06	
130	-3.15000e+00	2.172480e-06	
131	-3.20000e+00	2.173517e-06	
132	-3.25000e+00	2.174571e-06	
133	-3.30000e+00	2.175647e-06	
134	0.000000e+00	-3.50359e-26	
135	-5.00000e-02	6.677731e-07	
136	-1.00000e-01	1.293336e-06	
137	-1.50000e-01	1.879432e-06	
138	-2.00000e-01	2.426770e-06	
139	-2.50000e-01	2.935575e-06	
140	-3.00000e-01	3.405962e-06	
141	-3.50000e-01	3.838023e-06	
142	-4.00000e-01	4.231855e-06	
143	-4.50000e-01	4.587563e-06	
144	-5.00000e-01	4.905279e-06	
145	-5.50000e-01	5.185172e-06	
146	-6.00000e-01	5.427489e-06	
147	-6.50000e-01	5.632615e-06	
148	-7.00000e-01	5.801209e-06	
149	-7.50000e-01	5.934481e-06	
150	-8.00000e-01	6.034683e-06	
151	-8.50000e-01	6.105808e-06	
152	-9.00000e-01	6.153905e-06	
153	-9.50000e-01	6.186078e-06	
154	-1.00000e+00	6.208503e-06	
155	-1.05000e+00	6.225316e-06	
156	-1.10000e+00	6.238868e-06	
157	-1.15000e+00	6.250414e-06	
158	-1.20000e+00	6.260632e-06	
159	-1.25000e+00	6.269905e-06	
160	-1.30000e+00	6.278461e-06	
161	-1.35000e+00	6.286446e-06	
162	-1.40000e+00	6.293960e-06	
163	-1.45000e+00	6.301073e-06	
164	-1.50000e+00	6.307839e-06	
165	-1.55000e+00	6.314297e-06	
166	-1.60000e+00	6.320482e-06	
167	-1.65000e+00	6.326419e-06	
168	-1.70000e+00	6.332130e-06	
169	-1.75000e+00	6.337636e-06	
170	-1.80000e+00	6.342952e-06	

Index   v-sweep         i(vds)          
--------------------------------------------------------------------------------
171	-1.85000e+00	6.348093e-06	
172	-1.90000e+00	6.353070e-06	
173	-1.95000e+00	6.357896e-06	
174	-2.00000e+00	6.362580e-06	
175	-2.05000e+00	6.367131e-06	
176	-2.10000e+00	6.371557e-06	
177	-2.15000e+00	6.375866e-06	
178	-2.20000e+00	6.380064e-06	
179	-2.25000e+00	6.384157e-06	
180	-2.30000e+00	6.388151e-06	
181	-2.35000e+00	6.392051e-06	
182	-2.40000e+00	6.395861e-06	
183	-2.45000e+00	6.399587e-06	
184	-2.50000e+00	6.403232e-06	
185	-2.55000e+00	6.406799e-06	
186	-2.60000e+00	6.410293e-06	
187	-2.65000e+00	6.413717e-06	
188	-2.70000e+00	6.417074e-06	
189	-2.75000e+00	6.420367e-06	
190	-2.80000e+00	6.423599e-06	
191	-2.85000e+00	6.426773e-06	
192	-2.90000e+00	6.429891e-06	
193	-2.95000e+00	6.432958e-06	
194	-3.00000e+00	6.435975e-06	
195	-3.05000e+00	6.438947e-06	
196	-3.10000e+00	6.441877e-06	
197	-3.15000e+00	6.444769e-06	
198	-3.20000e+00	6.447627e-06	
199	-3.25000e+00	6.450458e-06	
200	-3.30000e+00	6.453266e-06	
201	0.000000e+00	-1.11385e-25	
202	-5.00000e-02	9.215190e-07	
203	-1.00000e-01	1.803012e-06	
204	-1.50000e-01	2.647186e-06	
205	-2.00000e-01	3.454731e-06	
206	-2.50000e-01	4.225860e-06	
207	-3.00000e-01	4.960669e-06	
208	-3.50000e-01	5.659229e-06	
209	-4.00000e-01	6.321605e-06	
210	-4.50000e-01	6.947861e-06	
211	-5.00000e-01	7.538063e-06	
212	-5.50000e-01	8.092277e-06	
213	-6.00000e-01	8.610576e-06	
214	-6.50000e-01	9.093032e-06	
215	-7.00000e-01	9.539728e-06	
216	-7.50000e-01	9.950754e-06	
217	-8.00000e-01	1.032622e-05	
218	-8.50000e-01	1.066624e-05	
219	-9.00000e-01	1.097100e-05	
220	-9.50000e-01	1.124071e-05	
221	-1.00000e+00	1.147573e-05	
222	-1.05000e+00	1.167659e-05	
223	-1.10000e+00	1.184415e-05	
224	-1.15000e+00	1.197990e-05	
225	-1.20000e+00	1.208627e-05	
226	-1.25000e+00	1.216699e-05	
227	-1.30000e+00	1.222708e-05	
228	-1.35000e+00	1.227204e-05	

Index   v-sweep         i(vds)          
--------------------------------------------------------------------------------
229	-1.40000e+00	1.230676e-05	
230	-1.45000e+00	1.233481e-05	
231	-1.50000e+00	1.235852e-05	
232	-1.55000e+00	1.237930e-05	
233	-1.60000e+00	1.239798e-05	
234	-1.65000e+00	1.241511e-05	
235	-1.70000e+00	1.243100e-05	
236	-1.75000e+00	1.244590e-05	
237	-1.80000e+00	1.245996e-05	
238	-1.85000e+00	1.247329e-05	
239	-1.90000e+00	1.248599e-05	
240	-1.95000e+00	1.249813e-05	
241	-2.00000e+00	1.250977e-05	
242	-2.05000e+00	1.252094e-05	
243	-2.10000e+00	1.253170e-05	
244	-2.15000e+00	1.254208e-05	
245	-2.20000e+00	1.255210e-05	
246	-2.25000e+00	1.256180e-05	
247	-2.30000e+00	1.257119e-05	
248	-2.35000e+00	1.258029e-05	
249	-2.40000e+00	1.258913e-05	
250	-2.45000e+00	1.259772e-05	
251	-2.50000e+00	1.260607e-05	
252	-2.55000e+00	1.261421e-05	
253	-2.60000e+00	1.262213e-05	
254	-2.65000e+00	1.262986e-05	
255	-2.70000e+00	1.263739e-05	
256	-2.75000e+00	1.264475e-05	
257	-2.80000e+00	1.265194e-05	
258	-2.85000e+00	1.265897e-05	
259	-2.90000e+00	1.266585e-05	
260	-2.95000e+00	1.267258e-05	
261	-3.00000e+00	1.267917e-05	
262	-3.05000e+00	1.268562e-05	
263	-3.10000e+00	1.269195e-05	
264	-3.15000e+00	1.269816e-05	
265	-3.20000e+00	1.270425e-05	
266	-3.25000e+00	1.271023e-05	
267	-3.30000e+00	1.271611e-05	
268	0.000000e+00	-2.19381e-25	
269	-5.00000e-02	1.149844e-06	
270	-1.00000e-01	2.261891e-06	
271	-1.50000e-01	3.338814e-06	
272	-2.00000e-01	4.381297e-06	
273	-2.50000e-01	5.389543e-06	
274	-3.00000e-01	6.363643e-06	
275	-3.50000e-01	7.303659e-06	
276	-4.00000e-01	8.209647e-06	
277	-4.50000e-01	9.081662e-06	
278	-5.00000e-01	9.919760e-06	
279	-5.50000e-01	1.072399e-05	
280	-6.00000e-01	1.149442e-05	
281	-6.50000e-01	1.223109e-05	
282	-7.00000e-01	1.293407e-05	
283	-7.50000e-01	1.360341e-05	
284	-8.00000e-01	1.423917e-05	
285	-8.50000e-01	1.484141e-05	
286	-9.00000e-01	1.541020e-05	

Index   v-sweep         i(vds)          
--------------------------------------------------------------------------------
287	-9.50000e-01	1.594559e-05	
288	-1.00000e+00	1.644766e-05	
289	-1.05000e+00	1.691648e-05	
290	-1.10000e+00	1.735214e-05	
291	-1.15000e+00	1.775473e-05	
292	-1.20000e+00	1.812436e-05	
293	-1.25000e+00	1.846118e-05	
294	-1.30000e+00	1.876538e-05	
295	-1.35000e+00	1.903721e-05	
296	-1.40000e+00	1.927704e-05	
297	-1.45000e+00	1.948545e-05	
298	-1.50000e+00	1.966330e-05	
299	-1.55000e+00	1.981198e-05	
300	-1.60000e+00	1.993360e-05	
301	-1.65000e+00	2.003122e-05	
302	-1.70000e+00	2.010878e-05	
303	-1.75000e+00	2.017068e-05	
304	-1.80000e+00	2.022107e-05	
305	-1.85000e+00	2.026332e-05	
306	-1.90000e+00	2.029983e-05	
307	-1.95000e+00	2.033225e-05	
308	-2.00000e+00	2.036162e-05	
309	-2.05000e+00	2.038865e-05	
310	-2.10000e+00	2.041381e-05	
311	-2.15000e+00	2.043743e-05	
312	-2.20000e+00	2.045975e-05	
313	-2.25000e+00	2.048093e-05	
314	-2.30000e+00	2.050112e-05	
315	-2.35000e+00	2.052042e-05	
316	-2.40000e+00	2.053893e-05	
317	-2.45000e+00	2.055671e-05	
318	-2.50000e+00	2.057383e-05	
319	-2.55000e+00	2.059035e-05	
320	-2.60000e+00	2.060631e-05	
321	-2.65000e+00	2.062174e-05	
322	-2.70000e+00	2.063669e-05	
323	-2.75000e+00	2.065119e-05	
324	-2.80000e+00	2.066527e-05	
325	-2.85000e+00	2.067894e-05	
326	-2.90000e+00	2.069225e-05	
327	-2.95000e+00	2.070520e-05	
328	-3.00000e+00	2.071781e-05	
329	-3.05000e+00	2.073011e-05	
330	-3.10000e+00	2.074211e-05	
331	-3.15000e+00	2.075383e-05	
332	-3.20000e+00	2.076528e-05	
333	-3.25000e+00	2.077647e-05	
334	-3.30000e+00	2.078741e-05	
335	0.000000e+00	2.520133e-25	
336	-5.00000e-02	1.357401e-06	
337	-1.00000e-01	2.679100e-06	
338	-1.50000e-01	3.967744e-06	
339	-2.00000e-01	5.224008e-06	
340	-2.50000e-01	6.448093e-06	
341	-3.00000e-01	7.640082e-06	
342	-3.50000e-01	8.800033e-06	
343	-4.00000e-01	9.927997e-06	
344	-4.50000e-01	1.102402e-05	

Index   v-sweep         i(vds)          
--------------------------------------------------------------------------------
345	-5.00000e-01	1.208816e-05	
346	-5.50000e-01	1.312046e-05	
347	-6.00000e-01	1.412096e-05	
348	-6.50000e-01	1.508972e-05	
349	-7.00000e-01	1.602680e-05	
350	-7.50000e-01	1.693222e-05	
351	-8.00000e-01	1.780606e-05	
352	-8.50000e-01	1.864835e-05	
353	-9.00000e-01	1.945915e-05	
354	-9.50000e-01	2.023851e-05	
355	-1.00000e+00	2.098648e-05	
356	-1.05000e+00	2.170311e-05	
357	-1.10000e+00	2.238845e-05	
358	-1.15000e+00	2.304256e-05	
359	-1.20000e+00	2.366550e-05	
360	-1.25000e+00	2.425732e-05	
361	-1.30000e+00	2.481808e-05	
362	-1.35000e+00	2.534784e-05	
363	-1.40000e+00	2.584667e-05	
364	-1.45000e+00	2.631465e-05	
365	-1.50000e+00	2.675185e-05	
366	-1.55000e+00	2.715837e-05	
367	-1.60000e+00	2.753432e-05	
368	-1.65000e+00	2.787985e-05	
369	-1.70000e+00	2.819514e-05	
370	-1.75000e+00	2.848041e-05	
371	-1.80000e+00	2.873603e-05	
372	-1.85000e+00	2.896248e-05	
373	-1.90000e+00	2.916050e-05	
374	-1.95000e+00	2.933119e-05	
375	-2.00000e+00	2.947615e-05	
376	-2.05000e+00	2.959766e-05	
377	-2.10000e+00	2.969870e-05	
378	-2.15000e+00	2.978274e-05	
379	-2.20000e+00	2.985337e-05	
380	-2.25000e+00	2.991380e-05	
381	-2.30000e+00	2.996662e-05	
382	-2.35000e+00	3.001376e-05	
383	-2.40000e+00	3.005657e-05	
384	-2.45000e+00	3.009598e-05	
385	-2.50000e+00	3.013266e-05	
386	-2.55000e+00	3.016708e-05	
387	-2.60000e+00	3.019959e-05	
388	-2.65000e+00	3.023043e-05	
389	-2.70000e+00	3.025981e-05	
390	-2.75000e+00	3.028790e-05	
391	-2.80000e+00	3.031481e-05	
392	-2.85000e+00	3.034067e-05	
393	-2.90000e+00	3.036556e-05	
394	-2.95000e+00	3.038957e-05	
395	-3.00000e+00	3.041275e-05	
396	-3.05000e+00	3.043517e-05	
397	-3.10000e+00	3.045688e-05	
398	-3.15000e+00	3.047793e-05	
399	-3.20000e+00	3.049836e-05	
400	-3.25000e+00	3.051821e-05	
401	-3.30000e+00	3.053751e-05	
Note: No ".plot", ".print", or ".fourier" lines; no simulations run
