
Note: Compatibility modes selected: hs

Warning: m=xx on .subckt line will override multiplier m hierarchy!


Circuit: ***************************

Doing analysis at TEMP = 125.000000 and TNOM = 125.000000


No. of Data Rows : 402
                          ***************************
                          DC transfer characteristic  Mon Jan  9 13:58:24  2023
--------------------------------------------------------------------------------
Index   v-sweep         i(vds)          
--------------------------------------------------------------------------------
0	0.000000e+00	-2.17576e-22	
1	-5.00000e-02	2.563026e-07	
2	-1.00000e-01	4.614479e-07	
3	-1.50000e-01	6.175476e-07	
4	-2.00000e-01	7.267182e-07	
5	-2.50000e-01	7.937189e-07	
6	-3.00000e-01	8.295633e-07	
7	-3.50000e-01	8.493277e-07	
8	-4.00000e-01	8.630212e-07	
9	-4.50000e-01	8.744953e-07	
10	-5.00000e-01	8.850019e-07	
11	-5.50000e-01	8.949847e-07	
12	-6.00000e-01	9.046282e-07	
13	-6.50000e-01	9.140226e-07	
14	-7.00000e-01	9.232188e-07	
15	-7.50000e-01	9.322491e-07	
16	-8.00000e-01	9.411363e-07	
17	-8.50000e-01	9.498974e-07	
18	-9.00000e-01	9.585459e-07	
19	-9.50000e-01	9.670928e-07	
20	-1.00000e+00	9.755477e-07	
21	-1.05000e+00	9.839186e-07	
22	-1.10000e+00	9.922127e-07	
23	-1.15000e+00	1.000436e-06	
24	-1.20000e+00	1.008595e-06	
25	-1.25000e+00	1.016694e-06	
26	-1.30000e+00	1.024737e-06	
27	-1.35000e+00	1.032730e-06	
28	-1.40000e+00	1.040676e-06	
29	-1.45000e+00	1.048577e-06	
30	-1.50000e+00	1.056439e-06	
31	-1.55000e+00	1.064262e-06	
32	-1.60000e+00	1.072052e-06	
33	-1.65000e+00	1.079809e-06	
34	-1.70000e+00	1.087536e-06	
35	-1.75000e+00	1.095235e-06	
36	-1.80000e+00	1.102909e-06	
37	-1.85000e+00	1.110559e-06	
38	-1.90000e+00	1.118188e-06	
39	-1.95000e+00	1.125796e-06	
40	-2.00000e+00	1.133386e-06	
41	-2.05000e+00	1.140959e-06	
42	-2.10000e+00	1.148516e-06	
43	-2.15000e+00	1.156059e-06	
44	-2.20000e+00	1.163590e-06	
45	-2.25000e+00	1.171109e-06	
46	-2.30000e+00	1.178619e-06	
47	-2.35000e+00	1.186120e-06	
48	-2.40000e+00	1.193615e-06	
49	-2.45000e+00	1.201105e-06	
50	-2.50000e+00	1.208591e-06	
51	-2.55000e+00	1.216077e-06	
52	-2.60000e+00	1.223564e-06	
53	-2.65000e+00	1.231055e-06	
54	-2.70000e+00	1.238553e-06	

Index   v-sweep         i(vds)          
--------------------------------------------------------------------------------
55	-2.75000e+00	1.246062e-06	
56	-2.80000e+00	1.253585e-06	
57	-2.85000e+00	1.261127e-06	
58	-2.90000e+00	1.268694e-06	
59	-2.95000e+00	1.276291e-06	
60	-3.00000e+00	1.283924e-06	
61	-3.05000e+00	1.291603e-06	
62	-3.10000e+00	1.299335e-06	
63	-3.15000e+00	1.307129e-06	
64	-3.20000e+00	1.314997e-06	
65	-3.25000e+00	1.322951e-06	
66	-3.30000e+00	1.331003e-06	
67	0.000000e+00	-5.63866e-22	
68	-5.00000e-02	7.680814e-07	
69	-1.00000e-01	1.479320e-06	
70	-1.50000e-01	2.135214e-06	
71	-2.00000e-01	2.736440e-06	
72	-2.50000e-01	3.283475e-06	
73	-3.00000e-01	3.776765e-06	
74	-3.50000e-01	4.216775e-06	
75	-4.00000e-01	4.604025e-06	
76	-4.50000e-01	4.939143e-06	
77	-5.00000e-01	5.222982e-06	
78	-5.50000e-01	5.456864e-06	
79	-6.00000e-01	5.643114e-06	
80	-6.50000e-01	5.786046e-06	
81	-7.00000e-01	5.893099e-06	
82	-7.50000e-01	5.974448e-06	
83	-8.00000e-01	6.039988e-06	
84	-8.50000e-01	6.096567e-06	
85	-9.00000e-01	6.147945e-06	
86	-9.50000e-01	6.196010e-06	
87	-1.00000e+00	6.241727e-06	
88	-1.05000e+00	6.285625e-06	
89	-1.10000e+00	6.328024e-06	
90	-1.15000e+00	6.369137e-06	
91	-1.20000e+00	6.409114e-06	
92	-1.25000e+00	6.448073e-06	
93	-1.30000e+00	6.486105e-06	
94	-1.35000e+00	6.523288e-06	
95	-1.40000e+00	6.559687e-06	
96	-1.45000e+00	6.595359e-06	
97	-1.50000e+00	6.630355e-06	
98	-1.55000e+00	6.664719e-06	
99	-1.60000e+00	6.698491e-06	
100	-1.65000e+00	6.731708e-06	
101	-1.70000e+00	6.764401e-06	
102	-1.75000e+00	6.796601e-06	
103	-1.80000e+00	6.828336e-06	
104	-1.85000e+00	6.859630e-06	
105	-1.90000e+00	6.890508e-06	
106	-1.95000e+00	6.920990e-06	
107	-2.00000e+00	6.951096e-06	
108	-2.05000e+00	6.980844e-06	
109	-2.10000e+00	7.010253e-06	
110	-2.15000e+00	7.039339e-06	
111	-2.20000e+00	7.068115e-06	
112	-2.25000e+00	7.096596e-06	

Index   v-sweep         i(vds)          
--------------------------------------------------------------------------------
113	-2.30000e+00	7.124796e-06	
114	-2.35000e+00	7.152726e-06	
115	-2.40000e+00	7.180399e-06	
116	-2.45000e+00	7.207826e-06	
117	-2.50000e+00	7.235018e-06	
118	-2.55000e+00	7.261984e-06	
119	-2.60000e+00	7.288735e-06	
120	-2.65000e+00	7.315281e-06	
121	-2.70000e+00	7.341632e-06	
122	-2.75000e+00	7.367799e-06	
123	-2.80000e+00	7.393790e-06	
124	-2.85000e+00	7.419619e-06	
125	-2.90000e+00	7.445296e-06	
126	-2.95000e+00	7.470835e-06	
127	-3.00000e+00	7.496250e-06	
128	-3.05000e+00	7.521557e-06	
129	-3.10000e+00	7.546774e-06	
130	-3.15000e+00	7.571921e-06	
131	-3.20000e+00	7.597022e-06	
132	-3.25000e+00	7.622101e-06	
133	-3.30000e+00	7.647188e-06	
134	0.000000e+00	2.267143e-21	
135	-5.00000e-02	1.200180e-06	
136	-1.00000e-01	2.345098e-06	
137	-1.50000e-01	3.436092e-06	
138	-2.00000e-01	4.473720e-06	
139	-2.50000e-01	5.458341e-06	
140	-3.00000e-01	6.390267e-06	
141	-3.50000e-01	7.269801e-06	
142	-4.00000e-01	8.097248e-06	
143	-4.50000e-01	8.872915e-06	
144	-5.00000e-01	9.597117e-06	
145	-5.50000e-01	1.027018e-05	
146	-6.00000e-01	1.089244e-05	
147	-6.50000e-01	1.146426e-05	
148	-7.00000e-01	1.198603e-05	
149	-7.50000e-01	1.245820e-05	
150	-8.00000e-01	1.288132e-05	
151	-8.50000e-01	1.325609e-05	
152	-9.00000e-01	1.358354e-05	
153	-9.50000e-01	1.386525e-05	
154	-1.00000e+00	1.410382e-05	
155	-1.05000e+00	1.430342e-05	
156	-1.10000e+00	1.447024e-05	
157	-1.15000e+00	1.461189e-05	
158	-1.20000e+00	1.473580e-05	
159	-1.25000e+00	1.484773e-05	
160	-1.30000e+00	1.495143e-05	
161	-1.35000e+00	1.504918e-05	
162	-1.40000e+00	1.514233e-05	
163	-1.45000e+00	1.523172e-05	
164	-1.50000e+00	1.531791e-05	
165	-1.55000e+00	1.540129e-05	
166	-1.60000e+00	1.548215e-05	
167	-1.65000e+00	1.556074e-05	
168	-1.70000e+00	1.563724e-05	
169	-1.75000e+00	1.571181e-05	
170	-1.80000e+00	1.578459e-05	

Index   v-sweep         i(vds)          
--------------------------------------------------------------------------------
171	-1.85000e+00	1.585572e-05	
172	-1.90000e+00	1.592529e-05	
173	-1.95000e+00	1.599340e-05	
174	-2.00000e+00	1.606014e-05	
175	-2.05000e+00	1.612559e-05	
176	-2.10000e+00	1.618982e-05	
177	-2.15000e+00	1.625291e-05	
178	-2.20000e+00	1.631490e-05	
179	-2.25000e+00	1.637586e-05	
180	-2.30000e+00	1.643583e-05	
181	-2.35000e+00	1.649487e-05	
182	-2.40000e+00	1.655302e-05	
183	-2.45000e+00	1.661033e-05	
184	-2.50000e+00	1.666682e-05	
185	-2.55000e+00	1.672254e-05	
186	-2.60000e+00	1.677752e-05	
187	-2.65000e+00	1.683180e-05	
188	-2.70000e+00	1.688539e-05	
189	-2.75000e+00	1.693834e-05	
190	-2.80000e+00	1.699067e-05	
191	-2.85000e+00	1.704239e-05	
192	-2.90000e+00	1.709355e-05	
193	-2.95000e+00	1.714416e-05	
194	-3.00000e+00	1.719424e-05	
195	-3.05000e+00	1.724382e-05	
196	-3.10000e+00	1.729292e-05	
197	-3.15000e+00	1.734156e-05	
198	-3.20000e+00	1.738977e-05	
199	-3.25000e+00	1.743758e-05	
200	-3.30000e+00	1.748500e-05	
201	0.000000e+00	5.053586e-22	
202	-5.00000e-02	1.569855e-06	
203	-1.00000e-01	3.086867e-06	
204	-1.50000e-01	4.552262e-06	
205	-2.00000e-01	5.966524e-06	
206	-2.50000e-01	7.329944e-06	
207	-3.00000e-01	8.642766e-06	
208	-3.50000e-01	9.905223e-06	
209	-4.00000e-01	1.111755e-05	
210	-4.50000e-01	1.227997e-05	
211	-5.00000e-01	1.339273e-05	
212	-5.50000e-01	1.445606e-05	
213	-6.00000e-01	1.547020e-05	
214	-6.50000e-01	1.643541e-05	
215	-7.00000e-01	1.735192e-05	
216	-7.50000e-01	1.821999e-05	
217	-8.00000e-01	1.903988e-05	
218	-8.50000e-01	1.981186e-05	
219	-9.00000e-01	2.053620e-05	
220	-9.50000e-01	2.121320e-05	
221	-1.00000e+00	2.184316e-05	
222	-1.05000e+00	2.242645e-05	
223	-1.10000e+00	2.296347e-05	
224	-1.15000e+00	2.345470e-05	
225	-1.20000e+00	2.390079e-05	
226	-1.25000e+00	2.430261e-05	
227	-1.30000e+00	2.466145e-05	
228	-1.35000e+00	2.497927e-05	

Index   v-sweep         i(vds)          
--------------------------------------------------------------------------------
229	-1.40000e+00	2.525908e-05	
230	-1.45000e+00	2.550517e-05	
231	-1.50000e+00	2.572307e-05	
232	-1.55000e+00	2.591881e-05	
233	-1.60000e+00	2.609784e-05	
234	-1.65000e+00	2.626441e-05	
235	-1.70000e+00	2.642145e-05	
236	-1.75000e+00	2.657090e-05	
237	-1.80000e+00	2.671406e-05	
238	-1.85000e+00	2.685183e-05	
239	-1.90000e+00	2.698486e-05	
240	-1.95000e+00	2.711363e-05	
241	-2.00000e+00	2.723853e-05	
242	-2.05000e+00	2.735989e-05	
243	-2.10000e+00	2.747798e-05	
244	-2.15000e+00	2.759303e-05	
245	-2.20000e+00	2.770524e-05	
246	-2.25000e+00	2.781481e-05	
247	-2.30000e+00	2.792189e-05	
248	-2.35000e+00	2.802663e-05	
249	-2.40000e+00	2.812917e-05	
250	-2.45000e+00	2.822962e-05	
251	-2.50000e+00	2.832811e-05	
252	-2.55000e+00	2.842472e-05	
253	-2.60000e+00	2.851956e-05	
254	-2.65000e+00	2.861272e-05	
255	-2.70000e+00	2.870427e-05	
256	-2.75000e+00	2.879429e-05	
257	-2.80000e+00	2.888285e-05	
258	-2.85000e+00	2.897003e-05	
259	-2.90000e+00	2.905586e-05	
260	-2.95000e+00	2.914043e-05	
261	-3.00000e+00	2.922377e-05	
262	-3.05000e+00	2.930595e-05	
263	-3.10000e+00	2.938700e-05	
264	-3.15000e+00	2.946698e-05	
265	-3.20000e+00	2.954592e-05	
266	-3.25000e+00	2.962387e-05	
267	-3.30000e+00	2.970087e-05	
268	0.000000e+00	-5.56292e-22	
269	-5.00000e-02	1.893399e-06	
270	-1.00000e-01	3.736370e-06	
271	-1.50000e-01	5.530054e-06	
272	-2.00000e-01	7.274882e-06	
273	-2.50000e-01	8.971100e-06	
274	-3.00000e-01	1.061890e-05	
275	-3.50000e-01	1.221848e-05	
276	-4.00000e-01	1.377001e-05	
277	-4.50000e-01	1.527368e-05	
278	-5.00000e-01	1.672968e-05	
279	-5.50000e-01	1.813819e-05	
280	-6.00000e-01	1.949941e-05	
281	-6.50000e-01	2.081353e-05	
282	-7.00000e-01	2.208075e-05	
283	-7.50000e-01	2.330125e-05	
284	-8.00000e-01	2.447525e-05	
285	-8.50000e-01	2.560293e-05	
286	-9.00000e-01	2.668451e-05	

Index   v-sweep         i(vds)          
--------------------------------------------------------------------------------
287	-9.50000e-01	2.772020e-05	
288	-1.00000e+00	2.871019e-05	
289	-1.05000e+00	2.965472e-05	
290	-1.10000e+00	3.055399e-05	
291	-1.15000e+00	3.140824e-05	
292	-1.20000e+00	3.221769e-05	
293	-1.25000e+00	3.298260e-05	
294	-1.30000e+00	3.370324e-05	
295	-1.35000e+00	3.437988e-05	
296	-1.40000e+00	3.501285e-05	
297	-1.45000e+00	3.560253e-05	
298	-1.50000e+00	3.614940e-05	
299	-1.55000e+00	3.665403e-05	
300	-1.60000e+00	3.711727e-05	
301	-1.65000e+00	3.754026e-05	
302	-1.70000e+00	3.792472e-05	
303	-1.75000e+00	3.827310e-05	
304	-1.80000e+00	3.858882e-05	
305	-1.85000e+00	3.887618e-05	
306	-1.90000e+00	3.913998e-05	
307	-1.95000e+00	3.938482e-05	
308	-2.00000e+00	3.961456e-05	
309	-2.05000e+00	3.983213e-05	
310	-2.10000e+00	4.003965e-05	
311	-2.15000e+00	4.023863e-05	
312	-2.20000e+00	4.043016e-05	
313	-2.25000e+00	4.061506e-05	
314	-2.30000e+00	4.079399e-05	
315	-2.35000e+00	4.096745e-05	
316	-2.40000e+00	4.113590e-05	
317	-2.45000e+00	4.129969e-05	
318	-2.50000e+00	4.145915e-05	
319	-2.55000e+00	4.161457e-05	
320	-2.60000e+00	4.176620e-05	
321	-2.65000e+00	4.191427e-05	
322	-2.70000e+00	4.205898e-05	
323	-2.75000e+00	4.220053e-05	
324	-2.80000e+00	4.233909e-05	
325	-2.85000e+00	4.247481e-05	
326	-2.90000e+00	4.260784e-05	
327	-2.95000e+00	4.273831e-05	
328	-3.00000e+00	4.286635e-05	
329	-3.05000e+00	4.299208e-05	
330	-3.10000e+00	4.311559e-05	
331	-3.15000e+00	4.323700e-05	
332	-3.20000e+00	4.335639e-05	
333	-3.25000e+00	4.347385e-05	
334	-3.30000e+00	4.358946e-05	
335	0.000000e+00	9.421235e-21	
336	-5.00000e-02	2.182456e-06	
337	-1.00000e-01	4.316700e-06	
338	-1.50000e-01	6.403804e-06	
339	-2.00000e-01	8.444162e-06	
340	-2.50000e-01	1.043799e-05	
341	-3.00000e-01	1.238544e-05	
342	-3.50000e-01	1.428667e-05	
343	-4.00000e-01	1.614183e-05	
344	-4.50000e-01	1.795107e-05	

Index   v-sweep         i(vds)          
--------------------------------------------------------------------------------
345	-5.00000e-01	1.971453e-05	
346	-5.50000e-01	2.143239e-05	
347	-6.00000e-01	2.310478e-05	
348	-6.50000e-01	2.473187e-05	
349	-7.00000e-01	2.631381e-05	
350	-7.50000e-01	2.785077e-05	
351	-8.00000e-01	2.934290e-05	
352	-8.50000e-01	3.079038e-05	
353	-9.00000e-01	3.219336e-05	
354	-9.50000e-01	3.355202e-05	
355	-1.00000e+00	3.486652e-05	
356	-1.05000e+00	3.613704e-05	
357	-1.10000e+00	3.736374e-05	
358	-1.15000e+00	3.854680e-05	
359	-1.20000e+00	3.968640e-05	
360	-1.25000e+00	4.078272e-05	
361	-1.30000e+00	4.183594e-05	
362	-1.35000e+00	4.284626e-05	
363	-1.40000e+00	4.381385e-05	
364	-1.45000e+00	4.473892e-05	
365	-1.50000e+00	4.562168e-05	
366	-1.55000e+00	4.646233e-05	
367	-1.60000e+00	4.726110e-05	
368	-1.65000e+00	4.801825e-05	
369	-1.70000e+00	4.873404e-05	
370	-1.75000e+00	4.940878e-05	
371	-1.80000e+00	5.004285e-05	
372	-1.85000e+00	5.063671e-05	
373	-1.90000e+00	5.119095e-05	
374	-1.95000e+00	5.170638e-05	
375	-2.00000e+00	5.218413e-05	
376	-2.05000e+00	5.262578e-05	
377	-2.10000e+00	5.303356e-05	
378	-2.15000e+00	5.341039e-05	
379	-2.20000e+00	5.375985e-05	
380	-2.25000e+00	5.408583e-05	
381	-2.30000e+00	5.439211e-05	
382	-2.35000e+00	5.468195e-05	
383	-2.40000e+00	5.495796e-05	
384	-2.45000e+00	5.522213e-05	
385	-2.50000e+00	5.547598e-05	
386	-2.55000e+00	5.572066e-05	
387	-2.60000e+00	5.595707e-05	
388	-2.65000e+00	5.618595e-05	
389	-2.70000e+00	5.640791e-05	
390	-2.75000e+00	5.662346e-05	
391	-2.80000e+00	5.683307e-05	
392	-2.85000e+00	5.703712e-05	
393	-2.90000e+00	5.723597e-05	
394	-2.95000e+00	5.742993e-05	
395	-3.00000e+00	5.761929e-05	
396	-3.05000e+00	5.780430e-05	
397	-3.10000e+00	5.798522e-05	
398	-3.15000e+00	5.816224e-05	
399	-3.20000e+00	5.833558e-05	
400	-3.25000e+00	5.850542e-05	
401	-3.30000e+00	5.867193e-05	
Note: No ".plot", ".print", or ".fourier" lines; no simulations run
