
Note: Compatibility modes selected: hs

Warning: m=xx on .subckt line will override multiplier m hierarchy!


Circuit: ***************************

Doing analysis at TEMP = -40.000000 and TNOM = -40.000000


No. of Data Rows : 402
                          ***************************
                          DC transfer characteristic  Mon Jan  9 13:58:23  2023
--------------------------------------------------------------------------------
Index   v-sweep         i(vds)          
--------------------------------------------------------------------------------
0	0.000000e+00	1.053044e-24	
1	-5.00000e-02	6.208693e-09	
2	-1.00000e-01	6.661300e-09	
3	-1.50000e-01	6.731076e-09	
4	-2.00000e-01	6.754298e-09	
5	-2.50000e-01	6.765809e-09	
6	-3.00000e-01	6.773041e-09	
7	-3.50000e-01	6.778318e-09	
8	-4.00000e-01	6.782560e-09	
9	-4.50000e-01	6.786191e-09	
10	-5.00000e-01	6.789432e-09	
11	-5.50000e-01	6.792407e-09	
12	-6.00000e-01	6.795191e-09	
13	-6.50000e-01	6.797833e-09	
14	-7.00000e-01	6.800364e-09	
15	-7.50000e-01	6.802809e-09	
16	-8.00000e-01	6.805182e-09	
17	-8.50000e-01	6.807496e-09	
18	-9.00000e-01	6.809761e-09	
19	-9.50000e-01	6.811983e-09	
20	-1.00000e+00	6.814168e-09	
21	-1.05000e+00	6.816320e-09	
22	-1.10000e+00	6.818444e-09	
23	-1.15000e+00	6.820543e-09	
24	-1.20000e+00	6.822619e-09	
25	-1.25000e+00	6.824674e-09	
26	-1.30000e+00	6.826710e-09	
27	-1.35000e+00	6.828729e-09	
28	-1.40000e+00	6.830732e-09	
29	-1.45000e+00	6.832721e-09	
30	-1.50000e+00	6.834697e-09	
31	-1.55000e+00	6.836660e-09	
32	-1.60000e+00	6.838611e-09	
33	-1.65000e+00	6.840552e-09	
34	-1.70000e+00	6.842483e-09	
35	-1.75000e+00	6.844404e-09	
36	-1.80000e+00	6.846316e-09	
37	-1.85000e+00	6.848220e-09	
38	-1.90000e+00	6.850116e-09	
39	-1.95000e+00	6.852005e-09	
40	-2.00000e+00	6.853886e-09	
41	-2.05000e+00	6.855762e-09	
42	-2.10000e+00	6.857631e-09	
43	-2.15000e+00	6.859495e-09	
44	-2.20000e+00	6.861355e-09	
45	-2.25000e+00	6.863210e-09	
46	-2.30000e+00	6.865062e-09	
47	-2.35000e+00	6.866913e-09	
48	-2.40000e+00	6.868763e-09	
49	-2.45000e+00	6.870614e-09	
50	-2.50000e+00	6.872468e-09	
51	-2.55000e+00	6.874329e-09	
52	-2.60000e+00	6.876200e-09	
53	-2.65000e+00	6.878084e-09	
54	-2.70000e+00	6.879988e-09	

Index   v-sweep         i(vds)          
--------------------------------------------------------------------------------
55	-2.75000e+00	6.881918e-09	
56	-2.80000e+00	6.883883e-09	
57	-2.85000e+00	6.885890e-09	
58	-2.90000e+00	6.887954e-09	
59	-2.95000e+00	6.890086e-09	
60	-3.00000e+00	6.892304e-09	
61	-3.05000e+00	6.894627e-09	
62	-3.10000e+00	6.897076e-09	
63	-3.15000e+00	6.899679e-09	
64	-3.20000e+00	6.902464e-09	
65	-3.25000e+00	6.905467e-09	
66	-3.30000e+00	6.908726e-09	
67	0.000000e+00	-3.71431e-22	
68	-5.00000e-02	4.941316e-07	
69	-1.00000e-01	9.042062e-07	
70	-1.50000e-01	1.230691e-06	
71	-2.00000e-01	1.474721e-06	
72	-2.50000e-01	1.639445e-06	
73	-3.00000e-01	1.733755e-06	
74	-3.50000e-01	1.777285e-06	
75	-4.00000e-01	1.794716e-06	
76	-4.50000e-01	1.801985e-06	
77	-5.00000e-01	1.805500e-06	
78	-5.50000e-01	1.807483e-06	
79	-6.00000e-01	1.808753e-06	
80	-6.50000e-01	1.809650e-06	
81	-7.00000e-01	1.810332e-06	
82	-7.50000e-01	1.810880e-06	
83	-8.00000e-01	1.811338e-06	
84	-8.50000e-01	1.811733e-06	
85	-9.00000e-01	1.812082e-06	
86	-9.50000e-01	1.812396e-06	
87	-1.00000e+00	1.812683e-06	
88	-1.05000e+00	1.812948e-06	
89	-1.10000e+00	1.813195e-06	
90	-1.15000e+00	1.813427e-06	
91	-1.20000e+00	1.813646e-06	
92	-1.25000e+00	1.813854e-06	
93	-1.30000e+00	1.814052e-06	
94	-1.35000e+00	1.814242e-06	
95	-1.40000e+00	1.814425e-06	
96	-1.45000e+00	1.814601e-06	
97	-1.50000e+00	1.814771e-06	
98	-1.55000e+00	1.814935e-06	
99	-1.60000e+00	1.815095e-06	
100	-1.65000e+00	1.815250e-06	
101	-1.70000e+00	1.815401e-06	
102	-1.75000e+00	1.815548e-06	
103	-1.80000e+00	1.815691e-06	
104	-1.85000e+00	1.815832e-06	
105	-1.90000e+00	1.815969e-06	
106	-1.95000e+00	1.816103e-06	
107	-2.00000e+00	1.816235e-06	
108	-2.05000e+00	1.816364e-06	
109	-2.10000e+00	1.816490e-06	
110	-2.15000e+00	1.816615e-06	
111	-2.20000e+00	1.816737e-06	
112	-2.25000e+00	1.816858e-06	

Index   v-sweep         i(vds)          
--------------------------------------------------------------------------------
113	-2.30000e+00	1.816976e-06	
114	-2.35000e+00	1.817093e-06	
115	-2.40000e+00	1.817209e-06	
116	-2.45000e+00	1.817323e-06	
117	-2.50000e+00	1.817435e-06	
118	-2.55000e+00	1.817547e-06	
119	-2.60000e+00	1.817658e-06	
120	-2.65000e+00	1.817768e-06	
121	-2.70000e+00	1.817878e-06	
122	-2.75000e+00	1.817989e-06	
123	-2.80000e+00	1.818101e-06	
124	-2.85000e+00	1.818214e-06	
125	-2.90000e+00	1.818330e-06	
126	-2.95000e+00	1.818451e-06	
127	-3.00000e+00	1.818576e-06	
128	-3.05000e+00	1.818709e-06	
129	-3.10000e+00	1.818851e-06	
130	-3.15000e+00	1.819005e-06	
131	-3.20000e+00	1.819175e-06	
132	-3.25000e+00	1.819363e-06	
133	-3.30000e+00	1.819575e-06	
134	0.000000e+00	-5.59636e-22	
135	-5.00000e-02	1.024901e-06	
136	-1.00000e-01	1.969093e-06	
137	-1.50000e-01	2.832629e-06	
138	-2.00000e-01	3.615576e-06	
139	-2.50000e-01	4.318021e-06	
140	-3.00000e-01	4.940094e-06	
141	-3.50000e-01	5.481999e-06	
142	-4.00000e-01	5.944079e-06	
143	-4.50000e-01	6.326967e-06	
144	-5.00000e-01	6.631908e-06	
145	-5.50000e-01	6.861497e-06	
146	-6.00000e-01	7.021175e-06	
147	-6.50000e-01	7.121402e-06	
148	-7.00000e-01	7.178134e-06	
149	-7.50000e-01	7.208450e-06	
150	-8.00000e-01	7.224905e-06	
151	-8.50000e-01	7.234474e-06	
152	-9.00000e-01	7.240540e-06	
153	-9.50000e-01	7.244715e-06	
154	-1.00000e+00	7.247794e-06	
155	-1.05000e+00	7.250194e-06	
156	-1.10000e+00	7.252150e-06	
157	-1.15000e+00	7.253799e-06	
158	-1.20000e+00	7.255226e-06	
159	-1.25000e+00	7.256488e-06	
160	-1.30000e+00	7.257621e-06	
161	-1.35000e+00	7.258653e-06	
162	-1.40000e+00	7.259603e-06	
163	-1.45000e+00	7.260485e-06	
164	-1.50000e+00	7.261309e-06	
165	-1.55000e+00	7.262084e-06	
166	-1.60000e+00	7.262817e-06	
167	-1.65000e+00	7.263514e-06	
168	-1.70000e+00	7.264177e-06	
169	-1.75000e+00	7.264812e-06	
170	-1.80000e+00	7.265421e-06	

Index   v-sweep         i(vds)          
--------------------------------------------------------------------------------
171	-1.85000e+00	7.266007e-06	
172	-1.90000e+00	7.266571e-06	
173	-1.95000e+00	7.267116e-06	
174	-2.00000e+00	7.267644e-06	
175	-2.05000e+00	7.268155e-06	
176	-2.10000e+00	7.268651e-06	
177	-2.15000e+00	7.269133e-06	
178	-2.20000e+00	7.269602e-06	
179	-2.25000e+00	7.270059e-06	
180	-2.30000e+00	7.270505e-06	
181	-2.35000e+00	7.270941e-06	
182	-2.40000e+00	7.271366e-06	
183	-2.45000e+00	7.271782e-06	
184	-2.50000e+00	7.272189e-06	
185	-2.55000e+00	7.272588e-06	
186	-2.60000e+00	7.272980e-06	
187	-2.65000e+00	7.273364e-06	
188	-2.70000e+00	7.273741e-06	
189	-2.75000e+00	7.274113e-06	
190	-2.80000e+00	7.274478e-06	
191	-2.85000e+00	7.274839e-06	
192	-2.90000e+00	7.275196e-06	
193	-2.95000e+00	7.275550e-06	
194	-3.00000e+00	7.275903e-06	
195	-3.05000e+00	7.276255e-06	
196	-3.10000e+00	7.276610e-06	
197	-3.15000e+00	7.276969e-06	
198	-3.20000e+00	7.277335e-06	
199	-3.25000e+00	7.277714e-06	
200	-3.30000e+00	7.278109e-06	
201	0.000000e+00	3.673274e-21	
202	-5.00000e-02	1.482436e-06	
203	-1.00000e-01	2.890460e-06	
204	-1.50000e-01	4.224100e-06	
205	-2.00000e-01	5.483385e-06	
206	-2.50000e-01	6.668346e-06	
207	-3.00000e-01	7.779018e-06	
208	-3.50000e-01	8.815441e-06	
209	-4.00000e-01	9.777660e-06	
210	-4.50000e-01	1.066573e-05	
211	-5.00000e-01	1.147972e-05	
212	-5.50000e-01	1.221973e-05	
213	-6.00000e-01	1.288589e-05	
214	-6.50000e-01	1.347839e-05	
215	-7.00000e-01	1.399753e-05	
216	-7.50000e-01	1.444381e-05	
217	-8.00000e-01	1.481808e-05	
218	-8.50000e-01	1.512186e-05	
219	-9.00000e-01	1.535796e-05	
220	-9.50000e-01	1.553138e-05	
221	-1.00000e+00	1.565048e-05	
222	-1.05000e+00	1.572704e-05	
223	-1.10000e+00	1.577417e-05	
224	-1.15000e+00	1.580307e-05	
225	-1.20000e+00	1.582140e-05	
226	-1.25000e+00	1.583366e-05	
227	-1.30000e+00	1.584237e-05	
228	-1.35000e+00	1.584890e-05	

Index   v-sweep         i(vds)          
--------------------------------------------------------------------------------
229	-1.40000e+00	1.585404e-05	
230	-1.45000e+00	1.585824e-05	
231	-1.50000e+00	1.586179e-05	
232	-1.55000e+00	1.586485e-05	
233	-1.60000e+00	1.586755e-05	
234	-1.65000e+00	1.586998e-05	
235	-1.70000e+00	1.587218e-05	
236	-1.75000e+00	1.587420e-05	
237	-1.80000e+00	1.587607e-05	
238	-1.85000e+00	1.587781e-05	
239	-1.90000e+00	1.587945e-05	
240	-1.95000e+00	1.588099e-05	
241	-2.00000e+00	1.588245e-05	
242	-2.05000e+00	1.588384e-05	
243	-2.10000e+00	1.588517e-05	
244	-2.15000e+00	1.588644e-05	
245	-2.20000e+00	1.588766e-05	
246	-2.25000e+00	1.588883e-05	
247	-2.30000e+00	1.588996e-05	
248	-2.35000e+00	1.589105e-05	
249	-2.40000e+00	1.589210e-05	
250	-2.45000e+00	1.589313e-05	
251	-2.50000e+00	1.589412e-05	
252	-2.55000e+00	1.589508e-05	
253	-2.60000e+00	1.589601e-05	
254	-2.65000e+00	1.589693e-05	
255	-2.70000e+00	1.589781e-05	
256	-2.75000e+00	1.589868e-05	
257	-2.80000e+00	1.589952e-05	
258	-2.85000e+00	1.590035e-05	
259	-2.90000e+00	1.590116e-05	
260	-2.95000e+00	1.590195e-05	
261	-3.00000e+00	1.590273e-05	
262	-3.05000e+00	1.590349e-05	
263	-3.10000e+00	1.590423e-05	
264	-3.15000e+00	1.590497e-05	
265	-3.20000e+00	1.590569e-05	
266	-3.25000e+00	1.590641e-05	
267	-3.30000e+00	1.590711e-05	
268	0.000000e+00	5.990535e-21	
269	-5.00000e-02	1.867467e-06	
270	-1.00000e-01	3.667200e-06	
271	-1.50000e-01	5.399220e-06	
272	-2.00000e-01	7.063549e-06	
273	-2.50000e-01	8.660208e-06	
274	-3.00000e-01	1.018922e-05	
275	-3.50000e-01	1.165061e-05	
276	-4.00000e-01	1.304439e-05	
277	-4.50000e-01	1.437061e-05	
278	-5.00000e-01	1.562927e-05	
279	-5.50000e-01	1.682042e-05	
280	-6.00000e-01	1.794408e-05	
281	-6.50000e-01	1.900029e-05	
282	-7.00000e-01	1.998909e-05	
283	-7.50000e-01	2.091053e-05	
284	-8.00000e-01	2.176467e-05	
285	-8.50000e-01	2.255160e-05	
286	-9.00000e-01	2.327141e-05	

Index   v-sweep         i(vds)          
--------------------------------------------------------------------------------
287	-9.50000e-01	2.392425e-05	
288	-1.00000e+00	2.451033e-05	
289	-1.05000e+00	2.502995e-05	
290	-1.10000e+00	2.548361e-05	
291	-1.15000e+00	2.587207e-05	
292	-1.20000e+00	2.619662e-05	
293	-1.25000e+00	2.645941e-05	
294	-1.30000e+00	2.666401e-05	
295	-1.35000e+00	2.681608e-05	
296	-1.40000e+00	2.692371e-05	
297	-1.45000e+00	2.699686e-05	
298	-1.50000e+00	2.704555e-05	
299	-1.55000e+00	2.707816e-05	
300	-1.60000e+00	2.710062e-05	
301	-1.65000e+00	2.711673e-05	
302	-1.70000e+00	2.712882e-05	
303	-1.75000e+00	2.713826e-05	
304	-1.80000e+00	2.714592e-05	
305	-1.85000e+00	2.715233e-05	
306	-1.90000e+00	2.715782e-05	
307	-1.95000e+00	2.716263e-05	
308	-2.00000e+00	2.716691e-05	
309	-2.05000e+00	2.717077e-05	
310	-2.10000e+00	2.717430e-05	
311	-2.15000e+00	2.717755e-05	
312	-2.20000e+00	2.718057e-05	
313	-2.25000e+00	2.718339e-05	
314	-2.30000e+00	2.718605e-05	
315	-2.35000e+00	2.718855e-05	
316	-2.40000e+00	2.719093e-05	
317	-2.45000e+00	2.719319e-05	
318	-2.50000e+00	2.719535e-05	
319	-2.55000e+00	2.719741e-05	
320	-2.60000e+00	2.719939e-05	
321	-2.65000e+00	2.720130e-05	
322	-2.70000e+00	2.720314e-05	
323	-2.75000e+00	2.720491e-05	
324	-2.80000e+00	2.720663e-05	
325	-2.85000e+00	2.720829e-05	
326	-2.90000e+00	2.720990e-05	
327	-2.95000e+00	2.721147e-05	
328	-3.00000e+00	2.721299e-05	
329	-3.05000e+00	2.721447e-05	
330	-3.10000e+00	2.721591e-05	
331	-3.15000e+00	2.721731e-05	
332	-3.20000e+00	2.721869e-05	
333	-3.25000e+00	2.722003e-05	
334	-3.30000e+00	2.722134e-05	
335	0.000000e+00	-3.21743e-21	
336	-5.00000e-02	2.185564e-06	
337	-1.00000e-01	4.309880e-06	
338	-1.50000e-01	6.372965e-06	
339	-2.00000e-01	8.374836e-06	
340	-2.50000e-01	1.031551e-05	
341	-3.00000e-01	1.219501e-05	
342	-3.50000e-01	1.401335e-05	
343	-4.00000e-01	1.577055e-05	
344	-4.50000e-01	1.746662e-05	

Index   v-sweep         i(vds)          
--------------------------------------------------------------------------------
345	-5.00000e-01	1.910159e-05	
346	-5.50000e-01	2.067547e-05	
347	-6.00000e-01	2.218829e-05	
348	-6.50000e-01	2.364007e-05	
349	-7.00000e-01	2.503082e-05	
350	-7.50000e-01	2.636057e-05	
351	-8.00000e-01	2.762934e-05	
352	-8.50000e-01	2.883716e-05	
353	-9.00000e-01	2.998405e-05	
354	-9.50000e-01	3.107005e-05	
355	-1.00000e+00	3.209519e-05	
356	-1.05000e+00	3.305951e-05	
357	-1.10000e+00	3.396306e-05	
358	-1.15000e+00	3.480589e-05	
359	-1.20000e+00	3.558808e-05	
360	-1.25000e+00	3.630971e-05	
361	-1.30000e+00	3.697093e-05	
362	-1.35000e+00	3.757190e-05	
363	-1.40000e+00	3.811287e-05	
364	-1.45000e+00	3.859420e-05	
365	-1.50000e+00	3.901646e-05	
366	-1.55000e+00	3.938049e-05	
367	-1.60000e+00	3.968763e-05	
368	-1.65000e+00	3.994000e-05	
369	-1.70000e+00	4.014089e-05	
370	-1.75000e+00	4.029514e-05	
371	-1.80000e+00	4.040934e-05	
372	-1.85000e+00	4.049137e-05	
373	-1.90000e+00	4.054933e-05	
374	-1.95000e+00	4.059036e-05	
375	-2.00000e+00	4.061995e-05	
376	-2.05000e+00	4.064193e-05	
377	-2.10000e+00	4.065882e-05	
378	-2.15000e+00	4.067224e-05	
379	-2.20000e+00	4.068325e-05	
380	-2.25000e+00	4.069253e-05	
381	-2.30000e+00	4.070053e-05	
382	-2.35000e+00	4.070755e-05	
383	-2.40000e+00	4.071381e-05	
384	-2.45000e+00	4.071948e-05	
385	-2.50000e+00	4.072465e-05	
386	-2.55000e+00	4.072942e-05	
387	-2.60000e+00	4.073385e-05	
388	-2.65000e+00	4.073799e-05	
389	-2.70000e+00	4.074188e-05	
390	-2.75000e+00	4.074556e-05	
391	-2.80000e+00	4.074904e-05	
392	-2.85000e+00	4.075235e-05	
393	-2.90000e+00	4.075551e-05	
394	-2.95000e+00	4.075854e-05	
395	-3.00000e+00	4.076144e-05	
396	-3.05000e+00	4.076423e-05	
397	-3.10000e+00	4.076692e-05	
398	-3.15000e+00	4.076951e-05	
399	-3.20000e+00	4.077202e-05	
400	-3.25000e+00	4.077445e-05	
401	-3.30000e+00	4.077680e-05	
Note: No ".plot", ".print", or ".fourier" lines; no simulations run
