
Note: Compatibility modes selected: hs

Warning: m=xx on .subckt line will override multiplier m hierarchy!


Circuit: ***************************

Doing analysis at TEMP = 25.000000 and TNOM = 25.000000


No. of Data Rows : 402
                          ***************************
                          DC transfer characteristic  Mon Jan  9 13:58:23  2023
--------------------------------------------------------------------------------
Index   v-sweep         i(vds)          
--------------------------------------------------------------------------------
0	0.000000e+00	6.396450e-25	
1	-5.00000e-02	4.455727e-08	
2	-1.00000e-01	6.162347e-08	
3	-1.50000e-01	6.556377e-08	
4	-2.00000e-01	6.674427e-08	
5	-2.50000e-01	6.740310e-08	
6	-3.00000e-01	6.790833e-08	
7	-3.50000e-01	6.834638e-08	
8	-4.00000e-01	6.874586e-08	
9	-4.50000e-01	6.911902e-08	
10	-5.00000e-01	6.947221e-08	
11	-5.50000e-01	6.980927e-08	
12	-6.00000e-01	7.013274e-08	
13	-6.50000e-01	7.044450e-08	
14	-7.00000e-01	7.074594e-08	
15	-7.50000e-01	7.103821e-08	
16	-8.00000e-01	7.132222e-08	
17	-8.50000e-01	7.159876e-08	
18	-9.00000e-01	7.186849e-08	
19	-9.50000e-01	7.213199e-08	
20	-1.00000e+00	7.238974e-08	
21	-1.05000e+00	7.264219e-08	
22	-1.10000e+00	7.288974e-08	
23	-1.15000e+00	7.313272e-08	
24	-1.20000e+00	7.337145e-08	
25	-1.25000e+00	7.360622e-08	
26	-1.30000e+00	7.383726e-08	
27	-1.35000e+00	7.406482e-08	
28	-1.40000e+00	7.428911e-08	
29	-1.45000e+00	7.451031e-08	
30	-1.50000e+00	7.472861e-08	
31	-1.55000e+00	7.494416e-08	
32	-1.60000e+00	7.515711e-08	
33	-1.65000e+00	7.536761e-08	
34	-1.70000e+00	7.557577e-08	
35	-1.75000e+00	7.578173e-08	
36	-1.80000e+00	7.598558e-08	
37	-1.85000e+00	7.618744e-08	
38	-1.90000e+00	7.638740e-08	
39	-1.95000e+00	7.658555e-08	
40	-2.00000e+00	7.678198e-08	
41	-2.05000e+00	7.697678e-08	
42	-2.10000e+00	7.717004e-08	
43	-2.15000e+00	7.736183e-08	
44	-2.20000e+00	7.755224e-08	
45	-2.25000e+00	7.774136e-08	
46	-2.30000e+00	7.792928e-08	
47	-2.35000e+00	7.811609e-08	
48	-2.40000e+00	7.830191e-08	
49	-2.45000e+00	7.848683e-08	
50	-2.50000e+00	7.867100e-08	
51	-2.55000e+00	7.885456e-08	
52	-2.60000e+00	7.903765e-08	
53	-2.65000e+00	7.922047e-08	
54	-2.70000e+00	7.940321e-08	

Index   v-sweep         i(vds)          
--------------------------------------------------------------------------------
55	-2.75000e+00	7.958610e-08	
56	-2.80000e+00	7.976940e-08	
57	-2.85000e+00	7.995340e-08	
58	-2.90000e+00	8.013841e-08	
59	-2.95000e+00	8.032481e-08	
60	-3.00000e+00	8.051299e-08	
61	-3.05000e+00	8.070340e-08	
62	-3.10000e+00	8.089654e-08	
63	-3.15000e+00	8.109294e-08	
64	-3.20000e+00	8.129321e-08	
65	-3.25000e+00	8.149799e-08	
66	-3.30000e+00	8.170800e-08	
67	0.000000e+00	7.176689e-32	
68	-5.00000e-02	4.517669e-07	
69	-1.00000e-01	8.532731e-07	
70	-1.50000e-01	1.204834e-06	
71	-2.00000e-01	1.506810e-06	
72	-2.50000e-01	1.759654e-06	
73	-3.00000e-01	1.964036e-06	
74	-3.50000e-01	2.121158e-06	
75	-4.00000e-01	2.233568e-06	
76	-4.50000e-01	2.306853e-06	
77	-5.00000e-01	2.351110e-06	
78	-5.50000e-01	2.378339e-06	
79	-6.00000e-01	2.397218e-06	
80	-6.50000e-01	2.412070e-06	
81	-7.00000e-01	2.424754e-06	
82	-7.50000e-01	2.436089e-06	
83	-8.00000e-01	2.446476e-06	
84	-8.50000e-01	2.456137e-06	
85	-9.00000e-01	2.465209e-06	
86	-9.50000e-01	2.473786e-06	
87	-1.00000e+00	2.481934e-06	
88	-1.05000e+00	2.489705e-06	
89	-1.10000e+00	2.497141e-06	
90	-1.15000e+00	2.504275e-06	
91	-1.20000e+00	2.511134e-06	
92	-1.25000e+00	2.517744e-06	
93	-1.30000e+00	2.524125e-06	
94	-1.35000e+00	2.530295e-06	
95	-1.40000e+00	2.536270e-06	
96	-1.45000e+00	2.542063e-06	
97	-1.50000e+00	2.547688e-06	
98	-1.55000e+00	2.553156e-06	
99	-1.60000e+00	2.558477e-06	
100	-1.65000e+00	2.563659e-06	
101	-1.70000e+00	2.568712e-06	
102	-1.75000e+00	2.573643e-06	
103	-1.80000e+00	2.578459e-06	
104	-1.85000e+00	2.583166e-06	
105	-1.90000e+00	2.587770e-06	
106	-1.95000e+00	2.592276e-06	
107	-2.00000e+00	2.596689e-06	
108	-2.05000e+00	2.601015e-06	
109	-2.10000e+00	2.605256e-06	
110	-2.15000e+00	2.609418e-06	
111	-2.20000e+00	2.613504e-06	
112	-2.25000e+00	2.617517e-06	

Index   v-sweep         i(vds)          
--------------------------------------------------------------------------------
113	-2.30000e+00	2.621461e-06	
114	-2.35000e+00	2.625338e-06	
115	-2.40000e+00	2.629153e-06	
116	-2.45000e+00	2.632907e-06	
117	-2.50000e+00	2.636605e-06	
118	-2.55000e+00	2.640247e-06	
119	-2.60000e+00	2.643839e-06	
120	-2.65000e+00	2.647382e-06	
121	-2.70000e+00	2.650880e-06	
122	-2.75000e+00	2.654336e-06	
123	-2.80000e+00	2.657754e-06	
124	-2.85000e+00	2.661138e-06	
125	-2.90000e+00	2.664492e-06	
126	-2.95000e+00	2.667822e-06	
127	-3.00000e+00	2.671134e-06	
128	-3.05000e+00	2.674432e-06	
129	-3.10000e+00	2.677726e-06	
130	-3.15000e+00	2.681022e-06	
131	-3.20000e+00	2.684329e-06	
132	-3.25000e+00	2.687658e-06	
133	-3.30000e+00	2.691020e-06	
134	0.000000e+00	-9.01581e-23	
135	-5.00000e-02	8.291395e-07	
136	-1.00000e-01	1.608945e-06	
137	-1.50000e-01	2.339625e-06	
138	-2.00000e-01	3.021388e-06	
139	-2.50000e-01	3.654448e-06	
140	-3.00000e-01	4.239025e-06	
141	-3.50000e-01	4.775345e-06	
142	-4.00000e-01	5.263648e-06	
143	-4.50000e-01	5.704196e-06	
144	-5.00000e-01	6.097286e-06	
145	-5.50000e-01	6.443279e-06	
146	-6.00000e-01	6.742655e-06	
147	-6.50000e-01	6.996132e-06	
148	-7.00000e-01	7.204894e-06	
149	-7.50000e-01	7.371059e-06	
150	-8.00000e-01	7.498457e-06	
151	-8.50000e-01	7.593376e-06	
152	-9.00000e-01	7.664153e-06	
153	-9.50000e-01	7.719017e-06	
154	-1.00000e+00	7.764044e-06	
155	-1.05000e+00	7.802902e-06	
156	-1.10000e+00	7.837626e-06	
157	-1.15000e+00	7.869357e-06	
158	-1.20000e+00	7.898770e-06	
159	-1.25000e+00	7.926299e-06	
160	-1.30000e+00	7.952240e-06	
161	-1.35000e+00	7.976811e-06	
162	-1.40000e+00	8.000178e-06	
163	-1.45000e+00	8.022474e-06	
164	-1.50000e+00	8.043808e-06	
165	-1.55000e+00	8.064269e-06	
166	-1.60000e+00	8.083936e-06	
167	-1.65000e+00	8.102874e-06	
168	-1.70000e+00	8.121141e-06	
169	-1.75000e+00	8.138789e-06	
170	-1.80000e+00	8.155862e-06	

Index   v-sweep         i(vds)          
--------------------------------------------------------------------------------
171	-1.85000e+00	8.172401e-06	
172	-1.90000e+00	8.188441e-06	
173	-1.95000e+00	8.204014e-06	
174	-2.00000e+00	8.219150e-06	
175	-2.05000e+00	8.233875e-06	
176	-2.10000e+00	8.248214e-06	
177	-2.15000e+00	8.262188e-06	
178	-2.20000e+00	8.275818e-06	
179	-2.25000e+00	8.289121e-06	
180	-2.30000e+00	8.302116e-06	
181	-2.35000e+00	8.314817e-06	
182	-2.40000e+00	8.327240e-06	
183	-2.45000e+00	8.339398e-06	
184	-2.50000e+00	8.351304e-06	
185	-2.55000e+00	8.362968e-06	
186	-2.60000e+00	8.374404e-06	
187	-2.65000e+00	8.385620e-06	
188	-2.70000e+00	8.396626e-06	
189	-2.75000e+00	8.407433e-06	
190	-2.80000e+00	8.418049e-06	
191	-2.85000e+00	8.428483e-06	
192	-2.90000e+00	8.438745e-06	
193	-2.95000e+00	8.448843e-06	
194	-3.00000e+00	8.458786e-06	
195	-3.05000e+00	8.468584e-06	
196	-3.10000e+00	8.478247e-06	
197	-3.15000e+00	8.487786e-06	
198	-3.20000e+00	8.497214e-06	
199	-3.25000e+00	8.506542e-06	
200	-3.30000e+00	8.515787e-06	
201	0.000000e+00	-1.75082e-22	
202	-5.00000e-02	1.153558e-06	
203	-1.00000e-01	2.260147e-06	
204	-1.50000e-01	3.319928e-06	
205	-2.00000e-01	4.333064e-06	
206	-2.50000e-01	5.299718e-06	
207	-3.00000e-01	6.220056e-06	
208	-3.50000e-01	7.094245e-06	
209	-4.00000e-01	7.922452e-06	
210	-4.50000e-01	8.704849e-06	
211	-5.00000e-01	9.441610e-06	
212	-5.50000e-01	1.013291e-05	
213	-6.00000e-01	1.077894e-05	
214	-6.50000e-01	1.137988e-05	
215	-7.00000e-01	1.193594e-05	
216	-7.50000e-01	1.244733e-05	
217	-8.00000e-01	1.291429e-05	
218	-8.50000e-01	1.333712e-05	
219	-9.00000e-01	1.371618e-05	
220	-9.50000e-01	1.405193e-05	
221	-1.00000e+00	1.434508e-05	
222	-1.05000e+00	1.459672e-05	
223	-1.10000e+00	1.480864e-05	
224	-1.15000e+00	1.498376e-05	
225	-1.20000e+00	1.512657e-05	
226	-1.25000e+00	1.524305e-05	
227	-1.30000e+00	1.533971e-05	
228	-1.35000e+00	1.542226e-05	

Index   v-sweep         i(vds)          
--------------------------------------------------------------------------------
229	-1.40000e+00	1.549487e-05	
230	-1.45000e+00	1.556030e-05	
231	-1.50000e+00	1.562028e-05	
232	-1.55000e+00	1.567595e-05	
233	-1.60000e+00	1.572806e-05	
234	-1.65000e+00	1.577714e-05	
235	-1.70000e+00	1.582362e-05	
236	-1.75000e+00	1.586779e-05	
237	-1.80000e+00	1.590990e-05	
238	-1.85000e+00	1.595017e-05	
239	-1.90000e+00	1.598876e-05	
240	-1.95000e+00	1.602582e-05	
241	-2.00000e+00	1.606148e-05	
242	-2.05000e+00	1.609586e-05	
243	-2.10000e+00	1.612904e-05	
244	-2.15000e+00	1.616111e-05	
245	-2.20000e+00	1.619216e-05	
246	-2.25000e+00	1.622224e-05	
247	-2.30000e+00	1.625143e-05	
248	-2.35000e+00	1.627977e-05	
249	-2.40000e+00	1.630733e-05	
250	-2.45000e+00	1.633414e-05	
251	-2.50000e+00	1.636024e-05	
252	-2.55000e+00	1.638569e-05	
253	-2.60000e+00	1.641050e-05	
254	-2.65000e+00	1.643472e-05	
255	-2.70000e+00	1.645838e-05	
256	-2.75000e+00	1.648149e-05	
257	-2.80000e+00	1.650410e-05	
258	-2.85000e+00	1.652622e-05	
259	-2.90000e+00	1.654788e-05	
260	-2.95000e+00	1.656909e-05	
261	-3.00000e+00	1.658988e-05	
262	-3.05000e+00	1.661027e-05	
263	-3.10000e+00	1.663027e-05	
264	-3.15000e+00	1.664991e-05	
265	-3.20000e+00	1.666919e-05	
266	-3.25000e+00	1.668814e-05	
267	-3.30000e+00	1.670677e-05	
268	0.000000e+00	-2.52359e-22	
269	-5.00000e-02	1.432421e-06	
270	-1.00000e-01	2.820481e-06	
271	-1.50000e-01	4.164310e-06	
272	-2.00000e-01	5.464038e-06	
273	-2.50000e-01	6.719798e-06	
274	-3.00000e-01	7.931721e-06	
275	-3.50000e-01	9.099943e-06	
276	-4.00000e-01	1.022460e-05	
277	-4.50000e-01	1.130582e-05	
278	-5.00000e-01	1.234374e-05	
279	-5.50000e-01	1.333851e-05	
280	-6.00000e-01	1.429027e-05	
281	-6.50000e-01	1.519915e-05	
282	-7.00000e-01	1.606529e-05	
283	-7.50000e-01	1.688885e-05	
284	-8.00000e-01	1.766996e-05	
285	-8.50000e-01	1.840879e-05	
286	-9.00000e-01	1.910549e-05	

Index   v-sweep         i(vds)          
--------------------------------------------------------------------------------
287	-9.50000e-01	1.976021e-05	
288	-1.00000e+00	2.037313e-05	
289	-1.05000e+00	2.094444e-05	
290	-1.10000e+00	2.147432e-05	
291	-1.15000e+00	2.196303e-05	
292	-1.20000e+00	2.241082e-05	
293	-1.25000e+00	2.281804e-05	
294	-1.30000e+00	2.318517e-05	
295	-1.35000e+00	2.351285e-05	
296	-1.40000e+00	2.380210e-05	
297	-1.45000e+00	2.405444e-05	
298	-1.50000e+00	2.427223e-05	
299	-1.55000e+00	2.445892e-05	
300	-1.60000e+00	2.461901e-05	
301	-1.65000e+00	2.475759e-05	
302	-1.70000e+00	2.487948e-05	
303	-1.75000e+00	2.498865e-05	
304	-1.80000e+00	2.508802e-05	
305	-1.85000e+00	2.517964e-05	
306	-1.90000e+00	2.526494e-05	
307	-1.95000e+00	2.534493e-05	
308	-2.00000e+00	2.542038e-05	
309	-2.05000e+00	2.549185e-05	
310	-2.10000e+00	2.555981e-05	
311	-2.15000e+00	2.562463e-05	
312	-2.20000e+00	2.568662e-05	
313	-2.25000e+00	2.574602e-05	
314	-2.30000e+00	2.580308e-05	
315	-2.35000e+00	2.585797e-05	
316	-2.40000e+00	2.591088e-05	
317	-2.45000e+00	2.596194e-05	
318	-2.50000e+00	2.601128e-05	
319	-2.55000e+00	2.605904e-05	
320	-2.60000e+00	2.610531e-05	
321	-2.65000e+00	2.615019e-05	
322	-2.70000e+00	2.619376e-05	
323	-2.75000e+00	2.623611e-05	
324	-2.80000e+00	2.627730e-05	
325	-2.85000e+00	2.631740e-05	
326	-2.90000e+00	2.635646e-05	
327	-2.95000e+00	2.639456e-05	
328	-3.00000e+00	2.643172e-05	
329	-3.05000e+00	2.646801e-05	
330	-3.10000e+00	2.650347e-05	
331	-3.15000e+00	2.653813e-05	
332	-3.20000e+00	2.657203e-05	
333	-3.25000e+00	2.660521e-05	
334	-3.30000e+00	2.663771e-05	
335	0.000000e+00	-2.41415e-22	
336	-5.00000e-02	1.672662e-06	
337	-1.00000e-01	3.303535e-06	
338	-1.50000e-01	4.892723e-06	
339	-2.00000e-01	6.440334e-06	
340	-2.50000e-01	7.946477e-06	
341	-3.00000e-01	9.411259e-06	
342	-3.50000e-01	1.083479e-05	
343	-4.00000e-01	1.221718e-05	
344	-4.50000e-01	1.355854e-05	

Index   v-sweep         i(vds)          
--------------------------------------------------------------------------------
345	-5.00000e-01	1.485899e-05	
346	-5.50000e-01	1.611864e-05	
347	-6.00000e-01	1.733759e-05	
348	-6.50000e-01	1.851597e-05	
349	-7.00000e-01	1.965390e-05	
350	-7.50000e-01	2.075148e-05	
351	-8.00000e-01	2.180884e-05	
352	-8.50000e-01	2.282610e-05	
353	-9.00000e-01	2.380337e-05	
354	-9.50000e-01	2.474078e-05	
355	-1.00000e+00	2.563845e-05	
356	-1.05000e+00	2.649651e-05	
357	-1.10000e+00	2.731508e-05	
358	-1.15000e+00	2.809430e-05	
359	-1.20000e+00	2.883429e-05	
360	-1.25000e+00	2.953520e-05	
361	-1.30000e+00	3.019718e-05	
362	-1.35000e+00	3.082037e-05	
363	-1.40000e+00	3.140495e-05	
364	-1.45000e+00	3.195111e-05	
365	-1.50000e+00	3.245905e-05	
366	-1.55000e+00	3.292905e-05	
367	-1.60000e+00	3.336144e-05	
368	-1.65000e+00	3.375665e-05	
369	-1.70000e+00	3.411530e-05	
370	-1.75000e+00	3.443831e-05	
371	-1.80000e+00	3.472698e-05	
372	-1.85000e+00	3.498329e-05	
373	-1.90000e+00	3.520997e-05	
374	-1.95000e+00	3.541054e-05	
375	-2.00000e+00	3.558901e-05	
376	-2.05000e+00	3.574937e-05	
377	-2.10000e+00	3.589511e-05	
378	-2.15000e+00	3.602904e-05	
379	-2.20000e+00	3.615327e-05	
380	-2.25000e+00	3.626939e-05	
381	-2.30000e+00	3.637858e-05	
382	-2.35000e+00	3.648176e-05	
383	-2.40000e+00	3.657963e-05	
384	-2.45000e+00	3.667279e-05	
385	-2.50000e+00	3.676172e-05	
386	-2.55000e+00	3.684680e-05	
387	-2.60000e+00	3.692839e-05	
388	-2.65000e+00	3.700678e-05	
389	-2.70000e+00	3.708223e-05	
390	-2.75000e+00	3.715496e-05	
391	-2.80000e+00	3.722517e-05	
392	-2.85000e+00	3.729304e-05	
393	-2.90000e+00	3.735873e-05	
394	-2.95000e+00	3.742238e-05	
395	-3.00000e+00	3.748412e-05	
396	-3.05000e+00	3.754406e-05	
397	-3.10000e+00	3.760232e-05	
398	-3.15000e+00	3.765899e-05	
399	-3.20000e+00	3.771415e-05	
400	-3.25000e+00	3.776790e-05	
401	-3.30000e+00	3.782030e-05	
Note: No ".plot", ".print", or ".fourier" lines; no simulations run
