
Note: Compatibility modes selected: hs

Warning: m=xx on .subckt line will override multiplier m hierarchy!


Circuit: ***************************

Doing analysis at TEMP = 25.000000 and TNOM = 25.000000


No. of Data Rows : 402
                          ***************************
                          DC transfer characteristic  Mon Jan  9 13:58:23  2023
--------------------------------------------------------------------------------
Index   v-sweep         i(vds)          
--------------------------------------------------------------------------------
0	0.000000e+00	-2.56754e-22	
1	-5.00000e-02	5.427831e-07	
2	-1.00000e-01	8.465880e-07	
3	-1.50000e-01	9.692838e-07	
4	-2.00000e-01	1.014228e-06	
5	-2.50000e-01	1.040173e-06	
6	-3.00000e-01	1.061256e-06	
7	-3.50000e-01	1.080544e-06	
8	-4.00000e-01	1.098923e-06	
9	-4.50000e-01	1.116737e-06	
10	-5.00000e-01	1.134154e-06	
11	-5.50000e-01	1.151272e-06	
12	-6.00000e-01	1.168156e-06	
13	-6.50000e-01	1.184852e-06	
14	-7.00000e-01	1.201396e-06	
15	-7.50000e-01	1.217816e-06	
16	-8.00000e-01	1.234135e-06	
17	-8.50000e-01	1.250372e-06	
18	-9.00000e-01	1.266543e-06	
19	-9.50000e-01	1.282663e-06	
20	-1.00000e+00	1.298743e-06	
21	-1.05000e+00	1.314794e-06	
22	-1.10000e+00	1.330826e-06	
23	-1.15000e+00	1.346846e-06	
24	-1.20000e+00	1.362863e-06	
25	-1.25000e+00	1.378882e-06	
26	-1.30000e+00	1.394909e-06	
27	-1.35000e+00	1.410951e-06	
28	-1.40000e+00	1.427012e-06	
29	-1.45000e+00	1.443096e-06	
30	-1.50000e+00	1.459207e-06	
31	-1.55000e+00	1.475349e-06	
32	-1.60000e+00	1.491526e-06	
33	-1.65000e+00	1.507741e-06	
34	-1.70000e+00	1.523997e-06	
35	-1.75000e+00	1.540295e-06	
36	-1.80000e+00	1.556640e-06	
37	-1.85000e+00	1.573032e-06	
38	-1.90000e+00	1.589476e-06	
39	-1.95000e+00	1.605972e-06	
40	-2.00000e+00	1.622522e-06	
41	-2.05000e+00	1.639129e-06	
42	-2.10000e+00	1.655796e-06	
43	-2.15000e+00	1.672523e-06	
44	-2.20000e+00	1.689313e-06	
45	-2.25000e+00	1.706169e-06	
46	-2.30000e+00	1.723093e-06	
47	-2.35000e+00	1.740088e-06	
48	-2.40000e+00	1.757157e-06	
49	-2.45000e+00	1.774304e-06	
50	-2.50000e+00	1.791534e-06	
51	-2.55000e+00	1.808850e-06	
52	-2.60000e+00	1.826258e-06	
53	-2.65000e+00	1.843765e-06	
54	-2.70000e+00	1.861379e-06	

Index   v-sweep         i(vds)          
--------------------------------------------------------------------------------
55	-2.75000e+00	1.879107e-06	
56	-2.80000e+00	1.896960e-06	
57	-2.85000e+00	1.914948e-06	
58	-2.90000e+00	1.933083e-06	
59	-2.95000e+00	1.951381e-06	
60	-3.00000e+00	1.969857e-06	
61	-3.05000e+00	1.988529e-06	
62	-3.10000e+00	2.007417e-06	
63	-3.15000e+00	2.026544e-06	
64	-3.20000e+00	2.045934e-06	
65	-3.25000e+00	2.065614e-06	
66	-3.30000e+00	2.085615e-06	
67	0.000000e+00	-5.95971e-22	
68	-5.00000e-02	3.458601e-06	
69	-1.00000e-01	6.588991e-06	
70	-1.50000e-01	9.395247e-06	
71	-2.00000e-01	1.188155e-05	
72	-2.50000e-01	1.405229e-05	
73	-3.00000e-01	1.591232e-05	
74	-3.50000e-01	1.746750e-05	
75	-4.00000e-01	1.872605e-05	
76	-4.50000e-01	1.970168e-05	
77	-5.00000e-01	2.042045e-05	
78	-5.50000e-01	2.092974e-05	
79	-6.00000e-01	2.129568e-05	
80	-6.50000e-01	2.157926e-05	
81	-7.00000e-01	2.181851e-05	
82	-7.50000e-01	2.203224e-05	
83	-8.00000e-01	2.222940e-05	
84	-8.50000e-01	2.241455e-05	
85	-9.00000e-01	2.259033e-05	
86	-9.50000e-01	2.275839e-05	
87	-1.00000e+00	2.291990e-05	
88	-1.05000e+00	2.307574e-05	
89	-1.10000e+00	2.322658e-05	
90	-1.15000e+00	2.337298e-05	
91	-1.20000e+00	2.351539e-05	
92	-1.25000e+00	2.365419e-05	
93	-1.30000e+00	2.378971e-05	
94	-1.35000e+00	2.392225e-05	
95	-1.40000e+00	2.405204e-05	
96	-1.45000e+00	2.417931e-05	
97	-1.50000e+00	2.430424e-05	
98	-1.55000e+00	2.442703e-05	
99	-1.60000e+00	2.454781e-05	
100	-1.65000e+00	2.466672e-05	
101	-1.70000e+00	2.478391e-05	
102	-1.75000e+00	2.489946e-05	
103	-1.80000e+00	2.501350e-05	
104	-1.85000e+00	2.512612e-05	
105	-1.90000e+00	2.523739e-05	
106	-1.95000e+00	2.534741e-05	
107	-2.00000e+00	2.545624e-05	
108	-2.05000e+00	2.556395e-05	
109	-2.10000e+00	2.567060e-05	
110	-2.15000e+00	2.577626e-05	
111	-2.20000e+00	2.588097e-05	
112	-2.25000e+00	2.598478e-05	

Index   v-sweep         i(vds)          
--------------------------------------------------------------------------------
113	-2.30000e+00	2.608775e-05	
114	-2.35000e+00	2.618991e-05	
115	-2.40000e+00	2.629132e-05	
116	-2.45000e+00	2.639200e-05	
117	-2.50000e+00	2.649201e-05	
118	-2.55000e+00	2.659139e-05	
119	-2.60000e+00	2.669017e-05	
120	-2.65000e+00	2.678839e-05	
121	-2.70000e+00	2.688611e-05	
122	-2.75000e+00	2.698338e-05	
123	-2.80000e+00	2.708023e-05	
124	-2.85000e+00	2.717674e-05	
125	-2.90000e+00	2.727296e-05	
126	-2.95000e+00	2.736896e-05	
127	-3.00000e+00	2.746484e-05	
128	-3.05000e+00	2.756066e-05	
129	-3.10000e+00	2.765655e-05	
130	-3.15000e+00	2.775261e-05	
131	-3.20000e+00	2.784897e-05	
132	-3.25000e+00	2.794578e-05	
133	-3.30000e+00	2.804320e-05	
134	0.000000e+00	-1.70868e-21	
135	-5.00000e-02	5.721872e-06	
136	-1.00000e-01	1.113510e-05	
137	-1.50000e-01	1.624254e-05	
138	-2.00000e-01	2.104704e-05	
139	-2.50000e-01	2.555146e-05	
140	-3.00000e-01	2.975866e-05	
141	-3.50000e-01	3.367153e-05	
142	-4.00000e-01	3.729298e-05	
143	-4.50000e-01	4.062598e-05	
144	-5.00000e-01	4.367357e-05	
145	-5.50000e-01	4.643894e-05	
146	-6.00000e-01	4.892554e-05	
147	-6.50000e-01	5.113727e-05	
148	-7.00000e-01	5.307885e-05	
149	-7.50000e-01	5.475665e-05	
150	-8.00000e-01	5.618017e-05	
151	-8.50000e-01	5.736476e-05	
152	-9.00000e-01	5.833544e-05	
153	-9.50000e-01	5.912913e-05	
154	-1.00000e+00	5.979016e-05	
155	-1.05000e+00	6.035942e-05	
156	-1.10000e+00	6.086663e-05	
157	-1.15000e+00	6.133039e-05	
158	-1.20000e+00	6.176186e-05	
159	-1.25000e+00	6.216790e-05	
160	-1.30000e+00	6.255300e-05	
161	-1.35000e+00	6.292033e-05	
162	-1.40000e+00	6.327223e-05	
163	-1.45000e+00	6.361054e-05	
164	-1.50000e+00	6.393674e-05	
165	-1.55000e+00	6.425203e-05	
166	-1.60000e+00	6.455745e-05	
167	-1.65000e+00	6.485387e-05	
168	-1.70000e+00	6.514207e-05	
169	-1.75000e+00	6.542270e-05	
170	-1.80000e+00	6.569635e-05	

Index   v-sweep         i(vds)          
--------------------------------------------------------------------------------
171	-1.85000e+00	6.596353e-05	
172	-1.90000e+00	6.622472e-05	
173	-1.95000e+00	6.648032e-05	
174	-2.00000e+00	6.673071e-05	
175	-2.05000e+00	6.697622e-05	
176	-2.10000e+00	6.721716e-05	
177	-2.15000e+00	6.745382e-05	
178	-2.20000e+00	6.768643e-05	
179	-2.25000e+00	6.791524e-05	
180	-2.30000e+00	6.814046e-05	
181	-2.35000e+00	6.836228e-05	
182	-2.40000e+00	6.858089e-05	
183	-2.45000e+00	6.879645e-05	
184	-2.50000e+00	6.900911e-05	
185	-2.55000e+00	6.921903e-05	
186	-2.60000e+00	6.942634e-05	
187	-2.65000e+00	6.963117e-05	
188	-2.70000e+00	6.983363e-05	
189	-2.75000e+00	7.003384e-05	
190	-2.80000e+00	7.023191e-05	
191	-2.85000e+00	7.042795e-05	
192	-2.90000e+00	7.062206e-05	
193	-2.95000e+00	7.081435e-05	
194	-3.00000e+00	7.100493e-05	
195	-3.05000e+00	7.119390e-05	
196	-3.10000e+00	7.138139e-05	
197	-3.15000e+00	7.156752e-05	
198	-3.20000e+00	7.175244e-05	
199	-3.25000e+00	7.193629e-05	
200	-3.30000e+00	7.211923e-05	
201	0.000000e+00	-1.06155e-21	
202	-5.00000e-02	7.449697e-06	
203	-1.00000e-01	1.461584e-05	
204	-1.50000e-01	2.150055e-05	
205	-2.00000e-01	2.810592e-05	
206	-2.50000e-01	3.443408e-05	
207	-3.00000e-01	4.048714e-05	
208	-3.50000e-01	4.626724e-05	
209	-4.00000e-01	5.177650e-05	
210	-4.50000e-01	5.701706e-05	
211	-5.00000e-01	6.199105e-05	
212	-5.50000e-01	6.670062e-05	
213	-6.00000e-01	7.114794e-05	
214	-6.50000e-01	7.533519e-05	
215	-7.00000e-01	7.926457e-05	
216	-7.50000e-01	8.293832e-05	
217	-8.00000e-01	8.635877e-05	
218	-8.50000e-01	8.952830e-05	
219	-9.00000e-01	9.244947e-05	
220	-9.50000e-01	9.512509e-05	
221	-1.00000e+00	9.755838e-05	
222	-1.05000e+00	9.975328e-05	
223	-1.10000e+00	1.017150e-04	
224	-1.15000e+00	1.034509e-04	
225	-1.20000e+00	1.049720e-04	
226	-1.25000e+00	1.062952e-04	
227	-1.30000e+00	1.074444e-04	
228	-1.35000e+00	1.084495e-04	

Index   v-sweep         i(vds)          
--------------------------------------------------------------------------------
229	-1.40000e+00	1.093422e-04	
230	-1.45000e+00	1.101496e-04	
231	-1.50000e+00	1.108923e-04	
232	-1.55000e+00	1.115844e-04	
233	-1.60000e+00	1.122355e-04	
234	-1.65000e+00	1.128525e-04	
235	-1.70000e+00	1.134401e-04	
236	-1.75000e+00	1.140021e-04	
237	-1.80000e+00	1.145413e-04	
238	-1.85000e+00	1.150603e-04	
239	-1.90000e+00	1.155609e-04	
240	-1.95000e+00	1.160448e-04	
241	-2.00000e+00	1.165136e-04	
242	-2.05000e+00	1.169683e-04	
243	-2.10000e+00	1.174101e-04	
244	-2.15000e+00	1.178401e-04	
245	-2.20000e+00	1.182590e-04	
246	-2.25000e+00	1.186676e-04	
247	-2.30000e+00	1.190666e-04	
248	-2.35000e+00	1.194566e-04	
249	-2.40000e+00	1.198383e-04	
250	-2.45000e+00	1.202120e-04	
251	-2.50000e+00	1.205784e-04	
252	-2.55000e+00	1.209377e-04	
253	-2.60000e+00	1.212904e-04	
254	-2.65000e+00	1.216369e-04	
255	-2.70000e+00	1.219775e-04	
256	-2.75000e+00	1.223124e-04	
257	-2.80000e+00	1.226421e-04	
258	-2.85000e+00	1.229666e-04	
259	-2.90000e+00	1.232864e-04	
260	-2.95000e+00	1.236016e-04	
261	-3.00000e+00	1.239124e-04	
262	-3.05000e+00	1.242190e-04	
263	-3.10000e+00	1.245217e-04	
264	-3.15000e+00	1.248206e-04	
265	-3.20000e+00	1.251159e-04	
266	-3.25000e+00	1.254077e-04	
267	-3.30000e+00	1.256963e-04	
268	0.000000e+00	-2.06134e-30	
269	-5.00000e-02	8.801536e-06	
270	-1.00000e-01	1.734322e-05	
271	-1.50000e-01	2.562667e-05	
272	-2.00000e-01	3.365350e-05	
273	-2.50000e-01	4.142533e-05	
274	-3.00000e-01	4.894380e-05	
275	-3.50000e-01	5.621053e-05	
276	-4.00000e-01	6.322716e-05	
277	-4.50000e-01	6.999534e-05	
278	-5.00000e-01	7.651670e-05	
279	-5.50000e-01	8.279288e-05	
280	-6.00000e-01	8.882555e-05	
281	-6.50000e-01	9.461636e-05	
282	-7.00000e-01	1.001670e-04	
283	-7.50000e-01	1.054790e-04	
284	-8.00000e-01	1.105542e-04	
285	-8.50000e-01	1.153942e-04	
286	-9.00000e-01	1.200007e-04	

Index   v-sweep         i(vds)          
--------------------------------------------------------------------------------
287	-9.50000e-01	1.243754e-04	
288	-1.00000e+00	1.285201e-04	
289	-1.05000e+00	1.324364e-04	
290	-1.10000e+00	1.361263e-04	
291	-1.15000e+00	1.395915e-04	
292	-1.20000e+00	1.428340e-04	
293	-1.25000e+00	1.458560e-04	
294	-1.30000e+00	1.486599e-04	
295	-1.35000e+00	1.512483e-04	
296	-1.40000e+00	1.536247e-04	
297	-1.45000e+00	1.557935e-04	
298	-1.50000e+00	1.577607e-04	
299	-1.55000e+00	1.595352e-04	
300	-1.60000e+00	1.611295e-04	
301	-1.65000e+00	1.625608e-04	
302	-1.70000e+00	1.638508e-04	
303	-1.75000e+00	1.650231e-04	
304	-1.80000e+00	1.660998e-04	
305	-1.85000e+00	1.670994e-04	
306	-1.90000e+00	1.680359e-04	
307	-1.95000e+00	1.689197e-04	
308	-2.00000e+00	1.697586e-04	
309	-2.05000e+00	1.705584e-04	
310	-2.10000e+00	1.713238e-04	
311	-2.15000e+00	1.720585e-04	
312	-2.20000e+00	1.727654e-04	
313	-2.25000e+00	1.734473e-04	
314	-2.30000e+00	1.741062e-04	
315	-2.35000e+00	1.747441e-04	
316	-2.40000e+00	1.753627e-04	
317	-2.45000e+00	1.759633e-04	
318	-2.50000e+00	1.765474e-04	
319	-2.55000e+00	1.771160e-04	
320	-2.60000e+00	1.776703e-04	
321	-2.65000e+00	1.782110e-04	
322	-2.70000e+00	1.787392e-04	
323	-2.75000e+00	1.792556e-04	
324	-2.80000e+00	1.797608e-04	
325	-2.85000e+00	1.802555e-04	
326	-2.90000e+00	1.807403e-04	
327	-2.95000e+00	1.812157e-04	
328	-3.00000e+00	1.816822e-04	
329	-3.05000e+00	1.821404e-04	
330	-3.10000e+00	1.825905e-04	
331	-3.15000e+00	1.830331e-04	
332	-3.20000e+00	1.834684e-04	
333	-3.25000e+00	1.838968e-04	
334	-3.30000e+00	1.843187e-04	
335	0.000000e+00	1.565158e-30	
336	-5.00000e-02	9.881453e-06	
337	-1.00000e-01	1.952422e-05	
338	-1.50000e-01	2.892957e-05	
339	-2.00000e-01	3.809878e-05	
340	-2.50000e-01	4.703312e-05	
341	-3.00000e-01	5.573387e-05	
342	-3.50000e-01	6.420233e-05	
343	-4.00000e-01	7.243978e-05	
344	-4.50000e-01	8.044752e-05	

Index   v-sweep         i(vds)          
--------------------------------------------------------------------------------
345	-5.00000e-01	8.822685e-05	
346	-5.50000e-01	9.577906e-05	
347	-6.00000e-01	1.031055e-04	
348	-6.50000e-01	1.102074e-04	
349	-7.00000e-01	1.170861e-04	
350	-7.50000e-01	1.237429e-04	
351	-8.00000e-01	1.301792e-04	
352	-8.50000e-01	1.363963e-04	
353	-9.00000e-01	1.423954e-04	
354	-9.50000e-01	1.481780e-04	
355	-1.00000e+00	1.537453e-04	
356	-1.05000e+00	1.590987e-04	
357	-1.10000e+00	1.642395e-04	
358	-1.15000e+00	1.691691e-04	
359	-1.20000e+00	1.738888e-04	
360	-1.25000e+00	1.784000e-04	
361	-1.30000e+00	1.827042e-04	
362	-1.35000e+00	1.868026e-04	
363	-1.40000e+00	1.906968e-04	
364	-1.45000e+00	1.943882e-04	
365	-1.50000e+00	1.978785e-04	
366	-1.55000e+00	2.011693e-04	
367	-1.60000e+00	2.042623e-04	
368	-1.65000e+00	2.071597e-04	
369	-1.70000e+00	2.098639e-04	
370	-1.75000e+00	2.123778e-04	
371	-1.80000e+00	2.147052e-04	
372	-1.85000e+00	2.168514e-04	
373	-1.90000e+00	2.188236e-04	
374	-1.95000e+00	2.206318e-04	
375	-2.00000e+00	2.222893e-04	
376	-2.05000e+00	2.238124e-04	
377	-2.10000e+00	2.252192e-04	
378	-2.15000e+00	2.265272e-04	
379	-2.20000e+00	2.277520e-04	
380	-2.25000e+00	2.289063e-04	
381	-2.30000e+00	2.300002e-04	
382	-2.35000e+00	2.310414e-04	
383	-2.40000e+00	2.320363e-04	
384	-2.45000e+00	2.329898e-04	
385	-2.50000e+00	2.339061e-04	
386	-2.55000e+00	2.347886e-04	
387	-2.60000e+00	2.356404e-04	
388	-2.65000e+00	2.364639e-04	
389	-2.70000e+00	2.372615e-04	
390	-2.75000e+00	2.380351e-04	
391	-2.80000e+00	2.387863e-04	
392	-2.85000e+00	2.395169e-04	
393	-2.90000e+00	2.402281e-04	
394	-2.95000e+00	2.409213e-04	
395	-3.00000e+00	2.415975e-04	
396	-3.05000e+00	2.422578e-04	
397	-3.10000e+00	2.429032e-04	
398	-3.15000e+00	2.435344e-04	
399	-3.20000e+00	2.441523e-04	
400	-3.25000e+00	2.447577e-04	
401	-3.30000e+00	2.453511e-04	
Note: No ".plot", ".print", or ".fourier" lines; no simulations run
