
Note: Compatibility modes selected: hs

Warning: m=xx on .subckt line will override multiplier m hierarchy!


Circuit: ***************************

Doing analysis at TEMP = -40.000000 and TNOM = -40.000000


No. of Data Rows : 402
                          ***************************
                          DC transfer characteristic  Mon Jan  9 13:58:23  2023
--------------------------------------------------------------------------------
Index   v-sweep         i(vds)          
--------------------------------------------------------------------------------
0	0.000000e+00	-1.53271e-23	
1	-5.00000e-02	4.381969e-08	
2	-1.00000e-01	4.731480e-08	
3	-1.50000e-01	4.799167e-08	
4	-2.00000e-01	4.831373e-08	
5	-2.50000e-01	4.853797e-08	
6	-3.00000e-01	4.872074e-08	
7	-3.50000e-01	4.888078e-08	
8	-4.00000e-01	4.902619e-08	
9	-4.50000e-01	4.916115e-08	
10	-5.00000e-01	4.928813e-08	
11	-5.50000e-01	4.940874e-08	
12	-6.00000e-01	4.952410e-08	
13	-6.50000e-01	4.963501e-08	
14	-7.00000e-01	4.974211e-08	
15	-7.50000e-01	4.984589e-08	
16	-8.00000e-01	4.994674e-08	
17	-8.50000e-01	5.004498e-08	
18	-9.00000e-01	5.014088e-08	
19	-9.50000e-01	5.023468e-08	
20	-1.00000e+00	5.032656e-08	
21	-1.05000e+00	5.041670e-08	
22	-1.10000e+00	5.050525e-08	
23	-1.15000e+00	5.059232e-08	
24	-1.20000e+00	5.067805e-08	
25	-1.25000e+00	5.076251e-08	
26	-1.30000e+00	5.084581e-08	
27	-1.35000e+00	5.092803e-08	
28	-1.40000e+00	5.100923e-08	
29	-1.45000e+00	5.108949e-08	
30	-1.50000e+00	5.116886e-08	
31	-1.55000e+00	5.124739e-08	
32	-1.60000e+00	5.132513e-08	
33	-1.65000e+00	5.140214e-08	
34	-1.70000e+00	5.147844e-08	
35	-1.75000e+00	5.155408e-08	
36	-1.80000e+00	5.162910e-08	
37	-1.85000e+00	5.170352e-08	
38	-1.90000e+00	5.177738e-08	
39	-1.95000e+00	5.185071e-08	
40	-2.00000e+00	5.192354e-08	
41	-2.05000e+00	5.199590e-08	
42	-2.10000e+00	5.206781e-08	
43	-2.15000e+00	5.213930e-08	
44	-2.20000e+00	5.221041e-08	
45	-2.25000e+00	5.228118e-08	
46	-2.30000e+00	5.235164e-08	
47	-2.35000e+00	5.242182e-08	
48	-2.40000e+00	5.249179e-08	
49	-2.45000e+00	5.256160e-08	
50	-2.50000e+00	5.263132e-08	
51	-2.55000e+00	5.270101e-08	
52	-2.60000e+00	5.277076e-08	
53	-2.65000e+00	5.284069e-08	
54	-2.70000e+00	5.291090e-08	

Index   v-sweep         i(vds)          
--------------------------------------------------------------------------------
55	-2.75000e+00	5.298154e-08	
56	-2.80000e+00	5.305277e-08	
57	-2.85000e+00	5.312475e-08	
58	-2.90000e+00	5.319771e-08	
59	-2.95000e+00	5.327186e-08	
60	-3.00000e+00	5.334749e-08	
61	-3.05000e+00	5.342489e-08	
62	-3.10000e+00	5.350438e-08	
63	-3.15000e+00	5.358636e-08	
64	-3.20000e+00	5.367122e-08	
65	-3.25000e+00	5.375942e-08	
66	-3.30000e+00	5.385148e-08	
67	0.000000e+00	-1.10107e-36	
68	-5.00000e-02	4.923806e-06	
69	-1.00000e-01	9.077201e-06	
70	-1.50000e-01	1.246637e-05	
71	-2.00000e-01	1.510134e-05	
72	-2.50000e-01	1.700307e-05	
73	-3.00000e-01	1.822410e-05	
74	-3.50000e-01	1.889101e-05	
75	-4.00000e-01	1.921235e-05	
76	-4.50000e-01	1.937456e-05	
77	-5.00000e-01	1.947239e-05	
78	-5.50000e-01	1.954205e-05	
79	-6.00000e-01	1.959725e-05	
80	-6.50000e-01	1.964381e-05	
81	-7.00000e-01	1.968460e-05	
82	-7.50000e-01	1.972119e-05	
83	-8.00000e-01	1.975454e-05	
84	-8.50000e-01	1.978529e-05	
85	-9.00000e-01	1.981389e-05	
86	-9.50000e-01	1.984068e-05	
87	-1.00000e+00	1.986590e-05	
88	-1.05000e+00	1.988975e-05	
89	-1.10000e+00	1.991241e-05	
90	-1.15000e+00	1.993399e-05	
91	-1.20000e+00	1.995461e-05	
92	-1.25000e+00	1.997437e-05	
93	-1.30000e+00	1.999335e-05	
94	-1.35000e+00	2.001160e-05	
95	-1.40000e+00	2.002920e-05	
96	-1.45000e+00	2.004619e-05	
97	-1.50000e+00	2.006263e-05	
98	-1.55000e+00	2.007855e-05	
99	-1.60000e+00	2.009399e-05	
100	-1.65000e+00	2.010898e-05	
101	-1.70000e+00	2.012355e-05	
102	-1.75000e+00	2.013773e-05	
103	-1.80000e+00	2.015155e-05	
104	-1.85000e+00	2.016502e-05	
105	-1.90000e+00	2.017816e-05	
106	-1.95000e+00	2.019100e-05	
107	-2.00000e+00	2.020355e-05	
108	-2.05000e+00	2.021582e-05	
109	-2.10000e+00	2.022783e-05	
110	-2.15000e+00	2.023960e-05	
111	-2.20000e+00	2.025113e-05	
112	-2.25000e+00	2.026244e-05	

Index   v-sweep         i(vds)          
--------------------------------------------------------------------------------
113	-2.30000e+00	2.027354e-05	
114	-2.35000e+00	2.028445e-05	
115	-2.40000e+00	2.029516e-05	
116	-2.45000e+00	2.030571e-05	
117	-2.50000e+00	2.031609e-05	
118	-2.55000e+00	2.032632e-05	
119	-2.60000e+00	2.033641e-05	
120	-2.65000e+00	2.034639e-05	
121	-2.70000e+00	2.035627e-05	
122	-2.75000e+00	2.036607e-05	
123	-2.80000e+00	2.037581e-05	
124	-2.85000e+00	2.038553e-05	
125	-2.90000e+00	2.039525e-05	
126	-2.95000e+00	2.040502e-05	
127	-3.00000e+00	2.041487e-05	
128	-3.05000e+00	2.042486e-05	
129	-3.10000e+00	2.043505e-05	
130	-3.15000e+00	2.044550e-05	
131	-3.20000e+00	2.045628e-05	
132	-3.25000e+00	2.046749e-05	
133	-3.30000e+00	2.047922e-05	
134	0.000000e+00	2.873279e-35	
135	-5.00000e-02	1.013912e-05	
136	-1.00000e-01	1.954295e-05	
137	-1.50000e-01	2.821436e-05	
138	-2.00000e-01	3.615627e-05	
139	-2.50000e-01	4.337177e-05	
140	-3.00000e-01	4.986411e-05	
141	-3.50000e-01	5.563693e-05	
142	-4.00000e-01	6.069453e-05	
143	-4.50000e-01	6.504244e-05	
144	-5.00000e-01	6.868871e-05	
145	-5.50000e-01	7.164664e-05	
146	-6.00000e-01	7.394076e-05	
147	-6.50000e-01	7.561867e-05	
148	-7.00000e-01	7.676753e-05	
149	-7.50000e-01	7.751789e-05	
150	-8.00000e-01	7.801147e-05	
151	-8.50000e-01	7.835702e-05	
152	-9.00000e-01	7.861901e-05	
153	-9.50000e-01	7.883128e-05	
154	-1.00000e+00	7.901152e-05	
155	-1.05000e+00	7.916947e-05	
156	-1.10000e+00	7.931089e-05	
157	-1.15000e+00	7.943945e-05	
158	-1.20000e+00	7.955765e-05	
159	-1.25000e+00	7.966724e-05	
160	-1.30000e+00	7.976956e-05	
161	-1.35000e+00	7.986561e-05	
162	-1.40000e+00	7.995620e-05	
163	-1.45000e+00	8.004197e-05	
164	-1.50000e+00	8.012347e-05	
165	-1.55000e+00	8.020113e-05	
166	-1.60000e+00	8.027532e-05	
167	-1.65000e+00	8.034638e-05	
168	-1.70000e+00	8.041457e-05	
169	-1.75000e+00	8.048014e-05	
170	-1.80000e+00	8.054329e-05	

Index   v-sweep         i(vds)          
--------------------------------------------------------------------------------
171	-1.85000e+00	8.060422e-05	
172	-1.90000e+00	8.066309e-05	
173	-1.95000e+00	8.072004e-05	
174	-2.00000e+00	8.077521e-05	
175	-2.05000e+00	8.082871e-05	
176	-2.10000e+00	8.088066e-05	
177	-2.15000e+00	8.093114e-05	
178	-2.20000e+00	8.098024e-05	
179	-2.25000e+00	8.102806e-05	
180	-2.30000e+00	8.107465e-05	
181	-2.35000e+00	8.112008e-05	
182	-2.40000e+00	8.116442e-05	
183	-2.45000e+00	8.120773e-05	
184	-2.50000e+00	8.125006e-05	
185	-2.55000e+00	8.129146e-05	
186	-2.60000e+00	8.133198e-05	
187	-2.65000e+00	8.137166e-05	
188	-2.70000e+00	8.141055e-05	
189	-2.75000e+00	8.144870e-05	
190	-2.80000e+00	8.148614e-05	
191	-2.85000e+00	8.152294e-05	
192	-2.90000e+00	8.155913e-05	
193	-2.95000e+00	8.159478e-05	
194	-3.00000e+00	8.162995e-05	
195	-3.05000e+00	8.166470e-05	
196	-3.10000e+00	8.169912e-05	
197	-3.15000e+00	8.173329e-05	
198	-3.20000e+00	8.176733e-05	
199	-3.25000e+00	8.180135e-05	
200	-3.30000e+00	8.183550e-05	
201	0.000000e+00	-4.39770e-35	
202	-5.00000e-02	1.442690e-05	
203	-1.00000e-01	2.817901e-05	
204	-1.50000e-01	4.125858e-05	
205	-2.00000e-01	5.366785e-05	
206	-2.50000e-01	6.540910e-05	
207	-3.00000e-01	7.648460e-05	
208	-3.50000e-01	8.689664e-05	
209	-4.00000e-01	9.664757e-05	
210	-4.50000e-01	1.057398e-04	
211	-5.00000e-01	1.141757e-04	
212	-5.50000e-01	1.219579e-04	
213	-6.00000e-01	1.290890e-04	
214	-6.50000e-01	1.355722e-04	
215	-7.00000e-01	1.414108e-04	
216	-7.50000e-01	1.466089e-04	
217	-8.00000e-01	1.511719e-04	
218	-8.50000e-01	1.551076e-04	
219	-9.00000e-01	1.584280e-04	
220	-9.50000e-01	1.611528e-04	
221	-1.00000e+00	1.633160e-04	
222	-1.05000e+00	1.649740e-04	
223	-1.10000e+00	1.662099e-04	
224	-1.15000e+00	1.671257e-04	
225	-1.20000e+00	1.678192e-04	
226	-1.25000e+00	1.683659e-04	
227	-1.30000e+00	1.688159e-04	
228	-1.35000e+00	1.691996e-04	

Index   v-sweep         i(vds)          
--------------------------------------------------------------------------------
229	-1.40000e+00	1.695359e-04	
230	-1.45000e+00	1.698366e-04	
231	-1.50000e+00	1.701094e-04	
232	-1.55000e+00	1.703597e-04	
233	-1.60000e+00	1.705912e-04	
234	-1.65000e+00	1.708070e-04	
235	-1.70000e+00	1.710092e-04	
236	-1.75000e+00	1.711996e-04	
237	-1.80000e+00	1.713796e-04	
238	-1.85000e+00	1.715503e-04	
239	-1.90000e+00	1.717128e-04	
240	-1.95000e+00	1.718677e-04	
241	-2.00000e+00	1.720160e-04	
242	-2.05000e+00	1.721580e-04	
243	-2.10000e+00	1.722945e-04	
244	-2.15000e+00	1.724257e-04	
245	-2.20000e+00	1.725522e-04	
246	-2.25000e+00	1.726742e-04	
247	-2.30000e+00	1.727921e-04	
248	-2.35000e+00	1.729063e-04	
249	-2.40000e+00	1.730168e-04	
250	-2.45000e+00	1.731240e-04	
251	-2.50000e+00	1.732281e-04	
252	-2.55000e+00	1.733293e-04	
253	-2.60000e+00	1.734276e-04	
254	-2.65000e+00	1.735234e-04	
255	-2.70000e+00	1.736167e-04	
256	-2.75000e+00	1.737077e-04	
257	-2.80000e+00	1.737965e-04	
258	-2.85000e+00	1.738831e-04	
259	-2.90000e+00	1.739678e-04	
260	-2.95000e+00	1.740506e-04	
261	-3.00000e+00	1.741317e-04	
262	-3.05000e+00	1.742110e-04	
263	-3.10000e+00	1.742887e-04	
264	-3.15000e+00	1.743650e-04	
265	-3.20000e+00	1.744398e-04	
266	-3.25000e+00	1.745133e-04	
267	-3.30000e+00	1.745856e-04	
268	0.000000e+00	-5.92735e-37	
269	-5.00000e-02	1.790219e-05	
270	-1.00000e-01	3.519124e-05	
271	-1.50000e-01	5.186898e-05	
272	-2.00000e-01	6.793723e-05	
273	-2.50000e-01	8.339784e-05	
274	-3.00000e-01	9.825265e-05	
275	-3.50000e-01	1.125035e-04	
276	-4.00000e-01	1.261522e-04	
277	-4.50000e-01	1.392007e-04	
278	-5.00000e-01	1.516508e-04	
279	-5.50000e-01	1.635043e-04	
280	-6.00000e-01	1.747632e-04	
281	-6.50000e-01	1.854294e-04	
282	-7.00000e-01	1.955049e-04	
283	-7.50000e-01	2.049914e-04	
284	-8.00000e-01	2.138912e-04	
285	-8.50000e-01	2.222063e-04	
286	-9.00000e-01	2.299389e-04	

Index   v-sweep         i(vds)          
--------------------------------------------------------------------------------
287	-9.50000e-01	2.370914e-04	
288	-1.00000e+00	2.436663e-04	
289	-1.05000e+00	2.496666e-04	
290	-1.10000e+00	2.550959e-04	
291	-1.15000e+00	2.599587e-04	
292	-1.20000e+00	2.642613e-04	
293	-1.25000e+00	2.680125e-04	
294	-1.30000e+00	2.712262e-04	
295	-1.35000e+00	2.739238e-04	
296	-1.40000e+00	2.761397e-04	
297	-1.45000e+00	2.779244e-04	
298	-1.50000e+00	2.793456e-04	
299	-1.55000e+00	2.804804e-04	
300	-1.60000e+00	2.814018e-04	
301	-1.65000e+00	2.821690e-04	
302	-1.70000e+00	2.828250e-04	
303	-1.75000e+00	2.833988e-04	
304	-1.80000e+00	2.839104e-04	
305	-1.85000e+00	2.843729e-04	
306	-1.90000e+00	2.847960e-04	
307	-1.95000e+00	2.851863e-04	
308	-2.00000e+00	2.855492e-04	
309	-2.05000e+00	2.858885e-04	
310	-2.10000e+00	2.862072e-04	
311	-2.15000e+00	2.865080e-04	
312	-2.20000e+00	2.867929e-04	
313	-2.25000e+00	2.870636e-04	
314	-2.30000e+00	2.873214e-04	
315	-2.35000e+00	2.875677e-04	
316	-2.40000e+00	2.878034e-04	
317	-2.45000e+00	2.880295e-04	
318	-2.50000e+00	2.882468e-04	
319	-2.55000e+00	2.884560e-04	
320	-2.60000e+00	2.886576e-04	
321	-2.65000e+00	2.888523e-04	
322	-2.70000e+00	2.890404e-04	
323	-2.75000e+00	2.892226e-04	
324	-2.80000e+00	2.893991e-04	
325	-2.85000e+00	2.895703e-04	
326	-2.90000e+00	2.897365e-04	
327	-2.95000e+00	2.898981e-04	
328	-3.00000e+00	2.900552e-04	
329	-3.05000e+00	2.902082e-04	
330	-3.10000e+00	2.903573e-04	
331	-3.15000e+00	2.905026e-04	
332	-3.20000e+00	2.906444e-04	
333	-3.25000e+00	2.907829e-04	
334	-3.30000e+00	2.909182e-04	
335	0.000000e+00	-4.91588e-35	
336	-5.00000e-02	2.069193e-05	
337	-1.00000e-01	4.082883e-05	
338	-1.50000e-01	6.041220e-05	
339	-2.00000e-01	7.944357e-05	
340	-2.50000e-01	9.792445e-05	
341	-3.00000e-01	1.158564e-04	
342	-3.50000e-01	1.332408e-04	
343	-4.00000e-01	1.500793e-04	
344	-4.50000e-01	1.663734e-04	

Index   v-sweep         i(vds)          
--------------------------------------------------------------------------------
345	-5.00000e-01	1.821246e-04	
346	-5.50000e-01	1.973345e-04	
347	-6.00000e-01	2.120045e-04	
348	-6.50000e-01	2.261362e-04	
349	-7.00000e-01	2.397312e-04	
350	-7.50000e-01	2.527909e-04	
351	-8.00000e-01	2.653170e-04	
352	-8.50000e-01	2.773111e-04	
353	-9.00000e-01	2.887745e-04	
354	-9.50000e-01	2.997091e-04	
355	-1.00000e+00	3.101163e-04	
356	-1.05000e+00	3.199978e-04	
357	-1.10000e+00	3.293552e-04	
358	-1.15000e+00	3.381903e-04	
359	-1.20000e+00	3.465048e-04	
360	-1.25000e+00	3.543005e-04	
361	-1.30000e+00	3.615795e-04	
362	-1.35000e+00	3.683439e-04	
363	-1.40000e+00	3.745961e-04	
364	-1.45000e+00	3.803389e-04	
365	-1.50000e+00	3.855758e-04	
366	-1.55000e+00	3.903112e-04	
367	-1.60000e+00	3.945512e-04	
368	-1.65000e+00	3.983043e-04	
369	-1.70000e+00	4.015833e-04	
370	-1.75000e+00	4.044074e-04	
371	-1.80000e+00	4.068048e-04	
372	-1.85000e+00	4.088158e-04	
373	-1.90000e+00	4.104917e-04	
374	-1.95000e+00	4.118913e-04	
375	-2.00000e+00	4.130724e-04	
376	-2.05000e+00	4.140850e-04	
377	-2.10000e+00	4.149687e-04	
378	-2.15000e+00	4.157527e-04	
379	-2.20000e+00	4.164581e-04	
380	-2.25000e+00	4.171002e-04	
381	-2.30000e+00	4.176901e-04	
382	-2.35000e+00	4.182364e-04	
383	-2.40000e+00	4.187456e-04	
384	-2.45000e+00	4.192226e-04	
385	-2.50000e+00	4.196715e-04	
386	-2.55000e+00	4.200957e-04	
387	-2.60000e+00	4.204979e-04	
388	-2.65000e+00	4.208803e-04	
389	-2.70000e+00	4.212449e-04	
390	-2.75000e+00	4.215934e-04	
391	-2.80000e+00	4.219272e-04	
392	-2.85000e+00	4.222475e-04	
393	-2.90000e+00	4.225554e-04	
394	-2.95000e+00	4.228519e-04	
395	-3.00000e+00	4.231379e-04	
396	-3.05000e+00	4.234140e-04	
397	-3.10000e+00	4.236810e-04	
398	-3.15000e+00	4.239394e-04	
399	-3.20000e+00	4.241899e-04	
400	-3.25000e+00	4.244329e-04	
401	-3.30000e+00	4.246689e-04	
Note: No ".plot", ".print", or ".fourier" lines; no simulations run
