
Note: Compatibility modes selected: hs

Warning: m=xx on .subckt line will override multiplier m hierarchy!


Circuit: ***************************

Doing analysis at TEMP = -40.000000 and TNOM = -40.000000


No. of Data Rows : 402
                          ***************************
                          DC transfer characteristic  Mon Jan  9 13:58:23  2023
--------------------------------------------------------------------------------
Index   v-sweep         i(vds)          
--------------------------------------------------------------------------------
0	0.000000e+00	-3.69118e-23	
1	-5.00000e-02	1.816854e-07	
2	-1.00000e-01	1.992989e-07	
3	-1.50000e-01	2.034071e-07	
4	-2.00000e-01	2.057880e-07	
5	-2.50000e-01	2.076643e-07	
6	-3.00000e-01	2.093068e-07	
7	-3.50000e-01	2.108094e-07	
8	-4.00000e-01	2.122155e-07	
9	-4.50000e-01	2.135491e-07	
10	-5.00000e-01	2.148255e-07	
11	-5.50000e-01	2.160550e-07	
12	-6.00000e-01	2.172452e-07	
13	-6.50000e-01	2.184021e-07	
14	-7.00000e-01	2.195301e-07	
15	-7.50000e-01	2.206329e-07	
16	-8.00000e-01	2.217136e-07	
17	-8.50000e-01	2.227746e-07	
18	-9.00000e-01	2.238180e-07	
19	-9.50000e-01	2.248458e-07	
20	-1.00000e+00	2.258593e-07	
21	-1.05000e+00	2.268601e-07	
22	-1.10000e+00	2.278492e-07	
23	-1.15000e+00	2.288277e-07	
24	-1.20000e+00	2.297965e-07	
25	-1.25000e+00	2.307565e-07	
26	-1.30000e+00	2.317084e-07	
27	-1.35000e+00	2.326527e-07	
28	-1.40000e+00	2.335902e-07	
29	-1.45000e+00	2.345213e-07	
30	-1.50000e+00	2.354466e-07	
31	-1.55000e+00	2.363664e-07	
32	-1.60000e+00	2.372812e-07	
33	-1.65000e+00	2.381914e-07	
34	-1.70000e+00	2.390972e-07	
35	-1.75000e+00	2.399991e-07	
36	-1.80000e+00	2.408972e-07	
37	-1.85000e+00	2.417919e-07	
38	-1.90000e+00	2.426834e-07	
39	-1.95000e+00	2.435721e-07	
40	-2.00000e+00	2.444580e-07	
41	-2.05000e+00	2.453415e-07	
42	-2.10000e+00	2.462228e-07	
43	-2.15000e+00	2.471021e-07	
44	-2.20000e+00	2.479797e-07	
45	-2.25000e+00	2.488560e-07	
46	-2.30000e+00	2.497311e-07	
47	-2.35000e+00	2.506054e-07	
48	-2.40000e+00	2.514793e-07	
49	-2.45000e+00	2.523533e-07	
50	-2.50000e+00	2.532278e-07	
51	-2.55000e+00	2.541033e-07	
52	-2.60000e+00	2.549804e-07	
53	-2.65000e+00	2.558600e-07	
54	-2.70000e+00	2.567427e-07	

Index   v-sweep         i(vds)          
--------------------------------------------------------------------------------
55	-2.75000e+00	2.576295e-07	
56	-2.80000e+00	2.585214e-07	
57	-2.85000e+00	2.594197e-07	
58	-2.90000e+00	2.603254e-07	
59	-2.95000e+00	2.612402e-07	
60	-3.00000e+00	2.621657e-07	
61	-3.05000e+00	2.631035e-07	
62	-3.10000e+00	2.640558e-07	
63	-3.15000e+00	2.650246e-07	
64	-3.20000e+00	2.660123e-07	
65	-3.25000e+00	2.670215e-07	
66	-3.30000e+00	2.680550e-07	
67	0.000000e+00	-6.18614e-35	
68	-5.00000e-02	2.025281e-05	
69	-1.00000e-01	3.762013e-05	
70	-1.50000e-01	5.213768e-05	
71	-2.00000e-01	6.384934e-05	
72	-2.50000e-01	7.282073e-05	
73	-3.00000e-01	7.917837e-05	
74	-3.50000e-01	8.320981e-05	
75	-4.00000e-01	8.549413e-05	
76	-4.50000e-01	8.677698e-05	
77	-5.00000e-01	8.759644e-05	
78	-5.50000e-01	8.820320e-05	
79	-6.00000e-01	8.869800e-05	
80	-6.50000e-01	8.912408e-05	
81	-7.00000e-01	8.950275e-05	
82	-7.50000e-01	8.984602e-05	
83	-8.00000e-01	9.016143e-05	
84	-8.50000e-01	9.045411e-05	
85	-9.00000e-01	9.072776e-05	
86	-9.50000e-01	9.098519e-05	
87	-1.00000e+00	9.122858e-05	
88	-1.05000e+00	9.145967e-05	
89	-1.10000e+00	9.167989e-05	
90	-1.15000e+00	9.189041e-05	
91	-1.20000e+00	9.209223e-05	
92	-1.25000e+00	9.228620e-05	
93	-1.30000e+00	9.247303e-05	
94	-1.35000e+00	9.265335e-05	
95	-1.40000e+00	9.282771e-05	
96	-1.45000e+00	9.299659e-05	
97	-1.50000e+00	9.316042e-05	
98	-1.55000e+00	9.331955e-05	
99	-1.60000e+00	9.347434e-05	
100	-1.65000e+00	9.362508e-05	
101	-1.70000e+00	9.377205e-05	
102	-1.75000e+00	9.391547e-05	
103	-1.80000e+00	9.405559e-05	
104	-1.85000e+00	9.419259e-05	
105	-1.90000e+00	9.432666e-05	
106	-1.95000e+00	9.445797e-05	
107	-2.00000e+00	9.458667e-05	
108	-2.05000e+00	9.471290e-05	
109	-2.10000e+00	9.483681e-05	
110	-2.15000e+00	9.495850e-05	
111	-2.20000e+00	9.507809e-05	
112	-2.25000e+00	9.519570e-05	

Index   v-sweep         i(vds)          
--------------------------------------------------------------------------------
113	-2.30000e+00	9.531142e-05	
114	-2.35000e+00	9.542537e-05	
115	-2.40000e+00	9.553763e-05	
116	-2.45000e+00	9.564832e-05	
117	-2.50000e+00	9.575752e-05	
118	-2.55000e+00	9.586536e-05	
119	-2.60000e+00	9.597194e-05	
120	-2.65000e+00	9.607738e-05	
121	-2.70000e+00	9.618183e-05	
122	-2.75000e+00	9.628542e-05	
123	-2.80000e+00	9.638832e-05	
124	-2.85000e+00	9.649073e-05	
125	-2.90000e+00	9.659285e-05	
126	-2.95000e+00	9.669492e-05	
127	-3.00000e+00	9.679721e-05	
128	-3.05000e+00	9.690001e-05	
129	-3.10000e+00	9.700368e-05	
130	-3.15000e+00	9.710860e-05	
131	-3.20000e+00	9.721518e-05	
132	-3.25000e+00	9.732391e-05	
133	-3.30000e+00	9.743531e-05	
134	0.000000e+00	-2.91043e-34	
135	-5.00000e-02	4.020184e-05	
136	-1.00000e-01	7.766144e-05	
137	-1.50000e-01	1.124008e-04	
138	-2.00000e-01	1.444421e-04	
139	-2.50000e-01	1.738078e-04	
140	-3.00000e-01	2.005205e-04	
141	-3.50000e-01	2.246038e-04	
142	-4.00000e-01	2.460826e-04	
143	-4.50000e-01	2.649841e-04	
144	-5.00000e-01	2.813405e-04	
145	-5.50000e-01	2.951931e-04	
146	-6.00000e-01	3.066031e-04	
147	-6.50000e-01	3.156729e-04	
148	-7.00000e-01	3.225862e-04	
149	-7.50000e-01	3.276577e-04	
150	-8.00000e-01	3.313305e-04	
151	-8.50000e-01	3.340662e-04	
152	-9.00000e-01	3.362165e-04	
153	-9.50000e-01	3.379976e-04	
154	-1.00000e+00	3.395318e-04	
155	-1.05000e+00	3.408893e-04	
156	-1.10000e+00	3.421128e-04	
157	-1.15000e+00	3.432302e-04	
158	-1.20000e+00	3.442611e-04	
159	-1.25000e+00	3.452194e-04	
160	-1.30000e+00	3.461160e-04	
161	-1.35000e+00	3.469592e-04	
162	-1.40000e+00	3.477556e-04	
163	-1.45000e+00	3.485108e-04	
164	-1.50000e+00	3.492293e-04	
165	-1.55000e+00	3.499148e-04	
166	-1.60000e+00	3.505706e-04	
167	-1.65000e+00	3.511995e-04	
168	-1.70000e+00	3.518038e-04	
169	-1.75000e+00	3.523856e-04	
170	-1.80000e+00	3.529468e-04	

Index   v-sweep         i(vds)          
--------------------------------------------------------------------------------
171	-1.85000e+00	3.534888e-04	
172	-1.90000e+00	3.540133e-04	
173	-1.95000e+00	3.545214e-04	
174	-2.00000e+00	3.550143e-04	
175	-2.05000e+00	3.554929e-04	
176	-2.10000e+00	3.559583e-04	
177	-2.15000e+00	3.564112e-04	
178	-2.20000e+00	3.568525e-04	
179	-2.25000e+00	3.572827e-04	
180	-2.30000e+00	3.577026e-04	
181	-2.35000e+00	3.581127e-04	
182	-2.40000e+00	3.585135e-04	
183	-2.45000e+00	3.589056e-04	
184	-2.50000e+00	3.592894e-04	
185	-2.55000e+00	3.596653e-04	
186	-2.60000e+00	3.600338e-04	
187	-2.65000e+00	3.603951e-04	
188	-2.70000e+00	3.607498e-04	
189	-2.75000e+00	3.610982e-04	
190	-2.80000e+00	3.614405e-04	
191	-2.85000e+00	3.617773e-04	
192	-2.90000e+00	3.621088e-04	
193	-2.95000e+00	3.624355e-04	
194	-3.00000e+00	3.627578e-04	
195	-3.05000e+00	3.630761e-04	
196	-3.10000e+00	3.633911e-04	
197	-3.15000e+00	3.637032e-04	
198	-3.20000e+00	3.640131e-04	
199	-3.25000e+00	3.643215e-04	
200	-3.30000e+00	3.646293e-04	
201	0.000000e+00	-3.50492e-34	
202	-5.00000e-02	5.562924e-05	
203	-1.00000e-01	1.087495e-04	
204	-1.50000e-01	1.593773e-04	
205	-2.00000e-01	2.075294e-04	
206	-2.50000e-01	2.532223e-04	
207	-3.00000e-01	2.964728e-04	
208	-3.50000e-01	3.372976e-04	
209	-4.00000e-01	3.757134e-04	
210	-4.50000e-01	4.117371e-04	
211	-5.00000e-01	4.453857e-04	
212	-5.50000e-01	4.766763e-04	
213	-6.00000e-01	5.056264e-04	
214	-6.50000e-01	5.322543e-04	
215	-7.00000e-01	5.565788e-04	
216	-7.50000e-01	5.786203e-04	
217	-8.00000e-01	5.984020e-04	
218	-8.50000e-01	6.159511e-04	
219	-9.00000e-01	6.313033e-04	
220	-9.50000e-01	6.445090e-04	
221	-1.00000e+00	6.556458e-04	
222	-1.05000e+00	6.648393e-04	
223	-1.10000e+00	6.722871e-04	
224	-1.15000e+00	6.782674e-04	
225	-1.20000e+00	6.831051e-04	
226	-1.25000e+00	6.871050e-04	
227	-1.30000e+00	6.905039e-04	
228	-1.35000e+00	6.934657e-04	

Index   v-sweep         i(vds)          
--------------------------------------------------------------------------------
229	-1.40000e+00	6.960990e-04	
230	-1.45000e+00	6.984763e-04	
231	-1.50000e+00	7.006480e-04	
232	-1.55000e+00	7.026502e-04	
233	-1.60000e+00	7.045098e-04	
234	-1.65000e+00	7.062474e-04	
235	-1.70000e+00	7.078794e-04	
236	-1.75000e+00	7.094188e-04	
237	-1.80000e+00	7.108763e-04	
238	-1.85000e+00	7.122610e-04	
239	-1.90000e+00	7.135802e-04	
240	-1.95000e+00	7.148404e-04	
241	-2.00000e+00	7.160470e-04	
242	-2.05000e+00	7.172048e-04	
243	-2.10000e+00	7.183179e-04	
244	-2.15000e+00	7.193898e-04	
245	-2.20000e+00	7.204239e-04	
246	-2.25000e+00	7.214230e-04	
247	-2.30000e+00	7.223895e-04	
248	-2.35000e+00	7.233257e-04	
249	-2.40000e+00	7.242337e-04	
250	-2.45000e+00	7.251153e-04	
251	-2.50000e+00	7.259721e-04	
252	-2.55000e+00	7.268057e-04	
253	-2.60000e+00	7.276174e-04	
254	-2.65000e+00	7.284084e-04	
255	-2.70000e+00	7.291801e-04	
256	-2.75000e+00	7.299333e-04	
257	-2.80000e+00	7.306691e-04	
258	-2.85000e+00	7.313884e-04	
259	-2.90000e+00	7.320920e-04	
260	-2.95000e+00	7.327808e-04	
261	-3.00000e+00	7.334555e-04	
262	-3.05000e+00	7.341168e-04	
263	-3.10000e+00	7.347654e-04	
264	-3.15000e+00	7.354022e-04	
265	-3.20000e+00	7.360277e-04	
266	-3.25000e+00	7.366426e-04	
267	-3.30000e+00	7.372479e-04	
268	0.000000e+00	-2.88824e-36	
269	-5.00000e-02	6.757561e-05	
270	-1.00000e-01	1.328730e-04	
271	-1.50000e-01	1.959051e-04	
272	-2.00000e-01	2.566848e-04	
273	-2.50000e-01	3.152251e-04	
274	-3.00000e-01	3.715389e-04	
275	-3.50000e-01	4.256393e-04	
276	-4.00000e-01	4.775392e-04	
277	-4.50000e-01	5.272516e-04	
278	-5.00000e-01	5.747894e-04	
279	-5.50000e-01	6.201658e-04	
280	-6.00000e-01	6.633937e-04	
281	-6.50000e-01	7.044861e-04	
282	-7.00000e-01	7.434563e-04	
283	-7.50000e-01	7.803175e-04	
284	-8.00000e-01	8.150828e-04	
285	-8.50000e-01	8.477659e-04	
286	-9.00000e-01	8.783804e-04	

Index   v-sweep         i(vds)          
--------------------------------------------------------------------------------
287	-9.50000e-01	9.069404e-04	
288	-1.00000e+00	9.334604e-04	
289	-1.05000e+00	9.579560e-04	
290	-1.10000e+00	9.804440e-04	
291	-1.15000e+00	1.000943e-03	
292	-1.20000e+00	1.019477e-03	
293	-1.25000e+00	1.036073e-03	
294	-1.30000e+00	1.050772e-03	
295	-1.35000e+00	1.063631e-03	
296	-1.40000e+00	1.074738e-03	
297	-1.45000e+00	1.084222e-03	
298	-1.50000e+00	1.092266e-03	
299	-1.55000e+00	1.099096e-03	
300	-1.60000e+00	1.104947e-03	
301	-1.65000e+00	1.110031e-03	
302	-1.70000e+00	1.114520e-03	
303	-1.75000e+00	1.118541e-03	
304	-1.80000e+00	1.122185e-03	
305	-1.85000e+00	1.125523e-03	
306	-1.90000e+00	1.128603e-03	
307	-1.95000e+00	1.131466e-03	
308	-2.00000e+00	1.134142e-03	
309	-2.05000e+00	1.136656e-03	
310	-2.10000e+00	1.139026e-03	
311	-2.15000e+00	1.141270e-03	
312	-2.20000e+00	1.143401e-03	
313	-2.25000e+00	1.145430e-03	
314	-2.30000e+00	1.147368e-03	
315	-2.35000e+00	1.149222e-03	
316	-2.40000e+00	1.151000e-03	
317	-2.45000e+00	1.152709e-03	
318	-2.50000e+00	1.154353e-03	
319	-2.55000e+00	1.155939e-03	
320	-2.60000e+00	1.157470e-03	
321	-2.65000e+00	1.158950e-03	
322	-2.70000e+00	1.160383e-03	
323	-2.75000e+00	1.161772e-03	
324	-2.80000e+00	1.163119e-03	
325	-2.85000e+00	1.164428e-03	
326	-2.90000e+00	1.165701e-03	
327	-2.95000e+00	1.166939e-03	
328	-3.00000e+00	1.168145e-03	
329	-3.05000e+00	1.169321e-03	
330	-3.10000e+00	1.170468e-03	
331	-3.15000e+00	1.171588e-03	
332	-3.20000e+00	1.172682e-03	
333	-3.25000e+00	1.173751e-03	
334	-3.30000e+00	1.174797e-03	
335	0.000000e+00	-4.90851e-34	
336	-5.00000e-02	7.685306e-05	
337	-1.00000e-01	1.516399e-04	
338	-1.50000e-01	2.243708e-04	
339	-2.00000e-01	2.950560e-04	
340	-2.50000e-01	3.637058e-04	
341	-3.00000e-01	4.303304e-04	
342	-3.50000e-01	4.949403e-04	
343	-4.00000e-01	5.575456e-04	
344	-4.50000e-01	6.181567e-04	

Index   v-sweep         i(vds)          
--------------------------------------------------------------------------------
345	-5.00000e-01	6.767839e-04	
346	-5.50000e-01	7.334375e-04	
347	-6.00000e-01	7.881279e-04	
348	-6.50000e-01	8.408654e-04	
349	-7.00000e-01	8.916603e-04	
350	-7.50000e-01	9.405231e-04	
351	-8.00000e-01	9.874640e-04	
352	-8.50000e-01	1.032493e-03	
353	-9.00000e-01	1.075622e-03	
354	-9.50000e-01	1.116859e-03	
355	-1.00000e+00	1.156217e-03	
356	-1.05000e+00	1.193705e-03	
357	-1.10000e+00	1.229334e-03	
358	-1.15000e+00	1.263114e-03	
359	-1.20000e+00	1.295058e-03	
360	-1.25000e+00	1.325174e-03	
361	-1.30000e+00	1.353476e-03	
362	-1.35000e+00	1.379975e-03	
363	-1.40000e+00	1.404683e-03	
364	-1.45000e+00	1.427614e-03	
365	-1.50000e+00	1.448784e-03	
366	-1.55000e+00	1.468210e-03	
367	-1.60000e+00	1.485917e-03	
368	-1.65000e+00	1.501932e-03	
369	-1.70000e+00	1.516298e-03	
370	-1.75000e+00	1.529076e-03	
371	-1.80000e+00	1.540351e-03	
372	-1.85000e+00	1.550246e-03	
373	-1.90000e+00	1.558913e-03	
374	-1.95000e+00	1.566530e-03	
375	-2.00000e+00	1.573270e-03	
376	-2.05000e+00	1.579293e-03	
377	-2.10000e+00	1.584727e-03	
378	-2.15000e+00	1.589678e-03	
379	-2.20000e+00	1.594224e-03	
380	-2.25000e+00	1.598429e-03	
381	-2.30000e+00	1.602342e-03	
382	-2.35000e+00	1.606002e-03	
383	-2.40000e+00	1.609442e-03	
384	-2.45000e+00	1.612687e-03	
385	-2.50000e+00	1.615759e-03	
386	-2.55000e+00	1.618677e-03	
387	-2.60000e+00	1.621456e-03	
388	-2.65000e+00	1.624108e-03	
389	-2.70000e+00	1.626647e-03	
390	-2.75000e+00	1.629081e-03	
391	-2.80000e+00	1.631419e-03	
392	-2.85000e+00	1.633669e-03	
393	-2.90000e+00	1.635838e-03	
394	-2.95000e+00	1.637931e-03	
395	-3.00000e+00	1.639955e-03	
396	-3.05000e+00	1.641913e-03	
397	-3.10000e+00	1.643810e-03	
398	-3.15000e+00	1.645650e-03	
399	-3.20000e+00	1.647437e-03	
400	-3.25000e+00	1.649174e-03	
401	-3.30000e+00	1.650864e-03	
Note: No ".plot", ".print", or ".fourier" lines; no simulations run
