
Note: Compatibility modes selected: hs

Warning: m=xx on .subckt line will override multiplier m hierarchy!


Circuit: ***************************

Doing analysis at TEMP = 25.000000 and TNOM = 25.000000


No. of Data Rows : 402
                          ***************************
                          DC transfer characteristic  Mon Jan  9 13:58:23  2023
--------------------------------------------------------------------------------
Index   v-sweep         i(vds)          
--------------------------------------------------------------------------------
0	0.000000e+00	5.670741e-23	
1	-5.00000e-02	2.637126e-07	
2	-1.00000e-01	3.235169e-07	
3	-1.50000e-01	3.331166e-07	
4	-2.00000e-01	3.361056e-07	
5	-2.50000e-01	3.377394e-07	
6	-3.00000e-01	3.389185e-07	
7	-3.50000e-01	3.398866e-07	
8	-4.00000e-01	3.407333e-07	
9	-4.50000e-01	3.414998e-07	
10	-5.00000e-01	3.422077e-07	
11	-5.50000e-01	3.428704e-07	
12	-6.00000e-01	3.434964e-07	
13	-6.50000e-01	3.440919e-07	
14	-7.00000e-01	3.446612e-07	
15	-7.50000e-01	3.452080e-07	
16	-8.00000e-01	3.457348e-07	
17	-8.50000e-01	3.462439e-07	
18	-9.00000e-01	3.467373e-07	
19	-9.50000e-01	3.472163e-07	
20	-1.00000e+00	3.476823e-07	
21	-1.05000e+00	3.481365e-07	
22	-1.10000e+00	3.485799e-07	
23	-1.15000e+00	3.490132e-07	
24	-1.20000e+00	3.494373e-07	
25	-1.25000e+00	3.498528e-07	
26	-1.30000e+00	3.502604e-07	
27	-1.35000e+00	3.506605e-07	
28	-1.40000e+00	3.510537e-07	
29	-1.45000e+00	3.514403e-07	
30	-1.50000e+00	3.518209e-07	
31	-1.55000e+00	3.521957e-07	
32	-1.60000e+00	3.525651e-07	
33	-1.65000e+00	3.529293e-07	
34	-1.70000e+00	3.532887e-07	
35	-1.75000e+00	3.536436e-07	
36	-1.80000e+00	3.539941e-07	
37	-1.85000e+00	3.543404e-07	
38	-1.90000e+00	3.546829e-07	
39	-1.95000e+00	3.550217e-07	
40	-2.00000e+00	3.553569e-07	
41	-2.05000e+00	3.556888e-07	
42	-2.10000e+00	3.560176e-07	
43	-2.15000e+00	3.563434e-07	
44	-2.20000e+00	3.566665e-07	
45	-2.25000e+00	3.569870e-07	
46	-2.30000e+00	3.573053e-07	
47	-2.35000e+00	3.576215e-07	
48	-2.40000e+00	3.579360e-07	
49	-2.45000e+00	3.582492e-07	
50	-2.50000e+00	3.585613e-07	
51	-2.55000e+00	3.588729e-07	
52	-2.60000e+00	3.591846e-07	
53	-2.65000e+00	3.594968e-07	
54	-2.70000e+00	3.598104e-07	

Index   v-sweep         i(vds)          
--------------------------------------------------------------------------------
55	-2.75000e+00	3.601262e-07	
56	-2.80000e+00	3.604452e-07	
57	-2.85000e+00	3.607684e-07	
58	-2.90000e+00	3.610971e-07	
59	-2.95000e+00	3.614329e-07	
60	-3.00000e+00	3.617772e-07	
61	-3.05000e+00	3.621321e-07	
62	-3.10000e+00	3.624995e-07	
63	-3.15000e+00	3.628818e-07	
64	-3.20000e+00	3.632815e-07	
65	-3.25000e+00	3.637016e-07	
66	-3.30000e+00	3.641452e-07	
67	0.000000e+00	1.104991e-31	
68	-5.00000e-02	4.435137e-06	
69	-1.00000e-01	8.287703e-06	
70	-1.50000e-01	1.156080e-05	
71	-2.00000e-01	1.425868e-05	
72	-2.50000e-01	1.638848e-05	
73	-3.00000e-01	1.796479e-05	
74	-3.50000e-01	1.902225e-05	
75	-4.00000e-01	1.964136e-05	
76	-4.50000e-01	1.996172e-05	
77	-5.00000e-01	2.012746e-05	
78	-5.50000e-01	2.022571e-05	
79	-6.00000e-01	2.029405e-05	
80	-6.50000e-01	2.034740e-05	
81	-7.00000e-01	2.039211e-05	
82	-7.50000e-01	2.043120e-05	
83	-8.00000e-01	2.046628e-05	
84	-8.50000e-01	2.049833e-05	
85	-9.00000e-01	2.052795e-05	
86	-9.50000e-01	2.055557e-05	
87	-1.00000e+00	2.058150e-05	
88	-1.05000e+00	2.060597e-05	
89	-1.10000e+00	2.062917e-05	
90	-1.15000e+00	2.065125e-05	
91	-1.20000e+00	2.067233e-05	
92	-1.25000e+00	2.069250e-05	
93	-1.30000e+00	2.071185e-05	
94	-1.35000e+00	2.073046e-05	
95	-1.40000e+00	2.074839e-05	
96	-1.45000e+00	2.076570e-05	
97	-1.50000e+00	2.078242e-05	
98	-1.55000e+00	2.079862e-05	
99	-1.60000e+00	2.081431e-05	
100	-1.65000e+00	2.082954e-05	
101	-1.70000e+00	2.084435e-05	
102	-1.75000e+00	2.085874e-05	
103	-1.80000e+00	2.087276e-05	
104	-1.85000e+00	2.088642e-05	
105	-1.90000e+00	2.089974e-05	
106	-1.95000e+00	2.091275e-05	
107	-2.00000e+00	2.092546e-05	
108	-2.05000e+00	2.093788e-05	
109	-2.10000e+00	2.095003e-05	
110	-2.15000e+00	2.096193e-05	
111	-2.20000e+00	2.097359e-05	
112	-2.25000e+00	2.098501e-05	

Index   v-sweep         i(vds)          
--------------------------------------------------------------------------------
113	-2.30000e+00	2.099622e-05	
114	-2.35000e+00	2.100722e-05	
115	-2.40000e+00	2.101803e-05	
116	-2.45000e+00	2.102865e-05	
117	-2.50000e+00	2.103909e-05	
118	-2.55000e+00	2.104938e-05	
119	-2.60000e+00	2.105951e-05	
120	-2.65000e+00	2.106951e-05	
121	-2.70000e+00	2.107940e-05	
122	-2.75000e+00	2.108918e-05	
123	-2.80000e+00	2.109888e-05	
124	-2.85000e+00	2.110853e-05	
125	-2.90000e+00	2.111815e-05	
126	-2.95000e+00	2.112777e-05	
127	-3.00000e+00	2.113743e-05	
128	-3.05000e+00	2.114718e-05	
129	-3.10000e+00	2.115706e-05	
130	-3.15000e+00	2.116713e-05	
131	-3.20000e+00	2.117747e-05	
132	-3.25000e+00	2.118814e-05	
133	-3.30000e+00	2.119923e-05	
134	0.000000e+00	-1.21072e-30	
135	-5.00000e-02	8.433739e-06	
136	-1.00000e-01	1.630990e-05	
137	-1.50000e-01	2.363018e-05	
138	-2.00000e-01	3.039634e-05	
139	-2.50000e-01	3.661019e-05	
140	-3.00000e-01	4.227362e-05	
141	-3.50000e-01	4.738869e-05	
142	-4.00000e-01	5.195772e-05	
143	-4.50000e-01	5.598351e-05	
144	-5.00000e-01	5.946972e-05	
145	-5.50000e-01	6.242171e-05	
146	-6.00000e-01	6.484825e-05	
147	-6.50000e-01	6.676514e-05	
148	-7.00000e-01	6.820246e-05	
149	-7.50000e-01	6.921559e-05	
150	-8.00000e-01	6.989222e-05	
151	-8.50000e-01	7.033800e-05	
152	-9.00000e-01	7.064460e-05	
153	-9.50000e-01	7.087195e-05	
154	-1.00000e+00	7.105315e-05	
155	-1.05000e+00	7.120562e-05	
156	-1.10000e+00	7.133873e-05	
157	-1.15000e+00	7.145784e-05	
158	-1.20000e+00	7.156625e-05	
159	-1.25000e+00	7.166613e-05	
160	-1.30000e+00	7.175899e-05	
161	-1.35000e+00	7.184591e-05	
162	-1.40000e+00	7.192773e-05	
163	-1.45000e+00	7.200509e-05	
164	-1.50000e+00	7.207852e-05	
165	-1.55000e+00	7.214845e-05	
166	-1.60000e+00	7.221523e-05	
167	-1.65000e+00	7.227915e-05	
168	-1.70000e+00	7.234049e-05	
169	-1.75000e+00	7.239945e-05	
170	-1.80000e+00	7.245623e-05	

Index   v-sweep         i(vds)          
--------------------------------------------------------------------------------
171	-1.85000e+00	7.251101e-05	
172	-1.90000e+00	7.256393e-05	
173	-1.95000e+00	7.261512e-05	
174	-2.00000e+00	7.266470e-05	
175	-2.05000e+00	7.271278e-05	
176	-2.10000e+00	7.275946e-05	
177	-2.15000e+00	7.280482e-05	
178	-2.20000e+00	7.284895e-05	
179	-2.25000e+00	7.289190e-05	
180	-2.30000e+00	7.293376e-05	
181	-2.35000e+00	7.297458e-05	
182	-2.40000e+00	7.301441e-05	
183	-2.45000e+00	7.305331e-05	
184	-2.50000e+00	7.309133e-05	
185	-2.55000e+00	7.312851e-05	
186	-2.60000e+00	7.316488e-05	
187	-2.65000e+00	7.320050e-05	
188	-2.70000e+00	7.323540e-05	
189	-2.75000e+00	7.326962e-05	
190	-2.80000e+00	7.330319e-05	
191	-2.85000e+00	7.333616e-05	
192	-2.90000e+00	7.336856e-05	
193	-2.95000e+00	7.340044e-05	
194	-3.00000e+00	7.343184e-05	
195	-3.05000e+00	7.346281e-05	
196	-3.10000e+00	7.349342e-05	
197	-3.15000e+00	7.352372e-05	
198	-3.20000e+00	7.355380e-05	
199	-3.25000e+00	7.358374e-05	
200	-3.30000e+00	7.361366e-05	
201	0.000000e+00	-1.71803e-30	
202	-5.00000e-02	1.179521e-05	
203	-1.00000e-01	2.307465e-05	
204	-1.50000e-01	3.383972e-05	
205	-2.00000e-01	4.409177e-05	
206	-2.50000e-01	5.383219e-05	
207	-3.00000e-01	6.306236e-05	
208	-3.50000e-01	7.178371e-05	
209	-4.00000e-01	7.999763e-05	
210	-4.50000e-01	8.770559e-05	
211	-5.00000e-01	9.490905e-05	
212	-5.50000e-01	1.016096e-04	
213	-6.00000e-01	1.078087e-04	
214	-6.50000e-01	1.135082e-04	
215	-7.00000e-01	1.187101e-04	
216	-7.50000e-01	1.234164e-04	
217	-8.00000e-01	1.276299e-04	
218	-8.50000e-01	1.313541e-04	
219	-9.00000e-01	1.345940e-04	
220	-9.50000e-01	1.373571e-04	
221	-1.00000e+00	1.396558e-04	
222	-1.05000e+00	1.415110e-04	
223	-1.10000e+00	1.429576e-04	
224	-1.15000e+00	1.440498e-04	
225	-1.20000e+00	1.448598e-04	
226	-1.25000e+00	1.454655e-04	
227	-1.30000e+00	1.459338e-04	
228	-1.35000e+00	1.463122e-04	

Index   v-sweep         i(vds)          
--------------------------------------------------------------------------------
229	-1.40000e+00	1.466308e-04	
230	-1.45000e+00	1.469079e-04	
231	-1.50000e+00	1.471549e-04	
232	-1.55000e+00	1.473787e-04	
233	-1.60000e+00	1.475843e-04	
234	-1.65000e+00	1.477747e-04	
235	-1.70000e+00	1.479525e-04	
236	-1.75000e+00	1.481195e-04	
237	-1.80000e+00	1.482771e-04	
238	-1.85000e+00	1.484264e-04	
239	-1.90000e+00	1.485683e-04	
240	-1.95000e+00	1.487036e-04	
241	-2.00000e+00	1.488330e-04	
242	-2.05000e+00	1.489569e-04	
243	-2.10000e+00	1.490759e-04	
244	-2.15000e+00	1.491903e-04	
245	-2.20000e+00	1.493006e-04	
246	-2.25000e+00	1.494069e-04	
247	-2.30000e+00	1.495097e-04	
248	-2.35000e+00	1.496092e-04	
249	-2.40000e+00	1.497055e-04	
250	-2.45000e+00	1.497990e-04	
251	-2.50000e+00	1.498897e-04	
252	-2.55000e+00	1.499778e-04	
253	-2.60000e+00	1.500636e-04	
254	-2.65000e+00	1.501470e-04	
255	-2.70000e+00	1.502283e-04	
256	-2.75000e+00	1.503076e-04	
257	-2.80000e+00	1.503850e-04	
258	-2.85000e+00	1.504605e-04	
259	-2.90000e+00	1.505343e-04	
260	-2.95000e+00	1.506064e-04	
261	-3.00000e+00	1.506770e-04	
262	-3.05000e+00	1.507461e-04	
263	-3.10000e+00	1.508138e-04	
264	-3.15000e+00	1.508801e-04	
265	-3.20000e+00	1.509452e-04	
266	-3.25000e+00	1.510090e-04	
267	-3.30000e+00	1.510718e-04	
268	0.000000e+00	4.894337e-30	
269	-5.00000e-02	1.460243e-05	
270	-1.00000e-01	2.873186e-05	
271	-1.50000e-01	4.238943e-05	
272	-2.00000e-01	5.557628e-05	
273	-2.50000e-01	6.829356e-05	
274	-3.00000e-01	8.054243e-05	
275	-3.50000e-01	9.232402e-05	
276	-4.00000e-01	1.036395e-04	
277	-4.50000e-01	1.144900e-04	
278	-5.00000e-01	1.248768e-04	
279	-5.50000e-01	1.348009e-04	
280	-6.00000e-01	1.442635e-04	
281	-6.50000e-01	1.532660e-04	
282	-7.00000e-01	1.618093e-04	
283	-7.50000e-01	1.698949e-04	
284	-8.00000e-01	1.775238e-04	
285	-8.50000e-01	1.846975e-04	
286	-9.00000e-01	1.914172e-04	

Index   v-sweep         i(vds)          
--------------------------------------------------------------------------------
287	-9.50000e-01	1.976844e-04	
288	-1.00000e+00	2.035005e-04	
289	-1.05000e+00	2.088673e-04	
290	-1.10000e+00	2.137867e-04	
291	-1.15000e+00	2.182609e-04	
292	-1.20000e+00	2.222929e-04	
293	-1.25000e+00	2.258867e-04	
294	-1.30000e+00	2.290477e-04	
295	-1.35000e+00	2.317843e-04	
296	-1.40000e+00	2.341094e-04	
297	-1.45000e+00	2.360436e-04	
298	-1.50000e+00	2.376182e-04	
299	-1.55000e+00	2.388779e-04	
300	-1.60000e+00	2.398788e-04	
301	-1.65000e+00	2.406806e-04	
302	-1.70000e+00	2.413369e-04	
303	-1.75000e+00	2.418894e-04	
304	-1.80000e+00	2.423672e-04	
305	-1.85000e+00	2.427900e-04	
306	-1.90000e+00	2.431708e-04	
307	-1.95000e+00	2.435184e-04	
308	-2.00000e+00	2.438392e-04	
309	-2.05000e+00	2.441375e-04	
310	-2.10000e+00	2.444167e-04	
311	-2.15000e+00	2.446795e-04	
312	-2.20000e+00	2.449279e-04	
313	-2.25000e+00	2.451635e-04	
314	-2.30000e+00	2.453877e-04	
315	-2.35000e+00	2.456017e-04	
316	-2.40000e+00	2.458063e-04	
317	-2.45000e+00	2.460026e-04	
318	-2.50000e+00	2.461910e-04	
319	-2.55000e+00	2.463724e-04	
320	-2.60000e+00	2.465472e-04	
321	-2.65000e+00	2.467159e-04	
322	-2.70000e+00	2.468790e-04	
323	-2.75000e+00	2.470368e-04	
324	-2.80000e+00	2.471897e-04	
325	-2.85000e+00	2.473380e-04	
326	-2.90000e+00	2.474820e-04	
327	-2.95000e+00	2.476219e-04	
328	-3.00000e+00	2.477580e-04	
329	-3.05000e+00	2.478905e-04	
330	-3.10000e+00	2.480195e-04	
331	-3.15000e+00	2.481454e-04	
332	-3.20000e+00	2.482682e-04	
333	-3.25000e+00	2.483880e-04	
334	-3.30000e+00	2.485051e-04	
335	0.000000e+00	-4.75493e-30	
336	-5.00000e-02	1.693928e-05	
337	-1.00000e-01	3.344602e-05	
338	-1.50000e-01	4.952118e-05	
339	-2.00000e-01	6.516574e-05	
340	-2.50000e-01	8.038066e-05	
341	-3.00000e-01	9.516691e-05	
342	-3.50000e-01	1.095255e-04	
343	-4.00000e-01	1.234573e-04	
344	-4.50000e-01	1.369634e-04	

Index   v-sweep         i(vds)          
--------------------------------------------------------------------------------
345	-5.00000e-01	1.500447e-04	
346	-5.50000e-01	1.627022e-04	
347	-6.00000e-01	1.749369e-04	
348	-6.50000e-01	1.867498e-04	
349	-7.00000e-01	1.981418e-04	
350	-7.50000e-01	2.091139e-04	
351	-8.00000e-01	2.196672e-04	
352	-8.50000e-01	2.298026e-04	
353	-9.00000e-01	2.395211e-04	
354	-9.50000e-01	2.488238e-04	
355	-1.00000e+00	2.577117e-04	
356	-1.05000e+00	2.661857e-04	
357	-1.10000e+00	2.742470e-04	
358	-1.15000e+00	2.818966e-04	
359	-1.20000e+00	2.891356e-04	
360	-1.25000e+00	2.959652e-04	
361	-1.30000e+00	3.023866e-04	
362	-1.35000e+00	3.084011e-04	
363	-1.40000e+00	3.140101e-04	
364	-1.45000e+00	3.192151e-04	
365	-1.50000e+00	3.240180e-04	
366	-1.55000e+00	3.284209e-04	
367	-1.60000e+00	3.324268e-04	
368	-1.65000e+00	3.360393e-04	
369	-1.70000e+00	3.392635e-04	
370	-1.75000e+00	3.421071e-04	
371	-1.80000e+00	3.445811e-04	
372	-1.85000e+00	3.467023e-04	
373	-1.90000e+00	3.484950e-04	
374	-1.95000e+00	3.499930e-04	
375	-2.00000e+00	3.512384e-04	
376	-2.05000e+00	3.522780e-04	
377	-2.10000e+00	3.531568e-04	
378	-2.15000e+00	3.539132e-04	
379	-2.20000e+00	3.545766e-04	
380	-2.25000e+00	3.551687e-04	
381	-2.30000e+00	3.557048e-04	
382	-2.35000e+00	3.561960e-04	
383	-2.40000e+00	3.566502e-04	
384	-2.45000e+00	3.570733e-04	
385	-2.50000e+00	3.574699e-04	
386	-2.55000e+00	3.578433e-04	
387	-2.60000e+00	3.581965e-04	
388	-2.65000e+00	3.585317e-04	
389	-2.70000e+00	3.588509e-04	
390	-2.75000e+00	3.591555e-04	
391	-2.80000e+00	3.594470e-04	
392	-2.85000e+00	3.597265e-04	
393	-2.90000e+00	3.599950e-04	
394	-2.95000e+00	3.602534e-04	
395	-3.00000e+00	3.605025e-04	
396	-3.05000e+00	3.607430e-04	
397	-3.10000e+00	3.609754e-04	
398	-3.15000e+00	3.612003e-04	
399	-3.20000e+00	3.614182e-04	
400	-3.25000e+00	3.616296e-04	
401	-3.30000e+00	3.618348e-04	
Note: No ".plot", ".print", or ".fourier" lines; no simulations run
