
Note: Compatibility modes selected: hs

Warning: m=xx on .subckt line will override multiplier m hierarchy!


Circuit: ***************************

Doing analysis at TEMP = -40.000000 and TNOM = -40.000000


No. of Data Rows : 402
                          ***************************
                          DC transfer characteristic  Mon Jan  9 13:58:24  2023
--------------------------------------------------------------------------------
Index   v-sweep         i(vds)          
--------------------------------------------------------------------------------
0	0.000000e+00	-1.63803e-24	
1	-5.00000e-02	1.265354e-08	
2	-1.00000e-01	1.437839e-08	
3	-1.50000e-01	1.472921e-08	
4	-2.00000e-01	1.491543e-08	
5	-2.50000e-01	1.505936e-08	
6	-3.00000e-01	1.518522e-08	
7	-3.50000e-01	1.530065e-08	
8	-4.00000e-01	1.540891e-08	
9	-4.50000e-01	1.551172e-08	
10	-5.00000e-01	1.561015e-08	
11	-5.50000e-01	1.570491e-08	
12	-6.00000e-01	1.579653e-08	
13	-6.50000e-01	1.588542e-08	
14	-7.00000e-01	1.597191e-08	
15	-7.50000e-01	1.605626e-08	
16	-8.00000e-01	1.613869e-08	
17	-8.50000e-01	1.621939e-08	
18	-9.00000e-01	1.629853e-08	
19	-9.50000e-01	1.637623e-08	
20	-1.00000e+00	1.645263e-08	
21	-1.05000e+00	1.652783e-08	
22	-1.10000e+00	1.660193e-08	
23	-1.15000e+00	1.667501e-08	
24	-1.20000e+00	1.674715e-08	
25	-1.25000e+00	1.681841e-08	
26	-1.30000e+00	1.688886e-08	
27	-1.35000e+00	1.695855e-08	
28	-1.40000e+00	1.702753e-08	
29	-1.45000e+00	1.709586e-08	
30	-1.50000e+00	1.716356e-08	
31	-1.55000e+00	1.723069e-08	
32	-1.60000e+00	1.729727e-08	
33	-1.65000e+00	1.736334e-08	
34	-1.70000e+00	1.742893e-08	
35	-1.75000e+00	1.749406e-08	
36	-1.80000e+00	1.755877e-08	
37	-1.85000e+00	1.762308e-08	
38	-1.90000e+00	1.768701e-08	
39	-1.95000e+00	1.775058e-08	
40	-2.00000e+00	1.781382e-08	
41	-2.05000e+00	1.787674e-08	
42	-2.10000e+00	1.793937e-08	
43	-2.15000e+00	1.800172e-08	
44	-2.20000e+00	1.806382e-08	
45	-2.25000e+00	1.812569e-08	
46	-2.30000e+00	1.818736e-08	
47	-2.35000e+00	1.824884e-08	
48	-2.40000e+00	1.831017e-08	
49	-2.45000e+00	1.837137e-08	
50	-2.50000e+00	1.843248e-08	
51	-2.55000e+00	1.849354e-08	
52	-2.60000e+00	1.855459e-08	
53	-2.65000e+00	1.861568e-08	
54	-2.70000e+00	1.867685e-08	

Index   v-sweep         i(vds)          
--------------------------------------------------------------------------------
55	-2.75000e+00	1.873818e-08	
56	-2.80000e+00	1.879973e-08	
57	-2.85000e+00	1.886158e-08	
58	-2.90000e+00	1.892381e-08	
59	-2.95000e+00	1.898652e-08	
60	-3.00000e+00	1.904982e-08	
61	-3.05000e+00	1.911383e-08	
62	-3.10000e+00	1.917867e-08	
63	-3.15000e+00	1.924449e-08	
64	-3.20000e+00	1.931145e-08	
65	-3.25000e+00	1.937972e-08	
66	-3.30000e+00	1.944948e-08	
67	0.000000e+00	-1.26139e-35	
68	-5.00000e-02	5.138494e-07	
69	-1.00000e-01	9.608252e-07	
70	-1.50000e-01	1.341506e-06	
71	-2.00000e-01	1.656600e-06	
72	-2.50000e-01	1.907130e-06	
73	-3.00000e-01	2.094956e-06	
74	-3.50000e-01	2.224177e-06	
75	-4.00000e-01	2.304008e-06	
76	-4.50000e-01	2.350154e-06	
77	-5.00000e-01	2.378616e-06	
78	-5.50000e-01	2.398981e-06	
79	-6.00000e-01	2.415410e-06	
80	-6.50000e-01	2.429600e-06	
81	-7.00000e-01	2.442316e-06	
82	-7.50000e-01	2.453950e-06	
83	-8.00000e-01	2.464734e-06	
84	-8.50000e-01	2.474820e-06	
85	-9.00000e-01	2.484313e-06	
86	-9.50000e-01	2.493295e-06	
87	-1.00000e+00	2.501829e-06	
88	-1.05000e+00	2.509964e-06	
89	-1.10000e+00	2.517743e-06	
90	-1.15000e+00	2.525201e-06	
91	-1.20000e+00	2.532368e-06	
92	-1.25000e+00	2.539268e-06	
93	-1.30000e+00	2.545925e-06	
94	-1.35000e+00	2.552358e-06	
95	-1.40000e+00	2.558583e-06	
96	-1.45000e+00	2.564618e-06	
97	-1.50000e+00	2.570473e-06	
98	-1.55000e+00	2.576163e-06	
99	-1.60000e+00	2.581698e-06	
100	-1.65000e+00	2.587088e-06	
101	-1.70000e+00	2.592342e-06	
102	-1.75000e+00	2.597467e-06	
103	-1.80000e+00	2.602472e-06	
104	-1.85000e+00	2.607364e-06	
105	-1.90000e+00	2.612147e-06	
106	-1.95000e+00	2.616829e-06	
107	-2.00000e+00	2.621415e-06	
108	-2.05000e+00	2.625909e-06	
109	-2.10000e+00	2.630316e-06	
110	-2.15000e+00	2.634640e-06	
111	-2.20000e+00	2.638886e-06	
112	-2.25000e+00	2.643056e-06	

Index   v-sweep         i(vds)          
--------------------------------------------------------------------------------
113	-2.30000e+00	2.647155e-06	
114	-2.35000e+00	2.651186e-06	
115	-2.40000e+00	2.655153e-06	
116	-2.45000e+00	2.659058e-06	
117	-2.50000e+00	2.662904e-06	
118	-2.55000e+00	2.666696e-06	
119	-2.60000e+00	2.670436e-06	
120	-2.65000e+00	2.674129e-06	
121	-2.70000e+00	2.677776e-06	
122	-2.75000e+00	2.681384e-06	
123	-2.80000e+00	2.684956e-06	
124	-2.85000e+00	2.688497e-06	
125	-2.90000e+00	2.692012e-06	
126	-2.95000e+00	2.695508e-06	
127	-3.00000e+00	2.698991e-06	
128	-3.05000e+00	2.702468e-06	
129	-3.10000e+00	2.705949e-06	
130	-3.15000e+00	2.709443e-06	
131	-3.20000e+00	2.712960e-06	
132	-3.25000e+00	2.716512e-06	
133	-3.30000e+00	2.720112e-06	
134	0.000000e+00	-7.63205e-35	
135	-5.00000e-02	1.002243e-06	
136	-1.00000e-01	1.939332e-06	
137	-1.50000e-01	2.811616e-06	
138	-2.00000e-01	3.619448e-06	
139	-2.50000e-01	4.363188e-06	
140	-3.00000e-01	5.043210e-06	
141	-3.50000e-01	5.659904e-06	
142	-4.00000e-01	6.213692e-06	
143	-4.50000e-01	6.705048e-06	
144	-5.00000e-01	7.134544e-06	
145	-5.50000e-01	7.502937e-06	
146	-6.00000e-01	7.811364e-06	
147	-6.50000e-01	8.061742e-06	
148	-7.00000e-01	8.257574e-06	
149	-7.50000e-01	8.405159e-06	
150	-8.00000e-01	8.514276e-06	
151	-8.50000e-01	8.596485e-06	
152	-9.00000e-01	8.661665e-06	
153	-9.50000e-01	8.716274e-06	
154	-1.00000e+00	8.763969e-06	
155	-1.05000e+00	8.806780e-06	
156	-1.10000e+00	8.845892e-06	
157	-1.15000e+00	8.882052e-06	
158	-1.20000e+00	8.915769e-06	
159	-1.25000e+00	8.947409e-06	
160	-1.30000e+00	8.977252e-06	
161	-1.35000e+00	9.005518e-06	
162	-1.40000e+00	9.032383e-06	
163	-1.45000e+00	9.057994e-06	
164	-1.50000e+00	9.082476e-06	
165	-1.55000e+00	9.105932e-06	
166	-1.60000e+00	9.128454e-06	
167	-1.65000e+00	9.150119e-06	
168	-1.70000e+00	9.170997e-06	
169	-1.75000e+00	9.191147e-06	
170	-1.80000e+00	9.210624e-06	

Index   v-sweep         i(vds)          
--------------------------------------------------------------------------------
171	-1.85000e+00	9.229476e-06	
172	-1.90000e+00	9.247745e-06	
173	-1.95000e+00	9.265470e-06	
174	-2.00000e+00	9.282686e-06	
175	-2.05000e+00	9.299424e-06	
176	-2.10000e+00	9.315712e-06	
177	-2.15000e+00	9.331578e-06	
178	-2.20000e+00	9.347045e-06	
179	-2.25000e+00	9.362135e-06	
180	-2.30000e+00	9.376868e-06	
181	-2.35000e+00	9.391263e-06	
182	-2.40000e+00	9.405336e-06	
183	-2.45000e+00	9.419105e-06	
184	-2.50000e+00	9.432584e-06	
185	-2.55000e+00	9.445786e-06	
186	-2.60000e+00	9.458726e-06	
187	-2.65000e+00	9.471415e-06	
188	-2.70000e+00	9.483865e-06	
189	-2.75000e+00	9.496088e-06	
190	-2.80000e+00	9.508094e-06	
191	-2.85000e+00	9.519896e-06	
192	-2.90000e+00	9.531504e-06	
193	-2.95000e+00	9.542930e-06	
194	-3.00000e+00	9.554185e-06	
195	-3.05000e+00	9.565282e-06	
196	-3.10000e+00	9.576235e-06	
197	-3.15000e+00	9.587058e-06	
198	-3.20000e+00	9.597768e-06	
199	-3.25000e+00	9.608383e-06	
200	-3.30000e+00	9.618923e-06	
201	0.000000e+00	-1.34508e-34	
202	-5.00000e-02	1.407953e-06	
203	-1.00000e-01	2.754647e-06	
204	-1.50000e-01	4.040341e-06	
205	-2.00000e-01	5.265295e-06	
206	-2.50000e-01	6.429776e-06	
207	-3.00000e-01	7.534049e-06	
208	-3.50000e-01	8.578386e-06	
209	-4.00000e-01	9.563062e-06	
210	-4.50000e-01	1.048836e-05	
211	-5.00000e-01	1.135455e-05	
212	-5.50000e-01	1.216194e-05	
213	-6.00000e-01	1.291084e-05	
214	-6.50000e-01	1.360155e-05	
215	-7.00000e-01	1.423443e-05	
216	-7.50000e-01	1.480987e-05	
217	-8.00000e-01	1.532831e-05	
218	-8.50000e-01	1.579032e-05	
219	-9.00000e-01	1.619667e-05	
220	-9.50000e-01	1.654852e-05	
221	-1.00000e+00	1.684769e-05	
222	-1.05000e+00	1.709722e-05	
223	-1.10000e+00	1.730200e-05	
224	-1.15000e+00	1.746902e-05	
225	-1.20000e+00	1.760664e-05	
226	-1.25000e+00	1.772279e-05	
227	-1.30000e+00	1.782360e-05	
228	-1.35000e+00	1.791326e-05	

Index   v-sweep         i(vds)          
--------------------------------------------------------------------------------
229	-1.40000e+00	1.799446e-05	
230	-1.45000e+00	1.806900e-05	
231	-1.50000e+00	1.813808e-05	
232	-1.55000e+00	1.820258e-05	
233	-1.60000e+00	1.826313e-05	
234	-1.65000e+00	1.832026e-05	
235	-1.70000e+00	1.837437e-05	
236	-1.75000e+00	1.842578e-05	
237	-1.80000e+00	1.847478e-05	
238	-1.85000e+00	1.852160e-05	
239	-1.90000e+00	1.856643e-05	
240	-1.95000e+00	1.860945e-05	
241	-2.00000e+00	1.865080e-05	
242	-2.05000e+00	1.869063e-05	
243	-2.10000e+00	1.872905e-05	
244	-2.15000e+00	1.876616e-05	
245	-2.20000e+00	1.880205e-05	
246	-2.25000e+00	1.883681e-05	
247	-2.30000e+00	1.887050e-05	
248	-2.35000e+00	1.890321e-05	
249	-2.40000e+00	1.893498e-05	
250	-2.45000e+00	1.896588e-05	
251	-2.50000e+00	1.899595e-05	
252	-2.55000e+00	1.902524e-05	
253	-2.60000e+00	1.905380e-05	
254	-2.65000e+00	1.908166e-05	
255	-2.70000e+00	1.910886e-05	
256	-2.75000e+00	1.913543e-05	
257	-2.80000e+00	1.916141e-05	
258	-2.85000e+00	1.918682e-05	
259	-2.90000e+00	1.921169e-05	
260	-2.95000e+00	1.923604e-05	
261	-3.00000e+00	1.925990e-05	
262	-3.05000e+00	1.928330e-05	
263	-3.10000e+00	1.930625e-05	
264	-3.15000e+00	1.932878e-05	
265	-3.20000e+00	1.935091e-05	
266	-3.25000e+00	1.937265e-05	
267	-3.30000e+00	1.939404e-05	
268	0.000000e+00	-1.70208e-34	
269	-5.00000e-02	1.742442e-06	
270	-1.00000e-01	3.427856e-06	
271	-1.50000e-01	5.056442e-06	
272	-2.00000e-01	6.628402e-06	
273	-2.50000e-01	8.143939e-06	
274	-3.00000e-01	9.603258e-06	
275	-3.50000e-01	1.100657e-05	
276	-4.00000e-01	1.235408e-05	
277	-4.50000e-01	1.364600e-05	
278	-5.00000e-01	1.488255e-05	
279	-5.50000e-01	1.606395e-05	
280	-6.00000e-01	1.719041e-05	
281	-6.50000e-01	1.826216e-05	
282	-7.00000e-01	1.927942e-05	
283	-7.50000e-01	2.024242e-05	
284	-8.00000e-01	2.115141e-05	
285	-8.50000e-01	2.200662e-05	
286	-9.00000e-01	2.280830e-05	

Index   v-sweep         i(vds)          
--------------------------------------------------------------------------------
287	-9.50000e-01	2.355673e-05	
288	-1.00000e+00	2.425218e-05	
289	-1.05000e+00	2.489497e-05	
290	-1.10000e+00	2.548546e-05	
291	-1.15000e+00	2.602408e-05	
292	-1.20000e+00	2.651140e-05	
293	-1.25000e+00	2.694817e-05	
294	-1.30000e+00	2.733552e-05	
295	-1.35000e+00	2.767515e-05	
296	-1.40000e+00	2.796972e-05	
297	-1.45000e+00	2.822319e-05	
298	-1.50000e+00	2.844094e-05	
299	-1.55000e+00	2.862922e-05	
300	-1.60000e+00	2.879421e-05	
301	-1.65000e+00	2.894109e-05	
302	-1.70000e+00	2.907383e-05	
303	-1.75000e+00	2.919524e-05	
304	-1.80000e+00	2.930739e-05	
305	-1.85000e+00	2.941177e-05	
306	-1.90000e+00	2.950949e-05	
307	-1.95000e+00	2.960145e-05	
308	-2.00000e+00	2.968833e-05	
309	-2.05000e+00	2.977072e-05	
310	-2.10000e+00	2.984908e-05	
311	-2.15000e+00	2.992381e-05	
312	-2.20000e+00	2.999525e-05	
313	-2.25000e+00	3.006369e-05	
314	-2.30000e+00	3.012939e-05	
315	-2.35000e+00	3.019257e-05	
316	-2.40000e+00	3.025343e-05	
317	-2.45000e+00	3.031213e-05	
318	-2.50000e+00	3.036884e-05	
319	-2.55000e+00	3.042370e-05	
320	-2.60000e+00	3.047682e-05	
321	-2.65000e+00	3.052831e-05	
322	-2.70000e+00	3.057829e-05	
323	-2.75000e+00	3.062684e-05	
324	-2.80000e+00	3.067404e-05	
325	-2.85000e+00	3.071998e-05	
326	-2.90000e+00	3.076472e-05	
327	-2.95000e+00	3.080833e-05	
328	-3.00000e+00	3.085087e-05	
329	-3.05000e+00	3.089239e-05	
330	-3.10000e+00	3.093294e-05	
331	-3.15000e+00	3.097258e-05	
332	-3.20000e+00	3.101134e-05	
333	-3.25000e+00	3.104927e-05	
334	-3.30000e+00	3.108640e-05	
335	0.000000e+00	-1.26020e-34	
336	-5.00000e-02	2.017085e-06	
337	-1.00000e-01	3.981282e-06	
338	-1.50000e-01	5.892748e-06	
339	-2.00000e-01	7.751639e-06	
340	-2.50000e-01	9.558116e-06	
341	-3.00000e-01	1.131234e-05	
342	-3.50000e-01	1.301448e-05	
343	-4.00000e-01	1.466469e-05	
344	-4.50000e-01	1.626314e-05	

Index   v-sweep         i(vds)          
--------------------------------------------------------------------------------
345	-5.00000e-01	1.781000e-05	
346	-5.50000e-01	1.930545e-05	
347	-6.00000e-01	2.074965e-05	
348	-6.50000e-01	2.214277e-05	
349	-7.00000e-01	2.348500e-05	
350	-7.50000e-01	2.477651e-05	
351	-8.00000e-01	2.601749e-05	
352	-8.50000e-01	2.720810e-05	
353	-9.00000e-01	2.834854e-05	
354	-9.50000e-01	2.943899e-05	
355	-1.00000e+00	3.047964e-05	
356	-1.05000e+00	3.147069e-05	
357	-1.10000e+00	3.241233e-05	
358	-1.15000e+00	3.330476e-05	
359	-1.20000e+00	3.414821e-05	
360	-1.25000e+00	3.494288e-05	
361	-1.30000e+00	3.568901e-05	
362	-1.35000e+00	3.638686e-05	
363	-1.40000e+00	3.703673e-05	
364	-1.45000e+00	3.763894e-05	
365	-1.50000e+00	3.819391e-05	
366	-1.55000e+00	3.870218e-05	
367	-1.60000e+00	3.916448e-05	
368	-1.65000e+00	3.958187e-05	
369	-1.70000e+00	3.995591e-05	
370	-1.75000e+00	4.028893e-05	
371	-1.80000e+00	4.058416e-05	
372	-1.85000e+00	4.084584e-05	
373	-1.90000e+00	4.107880e-05	
374	-1.95000e+00	4.128787e-05	
375	-2.00000e+00	4.147735e-05	
376	-2.05000e+00	4.165072e-05	
377	-2.10000e+00	4.181070e-05	
378	-2.15000e+00	4.195938e-05	
379	-2.20000e+00	4.209838e-05	
380	-2.25000e+00	4.222897e-05	
381	-2.30000e+00	4.235219e-05	
382	-2.35000e+00	4.246886e-05	
383	-2.40000e+00	4.257968e-05	
384	-2.45000e+00	4.268524e-05	
385	-2.50000e+00	4.278603e-05	
386	-2.55000e+00	4.288250e-05	
387	-2.60000e+00	4.297500e-05	
388	-2.65000e+00	4.306387e-05	
389	-2.70000e+00	4.314938e-05	
390	-2.75000e+00	4.323180e-05	
391	-2.80000e+00	4.331136e-05	
392	-2.85000e+00	4.338824e-05	
393	-2.90000e+00	4.346263e-05	
394	-2.95000e+00	4.353470e-05	
395	-3.00000e+00	4.360458e-05	
396	-3.05000e+00	4.367243e-05	
397	-3.10000e+00	4.373835e-05	
398	-3.15000e+00	4.380246e-05	
399	-3.20000e+00	4.386486e-05	
400	-3.25000e+00	4.392564e-05	
401	-3.30000e+00	4.398489e-05	
Note: No ".plot", ".print", or ".fourier" lines; no simulations run
