
Note: Compatibility modes selected: hs

Warning: m=xx on .subckt line will override multiplier m hierarchy!


Circuit: ***************************

Doing analysis at TEMP = 25.000000 and TNOM = 25.000000


No. of Data Rows : 402
                          ***************************
                          DC transfer characteristic  Mon Jan  9 13:58:23  2023
--------------------------------------------------------------------------------
Index   v-sweep         i(vds)          
--------------------------------------------------------------------------------
0	0.000000e+00	4.191530e-25	
1	-5.00000e-02	1.709267e-09	
2	-1.00000e-01	2.115169e-09	
3	-1.50000e-01	2.176125e-09	
4	-2.00000e-01	2.190758e-09	
5	-2.50000e-01	2.196443e-09	
6	-3.00000e-01	2.199432e-09	
7	-3.50000e-01	2.201344e-09	
8	-4.00000e-01	2.202739e-09	
9	-4.50000e-01	2.203852e-09	
10	-5.00000e-01	2.204793e-09	
11	-5.50000e-01	2.205623e-09	
12	-6.00000e-01	2.206377e-09	
13	-6.50000e-01	2.207076e-09	
14	-7.00000e-01	2.207733e-09	
15	-7.50000e-01	2.208357e-09	
16	-8.00000e-01	2.208955e-09	
17	-8.50000e-01	2.209532e-09	
18	-9.00000e-01	2.210092e-09	
19	-9.50000e-01	2.210636e-09	
20	-1.00000e+00	2.211167e-09	
21	-1.05000e+00	2.211687e-09	
22	-1.10000e+00	2.212197e-09	
23	-1.15000e+00	2.212699e-09	
24	-1.20000e+00	2.213192e-09	
25	-1.25000e+00	2.213678e-09	
26	-1.30000e+00	2.214158e-09	
27	-1.35000e+00	2.214632e-09	
28	-1.40000e+00	2.215100e-09	
29	-1.45000e+00	2.215564e-09	
30	-1.50000e+00	2.216023e-09	
31	-1.55000e+00	2.216478e-09	
32	-1.60000e+00	2.216928e-09	
33	-1.65000e+00	2.217375e-09	
34	-1.70000e+00	2.217819e-09	
35	-1.75000e+00	2.218259e-09	
36	-1.80000e+00	2.218697e-09	
37	-1.85000e+00	2.219131e-09	
38	-1.90000e+00	2.219563e-09	
39	-1.95000e+00	2.219992e-09	
40	-2.00000e+00	2.220419e-09	
41	-2.05000e+00	2.220843e-09	
42	-2.10000e+00	2.221266e-09	
43	-2.15000e+00	2.221686e-09	
44	-2.20000e+00	2.222105e-09	
45	-2.25000e+00	2.222522e-09	
46	-2.30000e+00	2.222937e-09	
47	-2.35000e+00	2.223352e-09	
48	-2.40000e+00	2.223765e-09	
49	-2.45000e+00	2.224178e-09	
50	-2.50000e+00	2.224590e-09	
51	-2.55000e+00	2.225003e-09	
52	-2.60000e+00	2.225416e-09	
53	-2.65000e+00	2.225831e-09	
54	-2.70000e+00	2.226249e-09	

Index   v-sweep         i(vds)          
--------------------------------------------------------------------------------
55	-2.75000e+00	2.226671e-09	
56	-2.80000e+00	2.227097e-09	
57	-2.85000e+00	2.227531e-09	
58	-2.90000e+00	2.227974e-09	
59	-2.95000e+00	2.228429e-09	
60	-3.00000e+00	2.228898e-09	
61	-3.05000e+00	2.229385e-09	
62	-3.10000e+00	2.229896e-09	
63	-3.15000e+00	2.230433e-09	
64	-3.20000e+00	2.231005e-09	
65	-3.25000e+00	2.231616e-09	
66	-3.30000e+00	2.232276e-09	
67	0.000000e+00	-7.94612e-24	
68	-5.00000e-02	2.209959e-08	
69	-1.00000e-01	4.103391e-08	
70	-1.50000e-01	5.681210e-08	
71	-2.00000e-01	6.945350e-08	
72	-2.50000e-01	7.900418e-08	
73	-3.00000e-01	8.558459e-08	
74	-3.50000e-01	8.951137e-08	
75	-4.00000e-01	9.145628e-08	
76	-4.50000e-01	9.229695e-08	
77	-5.00000e-01	9.266440e-08	
78	-5.50000e-01	9.284516e-08	
79	-6.00000e-01	9.294738e-08	
80	-6.50000e-01	9.301267e-08	
81	-7.00000e-01	9.305861e-08	
82	-7.50000e-01	9.309341e-08	
83	-8.00000e-01	9.312127e-08	
84	-8.50000e-01	9.314455e-08	
85	-9.00000e-01	9.316463e-08	
86	-9.50000e-01	9.318236e-08	
87	-1.00000e+00	9.319832e-08	
88	-1.05000e+00	9.321289e-08	
89	-1.10000e+00	9.322636e-08	
90	-1.15000e+00	9.323891e-08	
91	-1.20000e+00	9.325070e-08	
92	-1.25000e+00	9.326185e-08	
93	-1.30000e+00	9.327244e-08	
94	-1.35000e+00	9.328254e-08	
95	-1.40000e+00	9.329222e-08	
96	-1.45000e+00	9.330153e-08	
97	-1.50000e+00	9.331049e-08	
98	-1.55000e+00	9.331915e-08	
99	-1.60000e+00	9.332753e-08	
100	-1.65000e+00	9.333566e-08	
101	-1.70000e+00	9.334355e-08	
102	-1.75000e+00	9.335124e-08	
103	-1.80000e+00	9.335873e-08	
104	-1.85000e+00	9.336603e-08	
105	-1.90000e+00	9.337317e-08	
106	-1.95000e+00	9.338014e-08	
107	-2.00000e+00	9.338697e-08	
108	-2.05000e+00	9.339366e-08	
109	-2.10000e+00	9.340022e-08	
110	-2.15000e+00	9.340666e-08	
111	-2.20000e+00	9.341298e-08	
112	-2.25000e+00	9.341919e-08	

Index   v-sweep         i(vds)          
--------------------------------------------------------------------------------
113	-2.30000e+00	9.342530e-08	
114	-2.35000e+00	9.343131e-08	
115	-2.40000e+00	9.343723e-08	
116	-2.45000e+00	9.344307e-08	
117	-2.50000e+00	9.344882e-08	
118	-2.55000e+00	9.345451e-08	
119	-2.60000e+00	9.346013e-08	
120	-2.65000e+00	9.346570e-08	
121	-2.70000e+00	9.347122e-08	
122	-2.75000e+00	9.347672e-08	
123	-2.80000e+00	9.348220e-08	
124	-2.85000e+00	9.348768e-08	
125	-2.90000e+00	9.349320e-08	
126	-2.95000e+00	9.349878e-08	
127	-3.00000e+00	9.350447e-08	
128	-3.05000e+00	9.351030e-08	
129	-3.10000e+00	9.351635e-08	
130	-3.15000e+00	9.352267e-08	
131	-3.20000e+00	9.352936e-08	
132	-3.25000e+00	9.353652e-08	
133	-3.30000e+00	9.354428e-08	
134	0.000000e+00	4.006417e-23	
135	-5.00000e-02	4.332648e-08	
136	-1.00000e-01	8.350418e-08	
137	-1.50000e-01	1.205343e-07	
138	-2.00000e-01	1.544185e-07	
139	-2.50000e-01	1.851589e-07	
140	-3.00000e-01	2.127586e-07	
141	-3.50000e-01	2.372225e-07	
142	-4.00000e-01	2.585587e-07	
143	-4.50000e-01	2.767811e-07	
144	-5.00000e-01	2.919153e-07	
145	-5.50000e-01	3.040120e-07	
146	-6.00000e-01	3.131743e-07	
147	-6.50000e-01	3.196135e-07	
148	-7.00000e-01	3.237259e-07	
149	-7.50000e-01	3.261100e-07	
150	-8.00000e-01	3.274157e-07	
151	-8.50000e-01	3.281376e-07	
152	-9.00000e-01	3.285617e-07	
153	-9.50000e-01	3.288320e-07	
154	-1.00000e+00	3.290185e-07	
155	-1.05000e+00	3.291562e-07	
156	-1.10000e+00	3.292638e-07	
157	-1.15000e+00	3.293516e-07	
158	-1.20000e+00	3.294258e-07	
159	-1.25000e+00	3.294902e-07	
160	-1.30000e+00	3.295472e-07	
161	-1.35000e+00	3.295985e-07	
162	-1.40000e+00	3.296454e-07	
163	-1.45000e+00	3.296886e-07	
164	-1.50000e+00	3.297288e-07	
165	-1.55000e+00	3.297664e-07	
166	-1.60000e+00	3.298019e-07	
167	-1.65000e+00	3.298355e-07	
168	-1.70000e+00	3.298674e-07	
169	-1.75000e+00	3.298979e-07	
170	-1.80000e+00	3.299271e-07	

Index   v-sweep         i(vds)          
--------------------------------------------------------------------------------
171	-1.85000e+00	3.299552e-07	
172	-1.90000e+00	3.299822e-07	
173	-1.95000e+00	3.300082e-07	
174	-2.00000e+00	3.300334e-07	
175	-2.05000e+00	3.300577e-07	
176	-2.10000e+00	3.300814e-07	
177	-2.15000e+00	3.301043e-07	
178	-2.20000e+00	3.301267e-07	
179	-2.25000e+00	3.301484e-07	
180	-2.30000e+00	3.301696e-07	
181	-2.35000e+00	3.301902e-07	
182	-2.40000e+00	3.302104e-07	
183	-2.45000e+00	3.302301e-07	
184	-2.50000e+00	3.302494e-07	
185	-2.55000e+00	3.302683e-07	
186	-2.60000e+00	3.302868e-07	
187	-2.65000e+00	3.303050e-07	
188	-2.70000e+00	3.303228e-07	
189	-2.75000e+00	3.303403e-07	
190	-2.80000e+00	3.303575e-07	
191	-2.85000e+00	3.303744e-07	
192	-2.90000e+00	3.303911e-07	
193	-2.95000e+00	3.304076e-07	
194	-3.00000e+00	3.304239e-07	
195	-3.05000e+00	3.304400e-07	
196	-3.10000e+00	3.304561e-07	
197	-3.15000e+00	3.304721e-07	
198	-3.20000e+00	3.304882e-07	
199	-3.25000e+00	3.305044e-07	
200	-3.30000e+00	3.305208e-07	
201	0.000000e+00	1.098161e-22	
202	-5.00000e-02	6.337313e-08	
203	-1.00000e-01	1.237192e-07	
204	-1.50000e-01	1.810389e-07	
205	-2.00000e-01	2.353328e-07	
206	-2.50000e-01	2.866016e-07	
207	-3.00000e-01	3.348461e-07	
208	-3.50000e-01	3.800674e-07	
209	-4.00000e-01	4.222665e-07	
210	-4.50000e-01	4.614449e-07	
211	-5.00000e-01	4.976044e-07	
212	-5.50000e-01	5.307476e-07	
213	-6.00000e-01	5.608781e-07	
214	-6.50000e-01	5.880010e-07	
215	-7.00000e-01	6.121243e-07	
216	-7.50000e-01	6.332608e-07	
217	-8.00000e-01	6.514314e-07	
218	-8.50000e-01	6.666727e-07	
219	-9.00000e-01	6.790497e-07	
220	-9.50000e-01	6.886801e-07	
221	-1.00000e+00	6.957730e-07	
222	-1.05000e+00	7.006693e-07	
223	-1.10000e+00	7.038432e-07	
224	-1.15000e+00	7.058184e-07	
225	-1.20000e+00	7.070432e-07	
226	-1.25000e+00	7.078272e-07	
227	-1.30000e+00	7.083560e-07	
228	-1.35000e+00	7.087338e-07	

Index   v-sweep         i(vds)          
--------------------------------------------------------------------------------
229	-1.40000e+00	7.090188e-07	
230	-1.45000e+00	7.092440e-07	
231	-1.50000e+00	7.094289e-07	
232	-1.55000e+00	7.095855e-07	
233	-1.60000e+00	7.097215e-07	
234	-1.65000e+00	7.098419e-07	
235	-1.70000e+00	7.099502e-07	
236	-1.75000e+00	7.100489e-07	
237	-1.80000e+00	7.101397e-07	
238	-1.85000e+00	7.102240e-07	
239	-1.90000e+00	7.103028e-07	
240	-1.95000e+00	7.103769e-07	
241	-2.00000e+00	7.104469e-07	
242	-2.05000e+00	7.105134e-07	
243	-2.10000e+00	7.105767e-07	
244	-2.15000e+00	7.106372e-07	
245	-2.20000e+00	7.106952e-07	
246	-2.25000e+00	7.107510e-07	
247	-2.30000e+00	7.108046e-07	
248	-2.35000e+00	7.108564e-07	
249	-2.40000e+00	7.109064e-07	
250	-2.45000e+00	7.109548e-07	
251	-2.50000e+00	7.110018e-07	
252	-2.55000e+00	7.110474e-07	
253	-2.60000e+00	7.110917e-07	
254	-2.65000e+00	7.111348e-07	
255	-2.70000e+00	7.111768e-07	
256	-2.75000e+00	7.112177e-07	
257	-2.80000e+00	7.112576e-07	
258	-2.85000e+00	7.112967e-07	
259	-2.90000e+00	7.113348e-07	
260	-2.95000e+00	7.113722e-07	
261	-3.00000e+00	7.114087e-07	
262	-3.05000e+00	7.114445e-07	
263	-3.10000e+00	7.114797e-07	
264	-3.15000e+00	7.115142e-07	
265	-3.20000e+00	7.115481e-07	
266	-3.25000e+00	7.115814e-07	
267	-3.30000e+00	7.116143e-07	
268	0.000000e+00	-8.07734e-23	
269	-5.00000e-02	8.209684e-08	
270	-1.00000e-01	1.613164e-07	
271	-1.50000e-01	2.376592e-07	
272	-2.00000e-01	3.111258e-07	
273	-2.50000e-01	3.817165e-07	
274	-3.00000e-01	4.494320e-07	
275	-3.50000e-01	5.142728e-07	
276	-4.00000e-01	5.762394e-07	
277	-4.50000e-01	6.353325e-07	
278	-5.00000e-01	6.915527e-07	
279	-5.50000e-01	7.449008e-07	
280	-6.00000e-01	7.953777e-07	
281	-6.50000e-01	8.429842e-07	
282	-7.00000e-01	8.877217e-07	
283	-7.50000e-01	9.295914e-07	
284	-8.00000e-01	9.685952e-07	
285	-8.50000e-01	1.004735e-06	
286	-9.00000e-01	1.038015e-06	

Index   v-sweep         i(vds)          
--------------------------------------------------------------------------------
287	-9.50000e-01	1.068439e-06	
288	-1.00000e+00	1.096012e-06	
289	-1.05000e+00	1.120745e-06	
290	-1.10000e+00	1.142651e-06	
291	-1.15000e+00	1.161752e-06	
292	-1.20000e+00	1.178083e-06	
293	-1.25000e+00	1.191702e-06	
294	-1.30000e+00	1.202708e-06	
295	-1.35000e+00	1.211260e-06	
296	-1.40000e+00	1.217609e-06	
297	-1.45000e+00	1.222105e-06	
298	-1.50000e+00	1.225171e-06	
299	-1.55000e+00	1.227224e-06	
300	-1.60000e+00	1.228611e-06	
301	-1.65000e+00	1.229574e-06	
302	-1.70000e+00	1.230272e-06	
303	-1.75000e+00	1.230800e-06	
304	-1.80000e+00	1.231215e-06	
305	-1.85000e+00	1.231555e-06	
306	-1.90000e+00	1.231840e-06	
307	-1.95000e+00	1.232087e-06	
308	-2.00000e+00	1.232303e-06	
309	-2.05000e+00	1.232497e-06	
310	-2.10000e+00	1.232673e-06	
311	-2.15000e+00	1.232834e-06	
312	-2.20000e+00	1.232983e-06	
313	-2.25000e+00	1.233121e-06	
314	-2.30000e+00	1.233251e-06	
315	-2.35000e+00	1.233374e-06	
316	-2.40000e+00	1.233490e-06	
317	-2.45000e+00	1.233600e-06	
318	-2.50000e+00	1.233705e-06	
319	-2.55000e+00	1.233805e-06	
320	-2.60000e+00	1.233901e-06	
321	-2.65000e+00	1.233994e-06	
322	-2.70000e+00	1.234083e-06	
323	-2.75000e+00	1.234169e-06	
324	-2.80000e+00	1.234252e-06	
325	-2.85000e+00	1.234332e-06	
326	-2.90000e+00	1.234410e-06	
327	-2.95000e+00	1.234486e-06	
328	-3.00000e+00	1.234559e-06	
329	-3.05000e+00	1.234631e-06	
330	-3.10000e+00	1.234700e-06	
331	-3.15000e+00	1.234768e-06	
332	-3.20000e+00	1.234834e-06	
333	-3.25000e+00	1.234899e-06	
334	-3.30000e+00	1.234962e-06	
335	0.000000e+00	1.459781e-22	
336	-5.00000e-02	9.945585e-08	
337	-1.00000e-01	1.961933e-07	
338	-1.50000e-01	2.902129e-07	
339	-2.00000e-01	3.815150e-07	
340	-2.50000e-01	4.701000e-07	
341	-3.00000e-01	5.559685e-07	
342	-3.50000e-01	6.391208e-07	
343	-4.00000e-01	7.195575e-07	
344	-4.50000e-01	7.972790e-07	

Index   v-sweep         i(vds)          
--------------------------------------------------------------------------------
345	-5.00000e-01	8.722858e-07	
346	-5.50000e-01	9.445785e-07	
347	-6.00000e-01	1.014157e-06	
348	-6.50000e-01	1.081023e-06	
349	-7.00000e-01	1.145176e-06	
350	-7.50000e-01	1.206618e-06	
351	-8.00000e-01	1.265348e-06	
352	-8.50000e-01	1.321367e-06	
353	-9.00000e-01	1.374677e-06	
354	-9.50000e-01	1.425277e-06	
355	-1.00000e+00	1.473170e-06	
356	-1.05000e+00	1.518356e-06	
357	-1.10000e+00	1.560837e-06	
358	-1.15000e+00	1.600615e-06	
359	-1.20000e+00	1.637692e-06	
360	-1.25000e+00	1.672072e-06	
361	-1.30000e+00	1.703758e-06	
362	-1.35000e+00	1.732755e-06	
363	-1.40000e+00	1.759074e-06	
364	-1.45000e+00	1.782724e-06	
365	-1.50000e+00	1.803724e-06	
366	-1.55000e+00	1.822101e-06	
367	-1.60000e+00	1.837896e-06	
368	-1.65000e+00	1.851174e-06	
369	-1.70000e+00	1.862040e-06	
370	-1.75000e+00	1.870650e-06	
371	-1.80000e+00	1.877234e-06	
372	-1.85000e+00	1.882095e-06	
373	-1.90000e+00	1.885588e-06	
374	-1.95000e+00	1.888066e-06	
375	-2.00000e+00	1.889833e-06	
376	-2.05000e+00	1.891119e-06	
377	-2.10000e+00	1.892085e-06	
378	-2.15000e+00	1.892835e-06	
379	-2.20000e+00	1.893437e-06	
380	-2.25000e+00	1.893935e-06	
381	-2.30000e+00	1.894359e-06	
382	-2.35000e+00	1.894727e-06	
383	-2.40000e+00	1.895051e-06	
384	-2.45000e+00	1.895343e-06	
385	-2.50000e+00	1.895608e-06	
386	-2.55000e+00	1.895851e-06	
387	-2.60000e+00	1.896075e-06	
388	-2.65000e+00	1.896285e-06	
389	-2.70000e+00	1.896481e-06	
390	-2.75000e+00	1.896666e-06	
391	-2.80000e+00	1.896841e-06	
392	-2.85000e+00	1.897008e-06	
393	-2.90000e+00	1.897166e-06	
394	-2.95000e+00	1.897318e-06	
395	-3.00000e+00	1.897463e-06	
396	-3.05000e+00	1.897603e-06	
397	-3.10000e+00	1.897737e-06	
398	-3.15000e+00	1.897866e-06	
399	-3.20000e+00	1.897991e-06	
400	-3.25000e+00	1.898113e-06	
401	-3.30000e+00	1.898230e-06	
Note: No ".plot", ".print", or ".fourier" lines; no simulations run
