
Note: Compatibility modes selected: hs

Warning: m=xx on .subckt line will override multiplier m hierarchy!


Circuit: ***************************

Doing analysis at TEMP = -40.000000 and TNOM = -40.000000


No. of Data Rows : 402
                          ***************************
                          DC transfer characteristic  Mon Jan  9 13:58:24  2023
--------------------------------------------------------------------------------
Index   v-sweep         i(vds)          
--------------------------------------------------------------------------------
0	0.000000e+00	-5.93258e-25	
1	-5.00000e-02	6.646778e-09	
2	-1.00000e-01	7.236279e-09	
3	-1.50000e-01	7.345313e-09	
4	-2.00000e-01	7.395674e-09	
5	-2.50000e-01	7.430444e-09	
6	-3.00000e-01	7.458779e-09	
7	-3.50000e-01	7.483638e-09	
8	-4.00000e-01	7.506272e-09	
9	-4.50000e-01	7.527316e-09	
10	-5.00000e-01	7.547142e-09	
11	-5.50000e-01	7.565987e-09	
12	-6.00000e-01	7.584017e-09	
13	-6.50000e-01	7.601355e-09	
14	-7.00000e-01	7.618094e-09	
15	-7.50000e-01	7.634306e-09	
16	-8.00000e-01	7.650052e-09	
17	-8.50000e-01	7.665380e-09	
18	-9.00000e-01	7.680333e-09	
19	-9.50000e-01	7.694944e-09	
20	-1.00000e+00	7.709245e-09	
21	-1.05000e+00	7.723261e-09	
22	-1.10000e+00	7.737015e-09	
23	-1.15000e+00	7.750528e-09	
24	-1.20000e+00	7.763817e-09	
25	-1.25000e+00	7.776898e-09	
26	-1.30000e+00	7.789786e-09	
27	-1.35000e+00	7.802493e-09	
28	-1.40000e+00	7.815030e-09	
29	-1.45000e+00	7.827409e-09	
30	-1.50000e+00	7.839639e-09	
31	-1.55000e+00	7.851728e-09	
32	-1.60000e+00	7.863684e-09	
33	-1.65000e+00	7.875515e-09	
34	-1.70000e+00	7.887228e-09	
35	-1.75000e+00	7.898829e-09	
36	-1.80000e+00	7.910323e-09	
37	-1.85000e+00	7.921716e-09	
38	-1.90000e+00	7.933013e-09	
39	-1.95000e+00	7.944219e-09	
40	-2.00000e+00	7.955339e-09	
41	-2.05000e+00	7.966378e-09	
42	-2.10000e+00	7.977339e-09	
43	-2.15000e+00	7.988229e-09	
44	-2.20000e+00	7.999051e-09	
45	-2.25000e+00	8.009811e-09	
46	-2.30000e+00	8.020515e-09	
47	-2.35000e+00	8.031168e-09	
48	-2.40000e+00	8.041779e-09	
49	-2.45000e+00	8.052355e-09	
50	-2.50000e+00	8.062905e-09	
51	-2.55000e+00	8.073440e-09	
52	-2.60000e+00	8.083972e-09	
53	-2.65000e+00	8.094515e-09	
54	-2.70000e+00	8.105084e-09	

Index   v-sweep         i(vds)          
--------------------------------------------------------------------------------
55	-2.75000e+00	8.115700e-09	
56	-2.80000e+00	8.126382e-09	
57	-2.85000e+00	8.137154e-09	
58	-2.90000e+00	8.148045e-09	
59	-2.95000e+00	8.159086e-09	
60	-3.00000e+00	8.170311e-09	
61	-3.05000e+00	8.181760e-09	
62	-3.10000e+00	8.193477e-09	
63	-3.15000e+00	8.205510e-09	
64	-3.20000e+00	8.217914e-09	
65	-3.25000e+00	8.230749e-09	
66	-3.30000e+00	8.244081e-09	
67	0.000000e+00	-2.37748e-37	
68	-5.00000e-02	4.888287e-07	
69	-1.00000e-01	9.026960e-07	
70	-1.50000e-01	1.242127e-06	
71	-2.00000e-01	1.507988e-06	
72	-2.50000e-01	1.702098e-06	
73	-3.00000e-01	1.829025e-06	
74	-3.50000e-01	1.900010e-06	
75	-4.00000e-01	1.934696e-06	
76	-4.50000e-01	1.952079e-06	
77	-5.00000e-01	1.962435e-06	
78	-5.50000e-01	1.969778e-06	
79	-6.00000e-01	1.975610e-06	
80	-6.50000e-01	1.980557e-06	
81	-7.00000e-01	1.984919e-06	
82	-7.50000e-01	1.988854e-06	
83	-8.00000e-01	1.992462e-06	
84	-8.50000e-01	1.995805e-06	
85	-9.00000e-01	1.998927e-06	
86	-9.50000e-01	2.001863e-06	
87	-1.00000e+00	2.004636e-06	
88	-1.05000e+00	2.007266e-06	
89	-1.10000e+00	2.009771e-06	
90	-1.15000e+00	2.012162e-06	
91	-1.20000e+00	2.014452e-06	
92	-1.25000e+00	2.016649e-06	
93	-1.30000e+00	2.018762e-06	
94	-1.35000e+00	2.020798e-06	
95	-1.40000e+00	2.022763e-06	
96	-1.45000e+00	2.024663e-06	
97	-1.50000e+00	2.026502e-06	
98	-1.55000e+00	2.028285e-06	
99	-1.60000e+00	2.030015e-06	
100	-1.65000e+00	2.031696e-06	
101	-1.70000e+00	2.033331e-06	
102	-1.75000e+00	2.034923e-06	
103	-1.80000e+00	2.036474e-06	
104	-1.85000e+00	2.037987e-06	
105	-1.90000e+00	2.039464e-06	
106	-1.95000e+00	2.040907e-06	
107	-2.00000e+00	2.042318e-06	
108	-2.05000e+00	2.043698e-06	
109	-2.10000e+00	2.045049e-06	
110	-2.15000e+00	2.046373e-06	
111	-2.20000e+00	2.047670e-06	
112	-2.25000e+00	2.048942e-06	

Index   v-sweep         i(vds)          
--------------------------------------------------------------------------------
113	-2.30000e+00	2.050191e-06	
114	-2.35000e+00	2.051417e-06	
115	-2.40000e+00	2.052622e-06	
116	-2.45000e+00	2.053807e-06	
117	-2.50000e+00	2.054974e-06	
118	-2.55000e+00	2.056123e-06	
119	-2.60000e+00	2.057256e-06	
120	-2.65000e+00	2.058374e-06	
121	-2.70000e+00	2.059480e-06	
122	-2.75000e+00	2.060576e-06	
123	-2.80000e+00	2.061663e-06	
124	-2.85000e+00	2.062744e-06	
125	-2.90000e+00	2.063822e-06	
126	-2.95000e+00	2.064901e-06	
127	-3.00000e+00	2.065984e-06	
128	-3.05000e+00	2.067076e-06	
129	-3.10000e+00	2.068182e-06	
130	-3.15000e+00	2.069308e-06	
131	-3.20000e+00	2.070460e-06	
132	-3.25000e+00	2.071647e-06	
133	-3.30000e+00	2.072875e-06	
134	0.000000e+00	-1.38630e-36	
135	-5.00000e-02	1.004877e-06	
136	-1.00000e-01	1.937617e-06	
137	-1.50000e-01	2.798452e-06	
138	-2.00000e-01	3.587622e-06	
139	-2.50000e-01	4.305380e-06	
140	-3.00000e-01	4.951999e-06	
141	-3.50000e-01	5.527786e-06	
142	-4.00000e-01	6.033112e-06	
143	-4.50000e-01	6.468464e-06	
144	-5.00000e-01	6.834568e-06	
145	-5.50000e-01	7.132639e-06	
146	-6.00000e-01	7.364937e-06	
147	-6.50000e-01	7.535885e-06	
148	-7.00000e-01	7.653689e-06	
149	-7.50000e-01	7.730955e-06	
150	-8.00000e-01	7.781811e-06	
151	-8.50000e-01	7.817421e-06	
152	-9.00000e-01	7.844497e-06	
153	-9.50000e-01	7.866561e-06	
154	-1.00000e+00	7.885429e-06	
155	-1.05000e+00	7.902086e-06	
156	-1.10000e+00	7.917103e-06	
157	-1.15000e+00	7.930842e-06	
158	-1.20000e+00	7.943545e-06	
159	-1.25000e+00	7.955383e-06	
160	-1.30000e+00	7.966484e-06	
161	-1.35000e+00	7.976947e-06	
162	-1.40000e+00	7.986850e-06	
163	-1.45000e+00	7.996256e-06	
164	-1.50000e+00	8.005218e-06	
165	-1.55000e+00	8.013779e-06	
166	-1.60000e+00	8.021978e-06	
167	-1.65000e+00	8.029845e-06	
168	-1.70000e+00	8.037410e-06	
169	-1.75000e+00	8.044696e-06	
170	-1.80000e+00	8.051724e-06	

Index   v-sweep         i(vds)          
--------------------------------------------------------------------------------
171	-1.85000e+00	8.058514e-06	
172	-1.90000e+00	8.065083e-06	
173	-1.95000e+00	8.071445e-06	
174	-2.00000e+00	8.077614e-06	
175	-2.05000e+00	8.083604e-06	
176	-2.10000e+00	8.089423e-06	
177	-2.15000e+00	8.095084e-06	
178	-2.20000e+00	8.100594e-06	
179	-2.25000e+00	8.105963e-06	
180	-2.30000e+00	8.111198e-06	
181	-2.35000e+00	8.116306e-06	
182	-2.40000e+00	8.121294e-06	
183	-2.45000e+00	8.126168e-06	
184	-2.50000e+00	8.130934e-06	
185	-2.55000e+00	8.135597e-06	
186	-2.60000e+00	8.140162e-06	
187	-2.65000e+00	8.144634e-06	
188	-2.70000e+00	8.149018e-06	
189	-2.75000e+00	8.153319e-06	
190	-2.80000e+00	8.157541e-06	
191	-2.85000e+00	8.161689e-06	
192	-2.90000e+00	8.165768e-06	
193	-2.95000e+00	8.169783e-06	
194	-3.00000e+00	8.173742e-06	
195	-3.05000e+00	8.177649e-06	
196	-3.10000e+00	8.181513e-06	
197	-3.15000e+00	8.185343e-06	
198	-3.20000e+00	8.189146e-06	
199	-3.25000e+00	8.192936e-06	
200	-3.30000e+00	8.196724e-06	
201	0.000000e+00	-4.09494e-36	
202	-5.00000e-02	1.441970e-06	
203	-1.00000e-01	2.817060e-06	
204	-1.50000e-01	4.125455e-06	
205	-2.00000e-01	5.367339e-06	
206	-2.50000e-01	6.542901e-06	
207	-3.00000e-01	7.652328e-06	
208	-3.50000e-01	8.695812e-06	
209	-4.00000e-01	9.673547e-06	
210	-4.50000e-01	1.058573e-05	
211	-5.00000e-01	1.143258e-05	
212	-5.50000e-01	1.221430e-05	
213	-6.00000e-01	1.293113e-05	
214	-6.50000e-01	1.358332e-05	
215	-7.00000e-01	1.417120e-05	
216	-7.50000e-01	1.469512e-05	
217	-8.00000e-01	1.515559e-05	
218	-8.50000e-01	1.555333e-05	
219	-9.00000e-01	1.588948e-05	
220	-9.50000e-01	1.616594e-05	
221	-1.00000e+00	1.638601e-05	
222	-1.05000e+00	1.655515e-05	
223	-1.10000e+00	1.668160e-05	
224	-1.15000e+00	1.677552e-05	
225	-1.20000e+00	1.684688e-05	
226	-1.25000e+00	1.690341e-05	
227	-1.30000e+00	1.695023e-05	
228	-1.35000e+00	1.699046e-05	

Index   v-sweep         i(vds)          
--------------------------------------------------------------------------------
229	-1.40000e+00	1.702599e-05	
230	-1.45000e+00	1.705799e-05	
231	-1.50000e+00	1.708721e-05	
232	-1.55000e+00	1.711417e-05	
233	-1.60000e+00	1.713926e-05	
234	-1.65000e+00	1.716276e-05	
235	-1.70000e+00	1.718486e-05	
236	-1.75000e+00	1.720576e-05	
237	-1.80000e+00	1.722558e-05	
238	-1.85000e+00	1.724444e-05	
239	-1.90000e+00	1.726244e-05	
240	-1.95000e+00	1.727965e-05	
241	-2.00000e+00	1.729615e-05	
242	-2.05000e+00	1.731200e-05	
243	-2.10000e+00	1.732725e-05	
244	-2.15000e+00	1.734195e-05	
245	-2.20000e+00	1.735613e-05	
246	-2.25000e+00	1.736984e-05	
247	-2.30000e+00	1.738310e-05	
248	-2.35000e+00	1.739595e-05	
249	-2.40000e+00	1.740841e-05	
250	-2.45000e+00	1.742051e-05	
251	-2.50000e+00	1.743227e-05	
252	-2.55000e+00	1.744371e-05	
253	-2.60000e+00	1.745485e-05	
254	-2.65000e+00	1.746569e-05	
255	-2.70000e+00	1.747627e-05	
256	-2.75000e+00	1.748659e-05	
257	-2.80000e+00	1.749666e-05	
258	-2.85000e+00	1.750651e-05	
259	-2.90000e+00	1.751613e-05	
260	-2.95000e+00	1.752555e-05	
261	-3.00000e+00	1.753476e-05	
262	-3.05000e+00	1.754379e-05	
263	-3.10000e+00	1.755263e-05	
264	-3.15000e+00	1.756131e-05	
265	-3.20000e+00	1.756983e-05	
266	-3.25000e+00	1.757820e-05	
267	-3.30000e+00	1.758643e-05	
268	0.000000e+00	1.122472e-35	
269	-5.00000e-02	1.807500e-06	
270	-1.00000e-01	3.553591e-06	
271	-1.50000e-01	5.238426e-06	
272	-2.00000e-01	6.862159e-06	
273	-2.50000e-01	8.424945e-06	
274	-3.00000e-01	9.926939e-06	
275	-3.50000e-01	1.136830e-05	
276	-4.00000e-01	1.274918e-05	
277	-4.50000e-01	1.406973e-05	
278	-5.00000e-01	1.533013e-05	
279	-5.50000e-01	1.653051e-05	
280	-6.00000e-01	1.767106e-05	
281	-6.50000e-01	1.875193e-05	
282	-7.00000e-01	1.977328e-05	
283	-7.50000e-01	2.073529e-05	
284	-8.00000e-01	2.163814e-05	
285	-8.50000e-01	2.248200e-05	
286	-9.00000e-01	2.326707e-05	

Index   v-sweep         i(vds)          
--------------------------------------------------------------------------------
287	-9.50000e-01	2.399357e-05	
288	-1.00000e+00	2.466172e-05	
289	-1.05000e+00	2.527180e-05	
290	-1.10000e+00	2.582415e-05	
291	-1.15000e+00	2.631920e-05	
292	-1.20000e+00	2.675755e-05	
293	-1.25000e+00	2.714008e-05	
294	-1.30000e+00	2.746814e-05	
295	-1.35000e+00	2.774392e-05	
296	-1.40000e+00	2.797081e-05	
297	-1.45000e+00	2.815395e-05	
298	-1.50000e+00	2.830020e-05	
299	-1.55000e+00	2.841739e-05	
300	-1.60000e+00	2.851302e-05	
301	-1.65000e+00	2.859317e-05	
302	-1.70000e+00	2.866219e-05	
303	-1.75000e+00	2.872303e-05	
304	-1.80000e+00	2.877765e-05	
305	-1.85000e+00	2.882739e-05	
306	-1.90000e+00	2.887317e-05	
307	-1.95000e+00	2.891566e-05	
308	-2.00000e+00	2.895535e-05	
309	-2.05000e+00	2.899264e-05	
310	-2.10000e+00	2.902782e-05	
311	-2.15000e+00	2.906114e-05	
312	-2.20000e+00	2.909280e-05	
313	-2.25000e+00	2.912297e-05	
314	-2.30000e+00	2.915180e-05	
315	-2.35000e+00	2.917940e-05	
316	-2.40000e+00	2.920588e-05	
317	-2.45000e+00	2.923133e-05	
318	-2.50000e+00	2.925584e-05	
319	-2.55000e+00	2.927947e-05	
320	-2.60000e+00	2.930229e-05	
321	-2.65000e+00	2.932435e-05	
322	-2.70000e+00	2.934571e-05	
323	-2.75000e+00	2.936642e-05	
324	-2.80000e+00	2.938650e-05	
325	-2.85000e+00	2.940600e-05	
326	-2.90000e+00	2.942496e-05	
327	-2.95000e+00	2.944340e-05	
328	-3.00000e+00	2.946136e-05	
329	-3.05000e+00	2.947885e-05	
330	-3.10000e+00	2.949591e-05	
331	-3.15000e+00	2.951256e-05	
332	-3.20000e+00	2.952881e-05	
333	-3.25000e+00	2.954469e-05	
334	-3.30000e+00	2.956021e-05	
335	0.000000e+00	1.885016e-35	
336	-5.00000e-02	2.110693e-06	
337	-1.00000e-01	4.165217e-06	
338	-1.50000e-01	6.163702e-06	
339	-2.00000e-01	8.106278e-06	
340	-2.50000e-01	9.993076e-06	
341	-3.00000e-01	1.182423e-05	
342	-3.50000e-01	1.359986e-05	
343	-4.00000e-01	1.532011e-05	
344	-4.50000e-01	1.698511e-05	

Index   v-sweep         i(vds)          
--------------------------------------------------------------------------------
345	-5.00000e-01	1.859499e-05	
346	-5.50000e-01	2.014988e-05	
347	-6.00000e-01	2.164991e-05	
348	-6.50000e-01	2.309523e-05	
349	-7.00000e-01	2.448595e-05	
350	-7.50000e-01	2.582223e-05	
351	-8.00000e-01	2.710419e-05	
352	-8.50000e-01	2.833198e-05	
353	-9.00000e-01	2.950572e-05	
354	-9.50000e-01	3.062557e-05	
355	-1.00000e+00	3.169165e-05	
356	-1.05000e+00	3.270412e-05	
357	-1.10000e+00	3.366313e-05	
358	-1.15000e+00	3.456883e-05	
359	-1.20000e+00	3.542137e-05	
360	-1.25000e+00	3.622093e-05	
361	-1.30000e+00	3.696769e-05	
362	-1.35000e+00	3.766184e-05	
363	-1.40000e+00	3.830363e-05	
364	-1.45000e+00	3.889331e-05	
365	-1.50000e+00	3.943124e-05	
366	-1.55000e+00	3.991784e-05	
367	-1.60000e+00	4.035374e-05	
368	-1.65000e+00	4.073981e-05	
369	-1.70000e+00	4.107736e-05	
370	-1.75000e+00	4.136836e-05	
371	-1.80000e+00	4.161577e-05	
372	-1.85000e+00	4.182372e-05	
373	-1.90000e+00	4.199756e-05	
374	-1.95000e+00	4.214337e-05	
375	-2.00000e+00	4.226709e-05	
376	-2.05000e+00	4.237389e-05	
377	-2.10000e+00	4.246777e-05	
378	-2.15000e+00	4.255166e-05	
379	-2.20000e+00	4.262768e-05	
380	-2.25000e+00	4.269734e-05	
381	-2.30000e+00	4.276174e-05	
382	-2.35000e+00	4.282171e-05	
383	-2.40000e+00	4.287788e-05	
384	-2.45000e+00	4.293074e-05	
385	-2.50000e+00	4.298069e-05	
386	-2.55000e+00	4.302807e-05	
387	-2.60000e+00	4.307314e-05	
388	-2.65000e+00	4.311612e-05	
389	-2.70000e+00	4.315722e-05	
390	-2.75000e+00	4.319660e-05	
391	-2.80000e+00	4.323441e-05	
392	-2.85000e+00	4.327077e-05	
393	-2.90000e+00	4.330579e-05	
394	-2.95000e+00	4.333957e-05	
395	-3.00000e+00	4.337220e-05	
396	-3.05000e+00	4.340377e-05	
397	-3.10000e+00	4.343433e-05	
398	-3.15000e+00	4.346396e-05	
399	-3.20000e+00	4.349270e-05	
400	-3.25000e+00	4.352063e-05	
401	-3.30000e+00	4.354777e-05	
Note: No ".plot", ".print", or ".fourier" lines; no simulations run
