
Note: Compatibility modes selected: hs

Warning: m=xx on .subckt line will override multiplier m hierarchy!


Circuit: ***************************

Doing analysis at TEMP = -40.000000 and TNOM = -40.000000


No. of Data Rows : 402
                          ***************************
                          DC transfer characteristic  Mon Jan  9 13:58:24  2023
--------------------------------------------------------------------------------
Index   v-sweep         i(vds)          
--------------------------------------------------------------------------------
0	0.000000e+00	-2.55628e-25	
1	-5.00000e-02	7.864394e-10	
2	-1.00000e-01	8.478341e-10	
3	-1.50000e-01	8.571855e-10	
4	-2.00000e-01	8.602964e-10	
5	-2.50000e-01	8.618599e-10	
6	-3.00000e-01	8.628629e-10	
7	-3.50000e-01	8.636119e-10	
8	-4.00000e-01	8.642270e-10	
9	-4.50000e-01	8.647635e-10	
10	-5.00000e-01	8.652499e-10	
11	-5.50000e-01	8.657023e-10	
12	-6.00000e-01	8.661304e-10	
13	-6.50000e-01	8.665405e-10	
14	-7.00000e-01	8.669365e-10	
15	-7.50000e-01	8.673215e-10	
16	-8.00000e-01	8.676974e-10	
17	-8.50000e-01	8.680659e-10	
18	-9.00000e-01	8.684282e-10	
19	-9.50000e-01	8.687850e-10	
20	-1.00000e+00	8.691372e-10	
21	-1.05000e+00	8.694853e-10	
22	-1.10000e+00	8.698298e-10	
23	-1.15000e+00	8.701710e-10	
24	-1.20000e+00	8.705094e-10	
25	-1.25000e+00	8.708452e-10	
26	-1.30000e+00	8.711786e-10	
27	-1.35000e+00	8.715099e-10	
28	-1.40000e+00	8.718392e-10	
29	-1.45000e+00	8.721666e-10	
30	-1.50000e+00	8.724924e-10	
31	-1.55000e+00	8.728166e-10	
32	-1.60000e+00	8.731393e-10	
33	-1.65000e+00	8.734606e-10	
34	-1.70000e+00	8.737807e-10	
35	-1.75000e+00	8.740996e-10	
36	-1.80000e+00	8.744174e-10	
37	-1.85000e+00	8.747341e-10	
38	-1.90000e+00	8.750498e-10	
39	-1.95000e+00	8.753646e-10	
40	-2.00000e+00	8.756786e-10	
41	-2.05000e+00	8.759916e-10	
42	-2.10000e+00	8.763040e-10	
43	-2.15000e+00	8.766156e-10	
44	-2.20000e+00	8.769267e-10	
45	-2.25000e+00	8.772371e-10	
46	-2.30000e+00	8.775471e-10	
47	-2.35000e+00	8.778568e-10	
48	-2.40000e+00	8.781663e-10	
49	-2.45000e+00	8.784758e-10	
50	-2.50000e+00	8.787856e-10	
51	-2.55000e+00	8.790958e-10	
52	-2.60000e+00	8.794068e-10	
53	-2.65000e+00	8.797192e-10	
54	-2.70000e+00	8.800333e-10	

Index   v-sweep         i(vds)          
--------------------------------------------------------------------------------
55	-2.75000e+00	8.803500e-10	
56	-2.80000e+00	8.806699e-10	
57	-2.85000e+00	8.809941e-10	
58	-2.90000e+00	8.813237e-10	
59	-2.95000e+00	8.816602e-10	
60	-3.00000e+00	8.820051e-10	
61	-3.05000e+00	8.823605e-10	
62	-3.10000e+00	8.827286e-10	
63	-3.15000e+00	8.831121e-10	
64	-3.20000e+00	8.835141e-10	
65	-3.25000e+00	8.839381e-10	
66	-3.30000e+00	8.843881e-10	
67	0.000000e+00	3.057450e-24	
68	-5.00000e-02	4.968164e-08	
69	-1.00000e-01	9.095161e-08	
70	-1.50000e-01	1.238552e-07	
71	-2.00000e-01	1.485031e-07	
72	-2.50000e-01	1.652019e-07	
73	-3.00000e-01	1.748190e-07	
74	-3.50000e-01	1.792883e-07	
75	-4.00000e-01	1.810833e-07	
76	-4.50000e-01	1.818301e-07	
77	-5.00000e-01	1.821895e-07	
78	-5.50000e-01	1.823913e-07	
79	-6.00000e-01	1.825201e-07	
80	-6.50000e-01	1.826108e-07	
81	-7.00000e-01	1.826796e-07	
82	-7.50000e-01	1.827347e-07	
83	-8.00000e-01	1.827808e-07	
84	-8.50000e-01	1.828205e-07	
85	-9.00000e-01	1.828556e-07	
86	-9.50000e-01	1.828871e-07	
87	-1.00000e+00	1.829159e-07	
88	-1.05000e+00	1.829425e-07	
89	-1.10000e+00	1.829673e-07	
90	-1.15000e+00	1.829906e-07	
91	-1.20000e+00	1.830126e-07	
92	-1.25000e+00	1.830335e-07	
93	-1.30000e+00	1.830534e-07	
94	-1.35000e+00	1.830725e-07	
95	-1.40000e+00	1.830909e-07	
96	-1.45000e+00	1.831085e-07	
97	-1.50000e+00	1.831256e-07	
98	-1.55000e+00	1.831421e-07	
99	-1.60000e+00	1.831582e-07	
100	-1.65000e+00	1.831738e-07	
101	-1.70000e+00	1.831889e-07	
102	-1.75000e+00	1.832037e-07	
103	-1.80000e+00	1.832181e-07	
104	-1.85000e+00	1.832322e-07	
105	-1.90000e+00	1.832460e-07	
106	-1.95000e+00	1.832595e-07	
107	-2.00000e+00	1.832728e-07	
108	-2.05000e+00	1.832858e-07	
109	-2.10000e+00	1.832985e-07	
110	-2.15000e+00	1.833110e-07	
111	-2.20000e+00	1.833233e-07	
112	-2.25000e+00	1.833355e-07	

Index   v-sweep         i(vds)          
--------------------------------------------------------------------------------
113	-2.30000e+00	1.833474e-07	
114	-2.35000e+00	1.833592e-07	
115	-2.40000e+00	1.833708e-07	
116	-2.45000e+00	1.833822e-07	
117	-2.50000e+00	1.833935e-07	
118	-2.55000e+00	1.834047e-07	
119	-2.60000e+00	1.834159e-07	
120	-2.65000e+00	1.834269e-07	
121	-2.70000e+00	1.834379e-07	
122	-2.75000e+00	1.834489e-07	
123	-2.80000e+00	1.834600e-07	
124	-2.85000e+00	1.834712e-07	
125	-2.90000e+00	1.834826e-07	
126	-2.95000e+00	1.834942e-07	
127	-3.00000e+00	1.835063e-07	
128	-3.05000e+00	1.835189e-07	
129	-3.10000e+00	1.835322e-07	
130	-3.15000e+00	1.835465e-07	
131	-3.20000e+00	1.835620e-07	
132	-3.25000e+00	1.835789e-07	
133	-3.30000e+00	1.835977e-07	
134	0.000000e+00	1.392392e-22	
135	-5.00000e-02	1.038270e-07	
136	-1.00000e-01	1.994220e-07	
137	-1.50000e-01	2.867898e-07	
138	-2.00000e-01	3.659366e-07	
139	-2.50000e-01	4.368713e-07	
140	-3.00000e-01	4.996067e-07	
141	-3.50000e-01	5.541638e-07	
142	-4.00000e-01	6.005786e-07	
143	-4.50000e-01	6.389185e-07	
144	-5.00000e-01	6.693174e-07	
145	-5.50000e-01	6.920568e-07	
146	-6.00000e-01	7.077276e-07	
147	-6.50000e-01	7.174527e-07	
148	-7.00000e-01	7.229016e-07	
149	-7.50000e-01	7.258004e-07	
150	-8.00000e-01	7.273769e-07	
151	-8.50000e-01	7.282985e-07	
152	-9.00000e-01	7.288863e-07	
153	-9.50000e-01	7.292931e-07	
154	-1.00000e+00	7.295946e-07	
155	-1.05000e+00	7.298306e-07	
156	-1.10000e+00	7.300234e-07	
157	-1.15000e+00	7.301864e-07	
158	-1.20000e+00	7.303277e-07	
159	-1.25000e+00	7.304529e-07	
160	-1.30000e+00	7.305654e-07	
161	-1.35000e+00	7.306681e-07	
162	-1.40000e+00	7.307626e-07	
163	-1.45000e+00	7.308504e-07	
164	-1.50000e+00	7.309326e-07	
165	-1.55000e+00	7.310099e-07	
166	-1.60000e+00	7.310831e-07	
167	-1.65000e+00	7.311526e-07	
168	-1.70000e+00	7.312189e-07	
169	-1.75000e+00	7.312824e-07	
170	-1.80000e+00	7.313432e-07	

Index   v-sweep         i(vds)          
--------------------------------------------------------------------------------
171	-1.85000e+00	7.314018e-07	
172	-1.90000e+00	7.314582e-07	
173	-1.95000e+00	7.315128e-07	
174	-2.00000e+00	7.315656e-07	
175	-2.05000e+00	7.316167e-07	
176	-2.10000e+00	7.316664e-07	
177	-2.15000e+00	7.317147e-07	
178	-2.20000e+00	7.317617e-07	
179	-2.25000e+00	7.318075e-07	
180	-2.30000e+00	7.318521e-07	
181	-2.35000e+00	7.318958e-07	
182	-2.40000e+00	7.319384e-07	
183	-2.45000e+00	7.319801e-07	
184	-2.50000e+00	7.320209e-07	
185	-2.55000e+00	7.320609e-07	
186	-2.60000e+00	7.321002e-07	
187	-2.65000e+00	7.321387e-07	
188	-2.70000e+00	7.321765e-07	
189	-2.75000e+00	7.322137e-07	
190	-2.80000e+00	7.322504e-07	
191	-2.85000e+00	7.322865e-07	
192	-2.90000e+00	7.323222e-07	
193	-2.95000e+00	7.323576e-07	
194	-3.00000e+00	7.323927e-07	
195	-3.05000e+00	7.324278e-07	
196	-3.10000e+00	7.324629e-07	
197	-3.15000e+00	7.324983e-07	
198	-3.20000e+00	7.325342e-07	
199	-3.25000e+00	7.325710e-07	
200	-3.30000e+00	7.326091e-07	
201	0.000000e+00	-3.63606e-22	
202	-5.00000e-02	1.525250e-07	
203	-1.00000e-01	2.973134e-07	
204	-1.50000e-01	4.343677e-07	
205	-2.00000e-01	5.636905e-07	
206	-2.50000e-01	6.852845e-07	
207	-3.00000e-01	7.991532e-07	
208	-3.50000e-01	9.053000e-07	
209	-4.00000e-01	1.003730e-06	
210	-4.50000e-01	1.094447e-06	
211	-5.00000e-01	1.177461e-06	
212	-5.50000e-01	1.252779e-06	
213	-6.00000e-01	1.320417e-06	
214	-6.50000e-01	1.380395e-06	
215	-7.00000e-01	1.432748e-06	
216	-7.50000e-01	1.477532e-06	
217	-8.00000e-01	1.514847e-06	
218	-8.50000e-01	1.544870e-06	
219	-9.00000e-01	1.567930e-06	
220	-9.50000e-01	1.584616e-06	
221	-1.00000e+00	1.595882e-06	
222	-1.05000e+00	1.603018e-06	
223	-1.10000e+00	1.607377e-06	
224	-1.15000e+00	1.610054e-06	
225	-1.20000e+00	1.611765e-06	
226	-1.25000e+00	1.612923e-06	
227	-1.30000e+00	1.613754e-06	
228	-1.35000e+00	1.614385e-06	

Index   v-sweep         i(vds)          
--------------------------------------------------------------------------------
229	-1.40000e+00	1.614884e-06	
230	-1.45000e+00	1.615296e-06	
231	-1.50000e+00	1.615645e-06	
232	-1.55000e+00	1.615948e-06	
233	-1.60000e+00	1.616217e-06	
234	-1.65000e+00	1.616458e-06	
235	-1.70000e+00	1.616678e-06	
236	-1.75000e+00	1.616880e-06	
237	-1.80000e+00	1.617067e-06	
238	-1.85000e+00	1.617242e-06	
239	-1.90000e+00	1.617406e-06	
240	-1.95000e+00	1.617562e-06	
241	-2.00000e+00	1.617709e-06	
242	-2.05000e+00	1.617849e-06	
243	-2.10000e+00	1.617983e-06	
244	-2.15000e+00	1.618111e-06	
245	-2.20000e+00	1.618234e-06	
246	-2.25000e+00	1.618352e-06	
247	-2.30000e+00	1.618466e-06	
248	-2.35000e+00	1.618576e-06	
249	-2.40000e+00	1.618683e-06	
250	-2.45000e+00	1.618786e-06	
251	-2.50000e+00	1.618886e-06	
252	-2.55000e+00	1.618984e-06	
253	-2.60000e+00	1.619078e-06	
254	-2.65000e+00	1.619171e-06	
255	-2.70000e+00	1.619260e-06	
256	-2.75000e+00	1.619348e-06	
257	-2.80000e+00	1.619434e-06	
258	-2.85000e+00	1.619517e-06	
259	-2.90000e+00	1.619599e-06	
260	-2.95000e+00	1.619680e-06	
261	-3.00000e+00	1.619758e-06	
262	-3.05000e+00	1.619835e-06	
263	-3.10000e+00	1.619911e-06	
264	-3.15000e+00	1.619985e-06	
265	-3.20000e+00	1.620059e-06	
266	-3.25000e+00	1.620131e-06	
267	-3.30000e+00	1.620203e-06	
268	0.000000e+00	-6.66188e-22	
269	-5.00000e-02	1.952476e-07	
270	-1.00000e-01	3.833257e-07	
271	-1.50000e-01	5.642363e-07	
272	-2.00000e-01	7.379811e-07	
273	-2.50000e-01	9.045623e-07	
274	-3.00000e-01	1.063982e-06	
275	-3.50000e-01	1.216242e-06	
276	-4.00000e-01	1.361345e-06	
277	-4.50000e-01	1.499292e-06	
278	-5.00000e-01	1.630088e-06	
279	-5.50000e-01	1.753734e-06	
280	-6.00000e-01	1.870233e-06	
281	-6.50000e-01	1.979590e-06	
282	-7.00000e-01	2.081808e-06	
283	-7.50000e-01	2.176892e-06	
284	-8.00000e-01	2.264850e-06	
285	-8.50000e-01	2.345690e-06	
286	-9.00000e-01	2.419423e-06	

Index   v-sweep         i(vds)          
--------------------------------------------------------------------------------
287	-9.50000e-01	2.486067e-06	
288	-1.00000e+00	2.545645e-06	
289	-1.05000e+00	2.598195e-06	
290	-1.10000e+00	2.643777e-06	
291	-1.15000e+00	2.682486e-06	
292	-1.20000e+00	2.714485e-06	
293	-1.25000e+00	2.740044e-06	
294	-1.30000e+00	2.759611e-06	
295	-1.35000e+00	2.773879e-06	
296	-1.40000e+00	2.783794e-06	
297	-1.45000e+00	2.790445e-06	
298	-1.50000e+00	2.794856e-06	
299	-1.55000e+00	2.797826e-06	
300	-1.60000e+00	2.799896e-06	
301	-1.65000e+00	2.801402e-06	
302	-1.70000e+00	2.802547e-06	
303	-1.75000e+00	2.803454e-06	
304	-1.80000e+00	2.804198e-06	
305	-1.85000e+00	2.804826e-06	
306	-1.90000e+00	2.805368e-06	
307	-1.95000e+00	2.805846e-06	
308	-2.00000e+00	2.806274e-06	
309	-2.05000e+00	2.806661e-06	
310	-2.10000e+00	2.807016e-06	
311	-2.15000e+00	2.807344e-06	
312	-2.20000e+00	2.807650e-06	
313	-2.25000e+00	2.807936e-06	
314	-2.30000e+00	2.808205e-06	
315	-2.35000e+00	2.808459e-06	
316	-2.40000e+00	2.808701e-06	
317	-2.45000e+00	2.808931e-06	
318	-2.50000e+00	2.809151e-06	
319	-2.55000e+00	2.809362e-06	
320	-2.60000e+00	2.809565e-06	
321	-2.65000e+00	2.809760e-06	
322	-2.70000e+00	2.809947e-06	
323	-2.75000e+00	2.810129e-06	
324	-2.80000e+00	2.810304e-06	
325	-2.85000e+00	2.810475e-06	
326	-2.90000e+00	2.810640e-06	
327	-2.95000e+00	2.810800e-06	
328	-3.00000e+00	2.810956e-06	
329	-3.05000e+00	2.811107e-06	
330	-3.10000e+00	2.811255e-06	
331	-3.15000e+00	2.811399e-06	
332	-3.20000e+00	2.811540e-06	
333	-3.25000e+00	2.811678e-06	
334	-3.30000e+00	2.811812e-06	
335	0.000000e+00	-6.36694e-22	
336	-5.00000e-02	2.320039e-07	
337	-1.00000e-01	4.574176e-07	
338	-1.50000e-01	6.762426e-07	
339	-2.00000e-01	8.884808e-07	
340	-2.50000e-01	1.094134e-06	
341	-3.00000e-01	1.293203e-06	
342	-3.50000e-01	1.485690e-06	
343	-4.00000e-01	1.671597e-06	
344	-4.50000e-01	1.850926e-06	

Index   v-sweep         i(vds)          
--------------------------------------------------------------------------------
345	-5.00000e-01	2.023677e-06	
346	-5.50000e-01	2.189854e-06	
347	-6.00000e-01	2.349458e-06	
348	-6.50000e-01	2.502491e-06	
349	-7.00000e-01	2.648954e-06	
350	-7.50000e-01	2.788851e-06	
351	-8.00000e-01	2.922184e-06	
352	-8.50000e-01	3.048954e-06	
353	-9.00000e-01	3.169165e-06	
354	-9.50000e-01	3.282820e-06	
355	-1.00000e+00	3.389923e-06	
356	-1.05000e+00	3.490478e-06	
357	-1.10000e+00	3.584490e-06	
358	-1.15000e+00	3.671965e-06	
359	-1.20000e+00	3.752913e-06	
360	-1.25000e+00	3.827344e-06	
361	-1.30000e+00	3.895274e-06	
362	-1.35000e+00	3.956724e-06	
363	-1.40000e+00	4.011726e-06	
364	-1.45000e+00	4.060328e-06	
365	-1.50000e+00	4.102602e-06	
366	-1.55000e+00	4.138661e-06	
367	-1.60000e+00	4.168687e-06	
368	-1.65000e+00	4.192964e-06	
369	-1.70000e+00	4.211925e-06	
370	-1.75000e+00	4.226191e-06	
371	-1.80000e+00	4.236557e-06	
372	-1.85000e+00	4.243908e-06	
373	-1.90000e+00	4.249083e-06	
374	-1.95000e+00	4.252766e-06	
375	-2.00000e+00	4.255455e-06	
376	-2.05000e+00	4.257484e-06	
377	-2.10000e+00	4.259070e-06	
378	-2.15000e+00	4.260350e-06	
379	-2.20000e+00	4.261415e-06	
380	-2.25000e+00	4.262323e-06	
381	-2.30000e+00	4.263113e-06	
382	-2.35000e+00	4.263812e-06	
383	-2.40000e+00	4.264440e-06	
384	-2.45000e+00	4.265011e-06	
385	-2.50000e+00	4.265534e-06	
386	-2.55000e+00	4.266019e-06	
387	-2.60000e+00	4.266470e-06	
388	-2.65000e+00	4.266893e-06	
389	-2.70000e+00	4.267292e-06	
390	-2.75000e+00	4.267669e-06	
391	-2.80000e+00	4.268027e-06	
392	-2.85000e+00	4.268368e-06	
393	-2.90000e+00	4.268693e-06	
394	-2.95000e+00	4.269006e-06	
395	-3.00000e+00	4.269305e-06	
396	-3.05000e+00	4.269593e-06	
397	-3.10000e+00	4.269871e-06	
398	-3.15000e+00	4.270140e-06	
399	-3.20000e+00	4.270399e-06	
400	-3.25000e+00	4.270651e-06	
401	-3.30000e+00	4.270894e-06	
Note: No ".plot", ".print", or ".fourier" lines; no simulations run
