
Note: Compatibility modes selected: hs

Warning: m=xx on .subckt line will override multiplier m hierarchy!


Circuit: ***************************

Doing analysis at TEMP = 125.000000 and TNOM = 125.000000


No. of Data Rows : 402
                          ***************************
                          DC transfer characteristic  Mon Jan  9 13:58:24  2023
--------------------------------------------------------------------------------
Index   v-sweep         i(vds)          
--------------------------------------------------------------------------------
0	0.000000e+00	-3.97065e-23	
1	-5.00000e-02	1.568254e-07	
2	-1.00000e-01	2.460050e-07	
3	-1.50000e-01	2.833205e-07	
4	-2.00000e-01	2.940596e-07	
5	-2.50000e-01	2.973435e-07	
6	-3.00000e-01	2.988464e-07	
7	-3.50000e-01	2.998033e-07	
8	-4.00000e-01	3.005377e-07	
9	-4.50000e-01	3.011585e-07	
10	-5.00000e-01	3.017106e-07	
11	-5.50000e-01	3.022159e-07	
12	-6.00000e-01	3.026861e-07	
13	-6.50000e-01	3.031288e-07	
14	-7.00000e-01	3.035487e-07	
15	-7.50000e-01	3.039492e-07	
16	-8.00000e-01	3.043328e-07	
17	-8.50000e-01	3.047016e-07	
18	-9.00000e-01	3.050572e-07	
19	-9.50000e-01	3.054007e-07	
20	-1.00000e+00	3.057334e-07	
21	-1.05000e+00	3.060560e-07	
22	-1.10000e+00	3.063695e-07	
23	-1.15000e+00	3.066745e-07	
24	-1.20000e+00	3.069717e-07	
25	-1.25000e+00	3.072615e-07	
26	-1.30000e+00	3.075445e-07	
27	-1.35000e+00	3.078211e-07	
28	-1.40000e+00	3.080916e-07	
29	-1.45000e+00	3.083566e-07	
30	-1.50000e+00	3.086161e-07	
31	-1.55000e+00	3.088707e-07	
32	-1.60000e+00	3.091205e-07	
33	-1.65000e+00	3.093658e-07	
34	-1.70000e+00	3.096068e-07	
35	-1.75000e+00	3.098437e-07	
36	-1.80000e+00	3.100768e-07	
37	-1.85000e+00	3.103062e-07	
38	-1.90000e+00	3.105320e-07	
39	-1.95000e+00	3.107546e-07	
40	-2.00000e+00	3.109739e-07	
41	-2.05000e+00	3.111902e-07	
42	-2.10000e+00	3.114036e-07	
43	-2.15000e+00	3.116142e-07	
44	-2.20000e+00	3.118223e-07	
45	-2.25000e+00	3.120279e-07	
46	-2.30000e+00	3.122313e-07	
47	-2.35000e+00	3.124325e-07	
48	-2.40000e+00	3.126319e-07	
49	-2.45000e+00	3.128295e-07	
50	-2.50000e+00	3.130258e-07	
51	-2.55000e+00	3.132209e-07	
52	-2.60000e+00	3.134153e-07	
53	-2.65000e+00	3.136093e-07	
54	-2.70000e+00	3.138034e-07	

Index   v-sweep         i(vds)          
--------------------------------------------------------------------------------
55	-2.75000e+00	3.139981e-07	
56	-2.80000e+00	3.141941e-07	
57	-2.85000e+00	3.143920e-07	
58	-2.90000e+00	3.145928e-07	
59	-2.95000e+00	3.147973e-07	
60	-3.00000e+00	3.150067e-07	
61	-3.05000e+00	3.152222e-07	
62	-3.10000e+00	3.154451e-07	
63	-3.15000e+00	3.156771e-07	
64	-3.20000e+00	3.159200e-07	
65	-3.25000e+00	3.161756e-07	
66	-3.30000e+00	3.164462e-07	
67	0.000000e+00	1.505600e-26	
68	-5.00000e-02	7.571915e-07	
69	-1.00000e-01	1.428219e-06	
70	-1.50000e-01	2.018738e-06	
71	-2.00000e-01	2.530322e-06	
72	-2.50000e-01	2.963677e-06	
73	-3.00000e-01	3.319523e-06	
74	-3.50000e-01	3.599085e-06	
75	-4.00000e-01	3.804950e-06	
76	-4.50000e-01	3.942974e-06	
77	-5.00000e-01	4.025246e-06	
78	-5.50000e-01	4.070085e-06	
79	-6.00000e-01	4.094974e-06	
80	-6.50000e-01	4.110574e-06	
81	-7.00000e-01	4.121819e-06	
82	-7.50000e-01	4.130817e-06	
83	-8.00000e-01	4.138510e-06	
84	-8.50000e-01	4.145356e-06	
85	-9.00000e-01	4.151599e-06	
86	-9.50000e-01	4.157383e-06	
87	-1.00000e+00	4.162800e-06	
88	-1.05000e+00	4.167911e-06	
89	-1.10000e+00	4.172760e-06	
90	-1.15000e+00	4.177382e-06	
91	-1.20000e+00	4.181802e-06	
92	-1.25000e+00	4.186040e-06	
93	-1.30000e+00	4.190116e-06	
94	-1.35000e+00	4.194042e-06	
95	-1.40000e+00	4.197832e-06	
96	-1.45000e+00	4.201496e-06	
97	-1.50000e+00	4.205043e-06	
98	-1.55000e+00	4.208483e-06	
99	-1.60000e+00	4.211821e-06	
100	-1.65000e+00	4.215066e-06	
101	-1.70000e+00	4.218222e-06	
102	-1.75000e+00	4.221295e-06	
103	-1.80000e+00	4.224290e-06	
104	-1.85000e+00	4.227211e-06	
105	-1.90000e+00	4.230063e-06	
106	-1.95000e+00	4.232849e-06	
107	-2.00000e+00	4.235572e-06	
108	-2.05000e+00	4.238236e-06	
109	-2.10000e+00	4.240843e-06	
110	-2.15000e+00	4.243397e-06	
111	-2.20000e+00	4.245899e-06	
112	-2.25000e+00	4.248353e-06	

Index   v-sweep         i(vds)          
--------------------------------------------------------------------------------
113	-2.30000e+00	4.250759e-06	
114	-2.35000e+00	4.253122e-06	
115	-2.40000e+00	4.255442e-06	
116	-2.45000e+00	4.257722e-06	
117	-2.50000e+00	4.259963e-06	
118	-2.55000e+00	4.262168e-06	
119	-2.60000e+00	4.264339e-06	
120	-2.65000e+00	4.266478e-06	
121	-2.70000e+00	4.268588e-06	
122	-2.75000e+00	4.270671e-06	
123	-2.80000e+00	4.272731e-06	
124	-2.85000e+00	4.274770e-06	
125	-2.90000e+00	4.276794e-06	
126	-2.95000e+00	4.278807e-06	
127	-3.00000e+00	4.280814e-06	
128	-3.05000e+00	4.282822e-06	
129	-3.10000e+00	4.284838e-06	
130	-3.15000e+00	4.286871e-06	
131	-3.20000e+00	4.288932e-06	
132	-3.25000e+00	4.291031e-06	
133	-3.30000e+00	4.293182e-06	
134	0.000000e+00	-1.02211e-25	
135	-5.00000e-02	1.312694e-06	
136	-1.00000e-01	2.542169e-06	
137	-1.50000e-01	3.693934e-06	
138	-2.00000e-01	4.769415e-06	
139	-2.50000e-01	5.769075e-06	
140	-3.00000e-01	6.693152e-06	
141	-3.50000e-01	7.541844e-06	
142	-4.00000e-01	8.315348e-06	
143	-4.50000e-01	9.013890e-06	
144	-5.00000e-01	9.637738e-06	
145	-5.50000e-01	1.018724e-05	
146	-6.00000e-01	1.066289e-05	
147	-6.50000e-01	1.106547e-05	
148	-7.00000e-01	1.139627e-05	
149	-7.50000e-01	1.165770e-05	
150	-8.00000e-01	1.185421e-05	
151	-8.50000e-01	1.199364e-05	
152	-9.00000e-01	1.208790e-05	
153	-9.50000e-01	1.215095e-05	
154	-1.00000e+00	1.219488e-05	
155	-1.05000e+00	1.222782e-05	
156	-1.10000e+00	1.225436e-05	
157	-1.15000e+00	1.227697e-05	
158	-1.20000e+00	1.229697e-05	
159	-1.25000e+00	1.231512e-05	
160	-1.30000e+00	1.233187e-05	
161	-1.35000e+00	1.234749e-05	
162	-1.40000e+00	1.236219e-05	
163	-1.45000e+00	1.237610e-05	
164	-1.50000e+00	1.238934e-05	
165	-1.55000e+00	1.240197e-05	
166	-1.60000e+00	1.241406e-05	
167	-1.65000e+00	1.242567e-05	
168	-1.70000e+00	1.243684e-05	
169	-1.75000e+00	1.244760e-05	
170	-1.80000e+00	1.245799e-05	

Index   v-sweep         i(vds)          
--------------------------------------------------------------------------------
171	-1.85000e+00	1.246804e-05	
172	-1.90000e+00	1.247777e-05	
173	-1.95000e+00	1.248720e-05	
174	-2.00000e+00	1.249636e-05	
175	-2.05000e+00	1.250525e-05	
176	-2.10000e+00	1.251390e-05	
177	-2.15000e+00	1.252232e-05	
178	-2.20000e+00	1.253053e-05	
179	-2.25000e+00	1.253853e-05	
180	-2.30000e+00	1.254633e-05	
181	-2.35000e+00	1.255395e-05	
182	-2.40000e+00	1.256140e-05	
183	-2.45000e+00	1.256868e-05	
184	-2.50000e+00	1.257580e-05	
185	-2.55000e+00	1.258277e-05	
186	-2.60000e+00	1.258959e-05	
187	-2.65000e+00	1.259628e-05	
188	-2.70000e+00	1.260284e-05	
189	-2.75000e+00	1.260928e-05	
190	-2.80000e+00	1.261559e-05	
191	-2.85000e+00	1.262179e-05	
192	-2.90000e+00	1.262789e-05	
193	-2.95000e+00	1.263388e-05	
194	-3.00000e+00	1.263978e-05	
195	-3.05000e+00	1.264558e-05	
196	-3.10000e+00	1.265131e-05	
197	-3.15000e+00	1.265697e-05	
198	-3.20000e+00	1.266256e-05	
199	-3.25000e+00	1.266810e-05	
200	-3.30000e+00	1.267360e-05	
201	0.000000e+00	-1.37522e-25	
202	-5.00000e-02	1.800353e-06	
203	-1.00000e-01	3.522221e-06	
204	-1.50000e-01	5.171040e-06	
205	-2.00000e-01	6.748203e-06	
206	-2.50000e-01	8.254138e-06	
207	-3.00000e-01	9.689049e-06	
208	-3.50000e-01	1.105308e-05	
209	-4.00000e-01	1.234638e-05	
210	-4.50000e-01	1.356907e-05	
211	-5.00000e-01	1.472129e-05	
212	-5.50000e-01	1.580320e-05	
213	-6.00000e-01	1.681493e-05	
214	-6.50000e-01	1.775664e-05	
215	-7.00000e-01	1.862849e-05	
216	-7.50000e-01	1.943069e-05	
217	-8.00000e-01	2.016344e-05	
218	-8.50000e-01	2.082700e-05	
219	-9.00000e-01	2.142171e-05	
220	-9.50000e-01	2.194803e-05	
221	-1.00000e+00	2.240663e-05	
222	-1.05000e+00	2.279856e-05	
223	-1.10000e+00	2.312554e-05	
224	-1.15000e+00	2.339042e-05	
225	-1.20000e+00	2.359797e-05	
226	-1.25000e+00	2.375545e-05	
227	-1.30000e+00	2.387263e-05	
228	-1.35000e+00	2.396023e-05	

Index   v-sweep         i(vds)          
--------------------------------------------------------------------------------
229	-1.40000e+00	2.402781e-05	
230	-1.45000e+00	2.408236e-05	
231	-1.50000e+00	2.412843e-05	
232	-1.55000e+00	2.416876e-05	
233	-1.60000e+00	2.420503e-05	
234	-1.65000e+00	2.423825e-05	
235	-1.70000e+00	2.426909e-05	
236	-1.75000e+00	2.429798e-05	
237	-1.80000e+00	2.432524e-05	
238	-1.85000e+00	2.435110e-05	
239	-1.90000e+00	2.437573e-05	
240	-1.95000e+00	2.439927e-05	
241	-2.00000e+00	2.442184e-05	
242	-2.05000e+00	2.444351e-05	
243	-2.10000e+00	2.446437e-05	
244	-2.15000e+00	2.448450e-05	
245	-2.20000e+00	2.450393e-05	
246	-2.25000e+00	2.452273e-05	
247	-2.30000e+00	2.454094e-05	
248	-2.35000e+00	2.455860e-05	
249	-2.40000e+00	2.457574e-05	
250	-2.45000e+00	2.459240e-05	
251	-2.50000e+00	2.460860e-05	
252	-2.55000e+00	2.462437e-05	
253	-2.60000e+00	2.463974e-05	
254	-2.65000e+00	2.465472e-05	
255	-2.70000e+00	2.466934e-05	
256	-2.75000e+00	2.468362e-05	
257	-2.80000e+00	2.469756e-05	
258	-2.85000e+00	2.471120e-05	
259	-2.90000e+00	2.472453e-05	
260	-2.95000e+00	2.473759e-05	
261	-3.00000e+00	2.475037e-05	
262	-3.05000e+00	2.476289e-05	
263	-3.10000e+00	2.477517e-05	
264	-3.15000e+00	2.478721e-05	
265	-3.20000e+00	2.479903e-05	
266	-3.25000e+00	2.481063e-05	
267	-3.30000e+00	2.482203e-05	
268	0.000000e+00	-4.71216e-25	
269	-5.00000e-02	2.231121e-06	
270	-1.00000e-01	4.388574e-06	
271	-1.50000e-01	6.477734e-06	
272	-2.00000e-01	8.499974e-06	
273	-2.50000e-01	1.045571e-05	
274	-3.00000e-01	1.234511e-05	
275	-3.50000e-01	1.416833e-05	
276	-4.00000e-01	1.592547e-05	
277	-4.50000e-01	1.761665e-05	
278	-5.00000e-01	1.924198e-05	
279	-5.50000e-01	2.080158e-05	
280	-6.00000e-01	2.229556e-05	
281	-6.50000e-01	2.372404e-05	
282	-7.00000e-01	2.508713e-05	
283	-7.50000e-01	2.638497e-05	
284	-8.00000e-01	2.761766e-05	
285	-8.50000e-01	2.878533e-05	
286	-9.00000e-01	2.988811e-05	

Index   v-sweep         i(vds)          
--------------------------------------------------------------------------------
287	-9.50000e-01	3.092614e-05	
288	-1.00000e+00	3.189956e-05	
289	-1.05000e+00	3.280852e-05	
290	-1.10000e+00	3.365318e-05	
291	-1.15000e+00	3.443376e-05	
292	-1.20000e+00	3.515046e-05	
293	-1.25000e+00	3.580358e-05	
294	-1.30000e+00	3.639347e-05	
295	-1.35000e+00	3.692065e-05	
296	-1.40000e+00	3.738584e-05	
297	-1.45000e+00	3.779013e-05	
298	-1.50000e+00	3.813521e-05	
299	-1.55000e+00	3.842373e-05	
300	-1.60000e+00	3.865976e-05	
301	-1.65000e+00	3.884914e-05	
302	-1.70000e+00	3.899951e-05	
303	-1.75000e+00	3.911935e-05	
304	-1.80000e+00	3.921676e-05	
305	-1.85000e+00	3.929828e-05	
306	-1.90000e+00	3.936864e-05	
307	-1.95000e+00	3.943103e-05	
308	-2.00000e+00	3.948752e-05	
309	-2.05000e+00	3.953949e-05	
310	-2.10000e+00	3.958785e-05	
311	-2.15000e+00	3.963324e-05	
312	-2.20000e+00	3.967611e-05	
313	-2.25000e+00	3.971681e-05	
314	-2.30000e+00	3.975560e-05	
315	-2.35000e+00	3.979270e-05	
316	-2.40000e+00	3.982827e-05	
317	-2.45000e+00	3.986245e-05	
318	-2.50000e+00	3.989536e-05	
319	-2.55000e+00	3.992711e-05	
320	-2.60000e+00	3.995779e-05	
321	-2.65000e+00	3.998746e-05	
322	-2.70000e+00	4.001621e-05	
323	-2.75000e+00	4.004409e-05	
324	-2.80000e+00	4.007116e-05	
325	-2.85000e+00	4.009747e-05	
326	-2.90000e+00	4.012305e-05	
327	-2.95000e+00	4.014796e-05	
328	-3.00000e+00	4.017223e-05	
329	-3.05000e+00	4.019590e-05	
330	-3.10000e+00	4.021899e-05	
331	-3.15000e+00	4.024153e-05	
332	-3.20000e+00	4.026355e-05	
333	-3.25000e+00	4.028509e-05	
334	-3.30000e+00	4.030615e-05	
335	0.000000e+00	4.270070e-25	
336	-5.00000e-02	2.614597e-06	
337	-1.00000e-01	5.160066e-06	
338	-1.50000e-01	7.641734e-06	
339	-2.00000e-01	1.006095e-05	
340	-2.50000e-01	1.241813e-05	
341	-3.00000e-01	1.471343e-05	
342	-3.50000e-01	1.694697e-05	
343	-4.00000e-01	1.911886e-05	
344	-4.50000e-01	2.122920e-05	

Index   v-sweep         i(vds)          
--------------------------------------------------------------------------------
345	-5.00000e-01	2.327809e-05	
346	-5.50000e-01	2.526562e-05	
347	-6.00000e-01	2.719191e-05	
348	-6.50000e-01	2.905704e-05	
349	-7.00000e-01	3.086113e-05	
350	-7.50000e-01	3.260427e-05	
351	-8.00000e-01	3.428656e-05	
352	-8.50000e-01	3.590812e-05	
353	-9.00000e-01	3.746903e-05	
354	-9.50000e-01	3.896940e-05	
355	-1.00000e+00	4.040935e-05	
356	-1.05000e+00	4.178897e-05	
357	-1.10000e+00	4.310838e-05	
358	-1.15000e+00	4.436767e-05	
359	-1.20000e+00	4.556698e-05	
360	-1.25000e+00	4.670640e-05	
361	-1.30000e+00	4.778607e-05	
362	-1.35000e+00	4.880610e-05	
363	-1.40000e+00	4.976664e-05	
364	-1.45000e+00	5.066783e-05	
365	-1.50000e+00	5.150983e-05	
366	-1.55000e+00	5.229283e-05	
367	-1.60000e+00	5.301705e-05	
368	-1.65000e+00	5.368276e-05	
369	-1.70000e+00	5.429031e-05	
370	-1.75000e+00	5.484017e-05	
371	-1.80000e+00	5.533299e-05	
372	-1.85000e+00	5.576971e-05	
373	-1.90000e+00	5.615171e-05	
374	-1.95000e+00	5.648106e-05	
375	-2.00000e+00	5.676081e-05	
376	-2.05000e+00	5.699526e-05	
377	-2.10000e+00	5.719005e-05	
378	-2.15000e+00	5.735183e-05	
379	-2.20000e+00	5.748751e-05	
380	-2.25000e+00	5.760333e-05	
381	-2.30000e+00	5.770437e-05	
382	-2.35000e+00	5.779437e-05	
383	-2.40000e+00	5.787600e-05	
384	-2.45000e+00	5.795110e-05	
385	-2.50000e+00	5.802096e-05	
386	-2.55000e+00	5.808650e-05	
387	-2.60000e+00	5.814837e-05	
388	-2.65000e+00	5.820708e-05	
389	-2.70000e+00	5.826301e-05	
390	-2.75000e+00	5.831648e-05	
391	-2.80000e+00	5.836774e-05	
392	-2.85000e+00	5.841699e-05	
393	-2.90000e+00	5.846440e-05	
394	-2.95000e+00	5.851012e-05	
395	-3.00000e+00	5.855429e-05	
396	-3.05000e+00	5.859701e-05	
397	-3.10000e+00	5.863839e-05	
398	-3.15000e+00	5.867852e-05	
399	-3.20000e+00	5.871747e-05	
400	-3.25000e+00	5.875532e-05	
401	-3.30000e+00	5.879213e-05	
Note: No ".plot", ".print", or ".fourier" lines; no simulations run
