
Note: Compatibility modes selected: hs

Warning: m=xx on .subckt line will override multiplier m hierarchy!


Circuit: ***************************

Doing analysis at TEMP = -40.000000 and TNOM = -40.000000


No. of Data Rows : 402
                          ***************************
                          DC transfer characteristic  Mon Jan  9 13:58:23  2023
--------------------------------------------------------------------------------
Index   v-sweep         i(vds)          
--------------------------------------------------------------------------------
0	0.000000e+00	-3.02872e-25	
1	-5.00000e-02	1.210520e-09	
2	-1.00000e-01	1.299089e-09	
3	-1.50000e-01	1.312785e-09	
4	-2.00000e-01	1.317386e-09	
5	-2.50000e-01	1.319702e-09	
6	-3.00000e-01	1.321184e-09	
7	-3.50000e-01	1.322286e-09	
8	-4.00000e-01	1.323187e-09	
9	-4.50000e-01	1.323970e-09	
10	-5.00000e-01	1.324677e-09	
11	-5.50000e-01	1.325333e-09	
12	-6.00000e-01	1.325952e-09	
13	-6.50000e-01	1.326543e-09	
14	-7.00000e-01	1.327114e-09	
15	-7.50000e-01	1.327667e-09	
16	-8.00000e-01	1.328207e-09	
17	-8.50000e-01	1.328735e-09	
18	-9.00000e-01	1.329254e-09	
19	-9.50000e-01	1.329765e-09	
20	-1.00000e+00	1.330268e-09	
21	-1.05000e+00	1.330765e-09	
22	-1.10000e+00	1.331257e-09	
23	-1.15000e+00	1.331744e-09	
24	-1.20000e+00	1.332227e-09	
25	-1.25000e+00	1.332705e-09	
26	-1.30000e+00	1.333180e-09	
27	-1.35000e+00	1.333652e-09	
28	-1.40000e+00	1.334121e-09	
29	-1.45000e+00	1.334586e-09	
30	-1.50000e+00	1.335050e-09	
31	-1.55000e+00	1.335510e-09	
32	-1.60000e+00	1.335969e-09	
33	-1.65000e+00	1.336426e-09	
34	-1.70000e+00	1.336880e-09	
35	-1.75000e+00	1.337333e-09	
36	-1.80000e+00	1.337784e-09	
37	-1.85000e+00	1.338234e-09	
38	-1.90000e+00	1.338682e-09	
39	-1.95000e+00	1.339128e-09	
40	-2.00000e+00	1.339573e-09	
41	-2.05000e+00	1.340017e-09	
42	-2.10000e+00	1.340460e-09	
43	-2.15000e+00	1.340902e-09	
44	-2.20000e+00	1.341343e-09	
45	-2.25000e+00	1.341783e-09	
46	-2.30000e+00	1.342222e-09	
47	-2.35000e+00	1.342661e-09	
48	-2.40000e+00	1.343100e-09	
49	-2.45000e+00	1.343539e-09	
50	-2.50000e+00	1.343978e-09	
51	-2.55000e+00	1.344418e-09	
52	-2.60000e+00	1.344860e-09	
53	-2.65000e+00	1.345304e-09	
54	-2.70000e+00	1.345752e-09	

Index   v-sweep         i(vds)          
--------------------------------------------------------------------------------
55	-2.75000e+00	1.346204e-09	
56	-2.80000e+00	1.346661e-09	
57	-2.85000e+00	1.347127e-09	
58	-2.90000e+00	1.347601e-09	
59	-2.95000e+00	1.348088e-09	
60	-3.00000e+00	1.348589e-09	
61	-3.05000e+00	1.349109e-09	
62	-3.10000e+00	1.349650e-09	
63	-3.15000e+00	1.350218e-09	
64	-3.20000e+00	1.350818e-09	
65	-3.25000e+00	1.351455e-09	
66	-3.30000e+00	1.352138e-09	
67	0.000000e+00	-2.14639e-23	
68	-5.00000e-02	9.516138e-08	
69	-1.00000e-01	1.740946e-07	
70	-1.50000e-01	2.368900e-07	
71	-2.00000e-01	2.837688e-07	
72	-2.50000e-01	3.153466e-07	
73	-3.00000e-01	3.333640e-07	
74	-3.50000e-01	3.416454e-07	
75	-4.00000e-01	3.449534e-07	
76	-4.50000e-01	3.463325e-07	
77	-5.00000e-01	3.469996e-07	
78	-5.50000e-01	3.473760e-07	
79	-6.00000e-01	3.476173e-07	
80	-6.50000e-01	3.477877e-07	
81	-7.00000e-01	3.479173e-07	
82	-7.50000e-01	3.480213e-07	
83	-8.00000e-01	3.481084e-07	
84	-8.50000e-01	3.481836e-07	
85	-9.00000e-01	3.482501e-07	
86	-9.50000e-01	3.483099e-07	
87	-1.00000e+00	3.483646e-07	
88	-1.05000e+00	3.484151e-07	
89	-1.10000e+00	3.484621e-07	
90	-1.15000e+00	3.485064e-07	
91	-1.20000e+00	3.485482e-07	
92	-1.25000e+00	3.485879e-07	
93	-1.30000e+00	3.486258e-07	
94	-1.35000e+00	3.486622e-07	
95	-1.40000e+00	3.486971e-07	
96	-1.45000e+00	3.487307e-07	
97	-1.50000e+00	3.487632e-07	
98	-1.55000e+00	3.487947e-07	
99	-1.60000e+00	3.488253e-07	
100	-1.65000e+00	3.488550e-07	
101	-1.70000e+00	3.488839e-07	
102	-1.75000e+00	3.489121e-07	
103	-1.80000e+00	3.489396e-07	
104	-1.85000e+00	3.489664e-07	
105	-1.90000e+00	3.489927e-07	
106	-1.95000e+00	3.490185e-07	
107	-2.00000e+00	3.490438e-07	
108	-2.05000e+00	3.490685e-07	
109	-2.10000e+00	3.490928e-07	
110	-2.15000e+00	3.491167e-07	
111	-2.20000e+00	3.491402e-07	
112	-2.25000e+00	3.491634e-07	

Index   v-sweep         i(vds)          
--------------------------------------------------------------------------------
113	-2.30000e+00	3.491861e-07	
114	-2.35000e+00	3.492086e-07	
115	-2.40000e+00	3.492307e-07	
116	-2.45000e+00	3.492526e-07	
117	-2.50000e+00	3.492743e-07	
118	-2.55000e+00	3.492957e-07	
119	-2.60000e+00	3.493169e-07	
120	-2.65000e+00	3.493381e-07	
121	-2.70000e+00	3.493592e-07	
122	-2.75000e+00	3.493804e-07	
123	-2.80000e+00	3.494017e-07	
124	-2.85000e+00	3.494233e-07	
125	-2.90000e+00	3.494453e-07	
126	-2.95000e+00	3.494679e-07	
127	-3.00000e+00	3.494915e-07	
128	-3.05000e+00	3.495163e-07	
129	-3.10000e+00	3.495427e-07	
130	-3.15000e+00	3.495711e-07	
131	-3.20000e+00	3.496020e-07	
132	-3.25000e+00	3.496362e-07	
133	-3.30000e+00	3.496744e-07	
134	0.000000e+00	2.212987e-23	
135	-5.00000e-02	1.993305e-07	
136	-1.00000e-01	3.829042e-07	
137	-1.50000e-01	5.507306e-07	
138	-2.00000e-01	7.028222e-07	
139	-2.50000e-01	8.391961e-07	
140	-3.00000e-01	9.598772e-07	
141	-3.50000e-01	1.064906e-06	
142	-4.00000e-01	1.154349e-06	
143	-4.50000e-01	1.228335e-06	
144	-5.00000e-01	1.287113e-06	
145	-5.50000e-01	1.331208e-06	
146	-6.00000e-01	1.361718e-06	
147	-6.50000e-01	1.380747e-06	
148	-7.00000e-01	1.391453e-06	
149	-7.50000e-01	1.397157e-06	
150	-8.00000e-01	1.400254e-06	
151	-8.50000e-01	1.402058e-06	
152	-9.00000e-01	1.403205e-06	
153	-9.50000e-01	1.403996e-06	
154	-1.00000e+00	1.404581e-06	
155	-1.05000e+00	1.405037e-06	
156	-1.10000e+00	1.405410e-06	
157	-1.15000e+00	1.405725e-06	
158	-1.20000e+00	1.405997e-06	
159	-1.25000e+00	1.406238e-06	
160	-1.30000e+00	1.406455e-06	
161	-1.35000e+00	1.406653e-06	
162	-1.40000e+00	1.406835e-06	
163	-1.45000e+00	1.407004e-06	
164	-1.50000e+00	1.407162e-06	
165	-1.55000e+00	1.407311e-06	
166	-1.60000e+00	1.407451e-06	
167	-1.65000e+00	1.407585e-06	
168	-1.70000e+00	1.407713e-06	
169	-1.75000e+00	1.407835e-06	
170	-1.80000e+00	1.407952e-06	

Index   v-sweep         i(vds)          
--------------------------------------------------------------------------------
171	-1.85000e+00	1.408065e-06	
172	-1.90000e+00	1.408173e-06	
173	-1.95000e+00	1.408278e-06	
174	-2.00000e+00	1.408380e-06	
175	-2.05000e+00	1.408478e-06	
176	-2.10000e+00	1.408574e-06	
177	-2.15000e+00	1.408667e-06	
178	-2.20000e+00	1.408757e-06	
179	-2.25000e+00	1.408846e-06	
180	-2.30000e+00	1.408932e-06	
181	-2.35000e+00	1.409015e-06	
182	-2.40000e+00	1.409098e-06	
183	-2.45000e+00	1.409178e-06	
184	-2.50000e+00	1.409256e-06	
185	-2.55000e+00	1.409334e-06	
186	-2.60000e+00	1.409409e-06	
187	-2.65000e+00	1.409483e-06	
188	-2.70000e+00	1.409556e-06	
189	-2.75000e+00	1.409628e-06	
190	-2.80000e+00	1.409698e-06	
191	-2.85000e+00	1.409768e-06	
192	-2.90000e+00	1.409837e-06	
193	-2.95000e+00	1.409905e-06	
194	-3.00000e+00	1.409973e-06	
195	-3.05000e+00	1.410041e-06	
196	-3.10000e+00	1.410109e-06	
197	-3.15000e+00	1.410178e-06	
198	-3.20000e+00	1.410248e-06	
199	-3.25000e+00	1.410320e-06	
200	-3.30000e+00	1.410394e-06	
201	0.000000e+00	-7.78483e-22	
202	-5.00000e-02	2.909480e-07	
203	-1.00000e-01	5.672258e-07	
204	-1.50000e-01	8.288384e-07	
205	-2.00000e-01	1.075791e-06	
206	-2.50000e-01	1.308090e-06	
207	-3.00000e-01	1.525742e-06	
208	-3.50000e-01	1.728753e-06	
209	-4.00000e-01	1.917132e-06	
210	-4.50000e-01	2.090891e-06	
211	-5.00000e-01	2.250043e-06	
212	-5.50000e-01	2.394605e-06	
213	-6.00000e-01	2.524606e-06	
214	-6.50000e-01	2.640083e-06	
215	-7.00000e-01	2.741097e-06	
216	-7.50000e-01	2.827752e-06	
217	-8.00000e-01	2.900222e-06	
218	-8.50000e-01	2.958824e-06	
219	-9.00000e-01	3.004138e-06	
220	-9.50000e-01	3.037208e-06	
221	-1.00000e+00	3.059749e-06	
222	-1.05000e+00	3.074139e-06	
223	-1.10000e+00	3.082961e-06	
224	-1.15000e+00	3.088370e-06	
225	-1.20000e+00	3.091807e-06	
226	-1.25000e+00	3.094116e-06	
227	-1.30000e+00	3.095762e-06	
228	-1.35000e+00	3.097002e-06	

Index   v-sweep         i(vds)          
--------------------------------------------------------------------------------
229	-1.40000e+00	3.097980e-06	
230	-1.45000e+00	3.098781e-06	
231	-1.50000e+00	3.099459e-06	
232	-1.55000e+00	3.100046e-06	
233	-1.60000e+00	3.100565e-06	
234	-1.65000e+00	3.101031e-06	
235	-1.70000e+00	3.101455e-06	
236	-1.75000e+00	3.101844e-06	
237	-1.80000e+00	3.102205e-06	
238	-1.85000e+00	3.102541e-06	
239	-1.90000e+00	3.102857e-06	
240	-1.95000e+00	3.103156e-06	
241	-2.00000e+00	3.103438e-06	
242	-2.05000e+00	3.103707e-06	
243	-2.10000e+00	3.103964e-06	
244	-2.15000e+00	3.104210e-06	
245	-2.20000e+00	3.104446e-06	
246	-2.25000e+00	3.104673e-06	
247	-2.30000e+00	3.104892e-06	
248	-2.35000e+00	3.105104e-06	
249	-2.40000e+00	3.105308e-06	
250	-2.45000e+00	3.105506e-06	
251	-2.50000e+00	3.105699e-06	
252	-2.55000e+00	3.105885e-06	
253	-2.60000e+00	3.106067e-06	
254	-2.65000e+00	3.106244e-06	
255	-2.70000e+00	3.106417e-06	
256	-2.75000e+00	3.106585e-06	
257	-2.80000e+00	3.106749e-06	
258	-2.85000e+00	3.106910e-06	
259	-2.90000e+00	3.107067e-06	
260	-2.95000e+00	3.107221e-06	
261	-3.00000e+00	3.107372e-06	
262	-3.05000e+00	3.107520e-06	
263	-3.10000e+00	3.107665e-06	
264	-3.15000e+00	3.107808e-06	
265	-3.20000e+00	3.107949e-06	
266	-3.25000e+00	3.108088e-06	
267	-3.30000e+00	3.108225e-06	
268	0.000000e+00	-1.04106e-21	
269	-5.00000e-02	3.693668e-07	
270	-1.00000e-01	7.252685e-07	
271	-1.50000e-01	1.067709e-06	
272	-2.00000e-01	1.396693e-06	
273	-2.50000e-01	1.712223e-06	
274	-3.00000e-01	2.014304e-06	
275	-3.50000e-01	2.302940e-06	
276	-4.00000e-01	2.578135e-06	
277	-4.50000e-01	2.839895e-06	
278	-5.00000e-01	3.088224e-06	
279	-5.50000e-01	3.323128e-06	
280	-6.00000e-01	3.544613e-06	
281	-6.50000e-01	3.752686e-06	
282	-7.00000e-01	3.947354e-06	
283	-7.50000e-01	4.128628e-06	
284	-8.00000e-01	4.296520e-06	
285	-8.50000e-01	4.451045e-06	
286	-9.00000e-01	4.592225e-06	

Index   v-sweep         i(vds)          
--------------------------------------------------------------------------------
287	-9.50000e-01	4.720090e-06	
288	-1.00000e+00	4.834681e-06	
289	-1.05000e+00	4.936066e-06	
290	-1.10000e+00	5.024344e-06	
291	-1.15000e+00	5.099681e-06	
292	-1.20000e+00	5.162351e-06	
293	-1.25000e+00	5.212813e-06	
294	-1.30000e+00	5.251829e-06	
295	-1.35000e+00	5.280596e-06	
296	-1.40000e+00	5.300794e-06	
297	-1.45000e+00	5.314435e-06	
298	-1.50000e+00	5.323492e-06	
299	-1.55000e+00	5.329562e-06	
300	-1.60000e+00	5.333759e-06	
301	-1.65000e+00	5.336785e-06	
302	-1.70000e+00	5.339065e-06	
303	-1.75000e+00	5.340857e-06	
304	-1.80000e+00	5.342315e-06	
305	-1.85000e+00	5.343540e-06	
306	-1.90000e+00	5.344593e-06	
307	-1.95000e+00	5.345517e-06	
308	-2.00000e+00	5.346342e-06	
309	-2.05000e+00	5.347088e-06	
310	-2.10000e+00	5.347770e-06	
311	-2.15000e+00	5.348399e-06	
312	-2.20000e+00	5.348984e-06	
313	-2.25000e+00	5.349532e-06	
314	-2.30000e+00	5.350047e-06	
315	-2.35000e+00	5.350534e-06	
316	-2.40000e+00	5.350995e-06	
317	-2.45000e+00	5.351435e-06	
318	-2.50000e+00	5.351856e-06	
319	-2.55000e+00	5.352258e-06	
320	-2.60000e+00	5.352644e-06	
321	-2.65000e+00	5.353016e-06	
322	-2.70000e+00	5.353375e-06	
323	-2.75000e+00	5.353721e-06	
324	-2.80000e+00	5.354056e-06	
325	-2.85000e+00	5.354380e-06	
326	-2.90000e+00	5.354695e-06	
327	-2.95000e+00	5.355000e-06	
328	-3.00000e+00	5.355298e-06	
329	-3.05000e+00	5.355587e-06	
330	-3.10000e+00	5.355869e-06	
331	-3.15000e+00	5.356143e-06	
332	-3.20000e+00	5.356412e-06	
333	-3.25000e+00	5.356674e-06	
334	-3.30000e+00	5.356930e-06	
335	0.000000e+00	2.238217e-22	
336	-5.00000e-02	4.350670e-07	
337	-1.00000e-01	8.578732e-07	
338	-1.50000e-01	1.268422e-06	
339	-2.00000e-01	1.666716e-06	
340	-2.50000e-01	2.052759e-06	
341	-3.00000e-01	2.426555e-06	
342	-3.50000e-01	2.788106e-06	
343	-4.00000e-01	3.137416e-06	
344	-4.50000e-01	3.474488e-06	

Index   v-sweep         i(vds)          
--------------------------------------------------------------------------------
345	-5.00000e-01	3.799326e-06	
346	-5.50000e-01	4.111934e-06	
347	-6.00000e-01	4.412315e-06	
348	-6.50000e-01	4.700472e-06	
349	-7.00000e-01	4.976411e-06	
350	-7.50000e-01	5.240134e-06	
351	-8.00000e-01	5.491647e-06	
352	-8.50000e-01	5.730955e-06	
353	-9.00000e-01	5.958062e-06	
354	-9.50000e-01	6.172975e-06	
355	-1.00000e+00	6.375700e-06	
356	-1.05000e+00	6.566246e-06	
357	-1.10000e+00	6.744621e-06	
358	-1.15000e+00	6.910838e-06	
359	-1.20000e+00	7.064911e-06	
360	-1.25000e+00	7.206860e-06	
361	-1.30000e+00	7.336712e-06	
362	-1.35000e+00	7.454503e-06	
363	-1.40000e+00	7.560287e-06	
364	-1.45000e+00	7.654143e-06	
365	-1.50000e+00	7.736191e-06	
366	-1.55000e+00	7.806617e-06	
367	-1.60000e+00	7.865717e-06	
368	-1.65000e+00	7.913955e-06	
369	-1.70000e+00	7.952048e-06	
370	-1.75000e+00	7.981044e-06	
371	-1.80000e+00	8.002331e-06	
372	-1.85000e+00	8.017524e-06	
373	-1.90000e+00	8.028228e-06	
374	-1.95000e+00	8.035812e-06	
375	-2.00000e+00	8.041302e-06	
376	-2.05000e+00	8.045402e-06	
377	-2.10000e+00	8.048573e-06	
378	-2.15000e+00	8.051109e-06	
379	-2.20000e+00	8.053201e-06	
380	-2.25000e+00	8.054971e-06	
381	-2.30000e+00	8.056502e-06	
382	-2.35000e+00	8.057852e-06	
383	-2.40000e+00	8.059060e-06	
384	-2.45000e+00	8.060155e-06	
385	-2.50000e+00	8.061156e-06	
386	-2.55000e+00	8.062082e-06	
387	-2.60000e+00	8.062942e-06	
388	-2.65000e+00	8.063747e-06	
389	-2.70000e+00	8.064505e-06	
390	-2.75000e+00	8.065221e-06	
391	-2.80000e+00	8.065901e-06	
392	-2.85000e+00	8.066548e-06	
393	-2.90000e+00	8.067166e-06	
394	-2.95000e+00	8.067758e-06	
395	-3.00000e+00	8.068325e-06	
396	-3.05000e+00	8.068872e-06	
397	-3.10000e+00	8.069398e-06	
398	-3.15000e+00	8.069906e-06	
399	-3.20000e+00	8.070398e-06	
400	-3.25000e+00	8.070873e-06	
401	-3.30000e+00	8.071335e-06	
Note: No ".plot", ".print", or ".fourier" lines; no simulations run
