
Note: Compatibility modes selected: hs

Warning: m=xx on .subckt line will override multiplier m hierarchy!


Circuit: ***************************

Doing analysis at TEMP = 125.000000 and TNOM = 125.000000


No. of Data Rows : 402
                          ***************************
                          DC transfer characteristic  Mon Jan  9 13:58:24  2023
--------------------------------------------------------------------------------
Index   v-sweep         i(vds)          
--------------------------------------------------------------------------------
0	0.000000e+00	-8.17638e-22	
1	-5.00000e-02	1.590932e-06	
2	-1.00000e-01	2.479356e-06	
3	-1.50000e-01	2.837917e-06	
4	-2.00000e-01	2.938189e-06	
5	-2.50000e-01	2.969318e-06	
6	-3.00000e-01	2.983914e-06	
7	-3.50000e-01	2.993315e-06	
8	-4.00000e-01	3.000538e-06	
9	-4.50000e-01	3.006619e-06	
10	-5.00000e-01	3.011997e-06	
11	-5.50000e-01	3.016889e-06	
12	-6.00000e-01	3.021417e-06	
13	-6.50000e-01	3.025657e-06	
14	-7.00000e-01	3.029661e-06	
15	-7.50000e-01	3.033464e-06	
16	-8.00000e-01	3.037094e-06	
17	-8.50000e-01	3.040573e-06	
18	-9.00000e-01	3.043917e-06	
19	-9.50000e-01	3.047140e-06	
20	-1.00000e+00	3.050254e-06	
21	-1.05000e+00	3.053269e-06	
22	-1.10000e+00	3.056194e-06	
23	-1.15000e+00	3.059035e-06	
24	-1.20000e+00	3.061799e-06	
25	-1.25000e+00	3.064493e-06	
26	-1.30000e+00	3.067120e-06	
27	-1.35000e+00	3.069685e-06	
28	-1.40000e+00	3.072193e-06	
29	-1.45000e+00	3.074647e-06	
30	-1.50000e+00	3.077050e-06	
31	-1.55000e+00	3.079406e-06	
32	-1.60000e+00	3.081716e-06	
33	-1.65000e+00	3.083984e-06	
34	-1.70000e+00	3.086212e-06	
35	-1.75000e+00	3.088402e-06	
36	-1.80000e+00	3.090556e-06	
37	-1.85000e+00	3.092676e-06	
38	-1.90000e+00	3.094763e-06	
39	-1.95000e+00	3.096819e-06	
40	-2.00000e+00	3.098846e-06	
41	-2.05000e+00	3.100845e-06	
42	-2.10000e+00	3.102817e-06	
43	-2.15000e+00	3.104764e-06	
44	-2.20000e+00	3.106688e-06	
45	-2.25000e+00	3.108589e-06	
46	-2.30000e+00	3.110470e-06	
47	-2.35000e+00	3.112333e-06	
48	-2.40000e+00	3.114179e-06	
49	-2.45000e+00	3.116010e-06	
50	-2.50000e+00	3.117830e-06	
51	-2.55000e+00	3.119641e-06	
52	-2.60000e+00	3.121446e-06	
53	-2.65000e+00	3.123251e-06	
54	-2.70000e+00	3.125059e-06	

Index   v-sweep         i(vds)          
--------------------------------------------------------------------------------
55	-2.75000e+00	3.126876e-06	
56	-2.80000e+00	3.128708e-06	
57	-2.85000e+00	3.130564e-06	
58	-2.90000e+00	3.132451e-06	
59	-2.95000e+00	3.134380e-06	
60	-3.00000e+00	3.136362e-06	
61	-3.05000e+00	3.138409e-06	
62	-3.10000e+00	3.140536e-06	
63	-3.15000e+00	3.142760e-06	
64	-3.20000e+00	3.145098e-06	
65	-3.25000e+00	3.147571e-06	
66	-3.30000e+00	3.150202e-06	
67	0.000000e+00	2.383089e-25	
68	-5.00000e-02	8.017700e-06	
69	-1.00000e-01	1.512806e-05	
70	-1.50000e-01	2.138807e-05	
71	-2.00000e-01	2.681390e-05	
72	-2.50000e-01	3.141311e-05	
73	-3.00000e-01	3.519347e-05	
74	-3.50000e-01	3.816798e-05	
75	-4.00000e-01	4.036372e-05	
76	-4.50000e-01	4.184155e-05	
77	-5.00000e-01	4.272712e-05	
78	-5.50000e-01	4.321230e-05	
79	-6.00000e-01	4.348219e-05	
80	-6.50000e-01	4.365087e-05	
81	-7.00000e-01	4.377159e-05	
82	-7.50000e-01	4.386728e-05	
83	-8.00000e-01	4.394827e-05	
84	-8.50000e-01	4.401964e-05	
85	-9.00000e-01	4.408415e-05	
86	-9.50000e-01	4.414344e-05	
87	-1.00000e+00	4.419855e-05	
88	-1.05000e+00	4.425022e-05	
89	-1.10000e+00	4.429895e-05	
90	-1.15000e+00	4.434515e-05	
91	-1.20000e+00	4.438912e-05	
92	-1.25000e+00	4.443110e-05	
93	-1.30000e+00	4.447131e-05	
94	-1.35000e+00	4.450991e-05	
95	-1.40000e+00	4.454705e-05	
96	-1.45000e+00	4.458285e-05	
97	-1.50000e+00	4.461741e-05	
98	-1.55000e+00	4.465084e-05	
99	-1.60000e+00	4.468322e-05	
100	-1.65000e+00	4.471461e-05	
101	-1.70000e+00	4.474509e-05	
102	-1.75000e+00	4.477471e-05	
103	-1.80000e+00	4.480353e-05	
104	-1.85000e+00	4.483160e-05	
105	-1.90000e+00	4.485895e-05	
106	-1.95000e+00	4.488564e-05	
107	-2.00000e+00	4.491170e-05	
108	-2.05000e+00	4.493716e-05	
109	-2.10000e+00	4.496205e-05	
110	-2.15000e+00	4.498641e-05	
111	-2.20000e+00	4.501025e-05	
112	-2.25000e+00	4.503361e-05	

Index   v-sweep         i(vds)          
--------------------------------------------------------------------------------
113	-2.30000e+00	4.505651e-05	
114	-2.35000e+00	4.507896e-05	
115	-2.40000e+00	4.510100e-05	
116	-2.45000e+00	4.512264e-05	
117	-2.50000e+00	4.514391e-05	
118	-2.55000e+00	4.516482e-05	
119	-2.60000e+00	4.518540e-05	
120	-2.65000e+00	4.520567e-05	
121	-2.70000e+00	4.522566e-05	
122	-2.75000e+00	4.524540e-05	
123	-2.80000e+00	4.526491e-05	
124	-2.85000e+00	4.528425e-05	
125	-2.90000e+00	4.530345e-05	
126	-2.95000e+00	4.532256e-05	
127	-3.00000e+00	4.534164e-05	
128	-3.05000e+00	4.536076e-05	
129	-3.10000e+00	4.538001e-05	
130	-3.15000e+00	4.539947e-05	
131	-3.20000e+00	4.541925e-05	
132	-3.25000e+00	4.543949e-05	
133	-3.30000e+00	4.546032e-05	
134	0.000000e+00	-3.91413e-25	
135	-5.00000e-02	1.382904e-05	
136	-1.00000e-01	2.678639e-05	
137	-1.50000e-01	3.892747e-05	
138	-2.00000e-01	5.026684e-05	
139	-2.50000e-01	6.080946e-05	
140	-3.00000e-01	7.055804e-05	
141	-3.50000e-01	7.951486e-05	
142	-4.00000e-01	8.768224e-05	
143	-4.50000e-01	9.506275e-05	
144	-5.00000e-01	1.016594e-04	
145	-5.50000e-01	1.074760e-04	
146	-6.00000e-01	1.125180e-04	
147	-6.50000e-01	1.167933e-04	
148	-7.00000e-01	1.203155e-04	
149	-7.50000e-01	1.231089e-04	
150	-8.00000e-01	1.252186e-04	
151	-8.50000e-01	1.267242e-04	
152	-9.00000e-01	1.277476e-04	
153	-9.50000e-01	1.284338e-04	
154	-1.00000e+00	1.289109e-04	
155	-1.05000e+00	1.292662e-04	
156	-1.10000e+00	1.295499e-04	
157	-1.15000e+00	1.297890e-04	
158	-1.20000e+00	1.299984e-04	
159	-1.25000e+00	1.301866e-04	
160	-1.30000e+00	1.303587e-04	
161	-1.35000e+00	1.305180e-04	
162	-1.40000e+00	1.306668e-04	
163	-1.45000e+00	1.308067e-04	
164	-1.50000e+00	1.309390e-04	
165	-1.55000e+00	1.310647e-04	
166	-1.60000e+00	1.311843e-04	
167	-1.65000e+00	1.312987e-04	
168	-1.70000e+00	1.314083e-04	
169	-1.75000e+00	1.315135e-04	
170	-1.80000e+00	1.316148e-04	

Index   v-sweep         i(vds)          
--------------------------------------------------------------------------------
171	-1.85000e+00	1.317124e-04	
172	-1.90000e+00	1.318066e-04	
173	-1.95000e+00	1.318977e-04	
174	-2.00000e+00	1.319858e-04	
175	-2.05000e+00	1.320713e-04	
176	-2.10000e+00	1.321543e-04	
177	-2.15000e+00	1.322349e-04	
178	-2.20000e+00	1.323132e-04	
179	-2.25000e+00	1.323895e-04	
180	-2.30000e+00	1.324638e-04	
181	-2.35000e+00	1.325362e-04	
182	-2.40000e+00	1.326068e-04	
183	-2.45000e+00	1.326758e-04	
184	-2.50000e+00	1.327432e-04	
185	-2.55000e+00	1.328091e-04	
186	-2.60000e+00	1.328736e-04	
187	-2.65000e+00	1.329367e-04	
188	-2.70000e+00	1.329985e-04	
189	-2.75000e+00	1.330590e-04	
190	-2.80000e+00	1.331184e-04	
191	-2.85000e+00	1.331767e-04	
192	-2.90000e+00	1.332339e-04	
193	-2.95000e+00	1.332901e-04	
194	-3.00000e+00	1.333454e-04	
195	-3.05000e+00	1.333999e-04	
196	-3.10000e+00	1.334536e-04	
197	-3.15000e+00	1.335066e-04	
198	-3.20000e+00	1.335590e-04	
199	-3.25000e+00	1.336109e-04	
200	-3.30000e+00	1.336625e-04	
201	0.000000e+00	-2.18097e-25	
202	-5.00000e-02	1.884195e-05	
203	-1.00000e-01	3.686643e-05	
204	-1.50000e-01	5.412804e-05	
205	-2.00000e-01	7.064096e-05	
206	-2.50000e-01	8.640975e-05	
207	-3.00000e-01	1.014367e-04	
208	-3.50000e-01	1.157235e-04	
209	-4.00000e-01	1.292717e-04	
210	-4.50000e-01	1.420831e-04	
211	-5.00000e-01	1.541592e-04	
212	-5.50000e-01	1.655017e-04	
213	-6.00000e-01	1.761124e-04	
214	-6.50000e-01	1.859929e-04	
215	-7.00000e-01	1.951454e-04	
216	-7.50000e-01	2.035719e-04	
217	-8.00000e-01	2.112747e-04	
218	-8.50000e-01	2.182568e-04	
219	-9.00000e-01	2.245218e-04	
220	-9.50000e-01	2.300745e-04	
221	-1.00000e+00	2.349217e-04	
222	-1.05000e+00	2.390742e-04	
223	-1.10000e+00	2.425492e-04	
224	-1.15000e+00	2.453752e-04	
225	-1.20000e+00	2.475995e-04	
226	-1.25000e+00	2.492951e-04	
227	-1.30000e+00	2.505609e-04	
228	-1.35000e+00	2.515075e-04	

Index   v-sweep         i(vds)          
--------------------------------------------------------------------------------
229	-1.40000e+00	2.522349e-04	
230	-1.45000e+00	2.528180e-04	
231	-1.50000e+00	2.533060e-04	
232	-1.55000e+00	2.537290e-04	
233	-1.60000e+00	2.541058e-04	
234	-1.65000e+00	2.544478e-04	
235	-1.70000e+00	2.547626e-04	
236	-1.75000e+00	2.550552e-04	
237	-1.80000e+00	2.553295e-04	
238	-1.85000e+00	2.555879e-04	
239	-1.90000e+00	2.558326e-04	
240	-1.95000e+00	2.560653e-04	
241	-2.00000e+00	2.562872e-04	
242	-2.05000e+00	2.564994e-04	
243	-2.10000e+00	2.567029e-04	
244	-2.15000e+00	2.568984e-04	
245	-2.20000e+00	2.570865e-04	
246	-2.25000e+00	2.572679e-04	
247	-2.30000e+00	2.574431e-04	
248	-2.35000e+00	2.576125e-04	
249	-2.40000e+00	2.577765e-04	
250	-2.45000e+00	2.579355e-04	
251	-2.50000e+00	2.580897e-04	
252	-2.55000e+00	2.582396e-04	
253	-2.60000e+00	2.583853e-04	
254	-2.65000e+00	2.585271e-04	
255	-2.70000e+00	2.586653e-04	
256	-2.75000e+00	2.587999e-04	
257	-2.80000e+00	2.589312e-04	
258	-2.85000e+00	2.590595e-04	
259	-2.90000e+00	2.591847e-04	
260	-2.95000e+00	2.593071e-04	
261	-3.00000e+00	2.594268e-04	
262	-3.05000e+00	2.595440e-04	
263	-3.10000e+00	2.596587e-04	
264	-3.15000e+00	2.597711e-04	
265	-3.20000e+00	2.598813e-04	
266	-3.25000e+00	2.599894e-04	
267	-3.30000e+00	2.600955e-04	
268	0.000000e+00	-3.33900e-24	
269	-5.00000e-02	2.319154e-05	
270	-1.00000e-01	4.562010e-05	
271	-1.50000e-01	6.733966e-05	
272	-2.00000e-01	8.836414e-05	
273	-2.50000e-01	1.086979e-04	
274	-3.00000e-01	1.283429e-04	
275	-3.50000e-01	1.473007e-04	
276	-4.00000e-01	1.655727e-04	
277	-4.50000e-01	1.831601e-04	
278	-5.00000e-01	2.000644e-04	
279	-5.50000e-01	2.162869e-04	
280	-6.00000e-01	2.318289e-04	
281	-6.50000e-01	2.466918e-04	
282	-7.00000e-01	2.608770e-04	
283	-7.50000e-01	2.743858e-04	
284	-8.00000e-01	2.872197e-04	
285	-8.50000e-01	2.993801e-04	
286	-9.00000e-01	3.108685e-04	

Index   v-sweep         i(vds)          
--------------------------------------------------------------------------------
287	-9.50000e-01	3.216864e-04	
288	-1.00000e+00	3.318355e-04	
289	-1.05000e+00	3.413175e-04	
290	-1.10000e+00	3.501342e-04	
291	-1.15000e+00	3.582877e-04	
292	-1.20000e+00	3.657806e-04	
293	-1.25000e+00	3.726158e-04	
294	-1.30000e+00	3.787971e-04	
295	-1.35000e+00	3.843297e-04	
296	-1.40000e+00	3.892208e-04	
297	-1.45000e+00	3.934814e-04	
298	-1.50000e+00	3.971281e-04	
299	-1.55000e+00	4.001871e-04	
300	-1.60000e+00	4.026984e-04	
301	-1.65000e+00	4.047200e-04	
302	-1.70000e+00	4.063282e-04	
303	-1.75000e+00	4.076095e-04	
304	-1.80000e+00	4.086471e-04	
305	-1.85000e+00	4.095102e-04	
306	-1.90000e+00	4.102491e-04	
307	-1.95000e+00	4.108986e-04	
308	-2.00000e+00	4.114815e-04	
309	-2.05000e+00	4.120130e-04	
310	-2.10000e+00	4.125037e-04	
311	-2.15000e+00	4.129608e-04	
312	-2.20000e+00	4.133895e-04	
313	-2.25000e+00	4.137940e-04	
314	-2.30000e+00	4.141773e-04	
315	-2.35000e+00	4.145419e-04	
316	-2.40000e+00	4.148897e-04	
317	-2.45000e+00	4.152225e-04	
318	-2.50000e+00	4.155416e-04	
319	-2.55000e+00	4.158483e-04	
320	-2.60000e+00	4.161435e-04	
321	-2.65000e+00	4.164281e-04	
322	-2.70000e+00	4.167030e-04	
323	-2.75000e+00	4.169688e-04	
324	-2.80000e+00	4.172262e-04	
325	-2.85000e+00	4.174757e-04	
326	-2.90000e+00	4.177178e-04	
327	-2.95000e+00	4.179529e-04	
328	-3.00000e+00	4.181816e-04	
329	-3.05000e+00	4.184041e-04	
330	-3.10000e+00	4.186208e-04	
331	-3.15000e+00	4.188320e-04	
332	-3.20000e+00	4.190380e-04	
333	-3.25000e+00	4.192390e-04	
334	-3.30000e+00	4.194354e-04	
335	0.000000e+00	6.035275e-24	
336	-5.00000e-02	2.699281e-05	
337	-1.00000e-01	5.327369e-05	
338	-1.50000e-01	7.889609e-05	
339	-2.00000e-01	1.038737e-04	
340	-2.50000e-01	1.282107e-04	
341	-3.00000e-01	1.519090e-04	
342	-3.50000e-01	1.749699e-04	
343	-4.00000e-01	1.973946e-04	
344	-4.50000e-01	2.191843e-04	

Index   v-sweep         i(vds)          
--------------------------------------------------------------------------------
345	-5.00000e-01	2.403401e-04	
346	-5.50000e-01	2.608631e-04	
347	-6.00000e-01	2.807547e-04	
348	-6.50000e-01	3.000158e-04	
349	-7.00000e-01	3.186477e-04	
350	-7.50000e-01	3.366515e-04	
351	-8.00000e-01	3.540285e-04	
352	-8.50000e-01	3.707797e-04	
353	-9.00000e-01	3.869065e-04	
354	-9.50000e-01	4.024099e-04	
355	-1.00000e+00	4.172912e-04	
356	-1.05000e+00	4.315516e-04	
357	-1.10000e+00	4.451923e-04	
358	-1.15000e+00	4.582147e-04	
359	-1.20000e+00	4.706198e-04	
360	-1.25000e+00	4.824092e-04	
361	-1.30000e+00	4.935840e-04	
362	-1.35000e+00	5.041458e-04	
363	-1.40000e+00	5.140960e-04	
364	-1.45000e+00	5.234362e-04	
365	-1.50000e+00	5.321683e-04	
366	-1.55000e+00	5.402941e-04	
367	-1.60000e+00	5.478160e-04	
368	-1.65000e+00	5.547369e-04	
369	-1.70000e+00	5.610603e-04	
370	-1.75000e+00	5.667909e-04	
371	-1.80000e+00	5.719351e-04	
372	-1.85000e+00	5.765023e-04	
373	-1.90000e+00	5.805060e-04	
374	-1.95000e+00	5.839664e-04	
375	-2.00000e+00	5.869131e-04	
376	-2.05000e+00	5.893883e-04	
377	-2.10000e+00	5.914476e-04	
378	-2.15000e+00	5.931576e-04	
379	-2.20000e+00	5.945881e-04	
380	-2.25000e+00	5.958035e-04	
381	-2.30000e+00	5.968567e-04	
382	-2.35000e+00	5.977878e-04	
383	-2.40000e+00	5.986253e-04	
384	-2.45000e+00	5.993897e-04	
385	-2.50000e+00	6.000952e-04	
386	-2.55000e+00	6.007522e-04	
387	-2.60000e+00	6.013683e-04	
388	-2.65000e+00	6.019492e-04	
389	-2.70000e+00	6.024994e-04	
390	-2.75000e+00	6.030225e-04	
391	-2.80000e+00	6.035215e-04	
392	-2.85000e+00	6.039986e-04	
393	-2.90000e+00	6.044561e-04	
394	-2.95000e+00	6.048955e-04	
395	-3.00000e+00	6.053184e-04	
396	-3.05000e+00	6.057261e-04	
397	-3.10000e+00	6.061197e-04	
398	-3.15000e+00	6.065002e-04	
399	-3.20000e+00	6.068685e-04	
400	-3.25000e+00	6.072255e-04	
401	-3.30000e+00	6.075718e-04	
Note: No ".plot", ".print", or ".fourier" lines; no simulations run
