
Note: Compatibility modes selected: hs

Warning: m=xx on .subckt line will override multiplier m hierarchy!


Circuit: ***************************

Doing analysis at TEMP = 25.000000 and TNOM = 25.000000


No. of Data Rows : 402
                          ***************************
                          DC transfer characteristic  Mon Jan  9 13:58:23  2023
--------------------------------------------------------------------------------
Index   v-sweep         i(vds)          
--------------------------------------------------------------------------------
0	0.000000e+00	2.967896e-23	
1	-5.00000e-02	1.297618e-07	
2	-1.00000e-01	1.708417e-07	
3	-1.50000e-01	1.790210e-07	
4	-2.00000e-01	1.816930e-07	
5	-2.50000e-01	1.832959e-07	
6	-3.00000e-01	1.845557e-07	
7	-3.50000e-01	1.856549e-07	
8	-4.00000e-01	1.866585e-07	
9	-4.50000e-01	1.875956e-07	
10	-5.00000e-01	1.884822e-07	
11	-5.50000e-01	1.893281e-07	
12	-6.00000e-01	1.901399e-07	
13	-6.50000e-01	1.909226e-07	
14	-7.00000e-01	1.916799e-07	
15	-7.50000e-01	1.924148e-07	
16	-8.00000e-01	1.931298e-07	
17	-8.50000e-01	1.938268e-07	
18	-9.00000e-01	1.945075e-07	
19	-9.50000e-01	1.951735e-07	
20	-1.00000e+00	1.958260e-07	
21	-1.05000e+00	1.964661e-07	
22	-1.10000e+00	1.970948e-07	
23	-1.15000e+00	1.977129e-07	
24	-1.20000e+00	1.983213e-07	
25	-1.25000e+00	1.989207e-07	
26	-1.30000e+00	1.995115e-07	
27	-1.35000e+00	2.000945e-07	
28	-1.40000e+00	2.006701e-07	
29	-1.45000e+00	2.012388e-07	
30	-1.50000e+00	2.018011e-07	
31	-1.55000e+00	2.023572e-07	
32	-1.60000e+00	2.029075e-07	
33	-1.65000e+00	2.034524e-07	
34	-1.70000e+00	2.039922e-07	
35	-1.75000e+00	2.045272e-07	
36	-1.80000e+00	2.050576e-07	
37	-1.85000e+00	2.055837e-07	
38	-1.90000e+00	2.061056e-07	
39	-1.95000e+00	2.066237e-07	
40	-2.00000e+00	2.071381e-07	
41	-2.05000e+00	2.076490e-07	
42	-2.10000e+00	2.081567e-07	
43	-2.15000e+00	2.086613e-07	
44	-2.20000e+00	2.091631e-07	
45	-2.25000e+00	2.096623e-07	
46	-2.30000e+00	2.101591e-07	
47	-2.35000e+00	2.106538e-07	
48	-2.40000e+00	2.111467e-07	
49	-2.45000e+00	2.116381e-07	
50	-2.50000e+00	2.121284e-07	
51	-2.55000e+00	2.126180e-07	
52	-2.60000e+00	2.131074e-07	
53	-2.65000e+00	2.135971e-07	
54	-2.70000e+00	2.140877e-07	

Index   v-sweep         i(vds)          
--------------------------------------------------------------------------------
55	-2.75000e+00	2.145798e-07	
56	-2.80000e+00	2.150744e-07	
57	-2.85000e+00	2.155722e-07	
58	-2.90000e+00	2.160743e-07	
59	-2.95000e+00	2.165817e-07	
60	-3.00000e+00	2.170957e-07	
61	-3.05000e+00	2.176176e-07	
62	-3.10000e+00	2.181489e-07	
63	-3.15000e+00	2.186913e-07	
64	-3.20000e+00	2.192466e-07	
65	-3.25000e+00	2.198168e-07	
66	-3.30000e+00	2.204039e-07	
67	0.000000e+00	-1.78875e-30	
68	-5.00000e-02	1.720755e-06	
69	-1.00000e-01	3.245043e-06	
70	-1.50000e-01	4.574404e-06	
71	-2.00000e-01	5.710559e-06	
72	-2.50000e-01	6.655629e-06	
73	-3.00000e-01	7.412676e-06	
74	-3.50000e-01	7.987109e-06	
75	-4.00000e-01	8.390276e-06	
76	-4.50000e-01	8.646524e-06	
77	-5.00000e-01	8.797589e-06	
78	-5.50000e-01	8.889318e-06	
79	-6.00000e-01	8.952497e-06	
80	-6.50000e-01	9.001833e-06	
81	-7.00000e-01	9.043605e-06	
82	-7.50000e-01	9.080627e-06	
83	-8.00000e-01	9.114308e-06	
84	-8.50000e-01	9.145441e-06	
85	-9.00000e-01	9.174525e-06	
86	-9.50000e-01	9.201897e-06	
87	-1.00000e+00	9.227804e-06	
88	-1.05000e+00	9.252434e-06	
89	-1.10000e+00	9.275937e-06	
90	-1.15000e+00	9.298433e-06	
91	-1.20000e+00	9.320023e-06	
92	-1.25000e+00	9.340792e-06	
93	-1.30000e+00	9.360812e-06	
94	-1.35000e+00	9.380148e-06	
95	-1.40000e+00	9.398853e-06	
96	-1.45000e+00	9.416976e-06	
97	-1.50000e+00	9.434560e-06	
98	-1.55000e+00	9.451642e-06	
99	-1.60000e+00	9.468258e-06	
100	-1.65000e+00	9.484438e-06	
101	-1.70000e+00	9.500209e-06	
102	-1.75000e+00	9.515597e-06	
103	-1.80000e+00	9.530625e-06	
104	-1.85000e+00	9.545312e-06	
105	-1.90000e+00	9.559679e-06	
106	-1.95000e+00	9.573743e-06	
107	-2.00000e+00	9.587520e-06	
108	-2.05000e+00	9.601025e-06	
109	-2.10000e+00	9.614272e-06	
110	-2.15000e+00	9.627273e-06	
111	-2.20000e+00	9.640041e-06	
112	-2.25000e+00	9.652587e-06	

Index   v-sweep         i(vds)          
--------------------------------------------------------------------------------
113	-2.30000e+00	9.664921e-06	
114	-2.35000e+00	9.677054e-06	
115	-2.40000e+00	9.688996e-06	
116	-2.45000e+00	9.700756e-06	
117	-2.50000e+00	9.712345e-06	
118	-2.55000e+00	9.723772e-06	
119	-2.60000e+00	9.735047e-06	
120	-2.65000e+00	9.746181e-06	
121	-2.70000e+00	9.757186e-06	
122	-2.75000e+00	9.768075e-06	
123	-2.80000e+00	9.778862e-06	
124	-2.85000e+00	9.789562e-06	
125	-2.90000e+00	9.800192e-06	
126	-2.95000e+00	9.810774e-06	
127	-3.00000e+00	9.821329e-06	
128	-3.05000e+00	9.831882e-06	
129	-3.10000e+00	9.842463e-06	
130	-3.15000e+00	9.853104e-06	
131	-3.20000e+00	9.863842e-06	
132	-3.25000e+00	9.874717e-06	
133	-3.30000e+00	9.885776e-06	
134	0.000000e+00	1.223824e-30	
135	-5.00000e-02	3.146338e-06	
136	-1.00000e-01	6.104259e-06	
137	-1.50000e-01	8.874819e-06	
138	-2.00000e-01	1.145908e-05	
139	-2.50000e-01	1.385811e-05	
140	-3.00000e-01	1.607299e-05	
141	-3.50000e-01	1.810484e-05	
142	-4.00000e-01	1.995481e-05	
143	-4.50000e-01	2.162412e-05	
144	-5.00000e-01	2.311411e-05	
145	-5.50000e-01	2.442635e-05	
146	-6.00000e-01	2.556281e-05	
147	-6.50000e-01	2.652623e-05	
148	-7.00000e-01	2.732094e-05	
149	-7.50000e-01	2.795438e-05	
150	-8.00000e-01	2.843978e-05	
151	-8.50000e-01	2.879915e-05	
152	-9.00000e-01	2.906269e-05	
153	-9.50000e-01	2.926177e-05	
154	-1.00000e+00	2.942069e-05	
155	-1.05000e+00	2.955466e-05	
156	-1.10000e+00	2.967223e-05	
157	-1.15000e+00	2.977821e-05	
158	-1.20000e+00	2.987541e-05	
159	-1.25000e+00	2.996564e-05	
160	-1.30000e+00	3.005009e-05	
161	-1.35000e+00	3.012964e-05	
162	-1.40000e+00	3.020493e-05	
163	-1.45000e+00	3.027649e-05	
164	-1.50000e+00	3.034471e-05	
165	-1.55000e+00	3.040996e-05	
166	-1.60000e+00	3.047250e-05	
167	-1.65000e+00	3.053258e-05	
168	-1.70000e+00	3.059042e-05	
169	-1.75000e+00	3.064619e-05	
170	-1.80000e+00	3.070006e-05	

Index   v-sweep         i(vds)          
--------------------------------------------------------------------------------
171	-1.85000e+00	3.075217e-05	
172	-1.90000e+00	3.080265e-05	
173	-1.95000e+00	3.085160e-05	
174	-2.00000e+00	3.089913e-05	
175	-2.05000e+00	3.094533e-05	
176	-2.10000e+00	3.099028e-05	
177	-2.15000e+00	3.103406e-05	
178	-2.20000e+00	3.107673e-05	
179	-2.25000e+00	3.111836e-05	
180	-2.30000e+00	3.115900e-05	
181	-2.35000e+00	3.119871e-05	
182	-2.40000e+00	3.123754e-05	
183	-2.45000e+00	3.127553e-05	
184	-2.50000e+00	3.131272e-05	
185	-2.55000e+00	3.134915e-05	
186	-2.60000e+00	3.138486e-05	
187	-2.65000e+00	3.141988e-05	
188	-2.70000e+00	3.145425e-05	
189	-2.75000e+00	3.148800e-05	
190	-2.80000e+00	3.152115e-05	
191	-2.85000e+00	3.155374e-05	
192	-2.90000e+00	3.158579e-05	
193	-2.95000e+00	3.161735e-05	
194	-3.00000e+00	3.164843e-05	
195	-3.05000e+00	3.167908e-05	
196	-3.10000e+00	3.170933e-05	
197	-3.15000e+00	3.173923e-05	
198	-3.20000e+00	3.176881e-05	
199	-3.25000e+00	3.179813e-05	
200	-3.30000e+00	3.182725e-05	
201	0.000000e+00	-6.86352e-31	
202	-5.00000e-02	4.304464e-06	
203	-1.00000e-01	8.433746e-06	
204	-1.50000e-01	1.238867e-05	
205	-2.00000e-01	1.617008e-05	
206	-2.50000e-01	1.977879e-05	
207	-3.00000e-01	2.321565e-05	
208	-3.50000e-01	2.648149e-05	
209	-4.00000e-01	2.957714e-05	
210	-4.50000e-01	3.250345e-05	
211	-5.00000e-01	3.526128e-05	
212	-5.50000e-01	3.785148e-05	
213	-6.00000e-01	4.027491e-05	
214	-6.50000e-01	4.253248e-05	
215	-7.00000e-01	4.462511e-05	
216	-7.50000e-01	4.655376e-05	
217	-8.00000e-01	4.831947e-05	
218	-8.50000e-01	4.992339e-05	
219	-9.00000e-01	5.136688e-05	
220	-9.50000e-01	5.265160e-05	
221	-1.00000e+00	5.377980e-05	
222	-1.05000e+00	5.475475e-05	
223	-1.10000e+00	5.558152e-05	
224	-1.15000e+00	5.626830e-05	
225	-1.20000e+00	5.682799e-05	
226	-1.25000e+00	5.727922e-05	
227	-1.30000e+00	5.764479e-05	
228	-1.35000e+00	5.794745e-05	

Index   v-sweep         i(vds)          
--------------------------------------------------------------------------------
229	-1.40000e+00	5.820576e-05	
230	-1.45000e+00	5.843273e-05	
231	-1.50000e+00	5.863681e-05	
232	-1.55000e+00	5.882342e-05	
233	-1.60000e+00	5.899612e-05	
234	-1.65000e+00	5.915734e-05	
235	-1.70000e+00	5.930886e-05	
236	-1.75000e+00	5.945199e-05	
237	-1.80000e+00	5.958775e-05	
238	-1.85000e+00	5.971699e-05	
239	-1.90000e+00	5.984038e-05	
240	-1.95000e+00	5.995847e-05	
241	-2.00000e+00	6.007177e-05	
242	-2.05000e+00	6.018068e-05	
243	-2.10000e+00	6.028556e-05	
244	-2.15000e+00	6.038673e-05	
245	-2.20000e+00	6.048447e-05	
246	-2.25000e+00	6.057902e-05	
247	-2.30000e+00	6.067060e-05	
248	-2.35000e+00	6.075941e-05	
249	-2.40000e+00	6.084564e-05	
250	-2.45000e+00	6.092943e-05	
251	-2.50000e+00	6.101094e-05	
252	-2.55000e+00	6.109031e-05	
253	-2.60000e+00	6.116765e-05	
254	-2.65000e+00	6.124307e-05	
255	-2.70000e+00	6.131668e-05	
256	-2.75000e+00	6.138857e-05	
257	-2.80000e+00	6.145883e-05	
258	-2.85000e+00	6.152754e-05	
259	-2.90000e+00	6.159478e-05	
260	-2.95000e+00	6.166062e-05	
261	-3.00000e+00	6.172512e-05	
262	-3.05000e+00	6.178835e-05	
263	-3.10000e+00	6.185036e-05	
264	-3.15000e+00	6.191121e-05	
265	-3.20000e+00	6.197097e-05	
266	-3.25000e+00	6.202968e-05	
267	-3.30000e+00	6.208741e-05	
268	0.000000e+00	-1.39753e-30	
269	-5.00000e-02	5.249511e-06	
270	-1.00000e-01	1.033721e-05	
271	-1.50000e-01	1.526375e-05	
272	-2.00000e-01	2.002983e-05	
273	-2.50000e-01	2.463610e-05	
274	-3.00000e-01	2.908325e-05	
275	-3.50000e-01	3.337194e-05	
276	-4.00000e-01	3.750285e-05	
277	-4.50000e-01	4.147665e-05	
278	-5.00000e-01	4.529403e-05	
279	-5.50000e-01	4.895566e-05	
280	-6.00000e-01	5.246222e-05	
281	-6.50000e-01	5.581439e-05	
282	-7.00000e-01	5.901286e-05	
283	-7.50000e-01	6.205832e-05	
284	-8.00000e-01	6.495146e-05	
285	-8.50000e-01	6.769299e-05	
286	-9.00000e-01	7.028361e-05	

Index   v-sweep         i(vds)          
--------------------------------------------------------------------------------
287	-9.50000e-01	7.272405e-05	
288	-1.00000e+00	7.501506e-05	
289	-1.05000e+00	7.715741e-05	
290	-1.10000e+00	7.915191e-05	
291	-1.15000e+00	8.099944e-05	
292	-1.20000e+00	8.270098e-05	
293	-1.25000e+00	8.425766e-05	
294	-1.30000e+00	8.567086e-05	
295	-1.35000e+00	8.694234e-05	
296	-1.40000e+00	8.807455e-05	
297	-1.45000e+00	8.907104e-05	
298	-1.50000e+00	8.993716e-05	
299	-1.55000e+00	9.068098e-05	
300	-1.60000e+00	9.131416e-05	
301	-1.65000e+00	9.185207e-05	
302	-1.70000e+00	9.231231e-05	
303	-1.75000e+00	9.271207e-05	
304	-1.80000e+00	9.306579e-05	
305	-1.85000e+00	9.338436e-05	
306	-1.90000e+00	9.367549e-05	
307	-1.95000e+00	9.394458e-05	
308	-2.00000e+00	9.419547e-05	
309	-2.05000e+00	9.443096e-05	
310	-2.10000e+00	9.465316e-05	
311	-2.15000e+00	9.486372e-05	
312	-2.20000e+00	9.506396e-05	
313	-2.25000e+00	9.525497e-05	
314	-2.30000e+00	9.543765e-05	
315	-2.35000e+00	9.561275e-05	
316	-2.40000e+00	9.578095e-05	
317	-2.45000e+00	9.594281e-05	
318	-2.50000e+00	9.609883e-05	
319	-2.55000e+00	9.624945e-05	
320	-2.60000e+00	9.639506e-05	
321	-2.65000e+00	9.653601e-05	
322	-2.70000e+00	9.667260e-05	
323	-2.75000e+00	9.680512e-05	
324	-2.80000e+00	9.693383e-05	
325	-2.85000e+00	9.705896e-05	
326	-2.90000e+00	9.718070e-05	
327	-2.95000e+00	9.729927e-05	
328	-3.00000e+00	9.741483e-05	
329	-3.05000e+00	9.752754e-05	
330	-3.10000e+00	9.763756e-05	
331	-3.15000e+00	9.774501e-05	
332	-3.20000e+00	9.785004e-05	
333	-3.25000e+00	9.795275e-05	
334	-3.30000e+00	9.805325e-05	
335	0.000000e+00	7.774325e-31	
336	-5.00000e-02	6.025145e-06	
337	-1.00000e-01	1.190098e-05	
338	-1.50000e-01	1.762805e-05	
339	-2.00000e-01	2.320691e-05	
340	-2.50000e-01	2.863811e-05	
341	-3.00000e-01	3.392221e-05	
342	-3.50000e-01	3.905976e-05	
343	-4.00000e-01	4.405131e-05	
344	-4.50000e-01	4.889743e-05	

Index   v-sweep         i(vds)          
--------------------------------------------------------------------------------
345	-5.00000e-01	5.359867e-05	
346	-5.50000e-01	5.815557e-05	
347	-6.00000e-01	6.256872e-05	
348	-6.50000e-01	6.683865e-05	
349	-7.00000e-01	7.096593e-05	
350	-7.50000e-01	7.495113e-05	
351	-8.00000e-01	7.879480e-05	
352	-8.50000e-01	8.249750e-05	
353	-9.00000e-01	8.605981e-05	
354	-9.50000e-01	8.948228e-05	
355	-1.00000e+00	9.276548e-05	
356	-1.05000e+00	9.591000e-05	
357	-1.10000e+00	9.891639e-05	
358	-1.15000e+00	1.017853e-04	
359	-1.20000e+00	1.045172e-04	
360	-1.25000e+00	1.071127e-04	
361	-1.30000e+00	1.095725e-04	
362	-1.35000e+00	1.118973e-04	
363	-1.40000e+00	1.140875e-04	
364	-1.45000e+00	1.161440e-04	
365	-1.50000e+00	1.180674e-04	
366	-1.55000e+00	1.198586e-04	
367	-1.60000e+00	1.215186e-04	
368	-1.65000e+00	1.230483e-04	
369	-1.70000e+00	1.244493e-04	
370	-1.75000e+00	1.257232e-04	
371	-1.80000e+00	1.268727e-04	
372	-1.85000e+00	1.279013e-04	
373	-1.90000e+00	1.288142e-04	
374	-1.95000e+00	1.296189e-04	
375	-2.00000e+00	1.303253e-04	
376	-2.05000e+00	1.309461e-04	
377	-2.10000e+00	1.314950e-04	
378	-2.15000e+00	1.319854e-04	
379	-2.20000e+00	1.324289e-04	
380	-2.25000e+00	1.328348e-04	
381	-2.30000e+00	1.332098e-04	
382	-2.35000e+00	1.335593e-04	
383	-2.40000e+00	1.338872e-04	
384	-2.45000e+00	1.341962e-04	
385	-2.50000e+00	1.344890e-04	
386	-2.55000e+00	1.347671e-04	
387	-2.60000e+00	1.350323e-04	
388	-2.65000e+00	1.352858e-04	
389	-2.70000e+00	1.355287e-04	
390	-2.75000e+00	1.357619e-04	
391	-2.80000e+00	1.359862e-04	
392	-2.85000e+00	1.362023e-04	
393	-2.90000e+00	1.364108e-04	
394	-2.95000e+00	1.366122e-04	
395	-3.00000e+00	1.368072e-04	
396	-3.05000e+00	1.369960e-04	
397	-3.10000e+00	1.371792e-04	
398	-3.15000e+00	1.373570e-04	
399	-3.20000e+00	1.375297e-04	
400	-3.25000e+00	1.376978e-04	
401	-3.30000e+00	1.378614e-04	
Note: No ".plot", ".print", or ".fourier" lines; no simulations run
