
Note: Compatibility modes selected: hs

Warning: m=xx on .subckt line will override multiplier m hierarchy!


Circuit: ***************************

Doing analysis at TEMP = 125.000000 and TNOM = 125.000000


No. of Data Rows : 402
                          ***************************
                          DC transfer characteristic  Mon Jan  9 13:58:24  2023
--------------------------------------------------------------------------------
Index   v-sweep         i(vds)          
--------------------------------------------------------------------------------
0	0.000000e+00	-4.17117e-24	
1	-5.00000e-02	2.351774e-08	
2	-1.00000e-01	3.344252e-08	
3	-1.50000e-01	3.676406e-08	
4	-2.00000e-01	3.757471e-08	
5	-2.50000e-01	3.779120e-08	
6	-3.00000e-01	3.786907e-08	
7	-3.50000e-01	3.790573e-08	
8	-4.00000e-01	3.792693e-08	
9	-4.50000e-01	3.794114e-08	
10	-5.00000e-01	3.795169e-08	
11	-5.50000e-01	3.796011e-08	
12	-6.00000e-01	3.796718e-08	
13	-6.50000e-01	3.797334e-08	
14	-7.00000e-01	3.797886e-08	
15	-7.50000e-01	3.798391e-08	
16	-8.00000e-01	3.798858e-08	
17	-8.50000e-01	3.799298e-08	
18	-9.00000e-01	3.799713e-08	
19	-9.50000e-01	3.800110e-08	
20	-1.00000e+00	3.800491e-08	
21	-1.05000e+00	3.800857e-08	
22	-1.10000e+00	3.801212e-08	
23	-1.15000e+00	3.801557e-08	
24	-1.20000e+00	3.801892e-08	
25	-1.25000e+00	3.802220e-08	
26	-1.30000e+00	3.802539e-08	
27	-1.35000e+00	3.802852e-08	
28	-1.40000e+00	3.803160e-08	
29	-1.45000e+00	3.803461e-08	
30	-1.50000e+00	3.803758e-08	
31	-1.55000e+00	3.804049e-08	
32	-1.60000e+00	3.804337e-08	
33	-1.65000e+00	3.804620e-08	
34	-1.70000e+00	3.804899e-08	
35	-1.75000e+00	3.805175e-08	
36	-1.80000e+00	3.805448e-08	
37	-1.85000e+00	3.805718e-08	
38	-1.90000e+00	3.805984e-08	
39	-1.95000e+00	3.806248e-08	
40	-2.00000e+00	3.806509e-08	
41	-2.05000e+00	3.806768e-08	
42	-2.10000e+00	3.807025e-08	
43	-2.15000e+00	3.807279e-08	
44	-2.20000e+00	3.807531e-08	
45	-2.25000e+00	3.807782e-08	
46	-2.30000e+00	3.808031e-08	
47	-2.35000e+00	3.808278e-08	
48	-2.40000e+00	3.808525e-08	
49	-2.45000e+00	3.808771e-08	
50	-2.50000e+00	3.809016e-08	
51	-2.55000e+00	3.809262e-08	
52	-2.60000e+00	3.809509e-08	
53	-2.65000e+00	3.809758e-08	
54	-2.70000e+00	3.810010e-08	

Index   v-sweep         i(vds)          
--------------------------------------------------------------------------------
55	-2.75000e+00	3.810267e-08	
56	-2.80000e+00	3.810530e-08	
57	-2.85000e+00	3.810802e-08	
58	-2.90000e+00	3.811085e-08	
59	-2.95000e+00	3.811382e-08	
60	-3.00000e+00	3.811698e-08	
61	-3.05000e+00	3.812036e-08	
62	-3.10000e+00	3.812403e-08	
63	-3.15000e+00	3.812805e-08	
64	-3.20000e+00	3.813249e-08	
65	-3.25000e+00	3.813744e-08	
66	-3.30000e+00	3.814300e-08	
67	0.000000e+00	8.185505e-24	
68	-5.00000e-02	8.209171e-08	
69	-1.00000e-01	1.484900e-07	
70	-1.50000e-01	2.046941e-07	
71	-2.00000e-01	2.520059e-07	
72	-2.50000e-01	2.907685e-07	
73	-3.00000e-01	3.211482e-07	
74	-3.50000e-01	3.433904e-07	
75	-4.00000e-01	3.580613e-07	
76	-4.50000e-01	3.664183e-07	
77	-5.00000e-01	3.705124e-07	
78	-5.50000e-01	3.723873e-07	
79	-6.00000e-01	3.732884e-07	
80	-6.50000e-01	3.737715e-07	
81	-7.00000e-01	3.740624e-07	
82	-7.50000e-01	3.742561e-07	
83	-8.00000e-01	3.743962e-07	
84	-8.50000e-01	3.745041e-07	
85	-9.00000e-01	3.745917e-07	
86	-9.50000e-01	3.746654e-07	
87	-1.00000e+00	3.747293e-07	
88	-1.05000e+00	3.747861e-07	
89	-1.10000e+00	3.748374e-07	
90	-1.15000e+00	3.748844e-07	
91	-1.20000e+00	3.749279e-07	
92	-1.25000e+00	3.749686e-07	
93	-1.30000e+00	3.750069e-07	
94	-1.35000e+00	3.750432e-07	
95	-1.40000e+00	3.750778e-07	
96	-1.45000e+00	3.751108e-07	
97	-1.50000e+00	3.751426e-07	
98	-1.55000e+00	3.751731e-07	
99	-1.60000e+00	3.752025e-07	
100	-1.65000e+00	3.752310e-07	
101	-1.70000e+00	3.752586e-07	
102	-1.75000e+00	3.752855e-07	
103	-1.80000e+00	3.753115e-07	
104	-1.85000e+00	3.753370e-07	
105	-1.90000e+00	3.753617e-07	
106	-1.95000e+00	3.753859e-07	
107	-2.00000e+00	3.754096e-07	
108	-2.05000e+00	3.754328e-07	
109	-2.10000e+00	3.754554e-07	
110	-2.15000e+00	3.754777e-07	
111	-2.20000e+00	3.754995e-07	
112	-2.25000e+00	3.755209e-07	

Index   v-sweep         i(vds)          
--------------------------------------------------------------------------------
113	-2.30000e+00	3.755420e-07	
114	-2.35000e+00	3.755627e-07	
115	-2.40000e+00	3.755830e-07	
116	-2.45000e+00	3.756031e-07	
117	-2.50000e+00	3.756229e-07	
118	-2.55000e+00	3.756424e-07	
119	-2.60000e+00	3.756616e-07	
120	-2.65000e+00	3.756807e-07	
121	-2.70000e+00	3.756996e-07	
122	-2.75000e+00	3.757184e-07	
123	-2.80000e+00	3.757371e-07	
124	-2.85000e+00	3.757558e-07	
125	-2.90000e+00	3.757747e-07	
126	-2.95000e+00	3.757937e-07	
127	-3.00000e+00	3.758132e-07	
128	-3.05000e+00	3.758332e-07	
129	-3.10000e+00	3.758539e-07	
130	-3.15000e+00	3.758757e-07	
131	-3.20000e+00	3.758989e-07	
132	-3.25000e+00	3.759240e-07	
133	-3.30000e+00	3.759513e-07	
134	0.000000e+00	3.889070e-23	
135	-5.00000e-02	1.382979e-07	
136	-1.00000e-01	2.611219e-07	
137	-1.50000e-01	3.739554e-07	
138	-2.00000e-01	4.780803e-07	
139	-2.50000e-01	5.737991e-07	
140	-3.00000e-01	6.611867e-07	
141	-3.50000e-01	7.402670e-07	
142	-4.00000e-01	8.110553e-07	
143	-4.50000e-01	8.735699e-07	
144	-5.00000e-01	9.278401e-07	
145	-5.50000e-01	9.739164e-07	
146	-6.00000e-01	1.011892e-06	
147	-6.50000e-01	1.041945e-06	
148	-7.00000e-01	1.064432e-06	
149	-7.50000e-01	1.080036e-06	
150	-8.00000e-01	1.089932e-06	
151	-8.50000e-01	1.095715e-06	
152	-9.00000e-01	1.098962e-06	
153	-9.50000e-01	1.100816e-06	
154	-1.00000e+00	1.101937e-06	
155	-1.05000e+00	1.102667e-06	
156	-1.10000e+00	1.103176e-06	
157	-1.15000e+00	1.103556e-06	
158	-1.20000e+00	1.103853e-06	
159	-1.25000e+00	1.104096e-06	
160	-1.30000e+00	1.104302e-06	
161	-1.35000e+00	1.104481e-06	
162	-1.40000e+00	1.104639e-06	
163	-1.45000e+00	1.104782e-06	
164	-1.50000e+00	1.104913e-06	
165	-1.55000e+00	1.105034e-06	
166	-1.60000e+00	1.105147e-06	
167	-1.65000e+00	1.105252e-06	
168	-1.70000e+00	1.105352e-06	
169	-1.75000e+00	1.105447e-06	
170	-1.80000e+00	1.105537e-06	

Index   v-sweep         i(vds)          
--------------------------------------------------------------------------------
171	-1.85000e+00	1.105624e-06	
172	-1.90000e+00	1.105707e-06	
173	-1.95000e+00	1.105786e-06	
174	-2.00000e+00	1.105863e-06	
175	-2.05000e+00	1.105938e-06	
176	-2.10000e+00	1.106010e-06	
177	-2.15000e+00	1.106080e-06	
178	-2.20000e+00	1.106148e-06	
179	-2.25000e+00	1.106214e-06	
180	-2.30000e+00	1.106278e-06	
181	-2.35000e+00	1.106340e-06	
182	-2.40000e+00	1.106402e-06	
183	-2.45000e+00	1.106461e-06	
184	-2.50000e+00	1.106520e-06	
185	-2.55000e+00	1.106577e-06	
186	-2.60000e+00	1.106633e-06	
187	-2.65000e+00	1.106688e-06	
188	-2.70000e+00	1.106742e-06	
189	-2.75000e+00	1.106795e-06	
190	-2.80000e+00	1.106847e-06	
191	-2.85000e+00	1.106898e-06	
192	-2.90000e+00	1.106948e-06	
193	-2.95000e+00	1.106998e-06	
194	-3.00000e+00	1.107047e-06	
195	-3.05000e+00	1.107096e-06	
196	-3.10000e+00	1.107144e-06	
197	-3.15000e+00	1.107192e-06	
198	-3.20000e+00	1.107240e-06	
199	-3.25000e+00	1.107288e-06	
200	-3.30000e+00	1.107338e-06	
201	0.000000e+00	2.013626e-22	
202	-5.00000e-02	1.897550e-07	
203	-1.00000e-01	3.644774e-07	
204	-1.50000e-01	5.296443e-07	
205	-2.00000e-01	6.865355e-07	
206	-2.50000e-01	8.354511e-07	
207	-3.00000e-01	9.764626e-07	
208	-3.50000e-01	1.109588e-06	
209	-4.00000e-01	1.234835e-06	
210	-4.50000e-01	1.352206e-06	
211	-5.00000e-01	1.461705e-06	
212	-5.50000e-01	1.563337e-06	
213	-6.00000e-01	1.657107e-06	
214	-6.50000e-01	1.743024e-06	
215	-7.00000e-01	1.821098e-06	
216	-7.50000e-01	1.891346e-06	
217	-8.00000e-01	1.953791e-06	
218	-8.50000e-01	2.008472e-06	
219	-9.00000e-01	2.055452e-06	
220	-9.50000e-01	2.094839e-06	
221	-1.00000e+00	2.126819e-06	
222	-1.05000e+00	2.151725e-06	
223	-1.10000e+00	2.170124e-06	
224	-1.15000e+00	2.182913e-06	
225	-1.20000e+00	2.191297e-06	
226	-1.25000e+00	2.196587e-06	
227	-1.30000e+00	2.199906e-06	
228	-1.35000e+00	2.202044e-06	

Index   v-sweep         i(vds)          
--------------------------------------------------------------------------------
229	-1.40000e+00	2.203487e-06	
230	-1.45000e+00	2.204514e-06	
231	-1.50000e+00	2.205284e-06	
232	-1.55000e+00	2.205888e-06	
233	-1.60000e+00	2.206382e-06	
234	-1.65000e+00	2.206797e-06	
235	-1.70000e+00	2.207157e-06	
236	-1.75000e+00	2.207474e-06	
237	-1.80000e+00	2.207759e-06	
238	-1.85000e+00	2.208019e-06	
239	-1.90000e+00	2.208258e-06	
240	-1.95000e+00	2.208480e-06	
241	-2.00000e+00	2.208687e-06	
242	-2.05000e+00	2.208883e-06	
243	-2.10000e+00	2.209068e-06	
244	-2.15000e+00	2.209244e-06	
245	-2.20000e+00	2.209412e-06	
246	-2.25000e+00	2.209573e-06	
247	-2.30000e+00	2.209727e-06	
248	-2.35000e+00	2.209876e-06	
249	-2.40000e+00	2.210019e-06	
250	-2.45000e+00	2.210158e-06	
251	-2.50000e+00	2.210292e-06	
252	-2.55000e+00	2.210422e-06	
253	-2.60000e+00	2.210548e-06	
254	-2.65000e+00	2.210671e-06	
255	-2.70000e+00	2.210790e-06	
256	-2.75000e+00	2.210907e-06	
257	-2.80000e+00	2.211021e-06	
258	-2.85000e+00	2.211132e-06	
259	-2.90000e+00	2.211240e-06	
260	-2.95000e+00	2.211346e-06	
261	-3.00000e+00	2.211450e-06	
262	-3.05000e+00	2.211552e-06	
263	-3.10000e+00	2.211651e-06	
264	-3.15000e+00	2.211749e-06	
265	-3.20000e+00	2.211845e-06	
266	-3.25000e+00	2.211940e-06	
267	-3.30000e+00	2.212033e-06	
268	0.000000e+00	-3.12182e-23	
269	-5.00000e-02	2.368643e-07	
270	-1.00000e-01	4.591755e-07	
271	-1.50000e-01	6.724056e-07	
272	-2.00000e-01	8.778337e-07	
273	-2.50000e-01	1.075759e-06	
274	-3.00000e-01	1.266254e-06	
275	-3.50000e-01	1.449334e-06	
276	-4.00000e-01	1.625006e-06	
277	-4.50000e-01	1.793272e-06	
278	-5.00000e-01	1.954134e-06	
279	-5.50000e-01	2.107593e-06	
280	-6.00000e-01	2.253652e-06	
281	-6.50000e-01	2.392312e-06	
282	-7.00000e-01	2.523577e-06	
283	-7.50000e-01	2.647448e-06	
284	-8.00000e-01	2.763929e-06	
285	-8.50000e-01	2.873024e-06	
286	-9.00000e-01	2.974738e-06	

Index   v-sweep         i(vds)          
--------------------------------------------------------------------------------
287	-9.50000e-01	3.069078e-06	
288	-1.00000e+00	3.156052e-06	
289	-1.05000e+00	3.235672e-06	
290	-1.10000e+00	3.307955e-06	
291	-1.15000e+00	3.372925e-06	
292	-1.20000e+00	3.430618e-06	
293	-1.25000e+00	3.481091e-06	
294	-1.30000e+00	3.524435e-06	
295	-1.35000e+00	3.560795e-06	
296	-1.40000e+00	3.590410e-06	
297	-1.45000e+00	3.613667e-06	
298	-1.50000e+00	3.631164e-06	
299	-1.55000e+00	3.643743e-06	
300	-1.60000e+00	3.652435e-06	
301	-1.65000e+00	3.658305e-06	
302	-1.70000e+00	3.662269e-06	
303	-1.75000e+00	3.665001e-06	
304	-1.80000e+00	3.666952e-06	
305	-1.85000e+00	3.668404e-06	
306	-1.90000e+00	3.669529e-06	
307	-1.95000e+00	3.670435e-06	
308	-2.00000e+00	3.671187e-06	
309	-2.05000e+00	3.671829e-06	
310	-2.10000e+00	3.672390e-06	
311	-2.15000e+00	3.672889e-06	
312	-2.20000e+00	3.673339e-06	
313	-2.25000e+00	3.673751e-06	
314	-2.30000e+00	3.674131e-06	
315	-2.35000e+00	3.674484e-06	
316	-2.40000e+00	3.674815e-06	
317	-2.45000e+00	3.675128e-06	
318	-2.50000e+00	3.675423e-06	
319	-2.55000e+00	3.675705e-06	
320	-2.60000e+00	3.675973e-06	
321	-2.65000e+00	3.676230e-06	
322	-2.70000e+00	3.676477e-06	
323	-2.75000e+00	3.676715e-06	
324	-2.80000e+00	3.676944e-06	
325	-2.85000e+00	3.677165e-06	
326	-2.90000e+00	3.677379e-06	
327	-2.95000e+00	3.677587e-06	
328	-3.00000e+00	3.677789e-06	
329	-3.05000e+00	3.677985e-06	
330	-3.10000e+00	3.678176e-06	
331	-3.15000e+00	3.678361e-06	
332	-3.20000e+00	3.678543e-06	
333	-3.25000e+00	3.678719e-06	
334	-3.30000e+00	3.678892e-06	
335	0.000000e+00	7.588757e-22	
336	-5.00000e-02	2.800937e-07	
337	-1.00000e-01	5.461077e-07	
338	-1.50000e-01	8.035096e-07	
339	-2.00000e-01	1.053578e-06	
340	-2.50000e-01	1.296612e-06	
341	-3.00000e-01	1.532682e-06	
342	-3.50000e-01	1.761807e-06	
343	-4.00000e-01	1.983991e-06	
344	-4.50000e-01	2.199236e-06	

Index   v-sweep         i(vds)          
--------------------------------------------------------------------------------
345	-5.00000e-01	2.407544e-06	
346	-5.50000e-01	2.608916e-06	
347	-6.00000e-01	2.803352e-06	
348	-6.50000e-01	2.990856e-06	
349	-7.00000e-01	3.171427e-06	
350	-7.50000e-01	3.345067e-06	
351	-8.00000e-01	3.511779e-06	
352	-8.50000e-01	3.671562e-06	
353	-9.00000e-01	3.824420e-06	
354	-9.50000e-01	3.970354e-06	
355	-1.00000e+00	4.109367e-06	
356	-1.05000e+00	4.241460e-06	
357	-1.10000e+00	4.366636e-06	
358	-1.15000e+00	4.484899e-06	
359	-1.20000e+00	4.596252e-06	
360	-1.25000e+00	4.700701e-06	
361	-1.30000e+00	4.798251e-06	
362	-1.35000e+00	4.888910e-06	
363	-1.40000e+00	4.972689e-06	
364	-1.45000e+00	5.049602e-06	
365	-1.50000e+00	5.119667e-06	
366	-1.55000e+00	5.182914e-06	
367	-1.60000e+00	5.239383e-06	
368	-1.65000e+00	5.289135e-06	
369	-1.70000e+00	5.332264e-06	
370	-1.75000e+00	5.368914e-06	
371	-1.80000e+00	5.399308e-06	
372	-1.85000e+00	5.423788e-06	
373	-1.90000e+00	5.442857e-06	
374	-1.95000e+00	5.457197e-06	
375	-2.00000e+00	5.467649e-06	
376	-2.05000e+00	5.475109e-06	
377	-2.10000e+00	5.480405e-06	
378	-2.15000e+00	5.484206e-06	
379	-2.20000e+00	5.487001e-06	
380	-2.25000e+00	5.489121e-06	
381	-2.30000e+00	5.490784e-06	
382	-2.35000e+00	5.492131e-06	
383	-2.40000e+00	5.493253e-06	
384	-2.45000e+00	5.494213e-06	
385	-2.50000e+00	5.495052e-06	
386	-2.55000e+00	5.495796e-06	
387	-2.60000e+00	5.496468e-06	
388	-2.65000e+00	5.497081e-06	
389	-2.70000e+00	5.497647e-06	
390	-2.75000e+00	5.498172e-06	
391	-2.80000e+00	5.498664e-06	
392	-2.85000e+00	5.499127e-06	
393	-2.90000e+00	5.499565e-06	
394	-2.95000e+00	5.499981e-06	
395	-3.00000e+00	5.500378e-06	
396	-3.05000e+00	5.500758e-06	
397	-3.10000e+00	5.501122e-06	
398	-3.15000e+00	5.501473e-06	
399	-3.20000e+00	5.501810e-06	
400	-3.25000e+00	5.502136e-06	
401	-3.30000e+00	5.502451e-06	
Note: No ".plot", ".print", or ".fourier" lines; no simulations run
