
Note: Compatibility modes selected: hs

Warning: m=xx on .subckt line will override multiplier m hierarchy!


Circuit: ***************************

Doing analysis at TEMP = 125.000000 and TNOM = 125.000000


No. of Data Rows : 402
                          ***************************
                          DC transfer characteristic  Mon Jan  9 13:58:24  2023
--------------------------------------------------------------------------------
Index   v-sweep         i(vds)          
--------------------------------------------------------------------------------
0	0.000000e+00	5.777677e-23	
1	-5.00000e-02	5.054967e-07	
2	-1.00000e-01	8.999816e-07	
3	-1.50000e-01	1.188776e-06	
4	-2.00000e-01	1.378332e-06	
5	-2.50000e-01	1.484334e-06	
6	-3.00000e-01	1.537711e-06	
7	-3.50000e-01	1.568912e-06	
8	-4.00000e-01	1.592492e-06	
9	-4.50000e-01	1.613165e-06	
10	-5.00000e-01	1.632447e-06	
11	-5.50000e-01	1.650906e-06	
12	-6.00000e-01	1.668798e-06	
13	-6.50000e-01	1.686258e-06	
14	-7.00000e-01	1.703366e-06	
15	-7.50000e-01	1.720179e-06	
16	-8.00000e-01	1.736735e-06	
17	-8.50000e-01	1.753067e-06	
18	-9.00000e-01	1.769199e-06	
19	-9.50000e-01	1.785152e-06	
20	-1.00000e+00	1.800944e-06	
21	-1.05000e+00	1.816590e-06	
22	-1.10000e+00	1.832104e-06	
23	-1.15000e+00	1.847499e-06	
24	-1.20000e+00	1.862783e-06	
25	-1.25000e+00	1.877968e-06	
26	-1.30000e+00	1.893062e-06	
27	-1.35000e+00	1.908073e-06	
28	-1.40000e+00	1.923007e-06	
29	-1.45000e+00	1.937872e-06	
30	-1.50000e+00	1.952673e-06	
31	-1.55000e+00	1.967417e-06	
32	-1.60000e+00	1.982107e-06	
33	-1.65000e+00	1.996748e-06	
34	-1.70000e+00	2.011346e-06	
35	-1.75000e+00	2.025903e-06	
36	-1.80000e+00	2.040425e-06	
37	-1.85000e+00	2.054913e-06	
38	-1.90000e+00	2.069372e-06	
39	-1.95000e+00	2.083805e-06	
40	-2.00000e+00	2.098215e-06	
41	-2.05000e+00	2.112603e-06	
42	-2.10000e+00	2.126974e-06	
43	-2.15000e+00	2.141330e-06	
44	-2.20000e+00	2.155673e-06	
45	-2.25000e+00	2.170006e-06	
46	-2.30000e+00	2.184332e-06	
47	-2.35000e+00	2.198654e-06	
48	-2.40000e+00	2.212975e-06	
49	-2.45000e+00	2.227298e-06	
50	-2.50000e+00	2.241628e-06	
51	-2.55000e+00	2.255968e-06	
52	-2.60000e+00	2.270323e-06	
53	-2.65000e+00	2.284699e-06	
54	-2.70000e+00	2.299103e-06	

Index   v-sweep         i(vds)          
--------------------------------------------------------------------------------
55	-2.75000e+00	2.313540e-06	
56	-2.80000e+00	2.328020e-06	
57	-2.85000e+00	2.342552e-06	
58	-2.90000e+00	2.357146e-06	
59	-2.95000e+00	2.371815e-06	
60	-3.00000e+00	2.386572e-06	
61	-3.05000e+00	2.401433e-06	
62	-3.10000e+00	2.416414e-06	
63	-3.15000e+00	2.431536e-06	
64	-3.20000e+00	2.446819e-06	
65	-3.25000e+00	2.462288e-06	
66	-3.30000e+00	2.477969e-06	
67	0.000000e+00	-2.16635e-22	
68	-5.00000e-02	1.572409e-06	
69	-1.00000e-01	3.023057e-06	
70	-1.50000e-01	4.355509e-06	
71	-2.00000e-01	5.571400e-06	
72	-2.50000e-01	6.671915e-06	
73	-3.00000e-01	7.658166e-06	
74	-3.50000e-01	8.531318e-06	
75	-4.00000e-01	9.292683e-06	
76	-4.50000e-01	9.943873e-06	
77	-5.00000e-01	1.048714e-05	
78	-5.50000e-01	1.092612e-05	
79	-6.00000e-01	1.126737e-05	
80	-6.50000e-01	1.152288e-05	
81	-7.00000e-01	1.171174e-05	
82	-7.50000e-01	1.185650e-05	
83	-8.00000e-01	1.197568e-05	
84	-8.50000e-01	1.208052e-05	
85	-9.00000e-01	1.217679e-05	
86	-9.50000e-01	1.226734e-05	
87	-1.00000e+00	1.235369e-05	
88	-1.05000e+00	1.243671e-05	
89	-1.10000e+00	1.251693e-05	
90	-1.15000e+00	1.259474e-05	
91	-1.20000e+00	1.267042e-05	
92	-1.25000e+00	1.274417e-05	
93	-1.30000e+00	1.281619e-05	
94	-1.35000e+00	1.288662e-05	
95	-1.40000e+00	1.295557e-05	
96	-1.45000e+00	1.302318e-05	
97	-1.50000e+00	1.308952e-05	
98	-1.55000e+00	1.315469e-05	
99	-1.60000e+00	1.321877e-05	
100	-1.65000e+00	1.328182e-05	
101	-1.70000e+00	1.334391e-05	
102	-1.75000e+00	1.340509e-05	
103	-1.80000e+00	1.346542e-05	
104	-1.85000e+00	1.352495e-05	
105	-1.90000e+00	1.358372e-05	
106	-1.95000e+00	1.364177e-05	
107	-2.00000e+00	1.369914e-05	
108	-2.05000e+00	1.375586e-05	
109	-2.10000e+00	1.381197e-05	
110	-2.15000e+00	1.386750e-05	
111	-2.20000e+00	1.392247e-05	
112	-2.25000e+00	1.397692e-05	

Index   v-sweep         i(vds)          
--------------------------------------------------------------------------------
113	-2.30000e+00	1.403086e-05	
114	-2.35000e+00	1.408431e-05	
115	-2.40000e+00	1.413732e-05	
116	-2.45000e+00	1.418988e-05	
117	-2.50000e+00	1.424203e-05	
118	-2.55000e+00	1.429378e-05	
119	-2.60000e+00	1.434515e-05	
120	-2.65000e+00	1.439617e-05	
121	-2.70000e+00	1.444685e-05	
122	-2.75000e+00	1.449721e-05	
123	-2.80000e+00	1.454727e-05	
124	-2.85000e+00	1.459707e-05	
125	-2.90000e+00	1.464661e-05	
126	-2.95000e+00	1.469593e-05	
127	-3.00000e+00	1.474507e-05	
128	-3.05000e+00	1.479404e-05	
129	-3.10000e+00	1.484290e-05	
130	-3.15000e+00	1.489169e-05	
131	-3.20000e+00	1.494045e-05	
132	-3.25000e+00	1.498924e-05	
133	-3.30000e+00	1.503813e-05	
134	0.000000e+00	-9.34074e-22	
135	-5.00000e-02	2.416447e-06	
136	-1.00000e-01	4.717680e-06	
137	-1.50000e-01	6.906906e-06	
138	-2.00000e-01	8.985466e-06	
139	-2.50000e-01	1.095424e-05	
140	-3.00000e-01	1.281401e-05	
141	-3.50000e-01	1.456551e-05	
142	-4.00000e-01	1.620950e-05	
143	-4.50000e-01	1.774672e-05	
144	-5.00000e-01	1.917794e-05	
145	-5.50000e-01	2.050395e-05	
146	-6.00000e-01	2.172555e-05	
147	-6.50000e-01	2.284362e-05	
148	-7.00000e-01	2.385908e-05	
149	-7.50000e-01	2.477302e-05	
150	-8.00000e-01	2.558672e-05	
151	-8.50000e-01	2.630190e-05	
152	-9.00000e-01	2.692105e-05	
153	-9.50000e-01	2.744803e-05	
154	-1.00000e+00	2.788919e-05	
155	-1.05000e+00	2.825451e-05	
156	-1.10000e+00	2.855797e-05	
157	-1.15000e+00	2.881559e-05	
158	-1.20000e+00	2.904173e-05	
159	-1.25000e+00	2.924679e-05	
160	-1.30000e+00	2.943730e-05	
161	-1.35000e+00	2.961716e-05	
162	-1.40000e+00	2.978869e-05	
163	-1.45000e+00	2.995338e-05	
164	-1.50000e+00	3.011220e-05	
165	-1.55000e+00	3.026589e-05	
166	-1.60000e+00	3.041498e-05	
167	-1.65000e+00	3.055991e-05	
168	-1.70000e+00	3.070103e-05	
169	-1.75000e+00	3.083864e-05	
170	-1.80000e+00	3.097302e-05	

Index   v-sweep         i(vds)          
--------------------------------------------------------------------------------
171	-1.85000e+00	3.110438e-05	
172	-1.90000e+00	3.123292e-05	
173	-1.95000e+00	3.135884e-05	
174	-2.00000e+00	3.148228e-05	
175	-2.05000e+00	3.160341e-05	
176	-2.10000e+00	3.172234e-05	
177	-2.15000e+00	3.183922e-05	
178	-2.20000e+00	3.195414e-05	
179	-2.25000e+00	3.206721e-05	
180	-2.30000e+00	3.217853e-05	
181	-2.35000e+00	3.228818e-05	
182	-2.40000e+00	3.239625e-05	
183	-2.45000e+00	3.250281e-05	
184	-2.50000e+00	3.260794e-05	
185	-2.55000e+00	3.271169e-05	
186	-2.60000e+00	3.281413e-05	
187	-2.65000e+00	3.291533e-05	
188	-2.70000e+00	3.301532e-05	
189	-2.75000e+00	3.311418e-05	
190	-2.80000e+00	3.321193e-05	
191	-2.85000e+00	3.330864e-05	
192	-2.90000e+00	3.340434e-05	
193	-2.95000e+00	3.349908e-05	
194	-3.00000e+00	3.359291e-05	
195	-3.05000e+00	3.368586e-05	
196	-3.10000e+00	3.377799e-05	
197	-3.15000e+00	3.386933e-05	
198	-3.20000e+00	3.395993e-05	
199	-3.25000e+00	3.404986e-05	
200	-3.30000e+00	3.413915e-05	
201	0.000000e+00	-1.57135e-21	
202	-5.00000e-02	3.099482e-06	
203	-1.00000e-01	6.091350e-06	
204	-1.50000e-01	8.978569e-06	
205	-2.00000e-01	1.176231e-05	
206	-2.50000e-01	1.444328e-05	
207	-3.00000e-01	1.702209e-05	
208	-3.50000e-01	1.949931e-05	
209	-4.00000e-01	2.187552e-05	
210	-4.50000e-01	2.415127e-05	
211	-5.00000e-01	2.632715e-05	
212	-5.50000e-01	2.840374e-05	
213	-6.00000e-01	3.038160e-05	
214	-6.50000e-01	3.226132e-05	
215	-7.00000e-01	3.404350e-05	
216	-7.50000e-01	3.572872e-05	
217	-8.00000e-01	3.731760e-05	
218	-8.50000e-01	3.881076e-05	
219	-9.00000e-01	4.020883e-05	
220	-9.50000e-01	4.151249e-05	
221	-1.00000e+00	4.272245e-05	
222	-1.05000e+00	4.383949e-05	
223	-1.10000e+00	4.486453e-05	
224	-1.15000e+00	4.579863e-05	
225	-1.20000e+00	4.664318e-05	
226	-1.25000e+00	4.740008e-05	
227	-1.30000e+00	4.807210e-05	
228	-1.35000e+00	4.866343e-05	

Index   v-sweep         i(vds)          
--------------------------------------------------------------------------------
229	-1.40000e+00	4.918037e-05	
230	-1.45000e+00	4.963189e-05	
231	-1.50000e+00	5.002927e-05	
232	-1.55000e+00	5.038456e-05	
233	-1.60000e+00	5.070848e-05	
234	-1.65000e+00	5.100918e-05	
235	-1.70000e+00	5.129230e-05	
236	-1.75000e+00	5.156154e-05	
237	-1.80000e+00	5.181934e-05	
238	-1.85000e+00	5.206740e-05	
239	-1.90000e+00	5.230692e-05	
240	-1.95000e+00	5.253883e-05	
241	-2.00000e+00	5.276384e-05	
242	-2.05000e+00	5.298255e-05	
243	-2.10000e+00	5.319546e-05	
244	-2.15000e+00	5.340300e-05	
245	-2.20000e+00	5.360554e-05	
246	-2.25000e+00	5.380340e-05	
247	-2.30000e+00	5.399689e-05	
248	-2.35000e+00	5.418627e-05	
249	-2.40000e+00	5.437178e-05	
250	-2.45000e+00	5.455364e-05	
251	-2.50000e+00	5.473205e-05	
252	-2.55000e+00	5.490719e-05	
253	-2.60000e+00	5.507923e-05	
254	-2.65000e+00	5.524833e-05	
255	-2.70000e+00	5.541463e-05	
256	-2.75000e+00	5.557827e-05	
257	-2.80000e+00	5.573937e-05	
258	-2.85000e+00	5.589804e-05	
259	-2.90000e+00	5.605440e-05	
260	-2.95000e+00	5.620855e-05	
261	-3.00000e+00	5.636058e-05	
262	-3.05000e+00	5.651058e-05	
263	-3.10000e+00	5.665864e-05	
264	-3.15000e+00	5.680483e-05	
265	-3.20000e+00	5.694923e-05	
266	-3.25000e+00	5.709192e-05	
267	-3.30000e+00	5.723297e-05	
268	0.000000e+00	-1.85831e-21	
269	-5.00000e-02	3.671011e-06	
270	-1.00000e-01	7.241356e-06	
271	-1.50000e-01	1.071383e-05	
272	-2.00000e-01	1.408949e-05	
273	-2.50000e-01	1.736892e-05	
274	-3.00000e-01	2.055263e-05	
275	-3.50000e-01	2.364107e-05	
276	-4.00000e-01	2.663470e-05	
277	-4.50000e-01	2.953397e-05	
278	-5.00000e-01	3.233934e-05	
279	-5.50000e-01	3.505127e-05	
280	-6.00000e-01	3.767023e-05	
281	-6.50000e-01	4.019667e-05	
282	-7.00000e-01	4.263106e-05	
283	-7.50000e-01	4.497386e-05	
284	-8.00000e-01	4.722555e-05	
285	-8.50000e-01	4.938660e-05	
286	-9.00000e-01	5.145748e-05	

Index   v-sweep         i(vds)          
--------------------------------------------------------------------------------
287	-9.50000e-01	5.343866e-05	
288	-1.00000e+00	5.533064e-05	
289	-1.05000e+00	5.713390e-05	
290	-1.10000e+00	5.884894e-05	
291	-1.15000e+00	6.047627e-05	
292	-1.20000e+00	6.201641e-05	
293	-1.25000e+00	6.346989e-05	
294	-1.30000e+00	6.483730e-05	
295	-1.35000e+00	6.611925e-05	
296	-1.40000e+00	6.731641e-05	
297	-1.45000e+00	6.842957e-05	
298	-1.50000e+00	6.945964e-05	
299	-1.55000e+00	7.040782e-05	
300	-1.60000e+00	7.127565e-05	
301	-1.65000e+00	7.206533e-05	
302	-1.70000e+00	7.277999e-05	
303	-1.75000e+00	7.342419e-05	
304	-1.80000e+00	7.400425e-05	
305	-1.85000e+00	7.452834e-05	
306	-1.90000e+00	7.500580e-05	
307	-1.95000e+00	7.544586e-05	
308	-2.00000e+00	7.585647e-05	
309	-2.05000e+00	7.624378e-05	
310	-2.10000e+00	7.661223e-05	
311	-2.15000e+00	7.696495e-05	
312	-2.20000e+00	7.730418e-05	
313	-2.25000e+00	7.763156e-05	
314	-2.30000e+00	7.794834e-05	
315	-2.35000e+00	7.825551e-05	
316	-2.40000e+00	7.855389e-05	
317	-2.45000e+00	7.884417e-05	
318	-2.50000e+00	7.912692e-05	
319	-2.55000e+00	7.940267e-05	
320	-2.60000e+00	7.967186e-05	
321	-2.65000e+00	7.993490e-05	
322	-2.70000e+00	8.019216e-05	
323	-2.75000e+00	8.044396e-05	
324	-2.80000e+00	8.069062e-05	
325	-2.85000e+00	8.093239e-05	
326	-2.90000e+00	8.116955e-05	
327	-2.95000e+00	8.140231e-05	
328	-3.00000e+00	8.163090e-05	
329	-3.05000e+00	8.185552e-05	
330	-3.10000e+00	8.207636e-05	
331	-3.15000e+00	8.229358e-05	
332	-3.20000e+00	8.250735e-05	
333	-3.25000e+00	8.271782e-05	
334	-3.30000e+00	8.292513e-05	
335	0.000000e+00	-1.76371e-21	
336	-5.00000e-02	4.162989e-06	
337	-1.00000e-01	8.231381e-06	
338	-1.50000e-01	1.220784e-05	
339	-2.00000e-01	1.609333e-05	
340	-2.50000e-01	1.988838e-05	
341	-3.00000e-01	2.359339e-05	
342	-3.50000e-01	2.720874e-05	
343	-4.00000e-01	3.073481e-05	
344	-4.50000e-01	3.417198e-05	

Index   v-sweep         i(vds)          
--------------------------------------------------------------------------------
345	-5.00000e-01	3.752062e-05	
346	-5.50000e-01	4.078111e-05	
347	-6.00000e-01	4.395383e-05	
348	-6.50000e-01	4.703916e-05	
349	-7.00000e-01	5.003748e-05	
350	-7.50000e-01	5.294918e-05	
351	-8.00000e-01	5.577464e-05	
352	-8.50000e-01	5.851425e-05	
353	-9.00000e-01	6.116840e-05	
354	-9.50000e-01	6.373747e-05	
355	-1.00000e+00	6.622186e-05	
356	-1.05000e+00	6.862197e-05	
357	-1.10000e+00	7.093817e-05	
358	-1.15000e+00	7.317089e-05	
359	-1.20000e+00	7.532050e-05	
360	-1.25000e+00	7.738743e-05	
361	-1.30000e+00	7.937207e-05	
362	-1.35000e+00	8.127484e-05	
363	-1.40000e+00	8.309615e-05	
364	-1.45000e+00	8.483644e-05	
365	-1.50000e+00	8.649613e-05	
366	-1.55000e+00	8.807569e-05	
367	-1.60000e+00	8.957558e-05	
368	-1.65000e+00	9.099630e-05	
369	-1.70000e+00	9.233841e-05	
370	-1.75000e+00	9.360249e-05	
371	-1.80000e+00	9.478924e-05	
372	-1.85000e+00	9.589949e-05	
373	-1.90000e+00	9.693426e-05	
374	-1.95000e+00	9.789491e-05	
375	-2.00000e+00	9.878327e-05	
376	-2.05000e+00	9.960190e-05	
377	-2.10000e+00	1.003543e-04	
378	-2.15000e+00	1.010455e-04	
379	-2.20000e+00	1.016815e-04	
380	-2.25000e+00	1.022698e-04	
381	-2.30000e+00	1.028179e-04	
382	-2.35000e+00	1.033328e-04	
383	-2.40000e+00	1.038205e-04	
384	-2.45000e+00	1.042854e-04	
385	-2.50000e+00	1.047311e-04	
386	-2.55000e+00	1.051600e-04	
387	-2.60000e+00	1.055740e-04	
388	-2.65000e+00	1.059748e-04	
389	-2.70000e+00	1.063634e-04	
390	-2.75000e+00	1.067409e-04	
391	-2.80000e+00	1.071082e-04	
392	-2.85000e+00	1.074658e-04	
393	-2.90000e+00	1.078146e-04	
394	-2.95000e+00	1.081550e-04	
395	-3.00000e+00	1.084875e-04	
396	-3.05000e+00	1.088127e-04	
397	-3.10000e+00	1.091308e-04	
398	-3.15000e+00	1.094423e-04	
399	-3.20000e+00	1.097476e-04	
400	-3.25000e+00	1.100469e-04	
401	-3.30000e+00	1.103406e-04	
Note: No ".plot", ".print", or ".fourier" lines; no simulations run
