
Note: Compatibility modes selected: hs

Warning: m=xx on .subckt line will override multiplier m hierarchy!


Circuit: ***************************

Doing analysis at TEMP = -40.000000 and TNOM = -40.000000


No. of Data Rows : 402
                          ***************************
                          DC transfer characteristic  Mon Jan  9 13:58:23  2023
--------------------------------------------------------------------------------
Index   v-sweep         i(vds)          
--------------------------------------------------------------------------------
0	0.000000e+00	-1.56957e-23	
1	-5.00000e-02	1.049379e-07	
2	-1.00000e-01	1.154747e-07	
3	-1.50000e-01	1.178856e-07	
4	-2.00000e-01	1.192677e-07	
5	-2.50000e-01	1.203532e-07	
6	-3.00000e-01	1.213023e-07	
7	-3.50000e-01	1.221703e-07	
8	-4.00000e-01	1.229823e-07	
9	-4.50000e-01	1.237522e-07	
10	-5.00000e-01	1.244890e-07	
11	-5.50000e-01	1.251985e-07	
12	-6.00000e-01	1.258852e-07	
13	-6.50000e-01	1.265524e-07	
14	-7.00000e-01	1.272029e-07	
15	-7.50000e-01	1.278386e-07	
16	-8.00000e-01	1.284614e-07	
17	-8.50000e-01	1.290727e-07	
18	-9.00000e-01	1.296737e-07	
19	-9.50000e-01	1.302655e-07	
20	-1.00000e+00	1.308490e-07	
21	-1.05000e+00	1.314250e-07	
22	-1.10000e+00	1.319941e-07	
23	-1.15000e+00	1.325570e-07	
24	-1.20000e+00	1.331142e-07	
25	-1.25000e+00	1.336662e-07	
26	-1.30000e+00	1.342134e-07	
27	-1.35000e+00	1.347561e-07	
28	-1.40000e+00	1.352948e-07	
29	-1.45000e+00	1.358297e-07	
30	-1.50000e+00	1.363611e-07	
31	-1.55000e+00	1.368893e-07	
32	-1.60000e+00	1.374145e-07	
33	-1.65000e+00	1.379369e-07	
34	-1.70000e+00	1.384568e-07	
35	-1.75000e+00	1.389743e-07	
36	-1.80000e+00	1.394895e-07	
37	-1.85000e+00	1.400027e-07	
38	-1.90000e+00	1.405140e-07	
39	-1.95000e+00	1.410235e-07	
40	-2.00000e+00	1.415314e-07	
41	-2.05000e+00	1.420378e-07	
42	-2.10000e+00	1.425429e-07	
43	-2.15000e+00	1.430468e-07	
44	-2.20000e+00	1.435497e-07	
45	-2.25000e+00	1.440517e-07	
46	-2.30000e+00	1.445529e-07	
47	-2.35000e+00	1.450537e-07	
48	-2.40000e+00	1.455541e-07	
49	-2.45000e+00	1.460546e-07	
50	-2.50000e+00	1.465552e-07	
51	-2.55000e+00	1.470564e-07	
52	-2.60000e+00	1.475585e-07	
53	-2.65000e+00	1.480619e-07	
54	-2.70000e+00	1.485671e-07	

Index   v-sweep         i(vds)          
--------------------------------------------------------------------------------
55	-2.75000e+00	1.490747e-07	
56	-2.80000e+00	1.495851e-07	
57	-2.85000e+00	1.500991e-07	
58	-2.90000e+00	1.506175e-07	
59	-2.95000e+00	1.511410e-07	
60	-3.00000e+00	1.516706e-07	
61	-3.05000e+00	1.522074e-07	
62	-3.10000e+00	1.527524e-07	
63	-3.15000e+00	1.533070e-07	
64	-3.20000e+00	1.538726e-07	
65	-3.25000e+00	1.544505e-07	
66	-3.30000e+00	1.550424e-07	
67	0.000000e+00	-6.81256e-36	
68	-5.00000e-02	1.014436e-05	
69	-1.00000e-01	1.886505e-05	
70	-1.50000e-01	2.617926e-05	
71	-2.00000e-01	3.210789e-05	
72	-2.50000e-01	3.668164e-05	
73	-3.00000e-01	3.995836e-05	
74	-3.50000e-01	4.206835e-05	
75	-4.00000e-01	4.328041e-05	
76	-4.50000e-01	4.396054e-05	
77	-5.00000e-01	4.438977e-05	
78	-5.50000e-01	4.470433e-05	
79	-6.00000e-01	4.495943e-05	
80	-6.50000e-01	4.517853e-05	
81	-7.00000e-01	4.537302e-05	
82	-7.50000e-01	4.554922e-05	
83	-8.00000e-01	4.571108e-05	
84	-8.50000e-01	4.586125e-05	
85	-9.00000e-01	4.600166e-05	
86	-9.50000e-01	4.613374e-05	
87	-1.00000e+00	4.625860e-05	
88	-1.05000e+00	4.637715e-05	
89	-1.10000e+00	4.649012e-05	
90	-1.15000e+00	4.659811e-05	
91	-1.20000e+00	4.670163e-05	
92	-1.25000e+00	4.680112e-05	
93	-1.30000e+00	4.689694e-05	
94	-1.35000e+00	4.698941e-05	
95	-1.40000e+00	4.707882e-05	
96	-1.45000e+00	4.716541e-05	
97	-1.50000e+00	4.724939e-05	
98	-1.55000e+00	4.733097e-05	
99	-1.60000e+00	4.741031e-05	
100	-1.65000e+00	4.748757e-05	
101	-1.70000e+00	4.756288e-05	
102	-1.75000e+00	4.763637e-05	
103	-1.80000e+00	4.770816e-05	
104	-1.85000e+00	4.777835e-05	
105	-1.90000e+00	4.784702e-05	
106	-1.95000e+00	4.791427e-05	
107	-2.00000e+00	4.798018e-05	
108	-2.05000e+00	4.804482e-05	
109	-2.10000e+00	4.810826e-05	
110	-2.15000e+00	4.817056e-05	
111	-2.20000e+00	4.823177e-05	
112	-2.25000e+00	4.829196e-05	

Index   v-sweep         i(vds)          
--------------------------------------------------------------------------------
113	-2.30000e+00	4.835119e-05	
114	-2.35000e+00	4.840949e-05	
115	-2.40000e+00	4.846692e-05	
116	-2.45000e+00	4.852354e-05	
117	-2.50000e+00	4.857940e-05	
118	-2.55000e+00	4.863454e-05	
119	-2.60000e+00	4.868903e-05	
120	-2.65000e+00	4.874294e-05	
121	-2.70000e+00	4.879631e-05	
122	-2.75000e+00	4.884925e-05	
123	-2.80000e+00	4.890181e-05	
124	-2.85000e+00	4.895411e-05	
125	-2.90000e+00	4.900625e-05	
126	-2.95000e+00	4.905834e-05	
127	-3.00000e+00	4.911052e-05	
128	-3.05000e+00	4.916295e-05	
129	-3.10000e+00	4.921579e-05	
130	-3.15000e+00	4.926924e-05	
131	-3.20000e+00	4.932351e-05	
132	-3.25000e+00	4.937885e-05	
133	-3.30000e+00	4.943552e-05	
134	0.000000e+00	-1.88778e-34	
135	-5.00000e-02	2.000657e-05	
136	-1.00000e-01	3.866020e-05	
137	-1.50000e-01	5.597158e-05	
138	-2.00000e-01	7.195147e-05	
139	-2.50000e-01	8.661072e-05	
140	-3.00000e-01	9.996038e-05	
141	-3.50000e-01	1.120119e-04	
142	-4.00000e-01	1.227772e-04	
143	-4.50000e-01	1.322695e-04	
144	-5.00000e-01	1.405042e-04	
145	-5.50000e-01	1.475008e-04	
146	-6.00000e-01	1.532880e-04	
147	-6.50000e-01	1.579131e-04	
148	-7.00000e-01	1.614606e-04	
149	-7.50000e-01	1.640769e-04	
150	-8.00000e-01	1.659746e-04	
151	-8.50000e-01	1.673836e-04	
152	-9.00000e-01	1.684860e-04	
153	-9.50000e-01	1.693957e-04	
154	-1.00000e+00	1.701775e-04	
155	-1.05000e+00	1.708685e-04	
156	-1.10000e+00	1.714909e-04	
157	-1.15000e+00	1.720593e-04	
158	-1.20000e+00	1.725835e-04	
159	-1.25000e+00	1.730709e-04	
160	-1.30000e+00	1.735269e-04	
161	-1.35000e+00	1.739558e-04	
162	-1.40000e+00	1.743609e-04	
163	-1.45000e+00	1.747451e-04	
164	-1.50000e+00	1.751106e-04	
165	-1.55000e+00	1.754593e-04	
166	-1.60000e+00	1.757930e-04	
167	-1.65000e+00	1.761129e-04	
168	-1.70000e+00	1.764204e-04	
169	-1.75000e+00	1.767164e-04	
170	-1.80000e+00	1.770019e-04	

Index   v-sweep         i(vds)          
--------------------------------------------------------------------------------
171	-1.85000e+00	1.772778e-04	
172	-1.90000e+00	1.775446e-04	
173	-1.95000e+00	1.778031e-04	
174	-2.00000e+00	1.780539e-04	
175	-2.05000e+00	1.782974e-04	
176	-2.10000e+00	1.785342e-04	
177	-2.15000e+00	1.787646e-04	
178	-2.20000e+00	1.789891e-04	
179	-2.25000e+00	1.792080e-04	
180	-2.30000e+00	1.794216e-04	
181	-2.35000e+00	1.796302e-04	
182	-2.40000e+00	1.798341e-04	
183	-2.45000e+00	1.800335e-04	
184	-2.50000e+00	1.802287e-04	
185	-2.55000e+00	1.804199e-04	
186	-2.60000e+00	1.806072e-04	
187	-2.65000e+00	1.807910e-04	
188	-2.70000e+00	1.809714e-04	
189	-2.75000e+00	1.811485e-04	
190	-2.80000e+00	1.813225e-04	
191	-2.85000e+00	1.814937e-04	
192	-2.90000e+00	1.816622e-04	
193	-2.95000e+00	1.818283e-04	
194	-3.00000e+00	1.819921e-04	
195	-3.05000e+00	1.821538e-04	
196	-3.10000e+00	1.823138e-04	
197	-3.15000e+00	1.824723e-04	
198	-3.20000e+00	1.826296e-04	
199	-3.25000e+00	1.827861e-04	
200	-3.30000e+00	1.829422e-04	
201	0.000000e+00	-2.05831e-34	
202	-5.00000e-02	2.764935e-05	
203	-1.00000e-01	5.405997e-05	
204	-1.50000e-01	7.923993e-05	
205	-2.00000e-01	1.031973e-04	
206	-2.50000e-01	1.259403e-04	
207	-3.00000e-01	1.474769e-04	
208	-3.50000e-01	1.678153e-04	
209	-4.00000e-01	1.869636e-04	
210	-4.50000e-01	2.049300e-04	
211	-5.00000e-01	2.217228e-04	
212	-5.50000e-01	2.373504e-04	
213	-6.00000e-01	2.518212e-04	
214	-6.50000e-01	2.651441e-04	
215	-7.00000e-01	2.773283e-04	
216	-7.50000e-01	2.883836e-04	
217	-8.00000e-01	2.983211e-04	
218	-8.50000e-01	3.071540e-04	
219	-9.00000e-01	3.148990e-04	
220	-9.50000e-01	3.215799e-04	
221	-1.00000e+00	3.272327e-04	
222	-1.05000e+00	3.319157e-04	
223	-1.10000e+00	3.357210e-04	
224	-1.15000e+00	3.387812e-04	
225	-1.20000e+00	3.412551e-04	
226	-1.25000e+00	3.432966e-04	
227	-1.30000e+00	3.450278e-04	
228	-1.35000e+00	3.465339e-04	

Index   v-sweep         i(vds)          
--------------------------------------------------------------------------------
229	-1.40000e+00	3.478716e-04	
230	-1.45000e+00	3.490788e-04	
231	-1.50000e+00	3.501812e-04	
232	-1.55000e+00	3.511975e-04	
233	-1.60000e+00	3.521414e-04	
234	-1.65000e+00	3.530235e-04	
235	-1.70000e+00	3.538519e-04	
236	-1.75000e+00	3.546335e-04	
237	-1.80000e+00	3.553735e-04	
238	-1.85000e+00	3.560766e-04	
239	-1.90000e+00	3.567465e-04	
240	-1.95000e+00	3.573865e-04	
241	-2.00000e+00	3.579993e-04	
242	-2.05000e+00	3.585873e-04	
243	-2.10000e+00	3.591526e-04	
244	-2.15000e+00	3.596971e-04	
245	-2.20000e+00	3.602224e-04	
246	-2.25000e+00	3.607298e-04	
247	-2.30000e+00	3.612208e-04	
248	-2.35000e+00	3.616963e-04	
249	-2.40000e+00	3.621576e-04	
250	-2.45000e+00	3.626054e-04	
251	-2.50000e+00	3.630406e-04	
252	-2.55000e+00	3.634640e-04	
253	-2.60000e+00	3.638763e-04	
254	-2.65000e+00	3.642782e-04	
255	-2.70000e+00	3.646701e-04	
256	-2.75000e+00	3.650527e-04	
257	-2.80000e+00	3.654264e-04	
258	-2.85000e+00	3.657918e-04	
259	-2.90000e+00	3.661491e-04	
260	-2.95000e+00	3.664990e-04	
261	-3.00000e+00	3.668416e-04	
262	-3.05000e+00	3.671775e-04	
263	-3.10000e+00	3.675069e-04	
264	-3.15000e+00	3.678302e-04	
265	-3.20000e+00	3.681478e-04	
266	-3.25000e+00	3.684600e-04	
267	-3.30000e+00	3.687672e-04	
268	0.000000e+00	-2.70170e-34	
269	-5.00000e-02	3.357803e-05	
270	-1.00000e-01	6.603047e-05	
271	-1.50000e-01	9.736362e-05	
272	-2.00000e-01	1.275838e-04	
273	-2.50000e-01	1.566973e-04	
274	-3.00000e-01	1.847104e-04	
275	-3.50000e-01	2.116295e-04	
276	-4.00000e-01	2.374609e-04	
277	-4.50000e-01	2.622109e-04	
278	-5.00000e-01	2.858858e-04	
279	-5.50000e-01	3.084920e-04	
280	-6.00000e-01	3.300358e-04	
281	-6.50000e-01	3.505237e-04	
282	-7.00000e-01	3.699619e-04	
283	-7.50000e-01	3.883570e-04	
284	-8.00000e-01	4.057155e-04	
285	-8.50000e-01	4.220438e-04	
286	-9.00000e-01	4.373486e-04	

Index   v-sweep         i(vds)          
--------------------------------------------------------------------------------
287	-9.50000e-01	4.516369e-04	
288	-1.00000e+00	4.649157e-04	
289	-1.05000e+00	4.771925e-04	
290	-1.10000e+00	4.884755e-04	
291	-1.15000e+00	4.987738e-04	
292	-1.20000e+00	5.080983e-04	
293	-1.25000e+00	5.164627e-04	
294	-1.30000e+00	5.238856e-04	
295	-1.35000e+00	5.303941e-04	
296	-1.40000e+00	5.360288e-04	
297	-1.45000e+00	5.408507e-04	
298	-1.50000e+00	5.449463e-04	
299	-1.55000e+00	5.484245e-04	
300	-1.60000e+00	5.514025e-04	
301	-1.65000e+00	5.539880e-04	
302	-1.70000e+00	5.562684e-04	
303	-1.75000e+00	5.583094e-04	
304	-1.80000e+00	5.601589e-04	
305	-1.85000e+00	5.618519e-04	
306	-1.90000e+00	5.634147e-04	
307	-1.95000e+00	5.648671e-04	
308	-2.00000e+00	5.662247e-04	
309	-2.05000e+00	5.674999e-04	
310	-2.10000e+00	5.687027e-04	
311	-2.15000e+00	5.698412e-04	
312	-2.20000e+00	5.709226e-04	
313	-2.25000e+00	5.719525e-04	
314	-2.30000e+00	5.729359e-04	
315	-2.35000e+00	5.738770e-04	
316	-2.40000e+00	5.747797e-04	
317	-2.45000e+00	5.756470e-04	
318	-2.50000e+00	5.764819e-04	
319	-2.55000e+00	5.772869e-04	
320	-2.60000e+00	5.780641e-04	
321	-2.65000e+00	5.788155e-04	
322	-2.70000e+00	5.795430e-04	
323	-2.75000e+00	5.802481e-04	
324	-2.80000e+00	5.809323e-04	
325	-2.85000e+00	5.815969e-04	
326	-2.90000e+00	5.822430e-04	
327	-2.95000e+00	5.828718e-04	
328	-3.00000e+00	5.834842e-04	
329	-3.05000e+00	5.840812e-04	
330	-3.10000e+00	5.846636e-04	
331	-3.15000e+00	5.852321e-04	
332	-3.20000e+00	5.857875e-04	
333	-3.25000e+00	5.863305e-04	
334	-3.30000e+00	5.868616e-04	
335	0.000000e+00	3.415182e-34	
336	-5.00000e-02	3.818887e-05	
337	-1.00000e-01	7.535625e-05	
338	-1.50000e-01	1.115072e-04	
339	-2.00000e-01	1.466466e-04	
340	-2.50000e-01	1.807795e-04	
341	-3.00000e-01	2.139111e-04	
342	-3.50000e-01	2.460462e-04	
343	-4.00000e-01	2.771898e-04	
344	-4.50000e-01	3.073472e-04	

Index   v-sweep         i(vds)          
--------------------------------------------------------------------------------
345	-5.00000e-01	3.365232e-04	
346	-5.50000e-01	3.647228e-04	
347	-6.00000e-01	3.919513e-04	
348	-6.50000e-01	4.182135e-04	
349	-7.00000e-01	4.435145e-04	
350	-7.50000e-01	4.678594e-04	
351	-8.00000e-01	4.912532e-04	
352	-8.50000e-01	5.137011e-04	
353	-9.00000e-01	5.352080e-04	
354	-9.50000e-01	5.557792e-04	
355	-1.00000e+00	5.754196e-04	
356	-1.05000e+00	5.941344e-04	
357	-1.10000e+00	6.119288e-04	
358	-1.15000e+00	6.288080e-04	
359	-1.20000e+00	6.447774e-04	
360	-1.25000e+00	6.598423e-04	
361	-1.30000e+00	6.740083e-04	
362	-1.35000e+00	6.872811e-04	
363	-1.40000e+00	6.996670e-04	
364	-1.45000e+00	7.111725e-04	
365	-1.50000e+00	7.218051e-04	
366	-1.55000e+00	7.315735e-04	
367	-1.60000e+00	7.404885e-04	
368	-1.65000e+00	7.485643e-04	
369	-1.70000e+00	7.558206e-04	
370	-1.75000e+00	7.622854e-04	
371	-1.80000e+00	7.679998e-04	
372	-1.85000e+00	7.730207e-04	
373	-1.90000e+00	7.774225e-04	
374	-1.95000e+00	7.812909e-04	
375	-2.00000e+00	7.847136e-04	
376	-2.05000e+00	7.877704e-04	
377	-2.10000e+00	7.905279e-04	
378	-2.15000e+00	7.930389e-04	
379	-2.20000e+00	7.953446e-04	
380	-2.25000e+00	7.974772e-04	
381	-2.30000e+00	7.994616e-04	
382	-2.35000e+00	8.013181e-04	
383	-2.40000e+00	8.030627e-04	
384	-2.45000e+00	8.047088e-04	
385	-2.50000e+00	8.062674e-04	
386	-2.55000e+00	8.077476e-04	
387	-2.60000e+00	8.091575e-04	
388	-2.65000e+00	8.105035e-04	
389	-2.70000e+00	8.117917e-04	
390	-2.75000e+00	8.130268e-04	
391	-2.80000e+00	8.142135e-04	
392	-2.85000e+00	8.153555e-04	
393	-2.90000e+00	8.164562e-04	
394	-2.95000e+00	8.175188e-04	
395	-3.00000e+00	8.185458e-04	
396	-3.05000e+00	8.195398e-04	
397	-3.10000e+00	8.205029e-04	
398	-3.15000e+00	8.214372e-04	
399	-3.20000e+00	8.223443e-04	
400	-3.25000e+00	8.232260e-04	
401	-3.30000e+00	8.240838e-04	
Note: No ".plot", ".print", or ".fourier" lines; no simulations run
