
Note: Compatibility modes selected: hs

Warning: m=xx on .subckt line will override multiplier m hierarchy!


Circuit: ***************************

Doing analysis at TEMP = 125.000000 and TNOM = 125.000000


No. of Data Rows : 402
                          ***************************
                          DC transfer characteristic  Mon Jan  9 13:58:24  2023
--------------------------------------------------------------------------------
Index   v-sweep         i(vds)          
--------------------------------------------------------------------------------
0	0.000000e+00	-1.99285e-22	
1	-5.00000e-02	9.826306e-07	
2	-1.00000e-01	1.739675e-06	
3	-1.50000e-01	2.282671e-06	
4	-2.00000e-01	2.627153e-06	
5	-2.50000e-01	2.811349e-06	
6	-3.00000e-01	2.903044e-06	
7	-3.50000e-01	2.958877e-06	
8	-4.00000e-01	3.002496e-06	
9	-4.50000e-01	3.041216e-06	
10	-5.00000e-01	3.077432e-06	
11	-5.50000e-01	3.112089e-06	
12	-6.00000e-01	3.145634e-06	
13	-6.50000e-01	3.178315e-06	
14	-7.00000e-01	3.210291e-06	
15	-7.50000e-01	3.241672e-06	
16	-8.00000e-01	3.272540e-06	
17	-8.50000e-01	3.302960e-06	
18	-9.00000e-01	3.332985e-06	
19	-9.50000e-01	3.362659e-06	
20	-1.00000e+00	3.392019e-06	
21	-1.05000e+00	3.421098e-06	
22	-1.10000e+00	3.449923e-06	
23	-1.15000e+00	3.478520e-06	
24	-1.20000e+00	3.506911e-06	
25	-1.25000e+00	3.535115e-06	
26	-1.30000e+00	3.563149e-06	
27	-1.35000e+00	3.591031e-06	
28	-1.40000e+00	3.618773e-06	
29	-1.45000e+00	3.646390e-06	
30	-1.50000e+00	3.673892e-06	
31	-1.55000e+00	3.701292e-06	
32	-1.60000e+00	3.728598e-06	
33	-1.65000e+00	3.755820e-06	
34	-1.70000e+00	3.782967e-06	
35	-1.75000e+00	3.810045e-06	
36	-1.80000e+00	3.837064e-06	
37	-1.85000e+00	3.864028e-06	
38	-1.90000e+00	3.890945e-06	
39	-1.95000e+00	3.917820e-06	
40	-2.00000e+00	3.944659e-06	
41	-2.05000e+00	3.971468e-06	
42	-2.10000e+00	3.998251e-06	
43	-2.15000e+00	4.025014e-06	
44	-2.20000e+00	4.051761e-06	
45	-2.25000e+00	4.078498e-06	
46	-2.30000e+00	4.105230e-06	
47	-2.35000e+00	4.131963e-06	
48	-2.40000e+00	4.158703e-06	
49	-2.45000e+00	4.185456e-06	
50	-2.50000e+00	4.212229e-06	
51	-2.55000e+00	4.239032e-06	
52	-2.60000e+00	4.265873e-06	
53	-2.65000e+00	4.292763e-06	
54	-2.70000e+00	4.319714e-06	

Index   v-sweep         i(vds)          
--------------------------------------------------------------------------------
55	-2.75000e+00	4.346740e-06	
56	-2.80000e+00	4.373858e-06	
57	-2.85000e+00	4.401086e-06	
58	-2.90000e+00	4.428443e-06	
59	-2.95000e+00	4.455955e-06	
60	-3.00000e+00	4.483648e-06	
61	-3.05000e+00	4.511552e-06	
62	-3.10000e+00	4.539700e-06	
63	-3.15000e+00	4.568130e-06	
64	-3.20000e+00	4.596885e-06	
65	-3.25000e+00	4.626011e-06	
66	-3.30000e+00	4.655559e-06	
67	0.000000e+00	-2.20991e-22	
68	-5.00000e-02	3.161436e-06	
69	-1.00000e-01	6.072635e-06	
70	-1.50000e-01	8.741010e-06	
71	-2.00000e-01	1.117010e-05	
72	-2.50000e-01	1.336253e-05	
73	-3.00000e-01	1.532082e-05	
74	-3.50000e-01	1.704758e-05	
75	-4.00000e-01	1.854578e-05	
76	-4.50000e-01	1.981912e-05	
77	-5.00000e-01	2.087281e-05	
78	-5.50000e-01	2.171543e-05	
79	-6.00000e-01	2.236262e-05	
80	-6.50000e-01	2.284245e-05	
81	-7.00000e-01	2.319699e-05	
82	-7.50000e-01	2.347164e-05	
83	-8.00000e-01	2.370056e-05	
84	-8.50000e-01	2.390325e-05	
85	-9.00000e-01	2.408959e-05	
86	-9.50000e-01	2.426459e-05	
87	-1.00000e+00	2.443101e-05	
88	-1.05000e+00	2.459050e-05	
89	-1.10000e+00	2.474415e-05	
90	-1.15000e+00	2.489274e-05	
91	-1.20000e+00	2.503688e-05	
92	-1.25000e+00	2.517703e-05	
93	-1.30000e+00	2.531359e-05	
94	-1.35000e+00	2.544687e-05	
95	-1.40000e+00	2.557716e-05	
96	-1.45000e+00	2.570470e-05	
97	-1.50000e+00	2.582970e-05	
98	-1.55000e+00	2.595235e-05	
99	-1.60000e+00	2.607282e-05	
100	-1.65000e+00	2.619126e-05	
101	-1.70000e+00	2.630779e-05	
102	-1.75000e+00	2.642255e-05	
103	-1.80000e+00	2.653565e-05	
104	-1.85000e+00	2.664718e-05	
105	-1.90000e+00	2.675724e-05	
106	-1.95000e+00	2.686591e-05	
107	-2.00000e+00	2.697328e-05	
108	-2.05000e+00	2.707940e-05	
109	-2.10000e+00	2.718436e-05	
110	-2.15000e+00	2.728821e-05	
111	-2.20000e+00	2.739100e-05	
112	-2.25000e+00	2.749280e-05	

Index   v-sweep         i(vds)          
--------------------------------------------------------------------------------
113	-2.30000e+00	2.759365e-05	
114	-2.35000e+00	2.769360e-05	
115	-2.40000e+00	2.779269e-05	
116	-2.45000e+00	2.789097e-05	
117	-2.50000e+00	2.798847e-05	
118	-2.55000e+00	2.808524e-05	
119	-2.60000e+00	2.818131e-05	
120	-2.65000e+00	2.827672e-05	
121	-2.70000e+00	2.837152e-05	
122	-2.75000e+00	2.846574e-05	
123	-2.80000e+00	2.855942e-05	
124	-2.85000e+00	2.865262e-05	
125	-2.90000e+00	2.874538e-05	
126	-2.95000e+00	2.883776e-05	
127	-3.00000e+00	2.892982e-05	
128	-3.05000e+00	2.902163e-05	
129	-3.10000e+00	2.911328e-05	
130	-3.15000e+00	2.920484e-05	
131	-3.20000e+00	2.929642e-05	
132	-3.25000e+00	2.938813e-05	
133	-3.30000e+00	2.948010e-05	
134	0.000000e+00	-1.27082e-21	
135	-5.00000e-02	4.867384e-06	
136	-1.00000e-01	9.498361e-06	
137	-1.50000e-01	1.389957e-05	
138	-2.00000e-01	1.807388e-05	
139	-2.50000e-01	2.202327e-05	
140	-3.00000e-01	2.574947e-05	
141	-3.50000e-01	2.925415e-05	
142	-4.00000e-01	3.253901e-05	
143	-4.50000e-01	3.560574e-05	
144	-5.00000e-01	3.845605e-05	
145	-5.50000e-01	4.109171e-05	
146	-6.00000e-01	4.351454e-05	
147	-6.50000e-01	4.572647e-05	
148	-7.00000e-01	4.772961e-05	
149	-7.50000e-01	4.952634e-05	
150	-8.00000e-01	5.111963e-05	
151	-8.50000e-01	5.251338e-05	
152	-9.00000e-01	5.371335e-05	
153	-9.50000e-01	5.472860e-05	
154	-1.00000e+00	5.557383e-05	
155	-1.05000e+00	5.627170e-05	
156	-1.10000e+00	5.685228e-05	
157	-1.15000e+00	5.734762e-05	
158	-1.20000e+00	5.778461e-05	
159	-1.25000e+00	5.818180e-05	
160	-1.30000e+00	5.855067e-05	
161	-1.35000e+00	5.889813e-05	
162	-1.40000e+00	5.922849e-05	
163	-1.45000e+00	5.954460e-05	
164	-1.50000e+00	5.984845e-05	
165	-1.55000e+00	6.014152e-05	
166	-1.60000e+00	6.042498e-05	
167	-1.65000e+00	6.069978e-05	
168	-1.70000e+00	6.096669e-05	
169	-1.75000e+00	6.122638e-05	
170	-1.80000e+00	6.147943e-05	

Index   v-sweep         i(vds)          
--------------------------------------------------------------------------------
171	-1.85000e+00	6.172634e-05	
172	-1.90000e+00	6.196756e-05	
173	-1.95000e+00	6.220348e-05	
174	-2.00000e+00	6.243446e-05	
175	-2.05000e+00	6.266081e-05	
176	-2.10000e+00	6.288282e-05	
177	-2.15000e+00	6.310076e-05	
178	-2.20000e+00	6.331487e-05	
179	-2.25000e+00	6.352535e-05	
180	-2.30000e+00	6.373242e-05	
181	-2.35000e+00	6.393626e-05	
182	-2.40000e+00	6.413704e-05	
183	-2.45000e+00	6.433491e-05	
184	-2.50000e+00	6.453002e-05	
185	-2.55000e+00	6.472251e-05	
186	-2.60000e+00	6.491250e-05	
187	-2.65000e+00	6.510012e-05	
188	-2.70000e+00	6.528546e-05	
189	-2.75000e+00	6.546863e-05	
190	-2.80000e+00	6.564975e-05	
191	-2.85000e+00	6.582888e-05	
192	-2.90000e+00	6.600614e-05	
193	-2.95000e+00	6.618161e-05	
194	-3.00000e+00	6.635537e-05	
195	-3.05000e+00	6.652751e-05	
196	-3.10000e+00	6.669812e-05	
197	-3.15000e+00	6.686730e-05	
198	-3.20000e+00	6.703514e-05	
199	-3.25000e+00	6.720175e-05	
200	-3.30000e+00	6.736724e-05	
201	0.000000e+00	-1.99416e-21	
202	-5.00000e-02	6.227211e-06	
203	-1.00000e-01	1.223438e-05	
204	-1.50000e-01	1.802763e-05	
205	-2.00000e-01	2.360945e-05	
206	-2.50000e-01	2.898142e-05	
207	-3.00000e-01	3.414487e-05	
208	-3.50000e-01	3.910112e-05	
209	-4.00000e-01	4.385144e-05	
210	-4.50000e-01	4.839711e-05	
211	-5.00000e-01	5.273943e-05	
212	-5.50000e-01	5.687968e-05	
213	-6.00000e-01	6.081915e-05	
214	-6.50000e-01	6.455916e-05	
215	-7.00000e-01	6.810101e-05	
216	-7.50000e-01	7.144603e-05	
217	-8.00000e-01	7.459558e-05	
218	-8.50000e-01	7.755103e-05	
219	-9.00000e-01	8.031380e-05	
220	-9.50000e-01	8.288537e-05	
221	-1.00000e+00	8.526734e-05	
222	-1.05000e+00	8.746144e-05	
223	-1.10000e+00	8.946967e-05	
224	-1.15000e+00	9.129445e-05	
225	-1.20000e+00	9.293891e-05	
226	-1.25000e+00	9.440737e-05	
227	-1.30000e+00	9.570619e-05	
228	-1.35000e+00	9.684497e-05	

Index   v-sweep         i(vds)          
--------------------------------------------------------------------------------
229	-1.40000e+00	9.783795e-05	
230	-1.45000e+00	9.870470e-05	
231	-1.50000e+00	9.946862e-05	
232	-1.55000e+00	1.001532e-04	
233	-1.60000e+00	1.007783e-04	
234	-1.65000e+00	1.013586e-04	
235	-1.70000e+00	1.019040e-04	
236	-1.75000e+00	1.024213e-04	
237	-1.80000e+00	1.029151e-04	
238	-1.85000e+00	1.033886e-04	
239	-1.90000e+00	1.038443e-04	
240	-1.95000e+00	1.042842e-04	
241	-2.00000e+00	1.047097e-04	
242	-2.05000e+00	1.051222e-04	
243	-2.10000e+00	1.055227e-04	
244	-2.15000e+00	1.059122e-04	
245	-2.20000e+00	1.062915e-04	
246	-2.25000e+00	1.066613e-04	
247	-2.30000e+00	1.070223e-04	
248	-2.35000e+00	1.073751e-04	
249	-2.40000e+00	1.077201e-04	
250	-2.45000e+00	1.080579e-04	
251	-2.50000e+00	1.083889e-04	
252	-2.55000e+00	1.087134e-04	
253	-2.60000e+00	1.090319e-04	
254	-2.65000e+00	1.093446e-04	
255	-2.70000e+00	1.096519e-04	
256	-2.75000e+00	1.099540e-04	
257	-2.80000e+00	1.102512e-04	
258	-2.85000e+00	1.105437e-04	
259	-2.90000e+00	1.108318e-04	
260	-2.95000e+00	1.111157e-04	
261	-3.00000e+00	1.113956e-04	
262	-3.05000e+00	1.116715e-04	
263	-3.10000e+00	1.119438e-04	
264	-3.15000e+00	1.122126e-04	
265	-3.20000e+00	1.124780e-04	
266	-3.25000e+00	1.127402e-04	
267	-3.30000e+00	1.129994e-04	
268	0.000000e+00	-2.25015e-21	
269	-5.00000e-02	7.345576e-06	
270	-1.00000e-01	1.448625e-05	
271	-1.50000e-01	2.142777e-05	
272	-2.00000e-01	2.817236e-05	
273	-2.50000e-01	3.472133e-05	
274	-3.00000e-01	4.107578e-05	
275	-3.50000e-01	4.723673e-05	
276	-4.00000e-01	5.320521e-05	
277	-4.50000e-01	5.898224e-05	
278	-5.00000e-01	6.456884e-05	
279	-5.50000e-01	6.996605e-05	
280	-6.00000e-01	7.517489e-05	
281	-6.50000e-01	8.019638e-05	
282	-7.00000e-01	8.503157e-05	
283	-7.50000e-01	8.968148e-05	
284	-8.00000e-01	9.414717e-05	
285	-8.50000e-01	9.842966e-05	
286	-9.00000e-01	1.025300e-04	

Index   v-sweep         i(vds)          
--------------------------------------------------------------------------------
287	-9.50000e-01	1.064493e-04	
288	-1.00000e+00	1.101886e-04	
289	-1.05000e+00	1.137489e-04	
290	-1.10000e+00	1.171314e-04	
291	-1.15000e+00	1.203371e-04	
292	-1.20000e+00	1.233673e-04	
293	-1.25000e+00	1.262231e-04	
294	-1.30000e+00	1.289057e-04	
295	-1.35000e+00	1.314165e-04	
296	-1.40000e+00	1.337570e-04	
297	-1.45000e+00	1.359288e-04	
298	-1.50000e+00	1.379341e-04	
299	-1.55000e+00	1.397755e-04	
300	-1.60000e+00	1.414564e-04	
301	-1.65000e+00	1.429817e-04	
302	-1.70000e+00	1.443586e-04	
303	-1.75000e+00	1.455971e-04	
304	-1.80000e+00	1.467110e-04	
305	-1.85000e+00	1.477173e-04	
306	-1.90000e+00	1.486346e-04	
307	-1.95000e+00	1.494803e-04	
308	-2.00000e+00	1.502690e-04	
309	-2.05000e+00	1.510119e-04	
310	-2.10000e+00	1.517168e-04	
311	-2.15000e+00	1.523896e-04	
312	-2.20000e+00	1.530347e-04	
313	-2.25000e+00	1.536552e-04	
314	-2.30000e+00	1.542538e-04	
315	-2.35000e+00	1.548324e-04	
316	-2.40000e+00	1.553930e-04	
317	-2.45000e+00	1.559369e-04	
318	-2.50000e+00	1.564654e-04	
319	-2.55000e+00	1.569796e-04	
320	-2.60000e+00	1.574806e-04	
321	-2.65000e+00	1.579692e-04	
322	-2.70000e+00	1.584462e-04	
323	-2.75000e+00	1.589124e-04	
324	-2.80000e+00	1.593683e-04	
325	-2.85000e+00	1.598146e-04	
326	-2.90000e+00	1.602518e-04	
327	-2.95000e+00	1.606804e-04	
328	-3.00000e+00	1.611009e-04	
329	-3.05000e+00	1.615137e-04	
330	-3.10000e+00	1.619191e-04	
331	-3.15000e+00	1.623176e-04	
332	-3.20000e+00	1.627094e-04	
333	-3.25000e+00	1.630949e-04	
334	-3.30000e+00	1.634744e-04	
335	0.000000e+00	-1.76662e-21	
336	-5.00000e-02	8.290074e-06	
337	-1.00000e-01	1.638859e-05	
338	-1.50000e-01	2.430103e-05	
339	-2.00000e-01	3.202940e-05	
340	-2.50000e-01	3.957484e-05	
341	-3.00000e-01	4.693826e-05	
342	-3.50000e-01	5.412051e-05	
343	-4.00000e-01	6.112242e-05	
344	-4.50000e-01	6.794482e-05	

Index   v-sweep         i(vds)          
--------------------------------------------------------------------------------
345	-5.00000e-01	7.458857e-05	
346	-5.50000e-01	8.105449e-05	
347	-6.00000e-01	8.734342e-05	
348	-6.50000e-01	9.345622e-05	
349	-7.00000e-01	9.939373e-05	
350	-7.50000e-01	1.051568e-04	
351	-8.00000e-01	1.107463e-04	
352	-8.50000e-01	1.161630e-04	
353	-9.00000e-01	1.214078e-04	
354	-9.50000e-01	1.264816e-04	
355	-1.00000e+00	1.313852e-04	
356	-1.05000e+00	1.361196e-04	
357	-1.10000e+00	1.406854e-04	
358	-1.15000e+00	1.450837e-04	
359	-1.20000e+00	1.493153e-04	
360	-1.25000e+00	1.533811e-04	
361	-1.30000e+00	1.572819e-04	
362	-1.35000e+00	1.610187e-04	
363	-1.40000e+00	1.645924e-04	
364	-1.45000e+00	1.680038e-04	
365	-1.50000e+00	1.712540e-04	
366	-1.55000e+00	1.743439e-04	
367	-1.60000e+00	1.772746e-04	
368	-1.65000e+00	1.800470e-04	
369	-1.70000e+00	1.826625e-04	
370	-1.75000e+00	1.851222e-04	
371	-1.80000e+00	1.874277e-04	
372	-1.85000e+00	1.895807e-04	
373	-1.90000e+00	1.915836e-04	
374	-1.95000e+00	1.934392e-04	
375	-2.00000e+00	1.951516e-04	
376	-2.05000e+00	1.967264e-04	
377	-2.10000e+00	1.981713e-04	
378	-2.15000e+00	1.994967e-04	
379	-2.20000e+00	2.007154e-04	
380	-2.25000e+00	2.018421e-04	
381	-2.30000e+00	2.028912e-04	
382	-2.35000e+00	2.038757e-04	
383	-2.40000e+00	2.048064e-04	
384	-2.45000e+00	2.056917e-04	
385	-2.50000e+00	2.065377e-04	
386	-2.55000e+00	2.073495e-04	
387	-2.60000e+00	2.081307e-04	
388	-2.65000e+00	2.088846e-04	
389	-2.70000e+00	2.096135e-04	
390	-2.75000e+00	2.103196e-04	
391	-2.80000e+00	2.110046e-04	
392	-2.85000e+00	2.116702e-04	
393	-2.90000e+00	2.123177e-04	
394	-2.95000e+00	2.129484e-04	
395	-3.00000e+00	2.135633e-04	
396	-3.05000e+00	2.141634e-04	
397	-3.10000e+00	2.147497e-04	
398	-3.15000e+00	2.153228e-04	
399	-3.20000e+00	2.158836e-04	
400	-3.25000e+00	2.164327e-04	
401	-3.30000e+00	2.169708e-04	
Note: No ".plot", ".print", or ".fourier" lines; no simulations run
