
Note: Compatibility modes selected: hs

Warning: m=xx on .subckt line will override multiplier m hierarchy!


Circuit: ***************************

Doing analysis at TEMP = 125.000000 and TNOM = 125.000000


No. of Data Rows : 402
                          ***************************
                          DC transfer characteristic  Mon Jan  9 13:58:24  2023
--------------------------------------------------------------------------------
Index   v-sweep         i(vds)          
--------------------------------------------------------------------------------
0	0.000000e+00	-1.80316e-22	
1	-5.00000e-02	3.925431e-07	
2	-1.00000e-01	5.778812e-07	
3	-1.50000e-01	6.424804e-07	
4	-2.00000e-01	6.584140e-07	
5	-2.50000e-01	6.628020e-07	
6	-3.00000e-01	6.644873e-07	
7	-3.50000e-01	6.653481e-07	
8	-4.00000e-01	6.658874e-07	
9	-4.50000e-01	6.662753e-07	
10	-5.00000e-01	6.665808e-07	
11	-5.50000e-01	6.668364e-07	
12	-6.00000e-01	6.670592e-07	
13	-6.50000e-01	6.672591e-07	
14	-7.00000e-01	6.674418e-07	
15	-7.50000e-01	6.676115e-07	
16	-8.00000e-01	6.677708e-07	
17	-8.50000e-01	6.679215e-07	
18	-9.00000e-01	6.680651e-07	
19	-9.50000e-01	6.682026e-07	
20	-1.00000e+00	6.683348e-07	
21	-1.05000e+00	6.684624e-07	
22	-1.10000e+00	6.685860e-07	
23	-1.15000e+00	6.687059e-07	
24	-1.20000e+00	6.688225e-07	
25	-1.25000e+00	6.689361e-07	
26	-1.30000e+00	6.690470e-07	
27	-1.35000e+00	6.691554e-07	
28	-1.40000e+00	6.692615e-07	
29	-1.45000e+00	6.693655e-07	
30	-1.50000e+00	6.694675e-07	
31	-1.55000e+00	6.695677e-07	
32	-1.60000e+00	6.696662e-07	
33	-1.65000e+00	6.697630e-07	
34	-1.70000e+00	6.698583e-07	
35	-1.75000e+00	6.699523e-07	
36	-1.80000e+00	6.700448e-07	
37	-1.85000e+00	6.701361e-07	
38	-1.90000e+00	6.702262e-07	
39	-1.95000e+00	6.703152e-07	
40	-2.00000e+00	6.704031e-07	
41	-2.05000e+00	6.704900e-07	
42	-2.10000e+00	6.705759e-07	
43	-2.15000e+00	6.706610e-07	
44	-2.20000e+00	6.707453e-07	
45	-2.25000e+00	6.708288e-07	
46	-2.30000e+00	6.709117e-07	
47	-2.35000e+00	6.709941e-07	
48	-2.40000e+00	6.710761e-07	
49	-2.45000e+00	6.711580e-07	
50	-2.50000e+00	6.712399e-07	
51	-2.55000e+00	6.713222e-07	
52	-2.60000e+00	6.714052e-07	
53	-2.65000e+00	6.714894e-07	
54	-2.70000e+00	6.715754e-07	

Index   v-sweep         i(vds)          
--------------------------------------------------------------------------------
55	-2.75000e+00	6.716639e-07	
56	-2.80000e+00	6.717559e-07	
57	-2.85000e+00	6.718524e-07	
58	-2.90000e+00	6.719548e-07	
59	-2.95000e+00	6.720647e-07	
60	-3.00000e+00	6.721841e-07	
61	-3.05000e+00	6.723152e-07	
62	-3.10000e+00	6.724607e-07	
63	-3.15000e+00	6.726238e-07	
64	-3.20000e+00	6.728082e-07	
65	-3.25000e+00	6.730181e-07	
66	-3.30000e+00	6.732584e-07	
67	0.000000e+00	6.666026e-22	
68	-5.00000e-02	1.642498e-06	
69	-1.00000e-01	3.034251e-06	
70	-1.50000e-01	4.230341e-06	
71	-2.00000e-01	5.244051e-06	
72	-2.50000e-01	6.079285e-06	
73	-3.00000e-01	6.738657e-06	
74	-3.50000e-01	7.226746e-06	
75	-4.00000e-01	7.554312e-06	
76	-4.50000e-01	7.745631e-06	
77	-5.00000e-01	7.842032e-06	
78	-5.50000e-01	7.887310e-06	
79	-6.00000e-01	7.909678e-06	
80	-6.50000e-01	7.922128e-06	
81	-7.00000e-01	7.929995e-06	
82	-7.50000e-01	7.935525e-06	
83	-8.00000e-01	7.939743e-06	
84	-8.50000e-01	7.943160e-06	
85	-9.00000e-01	7.946052e-06	
86	-9.50000e-01	7.948578e-06	
87	-1.00000e+00	7.950836e-06	
88	-1.05000e+00	7.952890e-06	
89	-1.10000e+00	7.954782e-06	
90	-1.15000e+00	7.956543e-06	
91	-1.20000e+00	7.958195e-06	
92	-1.25000e+00	7.959755e-06	
93	-1.30000e+00	7.961236e-06	
94	-1.35000e+00	7.962648e-06	
95	-1.40000e+00	7.963999e-06	
96	-1.45000e+00	7.965296e-06	
97	-1.50000e+00	7.966543e-06	
98	-1.55000e+00	7.967747e-06	
99	-1.60000e+00	7.968910e-06	
100	-1.65000e+00	7.970037e-06	
101	-1.70000e+00	7.971130e-06	
102	-1.75000e+00	7.972191e-06	
103	-1.80000e+00	7.973224e-06	
104	-1.85000e+00	7.974229e-06	
105	-1.90000e+00	7.975209e-06	
106	-1.95000e+00	7.976166e-06	
107	-2.00000e+00	7.977101e-06	
108	-2.05000e+00	7.978014e-06	
109	-2.10000e+00	7.978909e-06	
110	-2.15000e+00	7.979784e-06	
111	-2.20000e+00	7.980642e-06	
112	-2.25000e+00	7.981484e-06	

Index   v-sweep         i(vds)          
--------------------------------------------------------------------------------
113	-2.30000e+00	7.982310e-06	
114	-2.35000e+00	7.983121e-06	
115	-2.40000e+00	7.983919e-06	
116	-2.45000e+00	7.984703e-06	
117	-2.50000e+00	7.985476e-06	
118	-2.55000e+00	7.986237e-06	
119	-2.60000e+00	7.986989e-06	
120	-2.65000e+00	7.987733e-06	
121	-2.70000e+00	7.988470e-06	
122	-2.75000e+00	7.989203e-06	
123	-2.80000e+00	7.989935e-06	
124	-2.85000e+00	7.990670e-06	
125	-2.90000e+00	7.991412e-06	
126	-2.95000e+00	7.992168e-06	
127	-3.00000e+00	7.992944e-06	
128	-3.05000e+00	7.993751e-06	
129	-3.10000e+00	7.994599e-06	
130	-3.15000e+00	7.995504e-06	
131	-3.20000e+00	7.996481e-06	
132	-3.25000e+00	7.997553e-06	
133	-3.30000e+00	7.998743e-06	
134	0.000000e+00	7.461357e-26	
135	-5.00000e-02	2.813193e-06	
136	-1.00000e-01	5.382325e-06	
137	-1.50000e-01	7.762156e-06	
138	-2.00000e-01	9.965568e-06	
139	-2.50000e-01	1.199566e-05	
140	-3.00000e-01	1.385328e-05	
141	-3.50000e-01	1.553878e-05	
142	-4.00000e-01	1.705245e-05	
143	-4.50000e-01	1.839466e-05	
144	-5.00000e-01	1.956600e-05	
145	-5.50000e-01	2.056741e-05	
146	-6.00000e-01	2.140061e-05	
147	-6.50000e-01	2.206879e-05	
148	-7.00000e-01	2.257823e-05	
149	-7.50000e-01	2.294107e-05	
150	-8.00000e-01	2.317882e-05	
151	-8.50000e-01	2.332262e-05	
152	-9.00000e-01	2.340596e-05	
153	-9.50000e-01	2.345501e-05	
154	-1.00000e+00	2.348568e-05	
155	-1.05000e+00	2.350645e-05	
156	-1.10000e+00	2.352161e-05	
157	-1.15000e+00	2.353341e-05	
158	-1.20000e+00	2.354306e-05	
159	-1.25000e+00	2.355126e-05	
160	-1.30000e+00	2.355844e-05	
161	-1.35000e+00	2.356485e-05	
162	-1.40000e+00	2.357067e-05	
163	-1.45000e+00	2.357602e-05	
164	-1.50000e+00	2.358099e-05	
165	-1.55000e+00	2.358565e-05	
166	-1.60000e+00	2.359003e-05	
167	-1.65000e+00	2.359418e-05	
168	-1.70000e+00	2.359813e-05	
169	-1.75000e+00	2.360190e-05	
170	-1.80000e+00	2.360552e-05	

Index   v-sweep         i(vds)          
--------------------------------------------------------------------------------
171	-1.85000e+00	2.360898e-05	
172	-1.90000e+00	2.361232e-05	
173	-1.95000e+00	2.361554e-05	
174	-2.00000e+00	2.361865e-05	
175	-2.05000e+00	2.362166e-05	
176	-2.10000e+00	2.362458e-05	
177	-2.15000e+00	2.362741e-05	
178	-2.20000e+00	2.363017e-05	
179	-2.25000e+00	2.363284e-05	
180	-2.30000e+00	2.363545e-05	
181	-2.35000e+00	2.363800e-05	
182	-2.40000e+00	2.364048e-05	
183	-2.45000e+00	2.364290e-05	
184	-2.50000e+00	2.364527e-05	
185	-2.55000e+00	2.364759e-05	
186	-2.60000e+00	2.364986e-05	
187	-2.65000e+00	2.365208e-05	
188	-2.70000e+00	2.365426e-05	
189	-2.75000e+00	2.365640e-05	
190	-2.80000e+00	2.365850e-05	
191	-2.85000e+00	2.366057e-05	
192	-2.90000e+00	2.366260e-05	
193	-2.95000e+00	2.366460e-05	
194	-3.00000e+00	2.366658e-05	
195	-3.05000e+00	2.366854e-05	
196	-3.10000e+00	2.367048e-05	
197	-3.15000e+00	2.367243e-05	
198	-3.20000e+00	2.367438e-05	
199	-3.25000e+00	2.367635e-05	
200	-3.30000e+00	2.367836e-05	
201	0.000000e+00	-2.20810e-25	
202	-5.00000e-02	3.858271e-06	
203	-1.00000e-01	7.483489e-06	
204	-1.50000e-01	1.093029e-05	
205	-2.00000e-01	1.421151e-05	
206	-2.50000e-01	1.733019e-05	
207	-3.00000e-01	2.028712e-05	
208	-3.50000e-01	2.308253e-05	
209	-4.00000e-01	2.571654e-05	
210	-4.50000e-01	2.818926e-05	
211	-5.00000e-01	3.050078e-05	
212	-5.50000e-01	3.265122e-05	
213	-6.00000e-01	3.464074e-05	
214	-6.50000e-01	3.646950e-05	
215	-7.00000e-01	3.813773e-05	
216	-7.50000e-01	3.964577e-05	
217	-8.00000e-01	4.099406e-05	
218	-8.50000e-01	4.218331e-05	
219	-9.00000e-01	4.321461e-05	
220	-9.50000e-01	4.408980e-05	
221	-1.00000e+00	4.481201e-05	
222	-1.05000e+00	4.538672e-05	
223	-1.10000e+00	4.582342e-05	
224	-1.15000e+00	4.613758e-05	
225	-1.20000e+00	4.635144e-05	
226	-1.25000e+00	4.649133e-05	
227	-1.30000e+00	4.658203e-05	
228	-1.35000e+00	4.664236e-05	

Index   v-sweep         i(vds)          
--------------------------------------------------------------------------------
229	-1.40000e+00	4.668446e-05	
230	-1.45000e+00	4.671555e-05	
231	-1.50000e+00	4.673975e-05	
232	-1.55000e+00	4.675946e-05	
233	-1.60000e+00	4.677612e-05	
234	-1.65000e+00	4.679060e-05	
235	-1.70000e+00	4.680347e-05	
236	-1.75000e+00	4.681509e-05	
237	-1.80000e+00	4.682574e-05	
238	-1.85000e+00	4.683559e-05	
239	-1.90000e+00	4.684478e-05	
240	-1.95000e+00	4.685342e-05	
241	-2.00000e+00	4.686157e-05	
242	-2.05000e+00	4.686931e-05	
243	-2.10000e+00	4.687668e-05	
244	-2.15000e+00	4.688373e-05	
245	-2.20000e+00	4.689048e-05	
246	-2.25000e+00	4.689697e-05	
247	-2.30000e+00	4.690322e-05	
248	-2.35000e+00	4.690925e-05	
249	-2.40000e+00	4.691508e-05	
250	-2.45000e+00	4.692072e-05	
251	-2.50000e+00	4.692618e-05	
252	-2.55000e+00	4.693149e-05	
253	-2.60000e+00	4.693665e-05	
254	-2.65000e+00	4.694167e-05	
255	-2.70000e+00	4.694655e-05	
256	-2.75000e+00	4.695131e-05	
257	-2.80000e+00	4.695596e-05	
258	-2.85000e+00	4.696049e-05	
259	-2.90000e+00	4.696492e-05	
260	-2.95000e+00	4.696926e-05	
261	-3.00000e+00	4.697350e-05	
262	-3.05000e+00	4.697765e-05	
263	-3.10000e+00	4.698172e-05	
264	-3.15000e+00	4.698571e-05	
265	-3.20000e+00	4.698963e-05	
266	-3.25000e+00	4.699348e-05	
267	-3.30000e+00	4.699727e-05	
268	0.000000e+00	8.083585e-25	
269	-5.00000e-02	4.792370e-06	
270	-1.00000e-01	9.363133e-06	
271	-1.50000e-01	1.376682e-05	
272	-2.00000e-01	1.801626e-05	
273	-2.50000e-01	2.211448e-05	
274	-3.00000e-01	2.606224e-05	
275	-3.50000e-01	2.985977e-05	
276	-4.00000e-01	3.350715e-05	
277	-4.50000e-01	3.700447e-05	
278	-5.00000e-01	4.035179e-05	
279	-5.50000e-01	4.354916e-05	
280	-6.00000e-01	4.659667e-05	
281	-6.50000e-01	4.949437e-05	
282	-7.00000e-01	5.224235e-05	
283	-7.50000e-01	5.484069e-05	
284	-8.00000e-01	5.728947e-05	
285	-8.50000e-01	5.958881e-05	
286	-9.00000e-01	6.173883e-05	

Index   v-sweep         i(vds)          
--------------------------------------------------------------------------------
287	-9.50000e-01	6.373967e-05	
288	-1.00000e+00	6.559150e-05	
289	-1.05000e+00	6.729458e-05	
290	-1.10000e+00	6.884920e-05	
291	-1.15000e+00	7.025580e-05	
292	-1.20000e+00	7.151502e-05	
293	-1.25000e+00	7.262779e-05	
294	-1.30000e+00	7.359557e-05	
295	-1.35000e+00	7.442067e-05	
296	-1.40000e+00	7.510682e-05	
297	-1.45000e+00	7.566009e-05	
298	-1.50000e+00	7.609007e-05	
299	-1.55000e+00	7.641097e-05	
300	-1.60000e+00	7.664160e-05	
301	-1.65000e+00	7.680324e-05	
302	-1.70000e+00	7.691612e-05	
303	-1.75000e+00	7.699644e-05	
304	-1.80000e+00	7.705564e-05	
305	-1.85000e+00	7.710113e-05	
306	-1.90000e+00	7.713756e-05	
307	-1.95000e+00	7.716781e-05	
308	-2.00000e+00	7.719369e-05	
309	-2.05000e+00	7.721639e-05	
310	-2.10000e+00	7.723668e-05	
311	-2.15000e+00	7.725508e-05	
312	-2.20000e+00	7.727199e-05	
313	-2.25000e+00	7.728766e-05	
314	-2.30000e+00	7.730231e-05	
315	-2.35000e+00	7.731608e-05	
316	-2.40000e+00	7.732910e-05	
317	-2.45000e+00	7.734146e-05	
318	-2.50000e+00	7.735324e-05	
319	-2.55000e+00	7.736450e-05	
320	-2.60000e+00	7.737530e-05	
321	-2.65000e+00	7.738567e-05	
322	-2.70000e+00	7.739565e-05	
323	-2.75000e+00	7.740529e-05	
324	-2.80000e+00	7.741460e-05	
325	-2.85000e+00	7.742362e-05	
326	-2.90000e+00	7.743235e-05	
327	-2.95000e+00	7.744083e-05	
328	-3.00000e+00	7.744906e-05	
329	-3.05000e+00	7.745707e-05	
330	-3.10000e+00	7.746487e-05	
331	-3.15000e+00	7.747247e-05	
332	-3.20000e+00	7.747988e-05	
333	-3.25000e+00	7.748712e-05	
334	-3.30000e+00	7.749418e-05	
335	0.000000e+00	-8.51038e-25	
336	-5.00000e-02	5.630102e-06	
337	-1.00000e-01	1.104960e-05	
338	-1.50000e-01	1.631294e-05	
339	-2.00000e-01	2.143293e-05	
340	-2.50000e-01	2.641260e-05	
341	-3.00000e-01	3.125271e-05	
342	-3.50000e-01	3.595346e-05	
343	-4.00000e-01	4.051495e-05	
344	-4.50000e-01	4.493723e-05	

Index   v-sweep         i(vds)          
--------------------------------------------------------------------------------
345	-5.00000e-01	4.922037e-05	
346	-5.50000e-01	5.336441e-05	
347	-6.00000e-01	5.736940e-05	
348	-6.50000e-01	6.123541e-05	
349	-7.00000e-01	6.496248e-05	
350	-7.50000e-01	6.855066e-05	
351	-8.00000e-01	7.200002e-05	
352	-8.50000e-01	7.531062e-05	
353	-9.00000e-01	7.848251e-05	
354	-9.50000e-01	8.151576e-05	
355	-1.00000e+00	8.441044e-05	
356	-1.05000e+00	8.716661e-05	
357	-1.10000e+00	8.978436e-05	
358	-1.15000e+00	9.226377e-05	
359	-1.20000e+00	9.460494e-05	
360	-1.25000e+00	9.680797e-05	
361	-1.30000e+00	9.887301e-05	
362	-1.35000e+00	1.008002e-04	
363	-1.40000e+00	1.025898e-04	
364	-1.45000e+00	1.042419e-04	
365	-1.50000e+00	1.057571e-04	
366	-1.55000e+00	1.071356e-04	
367	-1.60000e+00	1.083782e-04	
368	-1.65000e+00	1.094859e-04	
369	-1.70000e+00	1.104600e-04	
370	-1.75000e+00	1.113027e-04	
371	-1.80000e+00	1.120174e-04	
372	-1.85000e+00	1.126090e-04	
373	-1.90000e+00	1.130853e-04	
374	-1.95000e+00	1.134573e-04	
375	-2.00000e+00	1.137394e-04	
376	-2.05000e+00	1.139487e-04	
377	-2.10000e+00	1.141027e-04	
378	-2.15000e+00	1.142168e-04	
379	-2.20000e+00	1.143032e-04	
380	-2.25000e+00	1.143707e-04	
381	-2.30000e+00	1.144251e-04	
382	-2.35000e+00	1.144705e-04	
383	-2.40000e+00	1.145093e-04	
384	-2.45000e+00	1.145433e-04	
385	-2.50000e+00	1.145736e-04	
386	-2.55000e+00	1.146010e-04	
387	-2.60000e+00	1.146262e-04	
388	-2.65000e+00	1.146495e-04	
389	-2.70000e+00	1.146712e-04	
390	-2.75000e+00	1.146916e-04	
391	-2.80000e+00	1.147108e-04	
392	-2.85000e+00	1.147291e-04	
393	-2.90000e+00	1.147465e-04	
394	-2.95000e+00	1.147631e-04	
395	-3.00000e+00	1.147790e-04	
396	-3.05000e+00	1.147942e-04	
397	-3.10000e+00	1.148089e-04	
398	-3.15000e+00	1.148231e-04	
399	-3.20000e+00	1.148367e-04	
400	-3.25000e+00	1.148500e-04	
401	-3.30000e+00	1.148628e-04	
Note: No ".plot", ".print", or ".fourier" lines; no simulations run
