
Note: Compatibility modes selected: hs

Warning: m=xx on .subckt line will override multiplier m hierarchy!


Circuit: ***************************

Doing analysis at TEMP = 25.000000 and TNOM = 25.000000


No. of Data Rows : 402
                          ***************************
                          DC transfer characteristic  Mon Jan  9 13:58:23  2023
--------------------------------------------------------------------------------
Index   v-sweep         i(vds)          
--------------------------------------------------------------------------------
0	0.000000e+00	1.020446e-30	
1	-5.00000e-02	6.202563e-09	
2	-1.00000e-01	7.596440e-09	
3	-1.50000e-01	7.802986e-09	
4	-2.00000e-01	7.854690e-09	
5	-2.50000e-01	7.875961e-09	
6	-3.00000e-01	7.887859e-09	
7	-3.50000e-01	7.895920e-09	
8	-4.00000e-01	7.902083e-09	
9	-4.50000e-01	7.907173e-09	
10	-5.00000e-01	7.911593e-09	
11	-5.50000e-01	7.915559e-09	
12	-6.00000e-01	7.919199e-09	
13	-6.50000e-01	7.922595e-09	
14	-7.00000e-01	7.925800e-09	
15	-7.50000e-01	7.928851e-09	
16	-8.00000e-01	7.931774e-09	
17	-8.50000e-01	7.934590e-09	
18	-9.00000e-01	7.937314e-09	
19	-9.50000e-01	7.939957e-09	
20	-1.00000e+00	7.942531e-09	
21	-1.05000e+00	7.945041e-09	
22	-1.10000e+00	7.947496e-09	
23	-1.15000e+00	7.949900e-09	
24	-1.20000e+00	7.952258e-09	
25	-1.25000e+00	7.954575e-09	
26	-1.30000e+00	7.956852e-09	
27	-1.35000e+00	7.959095e-09	
28	-1.40000e+00	7.961304e-09	
29	-1.45000e+00	7.963483e-09	
30	-1.50000e+00	7.965634e-09	
31	-1.55000e+00	7.967758e-09	
32	-1.60000e+00	7.969857e-09	
33	-1.65000e+00	7.971933e-09	
34	-1.70000e+00	7.973987e-09	
35	-1.75000e+00	7.976020e-09	
36	-1.80000e+00	7.978034e-09	
37	-1.85000e+00	7.980029e-09	
38	-1.90000e+00	7.982007e-09	
39	-1.95000e+00	7.983969e-09	
40	-2.00000e+00	7.985915e-09	
41	-2.05000e+00	7.987846e-09	
42	-2.10000e+00	7.989764e-09	
43	-2.15000e+00	7.991669e-09	
44	-2.20000e+00	7.993563e-09	
45	-2.25000e+00	7.995446e-09	
46	-2.30000e+00	7.997322e-09	
47	-2.35000e+00	7.999190e-09	
48	-2.40000e+00	8.001055e-09	
49	-2.45000e+00	8.002918e-09	
50	-2.50000e+00	8.004784e-09	
51	-2.55000e+00	8.006658e-09	
52	-2.60000e+00	8.008545e-09	
53	-2.65000e+00	8.010453e-09	
54	-2.70000e+00	8.012391e-09	

Index   v-sweep         i(vds)          
--------------------------------------------------------------------------------
55	-2.75000e+00	8.014370e-09	
56	-2.80000e+00	8.016404e-09	
57	-2.85000e+00	8.018511e-09	
58	-2.90000e+00	8.020709e-09	
59	-2.95000e+00	8.023024e-09	
60	-3.00000e+00	8.025484e-09	
61	-3.05000e+00	8.028122e-09	
62	-3.10000e+00	8.030979e-09	
63	-3.15000e+00	8.034099e-09	
64	-3.20000e+00	8.037537e-09	
65	-3.25000e+00	8.041354e-09	
66	-3.30000e+00	8.045619e-09	
67	0.000000e+00	-5.33673e-24	
68	-5.00000e-02	8.649802e-08	
69	-1.00000e-01	1.606013e-07	
70	-1.50000e-01	2.223489e-07	
71	-2.00000e-01	2.718205e-07	
72	-2.50000e-01	3.092000e-07	
73	-3.00000e-01	3.349636e-07	
74	-3.50000e-01	3.503569e-07	
75	-4.00000e-01	3.580146e-07	
76	-4.50000e-01	3.613671e-07	
77	-5.00000e-01	3.628726e-07	
78	-5.50000e-01	3.636458e-07	
79	-6.00000e-01	3.641077e-07	
80	-6.50000e-01	3.644208e-07	
81	-7.00000e-01	3.646541e-07	
82	-7.50000e-01	3.648402e-07	
83	-8.00000e-01	3.649960e-07	
84	-8.50000e-01	3.651311e-07	
85	-9.00000e-01	3.652511e-07	
86	-9.50000e-01	3.653598e-07	
87	-1.00000e+00	3.654595e-07	
88	-1.05000e+00	3.655520e-07	
89	-1.10000e+00	3.656386e-07	
90	-1.15000e+00	3.657202e-07	
91	-1.20000e+00	3.657974e-07	
92	-1.25000e+00	3.658709e-07	
93	-1.30000e+00	3.659411e-07	
94	-1.35000e+00	3.660084e-07	
95	-1.40000e+00	3.660730e-07	
96	-1.45000e+00	3.661353e-07	
97	-1.50000e+00	3.661955e-07	
98	-1.55000e+00	3.662537e-07	
99	-1.60000e+00	3.663100e-07	
100	-1.65000e+00	3.663648e-07	
101	-1.70000e+00	3.664180e-07	
102	-1.75000e+00	3.664698e-07	
103	-1.80000e+00	3.665202e-07	
104	-1.85000e+00	3.665694e-07	
105	-1.90000e+00	3.666175e-07	
106	-1.95000e+00	3.666645e-07	
107	-2.00000e+00	3.667104e-07	
108	-2.05000e+00	3.667554e-07	
109	-2.10000e+00	3.667994e-07	
110	-2.15000e+00	3.668427e-07	
111	-2.20000e+00	3.668851e-07	
112	-2.25000e+00	3.669267e-07	

Index   v-sweep         i(vds)          
--------------------------------------------------------------------------------
113	-2.30000e+00	3.669676e-07	
114	-2.35000e+00	3.670078e-07	
115	-2.40000e+00	3.670474e-07	
116	-2.45000e+00	3.670864e-07	
117	-2.50000e+00	3.671248e-07	
118	-2.55000e+00	3.671628e-07	
119	-2.60000e+00	3.672004e-07	
120	-2.65000e+00	3.672376e-07	
121	-2.70000e+00	3.672746e-07	
122	-2.75000e+00	3.673116e-07	
123	-2.80000e+00	3.673486e-07	
124	-2.85000e+00	3.673859e-07	
125	-2.90000e+00	3.674238e-07	
126	-2.95000e+00	3.674626e-07	
127	-3.00000e+00	3.675026e-07	
128	-3.05000e+00	3.675444e-07	
129	-3.10000e+00	3.675886e-07	
130	-3.15000e+00	3.676360e-07	
131	-3.20000e+00	3.676873e-07	
132	-3.25000e+00	3.677438e-07	
133	-3.30000e+00	3.678066e-07	
134	0.000000e+00	-1.69246e-22	
135	-5.00000e-02	1.681875e-07	
136	-1.00000e-01	3.242421e-07	
137	-1.50000e-01	4.681717e-07	
138	-2.00000e-01	5.999853e-07	
139	-2.50000e-01	7.196942e-07	
140	-3.00000e-01	8.273133e-07	
141	-3.50000e-01	9.228638e-07	
142	-4.00000e-01	1.006378e-06	
143	-4.50000e-01	1.077911e-06	
144	-5.00000e-01	1.137558e-06	
145	-5.50000e-01	1.185504e-06	
146	-6.00000e-01	1.222122e-06	
147	-6.50000e-01	1.248173e-06	
148	-7.00000e-01	1.265097e-06	
149	-7.50000e-01	1.275120e-06	
150	-8.00000e-01	1.280748e-06	
151	-8.50000e-01	1.283954e-06	
152	-9.00000e-01	1.285911e-06	
153	-9.50000e-01	1.287215e-06	
154	-1.00000e+00	1.288159e-06	
155	-1.05000e+00	1.288890e-06	
156	-1.10000e+00	1.289486e-06	
157	-1.15000e+00	1.289992e-06	
158	-1.20000e+00	1.290433e-06	
159	-1.25000e+00	1.290826e-06	
160	-1.30000e+00	1.291182e-06	
161	-1.35000e+00	1.291509e-06	
162	-1.40000e+00	1.291812e-06	
163	-1.45000e+00	1.292095e-06	
164	-1.50000e+00	1.292361e-06	
165	-1.55000e+00	1.292613e-06	
166	-1.60000e+00	1.292852e-06	
167	-1.65000e+00	1.293079e-06	
168	-1.70000e+00	1.293297e-06	
169	-1.75000e+00	1.293505e-06	
170	-1.80000e+00	1.293706e-06	

Index   v-sweep         i(vds)          
--------------------------------------------------------------------------------
171	-1.85000e+00	1.293899e-06	
172	-1.90000e+00	1.294085e-06	
173	-1.95000e+00	1.294265e-06	
174	-2.00000e+00	1.294439e-06	
175	-2.05000e+00	1.294609e-06	
176	-2.10000e+00	1.294773e-06	
177	-2.15000e+00	1.294932e-06	
178	-2.20000e+00	1.295087e-06	
179	-2.25000e+00	1.295239e-06	
180	-2.30000e+00	1.295386e-06	
181	-2.35000e+00	1.295530e-06	
182	-2.40000e+00	1.295670e-06	
183	-2.45000e+00	1.295808e-06	
184	-2.50000e+00	1.295942e-06	
185	-2.55000e+00	1.296074e-06	
186	-2.60000e+00	1.296203e-06	
187	-2.65000e+00	1.296329e-06	
188	-2.70000e+00	1.296453e-06	
189	-2.75000e+00	1.296575e-06	
190	-2.80000e+00	1.296694e-06	
191	-2.85000e+00	1.296812e-06	
192	-2.90000e+00	1.296928e-06	
193	-2.95000e+00	1.297043e-06	
194	-3.00000e+00	1.297157e-06	
195	-3.05000e+00	1.297270e-06	
196	-3.10000e+00	1.297383e-06	
197	-3.15000e+00	1.297496e-06	
198	-3.20000e+00	1.297610e-06	
199	-3.25000e+00	1.297727e-06	
200	-3.30000e+00	1.297846e-06	
201	0.000000e+00	3.583167e-22	
202	-5.00000e-02	2.424452e-07	
203	-1.00000e-01	4.734241e-07	
204	-1.50000e-01	6.929418e-07	
205	-2.00000e-01	9.010034e-07	
206	-2.50000e-01	1.097615e-06	
207	-3.00000e-01	1.282781e-06	
208	-3.50000e-01	1.456509e-06	
209	-4.00000e-01	1.618806e-06	
210	-4.50000e-01	1.769679e-06	
211	-5.00000e-01	1.909139e-06	
212	-5.50000e-01	2.037197e-06	
213	-6.00000e-01	2.153868e-06	
214	-6.50000e-01	2.259174e-06	
215	-7.00000e-01	2.353146e-06	
216	-7.50000e-01	2.435829e-06	
217	-8.00000e-01	2.507298e-06	
218	-8.50000e-01	2.567680e-06	
219	-9.00000e-01	2.617194e-06	
220	-9.50000e-01	2.656237e-06	
221	-1.00000e+00	2.685513e-06	
222	-1.05000e+00	2.706193e-06	
223	-1.10000e+00	2.719963e-06	
224	-1.15000e+00	2.728783e-06	
225	-1.20000e+00	2.734424e-06	
226	-1.25000e+00	2.738158e-06	
227	-1.30000e+00	2.740774e-06	
228	-1.35000e+00	2.742719e-06	

Index   v-sweep         i(vds)          
--------------------------------------------------------------------------------
229	-1.40000e+00	2.744245e-06	
230	-1.45000e+00	2.745498e-06	
231	-1.50000e+00	2.746562e-06	
232	-1.55000e+00	2.747491e-06	
233	-1.60000e+00	2.748317e-06	
234	-1.65000e+00	2.749066e-06	
235	-1.70000e+00	2.749751e-06	
236	-1.75000e+00	2.750385e-06	
237	-1.80000e+00	2.750976e-06	
238	-1.85000e+00	2.751531e-06	
239	-1.90000e+00	2.752055e-06	
240	-1.95000e+00	2.752551e-06	
241	-2.00000e+00	2.753023e-06	
242	-2.05000e+00	2.753474e-06	
243	-2.10000e+00	2.753905e-06	
244	-2.15000e+00	2.754319e-06	
245	-2.20000e+00	2.754717e-06	
246	-2.25000e+00	2.755101e-06	
247	-2.30000e+00	2.755471e-06	
248	-2.35000e+00	2.755829e-06	
249	-2.40000e+00	2.756175e-06	
250	-2.45000e+00	2.756511e-06	
251	-2.50000e+00	2.756838e-06	
252	-2.55000e+00	2.757155e-06	
253	-2.60000e+00	2.757463e-06	
254	-2.65000e+00	2.757764e-06	
255	-2.70000e+00	2.758056e-06	
256	-2.75000e+00	2.758342e-06	
257	-2.80000e+00	2.758621e-06	
258	-2.85000e+00	2.758893e-06	
259	-2.90000e+00	2.759160e-06	
260	-2.95000e+00	2.759421e-06	
261	-3.00000e+00	2.759676e-06	
262	-3.05000e+00	2.759926e-06	
263	-3.10000e+00	2.760172e-06	
264	-3.15000e+00	2.760413e-06	
265	-3.20000e+00	2.760650e-06	
266	-3.25000e+00	2.760883e-06	
267	-3.30000e+00	2.761113e-06	
268	0.000000e+00	-2.14174e-22	
269	-5.00000e-02	3.091143e-07	
270	-1.00000e-01	6.075133e-07	
271	-1.50000e-01	8.952014e-07	
272	-2.00000e-01	1.172183e-06	
273	-2.50000e-01	1.438462e-06	
274	-3.00000e-01	1.694043e-06	
275	-3.50000e-01	1.938931e-06	
276	-4.00000e-01	2.173131e-06	
277	-4.50000e-01	2.396646e-06	
278	-5.00000e-01	2.609483e-06	
279	-5.50000e-01	2.811645e-06	
280	-6.00000e-01	3.003140e-06	
281	-6.50000e-01	3.183973e-06	
282	-7.00000e-01	3.354150e-06	
283	-7.50000e-01	3.513680e-06	
284	-8.00000e-01	3.662570e-06	
285	-8.50000e-01	3.800832e-06	
286	-9.00000e-01	3.928478e-06	

Index   v-sweep         i(vds)          
--------------------------------------------------------------------------------
287	-9.50000e-01	4.045526e-06	
288	-1.00000e+00	4.151998e-06	
289	-1.05000e+00	4.247928e-06	
290	-1.10000e+00	4.333362e-06	
291	-1.15000e+00	4.408374e-06	
292	-1.20000e+00	4.473078e-06	
293	-1.25000e+00	4.527661e-06	
294	-1.30000e+00	4.572432e-06	
295	-1.35000e+00	4.607900e-06	
296	-1.40000e+00	4.634871e-06	
297	-1.45000e+00	4.654519e-06	
298	-1.50000e+00	4.668330e-06	
299	-1.55000e+00	4.677874e-06	
300	-1.60000e+00	4.684525e-06	
301	-1.65000e+00	4.689301e-06	
302	-1.70000e+00	4.692878e-06	
303	-1.75000e+00	4.695679e-06	
304	-1.80000e+00	4.697960e-06	
305	-1.85000e+00	4.699882e-06	
306	-1.90000e+00	4.701546e-06	
307	-1.95000e+00	4.703017e-06	
308	-2.00000e+00	4.704340e-06	
309	-2.05000e+00	4.705545e-06	
310	-2.10000e+00	4.706655e-06	
311	-2.15000e+00	4.707685e-06	
312	-2.20000e+00	4.708649e-06	
313	-2.25000e+00	4.709556e-06	
314	-2.30000e+00	4.710413e-06	
315	-2.35000e+00	4.711226e-06	
316	-2.40000e+00	4.712000e-06	
317	-2.45000e+00	4.712740e-06	
318	-2.50000e+00	4.713449e-06	
319	-2.55000e+00	4.714129e-06	
320	-2.60000e+00	4.714784e-06	
321	-2.65000e+00	4.715414e-06	
322	-2.70000e+00	4.716024e-06	
323	-2.75000e+00	4.716612e-06	
324	-2.80000e+00	4.717183e-06	
325	-2.85000e+00	4.717736e-06	
326	-2.90000e+00	4.718272e-06	
327	-2.95000e+00	4.718794e-06	
328	-3.00000e+00	4.719301e-06	
329	-3.05000e+00	4.719795e-06	
330	-3.10000e+00	4.720277e-06	
331	-3.15000e+00	4.720746e-06	
332	-3.20000e+00	4.721205e-06	
333	-3.25000e+00	4.721652e-06	
334	-3.30000e+00	4.722090e-06	
335	0.000000e+00	-8.61199e-22	
336	-5.00000e-02	3.684700e-07	
337	-1.00000e-01	7.269840e-07	
338	-1.50000e-01	1.075546e-06	
339	-2.00000e-01	1.414159e-06	
340	-2.50000e-01	1.742828e-06	
341	-3.00000e-01	2.061556e-06	
342	-3.50000e-01	2.370348e-06	
343	-4.00000e-01	2.669207e-06	
344	-4.50000e-01	2.958137e-06	

Index   v-sweep         i(vds)          
--------------------------------------------------------------------------------
345	-5.00000e-01	3.237142e-06	
346	-5.50000e-01	3.506227e-06	
347	-6.00000e-01	3.765396e-06	
348	-6.50000e-01	4.014652e-06	
349	-7.00000e-01	4.254000e-06	
350	-7.50000e-01	4.483444e-06	
351	-8.00000e-01	4.702990e-06	
352	-8.50000e-01	4.912642e-06	
353	-9.00000e-01	5.112404e-06	
354	-9.50000e-01	5.302283e-06	
355	-1.00000e+00	5.482284e-06	
356	-1.05000e+00	5.652414e-06	
357	-1.10000e+00	5.812680e-06	
358	-1.15000e+00	5.963091e-06	
359	-1.20000e+00	6.103657e-06	
360	-1.25000e+00	6.234389e-06	
361	-1.30000e+00	6.355305e-06	
362	-1.35000e+00	6.466424e-06	
363	-1.40000e+00	6.567774e-06	
364	-1.45000e+00	6.659394e-06	
365	-1.50000e+00	6.741339e-06	
366	-1.55000e+00	6.813695e-06	
367	-1.60000e+00	6.876586e-06	
368	-1.65000e+00	6.930211e-06	
369	-1.70000e+00	6.974877e-06	
370	-1.75000e+00	7.011062e-06	
371	-1.80000e+00	7.039473e-06	
372	-1.85000e+00	7.061090e-06	
373	-1.90000e+00	7.077120e-06	
374	-1.95000e+00	7.088857e-06	
375	-2.00000e+00	7.097488e-06	
376	-2.05000e+00	7.103966e-06	
377	-2.10000e+00	7.108979e-06	
378	-2.15000e+00	7.112991e-06	
379	-2.20000e+00	7.116309e-06	
380	-2.25000e+00	7.119131e-06	
381	-2.30000e+00	7.121587e-06	
382	-2.35000e+00	7.123768e-06	
383	-2.40000e+00	7.125733e-06	
384	-2.45000e+00	7.127526e-06	
385	-2.50000e+00	7.129179e-06	
386	-2.55000e+00	7.130715e-06	
387	-2.60000e+00	7.132152e-06	
388	-2.65000e+00	7.133503e-06	
389	-2.70000e+00	7.134781e-06	
390	-2.75000e+00	7.135993e-06	
391	-2.80000e+00	7.137147e-06	
392	-2.85000e+00	7.138249e-06	
393	-2.90000e+00	7.139305e-06	
394	-2.95000e+00	7.140318e-06	
395	-3.00000e+00	7.141293e-06	
396	-3.05000e+00	7.142232e-06	
397	-3.10000e+00	7.143138e-06	
398	-3.15000e+00	7.144014e-06	
399	-3.20000e+00	7.144862e-06	
400	-3.25000e+00	7.145684e-06	
401	-3.30000e+00	7.146482e-06	
Note: No ".plot", ".print", or ".fourier" lines; no simulations run
