
Note: Compatibility modes selected: hs

Warning: m=xx on .subckt line will override multiplier m hierarchy!


Circuit: ***************************

Doing analysis at TEMP = 125.000000 and TNOM = 125.000000


No. of Data Rows : 402
                          ***************************
                          DC transfer characteristic  Mon Jan  9 13:58:24  2023
--------------------------------------------------------------------------------
Index   v-sweep         i(vds)          
--------------------------------------------------------------------------------
0	0.000000e+00	-1.50649e-24	
1	-5.00000e-02	5.788027e-09	
2	-1.00000e-01	8.346596e-09	
3	-1.50000e-01	9.241296e-09	
4	-2.00000e-01	9.465148e-09	
5	-2.50000e-01	9.524944e-09	
6	-3.00000e-01	9.546484e-09	
7	-3.50000e-01	9.556676e-09	
8	-4.00000e-01	9.562605e-09	
9	-4.50000e-01	9.566601e-09	
10	-5.00000e-01	9.569585e-09	
11	-5.50000e-01	9.571981e-09	
12	-6.00000e-01	9.574004e-09	
13	-6.50000e-01	9.575776e-09	
14	-7.00000e-01	9.577369e-09	
15	-7.50000e-01	9.578831e-09	
16	-8.00000e-01	9.580191e-09	
17	-8.50000e-01	9.581472e-09	
18	-9.00000e-01	9.582687e-09	
19	-9.50000e-01	9.583850e-09	
20	-1.00000e+00	9.584967e-09	
21	-1.05000e+00	9.586045e-09	
22	-1.10000e+00	9.587090e-09	
23	-1.15000e+00	9.588106e-09	
24	-1.20000e+00	9.589096e-09	
25	-1.25000e+00	9.590063e-09	
26	-1.30000e+00	9.591009e-09	
27	-1.35000e+00	9.591936e-09	
28	-1.40000e+00	9.592846e-09	
29	-1.45000e+00	9.593740e-09	
30	-1.50000e+00	9.594619e-09	
31	-1.55000e+00	9.595485e-09	
32	-1.60000e+00	9.596339e-09	
33	-1.65000e+00	9.597181e-09	
34	-1.70000e+00	9.598013e-09	
35	-1.75000e+00	9.598834e-09	
36	-1.80000e+00	9.599646e-09	
37	-1.85000e+00	9.600449e-09	
38	-1.90000e+00	9.601243e-09	
39	-1.95000e+00	9.602029e-09	
40	-2.00000e+00	9.602808e-09	
41	-2.05000e+00	9.603580e-09	
42	-2.10000e+00	9.604346e-09	
43	-2.15000e+00	9.605105e-09	
44	-2.20000e+00	9.605858e-09	
45	-2.25000e+00	9.606606e-09	
46	-2.30000e+00	9.607349e-09	
47	-2.35000e+00	9.608087e-09	
48	-2.40000e+00	9.608822e-09	
49	-2.45000e+00	9.609553e-09	
50	-2.50000e+00	9.610283e-09	
51	-2.55000e+00	9.611012e-09	
52	-2.60000e+00	9.611741e-09	
53	-2.65000e+00	9.612473e-09	
54	-2.70000e+00	9.613209e-09	

Index   v-sweep         i(vds)          
--------------------------------------------------------------------------------
55	-2.75000e+00	9.613953e-09	
56	-2.80000e+00	9.614707e-09	
57	-2.85000e+00	9.615476e-09	
58	-2.90000e+00	9.616266e-09	
59	-2.95000e+00	9.617082e-09	
60	-3.00000e+00	9.617931e-09	
61	-3.05000e+00	9.618824e-09	
62	-3.10000e+00	9.619770e-09	
63	-3.15000e+00	9.620782e-09	
64	-3.20000e+00	9.621875e-09	
65	-3.25000e+00	9.623066e-09	
66	-3.30000e+00	9.624376e-09	
67	0.000000e+00	-2.35226e-24	
68	-5.00000e-02	2.070133e-08	
69	-1.00000e-01	3.764109e-08	
70	-1.50000e-01	5.202856e-08	
71	-2.00000e-01	6.415079e-08	
72	-2.50000e-01	7.408470e-08	
73	-3.00000e-01	8.187033e-08	
74	-3.50000e-01	8.756993e-08	
75	-4.00000e-01	9.132869e-08	
76	-4.50000e-01	9.346950e-08	
77	-5.00000e-01	9.451860e-08	
78	-5.50000e-01	9.499972e-08	
79	-6.00000e-01	9.523168e-08	
80	-6.50000e-01	9.535661e-08	
81	-7.00000e-01	9.543226e-08	
82	-7.50000e-01	9.548296e-08	
83	-8.00000e-01	9.551986e-08	
84	-8.50000e-01	9.554847e-08	
85	-9.00000e-01	9.557180e-08	
86	-9.50000e-01	9.559153e-08	
87	-1.00000e+00	9.560871e-08	
88	-1.05000e+00	9.562401e-08	
89	-1.10000e+00	9.563787e-08	
90	-1.15000e+00	9.565060e-08	
91	-1.20000e+00	9.566241e-08	
92	-1.25000e+00	9.567347e-08	
93	-1.30000e+00	9.568389e-08	
94	-1.35000e+00	9.569378e-08	
95	-1.40000e+00	9.570320e-08	
96	-1.45000e+00	9.571220e-08	
97	-1.50000e+00	9.572085e-08	
98	-1.55000e+00	9.572918e-08	
99	-1.60000e+00	9.573722e-08	
100	-1.65000e+00	9.574499e-08	
101	-1.70000e+00	9.575253e-08	
102	-1.75000e+00	9.575985e-08	
103	-1.80000e+00	9.576698e-08	
104	-1.85000e+00	9.577391e-08	
105	-1.90000e+00	9.578068e-08	
106	-1.95000e+00	9.578729e-08	
107	-2.00000e+00	9.579374e-08	
108	-2.05000e+00	9.580006e-08	
109	-2.10000e+00	9.580625e-08	
110	-2.15000e+00	9.581232e-08	
111	-2.20000e+00	9.581827e-08	
112	-2.25000e+00	9.582411e-08	

Index   v-sweep         i(vds)          
--------------------------------------------------------------------------------
113	-2.30000e+00	9.582985e-08	
114	-2.35000e+00	9.583550e-08	
115	-2.40000e+00	9.584105e-08	
116	-2.45000e+00	9.584651e-08	
117	-2.50000e+00	9.585190e-08	
118	-2.55000e+00	9.585721e-08	
119	-2.60000e+00	9.586245e-08	
120	-2.65000e+00	9.586763e-08	
121	-2.70000e+00	9.587276e-08	
122	-2.75000e+00	9.587784e-08	
123	-2.80000e+00	9.588289e-08	
124	-2.85000e+00	9.588792e-08	
125	-2.90000e+00	9.589295e-08	
126	-2.95000e+00	9.589801e-08	
127	-3.00000e+00	9.590311e-08	
128	-3.05000e+00	9.590830e-08	
129	-3.10000e+00	9.591361e-08	
130	-3.15000e+00	9.591910e-08	
131	-3.20000e+00	9.592483e-08	
132	-3.25000e+00	9.593089e-08	
133	-3.30000e+00	9.593736e-08	
134	0.000000e+00	2.766453e-23	
135	-5.00000e-02	3.548157e-08	
136	-1.00000e-01	6.722176e-08	
137	-1.50000e-01	9.642540e-08	
138	-2.00000e-01	1.233744e-07	
139	-2.50000e-01	1.481353e-07	
140	-3.00000e-01	1.707247e-07	
141	-3.50000e-01	1.911481e-07	
142	-4.00000e-01	2.094093e-07	
143	-4.50000e-01	2.255131e-07	
144	-5.00000e-01	2.394671e-07	
145	-5.50000e-01	2.512851e-07	
146	-6.00000e-01	2.609925e-07	
147	-6.50000e-01	2.686389e-07	
148	-7.00000e-01	2.743226e-07	
149	-7.50000e-01	2.782330e-07	
150	-8.00000e-01	2.806898e-07	
151	-8.50000e-01	2.821159e-07	
152	-9.00000e-01	2.829165e-07	
153	-9.50000e-01	2.833766e-07	
154	-1.00000e+00	2.836578e-07	
155	-1.05000e+00	2.838430e-07	
156	-1.10000e+00	2.839740e-07	
157	-1.15000e+00	2.840726e-07	
158	-1.20000e+00	2.841507e-07	
159	-1.25000e+00	2.842152e-07	
160	-1.30000e+00	2.842701e-07	
161	-1.35000e+00	2.843181e-07	
162	-1.40000e+00	2.843609e-07	
163	-1.45000e+00	2.843997e-07	
164	-1.50000e+00	2.844352e-07	
165	-1.55000e+00	2.844682e-07	
166	-1.60000e+00	2.844990e-07	
167	-1.65000e+00	2.845279e-07	
168	-1.70000e+00	2.845552e-07	
169	-1.75000e+00	2.845812e-07	
170	-1.80000e+00	2.846060e-07	

Index   v-sweep         i(vds)          
--------------------------------------------------------------------------------
171	-1.85000e+00	2.846298e-07	
172	-1.90000e+00	2.846526e-07	
173	-1.95000e+00	2.846745e-07	
174	-2.00000e+00	2.846957e-07	
175	-2.05000e+00	2.847161e-07	
176	-2.10000e+00	2.847360e-07	
177	-2.15000e+00	2.847552e-07	
178	-2.20000e+00	2.847739e-07	
179	-2.25000e+00	2.847920e-07	
180	-2.30000e+00	2.848097e-07	
181	-2.35000e+00	2.848270e-07	
182	-2.40000e+00	2.848438e-07	
183	-2.45000e+00	2.848602e-07	
184	-2.50000e+00	2.848763e-07	
185	-2.55000e+00	2.848920e-07	
186	-2.60000e+00	2.849075e-07	
187	-2.65000e+00	2.849226e-07	
188	-2.70000e+00	2.849374e-07	
189	-2.75000e+00	2.849519e-07	
190	-2.80000e+00	2.849662e-07	
191	-2.85000e+00	2.849802e-07	
192	-2.90000e+00	2.849941e-07	
193	-2.95000e+00	2.850077e-07	
194	-3.00000e+00	2.850211e-07	
195	-3.05000e+00	2.850344e-07	
196	-3.10000e+00	2.850475e-07	
197	-3.15000e+00	2.850606e-07	
198	-3.20000e+00	2.850736e-07	
199	-3.25000e+00	2.850866e-07	
200	-3.30000e+00	2.850997e-07	
201	0.000000e+00	-9.43950e-23	
202	-5.00000e-02	4.960493e-08	
203	-1.00000e-01	9.554494e-08	
204	-1.50000e-01	1.390228e-07	
205	-2.00000e-01	1.803197e-07	
206	-2.50000e-01	2.195018e-07	
207	-3.00000e-01	2.565848e-07	
208	-3.50000e-01	2.915727e-07	
209	-4.00000e-01	3.244669e-07	
210	-4.50000e-01	3.552683e-07	
211	-5.00000e-01	3.839776e-07	
212	-5.50000e-01	4.105961e-07	
213	-6.00000e-01	4.351252e-07	
214	-6.50000e-01	4.575670e-07	
215	-7.00000e-01	4.779243e-07	
216	-7.50000e-01	4.962016e-07	
217	-8.00000e-01	5.124057e-07	
218	-8.50000e-01	5.265476e-07	
219	-9.00000e-01	5.386455e-07	
220	-9.50000e-01	5.487308e-07	
221	-1.00000e+00	5.568589e-07	
222	-1.05000e+00	5.631278e-07	
223	-1.10000e+00	5.677042e-07	
224	-1.15000e+00	5.708449e-07	
225	-1.20000e+00	5.728835e-07	
226	-1.25000e+00	5.741654e-07	
227	-1.30000e+00	5.749737e-07	
228	-1.35000e+00	5.755006e-07	

Index   v-sweep         i(vds)          
--------------------------------------------------------------------------------
229	-1.40000e+00	5.758616e-07	
230	-1.45000e+00	5.761228e-07	
231	-1.50000e+00	5.763217e-07	
232	-1.55000e+00	5.764800e-07	
233	-1.60000e+00	5.766109e-07	
234	-1.65000e+00	5.767223e-07	
235	-1.70000e+00	5.768194e-07	
236	-1.75000e+00	5.769059e-07	
237	-1.80000e+00	5.769839e-07	
238	-1.85000e+00	5.770553e-07	
239	-1.90000e+00	5.771212e-07	
240	-1.95000e+00	5.771827e-07	
241	-2.00000e+00	5.772403e-07	
242	-2.05000e+00	5.772947e-07	
243	-2.10000e+00	5.773462e-07	
244	-2.15000e+00	5.773953e-07	
245	-2.20000e+00	5.774422e-07	
246	-2.25000e+00	5.774871e-07	
247	-2.30000e+00	5.775302e-07	
248	-2.35000e+00	5.775718e-07	
249	-2.40000e+00	5.776119e-07	
250	-2.45000e+00	5.776506e-07	
251	-2.50000e+00	5.776882e-07	
252	-2.55000e+00	5.777246e-07	
253	-2.60000e+00	5.777599e-07	
254	-2.65000e+00	5.777943e-07	
255	-2.70000e+00	5.778278e-07	
256	-2.75000e+00	5.778604e-07	
257	-2.80000e+00	5.778922e-07	
258	-2.85000e+00	5.779233e-07	
259	-2.90000e+00	5.779536e-07	
260	-2.95000e+00	5.779833e-07	
261	-3.00000e+00	5.780124e-07	
262	-3.05000e+00	5.780409e-07	
263	-3.10000e+00	5.780688e-07	
264	-3.15000e+00	5.780961e-07	
265	-3.20000e+00	5.781230e-07	
266	-3.25000e+00	5.781494e-07	
267	-3.30000e+00	5.781754e-07	
268	0.000000e+00	7.711038e-23	
269	-5.00000e-02	6.316103e-08	
270	-1.00000e-01	1.227453e-07	
271	-1.50000e-01	1.799537e-07	
272	-2.00000e-01	2.350674e-07	
273	-2.50000e-01	2.881523e-07	
274	-3.00000e-01	3.392240e-07	
275	-3.50000e-01	3.882864e-07	
276	-4.00000e-01	4.353406e-07	
277	-4.50000e-01	4.803871e-07	
278	-5.00000e-01	5.234263e-07	
279	-5.50000e-01	5.644585e-07	
280	-6.00000e-01	6.034843e-07	
281	-6.50000e-01	6.405040e-07	
282	-7.00000e-01	6.755181e-07	
283	-7.50000e-01	7.085275e-07	
284	-8.00000e-01	7.395328e-07	
285	-8.50000e-01	7.685351e-07	
286	-9.00000e-01	7.955358e-07	

Index   v-sweep         i(vds)          
--------------------------------------------------------------------------------
287	-9.50000e-01	8.205365e-07	
288	-1.00000e+00	8.435398e-07	
289	-1.05000e+00	8.645489e-07	
290	-1.10000e+00	8.835687e-07	
291	-1.15000e+00	9.006065e-07	
292	-1.20000e+00	9.156733e-07	
293	-1.25000e+00	9.287864e-07	
294	-1.30000e+00	9.399738e-07	
295	-1.35000e+00	9.492811e-07	
296	-1.40000e+00	9.567832e-07	
297	-1.45000e+00	9.626007e-07	
298	-1.50000e+00	9.669162e-07	
299	-1.55000e+00	9.699778e-07	
300	-1.60000e+00	9.720754e-07	
301	-1.65000e+00	9.734904e-07	
302	-1.70000e+00	9.744530e-07	
303	-1.75000e+00	9.751262e-07	
304	-1.80000e+00	9.756156e-07	
305	-1.85000e+00	9.759867e-07	
306	-1.90000e+00	9.762796e-07	
307	-1.95000e+00	9.765192e-07	
308	-2.00000e+00	9.767210e-07	
309	-2.05000e+00	9.768955e-07	
310	-2.10000e+00	9.770493e-07	
311	-2.15000e+00	9.771872e-07	
312	-2.20000e+00	9.773124e-07	
313	-2.25000e+00	9.774275e-07	
314	-2.30000e+00	9.775342e-07	
315	-2.35000e+00	9.776339e-07	
316	-2.40000e+00	9.777275e-07	
317	-2.45000e+00	9.778160e-07	
318	-2.50000e+00	9.778999e-07	
319	-2.55000e+00	9.779798e-07	
320	-2.60000e+00	9.780562e-07	
321	-2.65000e+00	9.781295e-07	
322	-2.70000e+00	9.781999e-07	
323	-2.75000e+00	9.782676e-07	
324	-2.80000e+00	9.783330e-07	
325	-2.85000e+00	9.783962e-07	
326	-2.90000e+00	9.784574e-07	
327	-2.95000e+00	9.785168e-07	
328	-3.00000e+00	9.785744e-07	
329	-3.05000e+00	9.786304e-07	
330	-3.10000e+00	9.786849e-07	
331	-3.15000e+00	9.787380e-07	
332	-3.20000e+00	9.787898e-07	
333	-3.25000e+00	9.788403e-07	
334	-3.30000e+00	9.788897e-07	
335	0.000000e+00	-4.94184e-24	
336	-5.00000e-02	7.625695e-08	
337	-1.00000e-01	1.490260e-07	
338	-1.50000e-01	2.195065e-07	
339	-2.00000e-01	2.879793e-07	
340	-2.50000e-01	3.545105e-07	
341	-3.00000e-01	4.191154e-07	
342	-3.50000e-01	4.817982e-07	
343	-4.00000e-01	5.425597e-07	
344	-4.50000e-01	6.014004e-07	

Index   v-sweep         i(vds)          
--------------------------------------------------------------------------------
345	-5.00000e-01	6.583207e-07	
346	-5.50000e-01	7.133208e-07	
347	-6.00000e-01	7.664009e-07	
348	-6.50000e-01	8.175615e-07	
349	-7.00000e-01	8.668026e-07	
350	-7.50000e-01	9.141247e-07	
351	-8.00000e-01	9.595281e-07	
352	-8.50000e-01	1.003013e-06	
353	-9.00000e-01	1.044580e-06	
354	-9.50000e-01	1.084230e-06	
355	-1.00000e+00	1.121962e-06	
356	-1.05000e+00	1.157779e-06	
357	-1.10000e+00	1.191679e-06	
358	-1.15000e+00	1.223665e-06	
359	-1.20000e+00	1.253737e-06	
360	-1.25000e+00	1.281896e-06	
361	-1.30000e+00	1.308145e-06	
362	-1.35000e+00	1.332485e-06	
363	-1.40000e+00	1.354920e-06	
364	-1.45000e+00	1.375454e-06	
365	-1.50000e+00	1.394093e-06	
366	-1.55000e+00	1.410846e-06	
367	-1.60000e+00	1.425726e-06	
368	-1.65000e+00	1.438753e-06	
369	-1.70000e+00	1.449958e-06	
370	-1.75000e+00	1.459388e-06	
371	-1.80000e+00	1.467118e-06	
372	-1.85000e+00	1.473259e-06	
373	-1.90000e+00	1.477973e-06	
374	-1.95000e+00	1.481470e-06	
375	-2.00000e+00	1.483995e-06	
376	-2.05000e+00	1.485793e-06	
377	-2.10000e+00	1.487078e-06	
378	-2.15000e+00	1.488014e-06	
379	-2.20000e+00	1.488714e-06	
380	-2.25000e+00	1.489256e-06	
381	-2.30000e+00	1.489691e-06	
382	-2.35000e+00	1.490049e-06	
383	-2.40000e+00	1.490353e-06	
384	-2.45000e+00	1.490616e-06	
385	-2.50000e+00	1.490849e-06	
386	-2.55000e+00	1.491058e-06	
387	-2.60000e+00	1.491248e-06	
388	-2.65000e+00	1.491422e-06	
389	-2.70000e+00	1.491584e-06	
390	-2.75000e+00	1.491734e-06	
391	-2.80000e+00	1.491876e-06	
392	-2.85000e+00	1.492010e-06	
393	-2.90000e+00	1.492137e-06	
394	-2.95000e+00	1.492258e-06	
395	-3.00000e+00	1.492373e-06	
396	-3.05000e+00	1.492483e-06	
397	-3.10000e+00	1.492590e-06	
398	-3.15000e+00	1.492692e-06	
399	-3.20000e+00	1.492790e-06	
400	-3.25000e+00	1.492885e-06	
401	-3.30000e+00	1.492977e-06	
Note: No ".plot", ".print", or ".fourier" lines; no simulations run
