
Note: Compatibility modes selected: hs

Warning: m=xx on .subckt line will override multiplier m hierarchy!


Circuit: ***************************

Doing analysis at TEMP = -40.000000 and TNOM = -40.000000


No. of Data Rows : 402
                          ***************************
                          DC transfer characteristic  Mon Jan  9 13:58:24  2023
--------------------------------------------------------------------------------
Index   v-sweep         i(vds)          
--------------------------------------------------------------------------------
0	0.000000e+00	3.824539e-23	
1	-5.00000e-02	7.334499e-08	
2	-1.00000e-01	9.813472e-08	
3	-1.50000e-01	1.048030e-07	
4	-2.00000e-01	1.083920e-07	
5	-2.50000e-01	1.113775e-07	
6	-3.00000e-01	1.141699e-07	
7	-3.50000e-01	1.168748e-07	
8	-4.00000e-01	1.195306e-07	
9	-4.50000e-01	1.221560e-07	
10	-5.00000e-01	1.247616e-07	
11	-5.50000e-01	1.273544e-07	
12	-6.00000e-01	1.299394e-07	
13	-6.50000e-01	1.325207e-07	
14	-7.00000e-01	1.351012e-07	
15	-7.50000e-01	1.376836e-07	
16	-8.00000e-01	1.402702e-07	
17	-8.50000e-01	1.428626e-07	
18	-9.00000e-01	1.454627e-07	
19	-9.50000e-01	1.480718e-07	
20	-1.00000e+00	1.506911e-07	
21	-1.05000e+00	1.533218e-07	
22	-1.10000e+00	1.559650e-07	
23	-1.15000e+00	1.586214e-07	
24	-1.20000e+00	1.612920e-07	
25	-1.25000e+00	1.639774e-07	
26	-1.30000e+00	1.666785e-07	
27	-1.35000e+00	1.693957e-07	
28	-1.40000e+00	1.721296e-07	
29	-1.45000e+00	1.748809e-07	
30	-1.50000e+00	1.776500e-07	
31	-1.55000e+00	1.804374e-07	
32	-1.60000e+00	1.832434e-07	
33	-1.65000e+00	1.860685e-07	
34	-1.70000e+00	1.889131e-07	
35	-1.75000e+00	1.917775e-07	
36	-1.80000e+00	1.946621e-07	
37	-1.85000e+00	1.975672e-07	
38	-1.90000e+00	2.004930e-07	
39	-1.95000e+00	2.034400e-07	
40	-2.00000e+00	2.064084e-07	
41	-2.05000e+00	2.093984e-07	
42	-2.10000e+00	2.124105e-07	
43	-2.15000e+00	2.154449e-07	
44	-2.20000e+00	2.185020e-07	
45	-2.25000e+00	2.215821e-07	
46	-2.30000e+00	2.246856e-07	
47	-2.35000e+00	2.278130e-07	
48	-2.40000e+00	2.309647e-07	
49	-2.45000e+00	2.341414e-07	
50	-2.50000e+00	2.373437e-07	
51	-2.55000e+00	2.405723e-07	
52	-2.60000e+00	2.438282e-07	
53	-2.65000e+00	2.471123e-07	
54	-2.70000e+00	2.504258e-07	

Index   v-sweep         i(vds)          
--------------------------------------------------------------------------------
55	-2.75000e+00	2.537700e-07	
56	-2.80000e+00	2.571465e-07	
57	-2.85000e+00	2.605569e-07	
58	-2.90000e+00	2.640034e-07	
59	-2.95000e+00	2.674880e-07	
60	-3.00000e+00	2.710135e-07	
61	-3.05000e+00	2.745825e-07	
62	-3.10000e+00	2.781984e-07	
63	-3.15000e+00	2.818646e-07	
64	-3.20000e+00	2.855852e-07	
65	-3.25000e+00	2.893645e-07	
66	-3.30000e+00	2.932074e-07	
67	0.000000e+00	-5.88287e-23	
68	-5.00000e-02	9.500668e-07	
69	-1.00000e-01	1.801014e-06	
70	-1.50000e-01	2.554116e-06	
71	-2.00000e-01	3.210715e-06	
72	-2.50000e-01	3.772284e-06	
73	-3.00000e-01	4.240591e-06	
74	-3.50000e-01	4.618097e-06	
75	-4.00000e-01	4.908966e-06	
76	-4.50000e-01	5.121351e-06	
77	-5.00000e-01	5.270549e-06	
78	-5.50000e-01	5.377866e-06	
79	-6.00000e-01	5.462115e-06	
80	-6.50000e-01	5.534248e-06	
81	-7.00000e-01	5.599373e-06	
82	-7.50000e-01	5.659841e-06	
83	-8.00000e-01	5.716845e-06	
84	-8.50000e-01	5.771080e-06	
85	-9.00000e-01	5.822998e-06	
86	-9.50000e-01	5.872923e-06	
87	-1.00000e+00	5.921101e-06	
88	-1.05000e+00	5.967729e-06	
89	-1.10000e+00	6.012968e-06	
90	-1.15000e+00	6.056952e-06	
91	-1.20000e+00	6.099797e-06	
92	-1.25000e+00	6.141602e-06	
93	-1.30000e+00	6.182454e-06	
94	-1.35000e+00	6.222429e-06	
95	-1.40000e+00	6.261595e-06	
96	-1.45000e+00	6.300012e-06	
97	-1.50000e+00	6.337733e-06	
98	-1.55000e+00	6.374807e-06	
99	-1.60000e+00	6.411277e-06	
100	-1.65000e+00	6.447183e-06	
101	-1.70000e+00	6.482561e-06	
102	-1.75000e+00	6.517443e-06	
103	-1.80000e+00	6.551860e-06	
104	-1.85000e+00	6.585838e-06	
105	-1.90000e+00	6.619404e-06	
106	-1.95000e+00	6.652579e-06	
107	-2.00000e+00	6.685386e-06	
108	-2.05000e+00	6.717845e-06	
109	-2.10000e+00	6.749974e-06	
110	-2.15000e+00	6.781790e-06	
111	-2.20000e+00	6.813309e-06	
112	-2.25000e+00	6.844546e-06	

Index   v-sweep         i(vds)          
--------------------------------------------------------------------------------
113	-2.30000e+00	6.875516e-06	
114	-2.35000e+00	6.906233e-06	
115	-2.40000e+00	6.936708e-06	
116	-2.45000e+00	6.966956e-06	
117	-2.50000e+00	6.996988e-06	
118	-2.55000e+00	7.026818e-06	
119	-2.60000e+00	7.056456e-06	
120	-2.65000e+00	7.085918e-06	
121	-2.70000e+00	7.115216e-06	
122	-2.75000e+00	7.144365e-06	
123	-2.80000e+00	7.173380e-06	
124	-2.85000e+00	7.202281e-06	
125	-2.90000e+00	7.231084e-06	
126	-2.95000e+00	7.259813e-06	
127	-3.00000e+00	7.288490e-06	
128	-3.05000e+00	7.317143e-06	
129	-3.10000e+00	7.345802e-06	
130	-3.15000e+00	7.374500e-06	
131	-3.20000e+00	7.403277e-06	
132	-3.25000e+00	7.432173e-06	
133	-3.30000e+00	7.461238e-06	
134	0.000000e+00	1.224963e-21	
135	-5.00000e-02	1.669938e-06	
136	-1.00000e-01	3.245250e-06	
137	-1.50000e-01	4.726756e-06	
138	-2.00000e-01	6.115287e-06	
139	-2.50000e-01	7.411687e-06	
140	-3.00000e-01	8.616811e-06	
141	-3.50000e-01	9.731533e-06	
142	-4.00000e-01	1.075675e-05	
143	-4.50000e-01	1.169339e-05	
144	-5.00000e-01	1.254244e-05	
145	-5.50000e-01	1.330498e-05	
146	-6.00000e-01	1.398224e-05	
147	-6.50000e-01	1.457577e-05	
148	-7.00000e-01	1.508769e-05	
149	-7.50000e-01	1.552131e-05	
150	-8.00000e-01	1.588213e-05	
151	-8.50000e-01	1.617916e-05	
152	-9.00000e-01	1.642514e-05	
153	-9.50000e-01	1.663420e-05	
154	-1.00000e+00	1.681810e-05	
155	-1.05000e+00	1.698470e-05	
156	-1.10000e+00	1.713871e-05	
157	-1.15000e+00	1.728297e-05	
158	-1.20000e+00	1.741925e-05	
159	-1.25000e+00	1.754880e-05	
160	-1.30000e+00	1.767252e-05	
161	-1.35000e+00	1.779109e-05	
162	-1.40000e+00	1.790509e-05	
163	-1.45000e+00	1.801497e-05	
164	-1.50000e+00	1.812113e-05	
165	-1.55000e+00	1.822388e-05	
166	-1.60000e+00	1.832353e-05	
167	-1.65000e+00	1.842032e-05	
168	-1.70000e+00	1.851448e-05	
169	-1.75000e+00	1.860620e-05	
170	-1.80000e+00	1.869566e-05	

Index   v-sweep         i(vds)          
--------------------------------------------------------------------------------
171	-1.85000e+00	1.878301e-05	
172	-1.90000e+00	1.886839e-05	
173	-1.95000e+00	1.895194e-05	
174	-2.00000e+00	1.903376e-05	
175	-2.05000e+00	1.911397e-05	
176	-2.10000e+00	1.919265e-05	
177	-2.15000e+00	1.926990e-05	
178	-2.20000e+00	1.934580e-05	
179	-2.25000e+00	1.942041e-05	
180	-2.30000e+00	1.949382e-05	
181	-2.35000e+00	1.956607e-05	
182	-2.40000e+00	1.963724e-05	
183	-2.45000e+00	1.970737e-05	
184	-2.50000e+00	1.977651e-05	
185	-2.55000e+00	1.984472e-05	
186	-2.60000e+00	1.991203e-05	
187	-2.65000e+00	1.997849e-05	
188	-2.70000e+00	2.004414e-05	
189	-2.75000e+00	2.010901e-05	
190	-2.80000e+00	2.017314e-05	
191	-2.85000e+00	2.023658e-05	
192	-2.90000e+00	2.029935e-05	
193	-2.95000e+00	2.036148e-05	
194	-3.00000e+00	2.042302e-05	
195	-3.05000e+00	2.048401e-05	
196	-3.10000e+00	2.054448e-05	
197	-3.15000e+00	2.060448e-05	
198	-3.20000e+00	2.066405e-05	
199	-3.25000e+00	2.072325e-05	
200	-3.30000e+00	2.078213e-05	
201	0.000000e+00	-8.69881e-22	
202	-5.00000e-02	2.229804e-06	
203	-1.00000e-01	4.372010e-06	
204	-1.50000e-01	6.427180e-06	
205	-2.00000e-01	8.395888e-06	
206	-2.50000e-01	1.027871e-05	
207	-3.00000e-01	1.207625e-05	
208	-3.50000e-01	1.378908e-05	
209	-4.00000e-01	1.541783e-05	
210	-4.50000e-01	1.696311e-05	
211	-5.00000e-01	1.842554e-05	
212	-5.50000e-01	1.980576e-05	
213	-6.00000e-01	2.110441e-05	
214	-6.50000e-01	2.232217e-05	
215	-7.00000e-01	2.345972e-05	
216	-7.50000e-01	2.451776e-05	
217	-8.00000e-01	2.549707e-05	
218	-8.50000e-01	2.639846e-05	
219	-9.00000e-01	2.722285e-05	
220	-9.50000e-01	2.797138e-05	
221	-1.00000e+00	2.864547e-05	
222	-1.05000e+00	2.924713e-05	
223	-1.10000e+00	2.977936e-05	
224	-1.15000e+00	3.024678e-05	
225	-1.20000e+00	3.065628e-05	
226	-1.25000e+00	3.101690e-05	
227	-1.30000e+00	3.133863e-05	
228	-1.35000e+00	3.163043e-05	

Index   v-sweep         i(vds)          
--------------------------------------------------------------------------------
229	-1.40000e+00	3.189916e-05	
230	-1.45000e+00	3.214961e-05	
231	-1.50000e+00	3.238508e-05	
232	-1.55000e+00	3.260789e-05	
233	-1.60000e+00	3.281976e-05	
234	-1.65000e+00	3.302202e-05	
235	-1.70000e+00	3.321572e-05	
236	-1.75000e+00	3.340174e-05	
237	-1.80000e+00	3.358081e-05	
238	-1.85000e+00	3.375355e-05	
239	-1.90000e+00	3.392050e-05	
240	-1.95000e+00	3.408214e-05	
241	-2.00000e+00	3.423887e-05	
242	-2.05000e+00	3.439107e-05	
243	-2.10000e+00	3.453906e-05	
244	-2.15000e+00	3.468313e-05	
245	-2.20000e+00	3.482355e-05	
246	-2.25000e+00	3.496055e-05	
247	-2.30000e+00	3.509435e-05	
248	-2.35000e+00	3.522514e-05	
249	-2.40000e+00	3.535311e-05	
250	-2.45000e+00	3.547840e-05	
251	-2.50000e+00	3.560118e-05	
252	-2.55000e+00	3.572158e-05	
253	-2.60000e+00	3.583972e-05	
254	-2.65000e+00	3.595572e-05	
255	-2.70000e+00	3.606970e-05	
256	-2.75000e+00	3.618175e-05	
257	-2.80000e+00	3.629196e-05	
258	-2.85000e+00	3.640042e-05	
259	-2.90000e+00	3.650721e-05	
260	-2.95000e+00	3.661242e-05	
261	-3.00000e+00	3.671610e-05	
262	-3.05000e+00	3.681833e-05	
263	-3.10000e+00	3.691918e-05	
264	-3.15000e+00	3.701871e-05	
265	-3.20000e+00	3.711698e-05	
266	-3.25000e+00	3.721406e-05	
267	-3.30000e+00	3.731000e-05	
268	0.000000e+00	-1.51691e-35	
269	-5.00000e-02	2.670098e-06	
270	-1.00000e-01	5.259681e-06	
271	-1.50000e-01	7.769143e-06	
272	-2.00000e-01	1.019889e-05	
273	-2.50000e-01	1.254933e-05	
274	-3.00000e-01	1.482089e-05	
275	-3.50000e-01	1.701399e-05	
276	-4.00000e-01	1.912907e-05	
277	-4.50000e-01	2.116656e-05	
278	-5.00000e-01	2.312692e-05	
279	-5.50000e-01	2.501059e-05	
280	-6.00000e-01	2.681805e-05	
281	-6.50000e-01	2.854975e-05	
282	-7.00000e-01	3.020617e-05	
283	-7.50000e-01	3.178779e-05	
284	-8.00000e-01	3.329510e-05	
285	-8.50000e-01	3.472861e-05	
286	-9.00000e-01	3.608883e-05	

Index   v-sweep         i(vds)          
--------------------------------------------------------------------------------
287	-9.50000e-01	3.737627e-05	
288	-1.00000e+00	3.859149e-05	
289	-1.05000e+00	3.973504e-05	
290	-1.10000e+00	4.080754e-05	
291	-1.15000e+00	4.180962e-05	
292	-1.20000e+00	4.274203e-05	
293	-1.25000e+00	4.360563e-05	
294	-1.30000e+00	4.440149e-05	
295	-1.35000e+00	4.513102e-05	
296	-1.40000e+00	4.579622e-05	
297	-1.45000e+00	4.639997e-05	
298	-1.50000e+00	4.694648e-05	
299	-1.55000e+00	4.744147e-05	
300	-1.60000e+00	4.789188e-05	
301	-1.65000e+00	4.830501e-05	
302	-1.70000e+00	4.868742e-05	
303	-1.75000e+00	4.904446e-05	
304	-1.80000e+00	4.938018e-05	
305	-1.85000e+00	4.969766e-05	
306	-1.90000e+00	4.999926e-05	
307	-1.95000e+00	5.028683e-05	
308	-2.00000e+00	5.056188e-05	
309	-2.05000e+00	5.082567e-05	
310	-2.10000e+00	5.107926e-05	
311	-2.15000e+00	5.132354e-05	
312	-2.20000e+00	5.155930e-05	
313	-2.25000e+00	5.178722e-05	
314	-2.30000e+00	5.200792e-05	
315	-2.35000e+00	5.222193e-05	
316	-2.40000e+00	5.242972e-05	
317	-2.45000e+00	5.263172e-05	
318	-2.50000e+00	5.282831e-05	
319	-2.55000e+00	5.301986e-05	
320	-2.60000e+00	5.320666e-05	
321	-2.65000e+00	5.338900e-05	
322	-2.70000e+00	5.356716e-05	
323	-2.75000e+00	5.374136e-05	
324	-2.80000e+00	5.391183e-05	
325	-2.85000e+00	5.407877e-05	
326	-2.90000e+00	5.424236e-05	
327	-2.95000e+00	5.440278e-05	
328	-3.00000e+00	5.456018e-05	
329	-3.05000e+00	5.471472e-05	
330	-3.10000e+00	5.486653e-05	
331	-3.15000e+00	5.501573e-05	
332	-3.20000e+00	5.516246e-05	
333	-3.25000e+00	5.530681e-05	
334	-3.30000e+00	5.544891e-05	
335	0.000000e+00	9.051644e-22	
336	-5.00000e-02	3.020021e-06	
337	-1.00000e-01	5.966091e-06	
338	-1.50000e-01	8.838494e-06	
339	-2.00000e-01	1.163752e-05	
340	-2.50000e-01	1.436348e-05	
341	-3.00000e-01	1.701666e-05	
342	-3.50000e-01	1.959738e-05	
343	-4.00000e-01	2.210596e-05	
344	-4.50000e-01	2.454272e-05	

Index   v-sweep         i(vds)          
--------------------------------------------------------------------------------
345	-5.00000e-01	2.690798e-05	
346	-5.50000e-01	2.920209e-05	
347	-6.00000e-01	3.142538e-05	
348	-6.50000e-01	3.357819e-05	
349	-7.00000e-01	3.566088e-05	
350	-7.50000e-01	3.767380e-05	
351	-8.00000e-01	3.961731e-05	
352	-8.50000e-01	4.149178e-05	
353	-9.00000e-01	4.329758e-05	
354	-9.50000e-01	4.503508e-05	
355	-1.00000e+00	4.670467e-05	
356	-1.05000e+00	4.830673e-05	
357	-1.10000e+00	4.984167e-05	
358	-1.15000e+00	5.130989e-05	
359	-1.20000e+00	5.271179e-05	
360	-1.25000e+00	5.404781e-05	
361	-1.30000e+00	5.531839e-05	
362	-1.35000e+00	5.652398e-05	
363	-1.40000e+00	5.766507e-05	
364	-1.45000e+00	5.874221e-05	
365	-1.50000e+00	5.975597e-05	
366	-1.55000e+00	6.070706e-05	
367	-1.60000e+00	6.159630e-05	
368	-1.65000e+00	6.242477e-05	
369	-1.70000e+00	6.319391e-05	
370	-1.75000e+00	6.390575e-05	
371	-1.80000e+00	6.456310e-05	
372	-1.85000e+00	6.516980e-05	
373	-1.90000e+00	6.573067e-05	
374	-1.95000e+00	6.625113e-05	
375	-2.00000e+00	6.673661e-05	
376	-2.05000e+00	6.719199e-05	
377	-2.10000e+00	6.762136e-05	
378	-2.15000e+00	6.802805e-05	
379	-2.20000e+00	6.841473e-05	
380	-2.25000e+00	6.878360e-05	
381	-2.30000e+00	6.913649e-05	
382	-2.35000e+00	6.947492e-05	
383	-2.40000e+00	6.980020e-05	
384	-2.45000e+00	7.011347e-05	
385	-2.50000e+00	7.041570e-05	
386	-2.55000e+00	7.070778e-05	
387	-2.60000e+00	7.099046e-05	
388	-2.65000e+00	7.126444e-05	
389	-2.70000e+00	7.153030e-05	
390	-2.75000e+00	7.178862e-05	
391	-2.80000e+00	7.203987e-05	
392	-2.85000e+00	7.228451e-05	
393	-2.90000e+00	7.252295e-05	
394	-2.95000e+00	7.275555e-05	
395	-3.00000e+00	7.298265e-05	
396	-3.05000e+00	7.320456e-05	
397	-3.10000e+00	7.342157e-05	
398	-3.15000e+00	7.363394e-05	
399	-3.20000e+00	7.384190e-05	
400	-3.25000e+00	7.404569e-05	
401	-3.30000e+00	7.424551e-05	
Note: No ".plot", ".print", or ".fourier" lines; no simulations run
