
Note: Compatibility modes selected: hs

Warning: m=xx on .subckt line will override multiplier m hierarchy!


Circuit: ***************************

Doing analysis at TEMP = 125.000000 and TNOM = 125.000000


No. of Data Rows : 402
                          ***************************
                          DC transfer characteristic  Mon Jan  9 13:58:24  2023
--------------------------------------------------------------------------------
Index   v-sweep         i(vds)          
--------------------------------------------------------------------------------
0	0.000000e+00	-1.18746e-23	
1	-5.00000e-02	1.950845e-07	
2	-1.00000e-01	2.871401e-07	
3	-1.50000e-01	3.192400e-07	
4	-2.00000e-01	3.271607e-07	
5	-2.50000e-01	3.293409e-07	
6	-3.00000e-01	3.301775e-07	
7	-3.50000e-01	3.306045e-07	
8	-4.00000e-01	3.308719e-07	
9	-4.50000e-01	3.310642e-07	
10	-5.00000e-01	3.312156e-07	
11	-5.50000e-01	3.313423e-07	
12	-6.00000e-01	3.314528e-07	
13	-6.50000e-01	3.315518e-07	
14	-7.00000e-01	3.316425e-07	
15	-7.50000e-01	3.317266e-07	
16	-8.00000e-01	3.318057e-07	
17	-8.50000e-01	3.318804e-07	
18	-9.00000e-01	3.319517e-07	
19	-9.50000e-01	3.320199e-07	
20	-1.00000e+00	3.320856e-07	
21	-1.05000e+00	3.321489e-07	
22	-1.10000e+00	3.322103e-07	
23	-1.15000e+00	3.322698e-07	
24	-1.20000e+00	3.323277e-07	
25	-1.25000e+00	3.323842e-07	
26	-1.30000e+00	3.324393e-07	
27	-1.35000e+00	3.324931e-07	
28	-1.40000e+00	3.325458e-07	
29	-1.45000e+00	3.325975e-07	
30	-1.50000e+00	3.326482e-07	
31	-1.55000e+00	3.326979e-07	
32	-1.60000e+00	3.327469e-07	
33	-1.65000e+00	3.327950e-07	
34	-1.70000e+00	3.328424e-07	
35	-1.75000e+00	3.328890e-07	
36	-1.80000e+00	3.329350e-07	
37	-1.85000e+00	3.329804e-07	
38	-1.90000e+00	3.330252e-07	
39	-1.95000e+00	3.330694e-07	
40	-2.00000e+00	3.331131e-07	
41	-2.05000e+00	3.331563e-07	
42	-2.10000e+00	3.331990e-07	
43	-2.15000e+00	3.332413e-07	
44	-2.20000e+00	3.332832e-07	
45	-2.25000e+00	3.333247e-07	
46	-2.30000e+00	3.333659e-07	
47	-2.35000e+00	3.334069e-07	
48	-2.40000e+00	3.334476e-07	
49	-2.45000e+00	3.334883e-07	
50	-2.50000e+00	3.335290e-07	
51	-2.55000e+00	3.335699e-07	
52	-2.60000e+00	3.336111e-07	
53	-2.65000e+00	3.336529e-07	
54	-2.70000e+00	3.336956e-07	

Index   v-sweep         i(vds)          
--------------------------------------------------------------------------------
55	-2.75000e+00	3.337395e-07	
56	-2.80000e+00	3.337850e-07	
57	-2.85000e+00	3.338328e-07	
58	-2.90000e+00	3.338835e-07	
59	-2.95000e+00	3.339379e-07	
60	-3.00000e+00	3.339968e-07	
61	-3.05000e+00	3.340615e-07	
62	-3.10000e+00	3.341333e-07	
63	-3.15000e+00	3.342136e-07	
64	-3.20000e+00	3.343044e-07	
65	-3.25000e+00	3.344076e-07	
66	-3.30000e+00	3.345258e-07	
67	0.000000e+00	3.683584e-22	
68	-5.00000e-02	8.149728e-07	
69	-1.00000e-01	1.505268e-06	
70	-1.50000e-01	2.098426e-06	
71	-2.00000e-01	2.601085e-06	
72	-2.50000e-01	3.015195e-06	
73	-3.00000e-01	3.342055e-06	
74	-3.50000e-01	3.583943e-06	
75	-4.00000e-01	3.746211e-06	
76	-4.50000e-01	3.840929e-06	
77	-5.00000e-01	3.888626e-06	
78	-5.50000e-01	3.911020e-06	
79	-6.00000e-01	3.922081e-06	
80	-6.50000e-01	3.928238e-06	
81	-7.00000e-01	3.932128e-06	
82	-7.50000e-01	3.934863e-06	
83	-8.00000e-01	3.936949e-06	
84	-8.50000e-01	3.938640e-06	
85	-9.00000e-01	3.940071e-06	
86	-9.50000e-01	3.941321e-06	
87	-1.00000e+00	3.942439e-06	
88	-1.05000e+00	3.943456e-06	
89	-1.10000e+00	3.944393e-06	
90	-1.15000e+00	3.945265e-06	
91	-1.20000e+00	3.946084e-06	
92	-1.25000e+00	3.946857e-06	
93	-1.30000e+00	3.947591e-06	
94	-1.35000e+00	3.948291e-06	
95	-1.40000e+00	3.948961e-06	
96	-1.45000e+00	3.949604e-06	
97	-1.50000e+00	3.950223e-06	
98	-1.55000e+00	3.950820e-06	
99	-1.60000e+00	3.951397e-06	
100	-1.65000e+00	3.951956e-06	
101	-1.70000e+00	3.952498e-06	
102	-1.75000e+00	3.953025e-06	
103	-1.80000e+00	3.953537e-06	
104	-1.85000e+00	3.954036e-06	
105	-1.90000e+00	3.954523e-06	
106	-1.95000e+00	3.954998e-06	
107	-2.00000e+00	3.955462e-06	
108	-2.05000e+00	3.955915e-06	
109	-2.10000e+00	3.956359e-06	
110	-2.15000e+00	3.956794e-06	
111	-2.20000e+00	3.957220e-06	
112	-2.25000e+00	3.957638e-06	

Index   v-sweep         i(vds)          
--------------------------------------------------------------------------------
113	-2.30000e+00	3.958048e-06	
114	-2.35000e+00	3.958451e-06	
115	-2.40000e+00	3.958847e-06	
116	-2.45000e+00	3.959237e-06	
117	-2.50000e+00	3.959620e-06	
118	-2.55000e+00	3.959998e-06	
119	-2.60000e+00	3.960372e-06	
120	-2.65000e+00	3.960741e-06	
121	-2.70000e+00	3.961107e-06	
122	-2.75000e+00	3.961471e-06	
123	-2.80000e+00	3.961835e-06	
124	-2.85000e+00	3.962199e-06	
125	-2.90000e+00	3.962568e-06	
126	-2.95000e+00	3.962942e-06	
127	-3.00000e+00	3.963327e-06	
128	-3.05000e+00	3.963727e-06	
129	-3.10000e+00	3.964146e-06	
130	-3.15000e+00	3.964593e-06	
131	-3.20000e+00	3.965076e-06	
132	-3.25000e+00	3.965605e-06	
133	-3.30000e+00	3.966192e-06	
134	0.000000e+00	5.931319e-27	
135	-5.00000e-02	1.397013e-06	
136	-1.00000e-01	2.672566e-06	
137	-1.50000e-01	3.854038e-06	
138	-2.00000e-01	4.947869e-06	
139	-2.50000e-01	5.955609e-06	
140	-3.00000e-01	6.877679e-06	
141	-3.50000e-01	7.714253e-06	
142	-4.00000e-01	8.465475e-06	
143	-4.50000e-01	9.131533e-06	
144	-5.00000e-01	9.712714e-06	
145	-5.50000e-01	1.020949e-05	
146	-6.00000e-01	1.062272e-05	
147	-6.50000e-01	1.095400e-05	
148	-7.00000e-01	1.120645e-05	
149	-7.50000e-01	1.138613e-05	
150	-8.00000e-01	1.150377e-05	
151	-8.50000e-01	1.157487e-05	
152	-9.00000e-01	1.161606e-05	
153	-9.50000e-01	1.164029e-05	
154	-1.00000e+00	1.165545e-05	
155	-1.05000e+00	1.166572e-05	
156	-1.10000e+00	1.167322e-05	
157	-1.15000e+00	1.167905e-05	
158	-1.20000e+00	1.168383e-05	
159	-1.25000e+00	1.168789e-05	
160	-1.30000e+00	1.169144e-05	
161	-1.35000e+00	1.169462e-05	
162	-1.40000e+00	1.169750e-05	
163	-1.45000e+00	1.170015e-05	
164	-1.50000e+00	1.170262e-05	
165	-1.55000e+00	1.170493e-05	
166	-1.60000e+00	1.170710e-05	
167	-1.65000e+00	1.170916e-05	
168	-1.70000e+00	1.171112e-05	
169	-1.75000e+00	1.171299e-05	
170	-1.80000e+00	1.171478e-05	

Index   v-sweep         i(vds)          
--------------------------------------------------------------------------------
171	-1.85000e+00	1.171651e-05	
172	-1.90000e+00	1.171816e-05	
173	-1.95000e+00	1.171976e-05	
174	-2.00000e+00	1.172131e-05	
175	-2.05000e+00	1.172280e-05	
176	-2.10000e+00	1.172425e-05	
177	-2.15000e+00	1.172566e-05	
178	-2.20000e+00	1.172703e-05	
179	-2.25000e+00	1.172836e-05	
180	-2.30000e+00	1.172965e-05	
181	-2.35000e+00	1.173092e-05	
182	-2.40000e+00	1.173215e-05	
183	-2.45000e+00	1.173335e-05	
184	-2.50000e+00	1.173453e-05	
185	-2.55000e+00	1.173568e-05	
186	-2.60000e+00	1.173681e-05	
187	-2.65000e+00	1.173792e-05	
188	-2.70000e+00	1.173900e-05	
189	-2.75000e+00	1.174006e-05	
190	-2.80000e+00	1.174111e-05	
191	-2.85000e+00	1.174213e-05	
192	-2.90000e+00	1.174314e-05	
193	-2.95000e+00	1.174414e-05	
194	-3.00000e+00	1.174512e-05	
195	-3.05000e+00	1.174610e-05	
196	-3.10000e+00	1.174706e-05	
197	-3.15000e+00	1.174803e-05	
198	-3.20000e+00	1.174900e-05	
199	-3.25000e+00	1.174998e-05	
200	-3.30000e+00	1.175098e-05	
201	0.000000e+00	-1.01793e-25	
202	-5.00000e-02	1.917765e-06	
203	-1.00000e-01	3.719452e-06	
204	-1.50000e-01	5.432376e-06	
205	-2.00000e-01	7.062955e-06	
206	-2.50000e-01	8.612716e-06	
207	-3.00000e-01	1.008204e-05	
208	-3.50000e-01	1.147105e-05	
209	-4.00000e-01	1.277981e-05	
210	-4.50000e-01	1.400836e-05	
211	-5.00000e-01	1.515676e-05	
212	-5.50000e-01	1.622506e-05	
213	-6.00000e-01	1.721334e-05	
214	-6.50000e-01	1.812167e-05	
215	-7.00000e-01	1.895019e-05	
216	-7.50000e-01	1.969905e-05	
217	-8.00000e-01	2.036847e-05	
218	-8.50000e-01	2.095880e-05	
219	-9.00000e-01	2.147060e-05	
220	-9.50000e-01	2.190478e-05	
221	-1.00000e+00	2.226291e-05	
222	-1.05000e+00	2.254774e-05	
223	-1.10000e+00	2.276400e-05	
224	-1.15000e+00	2.291944e-05	
225	-1.20000e+00	2.302516e-05	
226	-1.25000e+00	2.309427e-05	
227	-1.30000e+00	2.313907e-05	
228	-1.35000e+00	2.316887e-05	

Index   v-sweep         i(vds)          
--------------------------------------------------------------------------------
229	-1.40000e+00	2.318968e-05	
230	-1.45000e+00	2.320504e-05	
231	-1.50000e+00	2.321701e-05	
232	-1.55000e+00	2.322677e-05	
233	-1.60000e+00	2.323502e-05	
234	-1.65000e+00	2.324219e-05	
235	-1.70000e+00	2.324857e-05	
236	-1.75000e+00	2.325433e-05	
237	-1.80000e+00	2.325961e-05	
238	-1.85000e+00	2.326449e-05	
239	-1.90000e+00	2.326905e-05	
240	-1.95000e+00	2.327334e-05	
241	-2.00000e+00	2.327739e-05	
242	-2.05000e+00	2.328123e-05	
243	-2.10000e+00	2.328489e-05	
244	-2.15000e+00	2.328839e-05	
245	-2.20000e+00	2.329175e-05	
246	-2.25000e+00	2.329497e-05	
247	-2.30000e+00	2.329807e-05	
248	-2.35000e+00	2.330107e-05	
249	-2.40000e+00	2.330397e-05	
250	-2.45000e+00	2.330677e-05	
251	-2.50000e+00	2.330949e-05	
252	-2.55000e+00	2.331213e-05	
253	-2.60000e+00	2.331469e-05	
254	-2.65000e+00	2.331719e-05	
255	-2.70000e+00	2.331962e-05	
256	-2.75000e+00	2.332198e-05	
257	-2.80000e+00	2.332429e-05	
258	-2.85000e+00	2.332655e-05	
259	-2.90000e+00	2.332875e-05	
260	-2.95000e+00	2.333091e-05	
261	-3.00000e+00	2.333302e-05	
262	-3.05000e+00	2.333508e-05	
263	-3.10000e+00	2.333711e-05	
264	-3.15000e+00	2.333910e-05	
265	-3.20000e+00	2.334105e-05	
266	-3.25000e+00	2.334296e-05	
267	-3.30000e+00	2.334485e-05	
268	0.000000e+00	2.658455e-26	
269	-5.00000e-02	2.384184e-06	
270	-1.00000e-01	4.657907e-06	
271	-1.50000e-01	6.848436e-06	
272	-2.00000e-01	8.962177e-06	
273	-2.50000e-01	1.100065e-05	
274	-3.00000e-01	1.296424e-05	
275	-3.50000e-01	1.485304e-05	
276	-4.00000e-01	1.666712e-05	
277	-4.50000e-01	1.840650e-05	
278	-5.00000e-01	2.007122e-05	
279	-5.50000e-01	2.166130e-05	
280	-6.00000e-01	2.317679e-05	
281	-6.50000e-01	2.461771e-05	
282	-7.00000e-01	2.598411e-05	
283	-7.50000e-01	2.727602e-05	
284	-8.00000e-01	2.849348e-05	
285	-8.50000e-01	2.963656e-05	
286	-9.00000e-01	3.070531e-05	

Index   v-sweep         i(vds)          
--------------------------------------------------------------------------------
287	-9.50000e-01	3.169981e-05	
288	-1.00000e+00	3.262013e-05	
289	-1.05000e+00	3.346641e-05	
290	-1.10000e+00	3.423880e-05	
291	-1.15000e+00	3.493750e-05	
292	-1.20000e+00	3.556285e-05	
293	-1.25000e+00	3.611530e-05	
294	-1.30000e+00	3.659560e-05	
295	-1.35000e+00	3.700489e-05	
296	-1.40000e+00	3.734506e-05	
297	-1.45000e+00	3.761915e-05	
298	-1.50000e+00	3.783198e-05	
299	-1.55000e+00	3.799066e-05	
300	-1.60000e+00	3.810460e-05	
301	-1.65000e+00	3.818441e-05	
302	-1.70000e+00	3.824014e-05	
303	-1.75000e+00	3.827980e-05	
304	-1.80000e+00	3.830904e-05	
305	-1.85000e+00	3.833153e-05	
306	-1.90000e+00	3.834955e-05	
307	-1.95000e+00	3.836452e-05	
308	-2.00000e+00	3.837734e-05	
309	-2.05000e+00	3.838859e-05	
310	-2.10000e+00	3.839865e-05	
311	-2.15000e+00	3.840778e-05	
312	-2.20000e+00	3.841616e-05	
313	-2.25000e+00	3.842394e-05	
314	-2.30000e+00	3.843121e-05	
315	-2.35000e+00	3.843805e-05	
316	-2.40000e+00	3.844452e-05	
317	-2.45000e+00	3.845066e-05	
318	-2.50000e+00	3.845651e-05	
319	-2.55000e+00	3.846211e-05	
320	-2.60000e+00	3.846748e-05	
321	-2.65000e+00	3.847263e-05	
322	-2.70000e+00	3.847760e-05	
323	-2.75000e+00	3.848239e-05	
324	-2.80000e+00	3.848702e-05	
325	-2.85000e+00	3.849151e-05	
326	-2.90000e+00	3.849585e-05	
327	-2.95000e+00	3.850007e-05	
328	-3.00000e+00	3.850417e-05	
329	-3.05000e+00	3.850815e-05	
330	-3.10000e+00	3.851204e-05	
331	-3.15000e+00	3.851582e-05	
332	-3.20000e+00	3.851951e-05	
333	-3.25000e+00	3.852311e-05	
334	-3.30000e+00	3.852663e-05	
335	0.000000e+00	-2.32956e-25	
336	-5.00000e-02	2.803297e-06	
337	-1.00000e-01	5.501547e-06	
338	-1.50000e-01	8.121971e-06	
339	-2.00000e-01	1.067097e-05	
340	-2.50000e-01	1.315006e-05	
341	-3.00000e-01	1.555962e-05	
342	-3.50000e-01	1.789976e-05	
343	-4.00000e-01	2.017051e-05	
344	-4.50000e-01	2.237192e-05	

Index   v-sweep         i(vds)          
--------------------------------------------------------------------------------
345	-5.00000e-01	2.450400e-05	
346	-5.50000e-01	2.656678e-05	
347	-6.00000e-01	2.856028e-05	
348	-6.50000e-01	3.048454e-05	
349	-7.00000e-01	3.233958e-05	
350	-7.50000e-01	3.412543e-05	
351	-8.00000e-01	3.584211e-05	
352	-8.50000e-01	3.748965e-05	
353	-9.00000e-01	3.906809e-05	
354	-9.50000e-01	4.057745e-05	
355	-1.00000e+00	4.201777e-05	
356	-1.05000e+00	4.338909e-05	
357	-1.10000e+00	4.469144e-05	
358	-1.15000e+00	4.592486e-05	
359	-1.20000e+00	4.708940e-05	
360	-1.25000e+00	4.818513e-05	
361	-1.30000e+00	4.921209e-05	
362	-1.35000e+00	5.017038e-05	
363	-1.40000e+00	5.106009e-05	
364	-1.45000e+00	5.188135e-05	
365	-1.50000e+00	5.263433e-05	
366	-1.55000e+00	5.331927e-05	
367	-1.60000e+00	5.393649e-05	
368	-1.65000e+00	5.448648e-05	
369	-1.70000e+00	5.496995e-05	
370	-1.75000e+00	5.538798e-05	
371	-1.80000e+00	5.574224e-05	
372	-1.85000e+00	5.603531e-05	
373	-1.90000e+00	5.627103e-05	
374	-1.95000e+00	5.645492e-05	
375	-2.00000e+00	5.659426e-05	
376	-2.05000e+00	5.669757e-05	
377	-2.10000e+00	5.677353e-05	
378	-2.15000e+00	5.682984e-05	
379	-2.20000e+00	5.687251e-05	
380	-2.25000e+00	5.690585e-05	
381	-2.30000e+00	5.693278e-05	
382	-2.35000e+00	5.695521e-05	
383	-2.40000e+00	5.697443e-05	
384	-2.45000e+00	5.699126e-05	
385	-2.50000e+00	5.700629e-05	
386	-2.55000e+00	5.701990e-05	
387	-2.60000e+00	5.703239e-05	
388	-2.65000e+00	5.704394e-05	
389	-2.70000e+00	5.705473e-05	
390	-2.75000e+00	5.706486e-05	
391	-2.80000e+00	5.707443e-05	
392	-2.85000e+00	5.708350e-05	
393	-2.90000e+00	5.709214e-05	
394	-2.95000e+00	5.710040e-05	
395	-3.00000e+00	5.710831e-05	
396	-3.05000e+00	5.711590e-05	
397	-3.10000e+00	5.712321e-05	
398	-3.15000e+00	5.713025e-05	
399	-3.20000e+00	5.713706e-05	
400	-3.25000e+00	5.714364e-05	
401	-3.30000e+00	5.715002e-05	
Note: No ".plot", ".print", or ".fourier" lines; no simulations run
