
Note: Compatibility modes selected: hs

Warning: m=xx on .subckt line will override multiplier m hierarchy!


Circuit: ***************************

Doing analysis at TEMP = 25.000000 and TNOM = 25.000000


No. of Data Rows : 402
                          ***************************
                          DC transfer characteristic  Mon Jan  9 13:58:23  2023
--------------------------------------------------------------------------------
Index   v-sweep         i(vds)          
--------------------------------------------------------------------------------
0	0.000000e+00	-4.88795e-25	
1	-5.00000e-02	5.950068e-08	
2	-1.00000e-01	7.208671e-08	
3	-1.50000e-01	7.389980e-08	
4	-2.00000e-01	7.434799e-08	
5	-2.50000e-01	7.452532e-08	
6	-3.00000e-01	7.461898e-08	
7	-3.50000e-01	7.467863e-08	
8	-4.00000e-01	7.472175e-08	
9	-4.50000e-01	7.475574e-08	
10	-5.00000e-01	7.478419e-08	
11	-5.50000e-01	7.480903e-08	
12	-6.00000e-01	7.483137e-08	
13	-6.50000e-01	7.485190e-08	
14	-7.00000e-01	7.487106e-08	
15	-7.50000e-01	7.488915e-08	
16	-8.00000e-01	7.490640e-08	
17	-8.50000e-01	7.492295e-08	
18	-9.00000e-01	7.493892e-08	
19	-9.50000e-01	7.495440e-08	
20	-1.00000e+00	7.496945e-08	
21	-1.05000e+00	7.498414e-08	
22	-1.10000e+00	7.499850e-08	
23	-1.15000e+00	7.501258e-08	
24	-1.20000e+00	7.502640e-08	
25	-1.25000e+00	7.504000e-08	
26	-1.30000e+00	7.505338e-08	
27	-1.35000e+00	7.506657e-08	
28	-1.40000e+00	7.507959e-08	
29	-1.45000e+00	7.509245e-08	
30	-1.50000e+00	7.510516e-08	
31	-1.55000e+00	7.511773e-08	
32	-1.60000e+00	7.513018e-08	
33	-1.65000e+00	7.514250e-08	
34	-1.70000e+00	7.515472e-08	
35	-1.75000e+00	7.516683e-08	
36	-1.80000e+00	7.517884e-08	
37	-1.85000e+00	7.519076e-08	
38	-1.90000e+00	7.520260e-08	
39	-1.95000e+00	7.521435e-08	
40	-2.00000e+00	7.522603e-08	
41	-2.05000e+00	7.523764e-08	
42	-2.10000e+00	7.524918e-08	
43	-2.15000e+00	7.526066e-08	
44	-2.20000e+00	7.527208e-08	
45	-2.25000e+00	7.528346e-08	
46	-2.30000e+00	7.529480e-08	
47	-2.35000e+00	7.530611e-08	
48	-2.40000e+00	7.531741e-08	
49	-2.45000e+00	7.532871e-08	
50	-2.50000e+00	7.534003e-08	
51	-2.55000e+00	7.535141e-08	
52	-2.60000e+00	7.536286e-08	
53	-2.65000e+00	7.537444e-08	
54	-2.70000e+00	7.538620e-08	

Index   v-sweep         i(vds)          
--------------------------------------------------------------------------------
55	-2.75000e+00	7.539820e-08	
56	-2.80000e+00	7.541052e-08	
57	-2.85000e+00	7.542326e-08	
58	-2.90000e+00	7.543652e-08	
59	-2.95000e+00	7.545045e-08	
60	-3.00000e+00	7.546520e-08	
61	-3.05000e+00	7.548098e-08	
62	-3.10000e+00	7.549799e-08	
63	-3.15000e+00	7.551651e-08	
64	-3.20000e+00	7.553683e-08	
65	-3.25000e+00	7.555931e-08	
66	-3.30000e+00	7.558433e-08	
67	0.000000e+00	5.454513e-23	
68	-5.00000e-02	8.829982e-07	
69	-1.00000e-01	1.638459e-06	
70	-1.50000e-01	2.266777e-06	
71	-2.00000e-01	2.768777e-06	
72	-2.50000e-01	3.146413e-06	
73	-3.00000e-01	3.404797e-06	
74	-3.50000e-01	3.557322e-06	
75	-4.00000e-01	3.631910e-06	
76	-4.50000e-01	3.663907e-06	
77	-5.00000e-01	3.677896e-06	
78	-5.50000e-01	3.684798e-06	
79	-6.00000e-01	3.688711e-06	
80	-6.50000e-01	3.691212e-06	
81	-7.00000e-01	3.692970e-06	
82	-7.50000e-01	3.694300e-06	
83	-8.00000e-01	3.695362e-06	
84	-8.50000e-01	3.696248e-06	
85	-9.00000e-01	3.697010e-06	
86	-9.50000e-01	3.697682e-06	
87	-1.00000e+00	3.698286e-06	
88	-1.05000e+00	3.698837e-06	
89	-1.10000e+00	3.699345e-06	
90	-1.15000e+00	3.699818e-06	
91	-1.20000e+00	3.700262e-06	
92	-1.25000e+00	3.700682e-06	
93	-1.30000e+00	3.701080e-06	
94	-1.35000e+00	3.701460e-06	
95	-1.40000e+00	3.701824e-06	
96	-1.45000e+00	3.702173e-06	
97	-1.50000e+00	3.702510e-06	
98	-1.55000e+00	3.702835e-06	
99	-1.60000e+00	3.703150e-06	
100	-1.65000e+00	3.703455e-06	
101	-1.70000e+00	3.703752e-06	
102	-1.75000e+00	3.704040e-06	
103	-1.80000e+00	3.704321e-06	
104	-1.85000e+00	3.704595e-06	
105	-1.90000e+00	3.704863e-06	
106	-1.95000e+00	3.705125e-06	
107	-2.00000e+00	3.705382e-06	
108	-2.05000e+00	3.705633e-06	
109	-2.10000e+00	3.705879e-06	
110	-2.15000e+00	3.706121e-06	
111	-2.20000e+00	3.706358e-06	
112	-2.25000e+00	3.706592e-06	

Index   v-sweep         i(vds)          
--------------------------------------------------------------------------------
113	-2.30000e+00	3.706821e-06	
114	-2.35000e+00	3.707047e-06	
115	-2.40000e+00	3.707270e-06	
116	-2.45000e+00	3.707490e-06	
117	-2.50000e+00	3.707707e-06	
118	-2.55000e+00	3.707921e-06	
119	-2.60000e+00	3.708134e-06	
120	-2.65000e+00	3.708345e-06	
121	-2.70000e+00	3.708555e-06	
122	-2.75000e+00	3.708765e-06	
123	-2.80000e+00	3.708976e-06	
124	-2.85000e+00	3.709189e-06	
125	-2.90000e+00	3.709406e-06	
126	-2.95000e+00	3.709629e-06	
127	-3.00000e+00	3.709859e-06	
128	-3.05000e+00	3.710101e-06	
129	-3.10000e+00	3.710358e-06	
130	-3.15000e+00	3.710635e-06	
131	-3.20000e+00	3.710936e-06	
132	-3.25000e+00	3.711268e-06	
133	-3.30000e+00	3.711639e-06	
134	0.000000e+00	-2.03961e-21	
135	-5.00000e-02	1.696057e-06	
136	-1.00000e-01	3.269405e-06	
137	-1.50000e-01	4.720105e-06	
138	-2.00000e-01	6.048234e-06	
139	-2.50000e-01	7.253889e-06	
140	-3.00000e-01	8.337206e-06	
141	-3.50000e-01	9.298386e-06	
142	-4.00000e-01	1.013775e-05	
143	-4.50000e-01	1.085583e-05	
144	-5.00000e-01	1.145360e-05	
145	-5.50000e-01	1.193297e-05	
146	-6.00000e-01	1.229775e-05	
147	-6.50000e-01	1.255581e-05	
148	-7.00000e-01	1.272193e-05	
149	-7.50000e-01	1.281890e-05	
150	-8.00000e-01	1.287212e-05	
151	-8.50000e-01	1.290142e-05	
152	-9.00000e-01	1.291849e-05	
153	-9.50000e-01	1.292926e-05	
154	-1.00000e+00	1.293661e-05	
155	-1.05000e+00	1.294199e-05	
156	-1.10000e+00	1.294615e-05	
157	-1.15000e+00	1.294952e-05	
158	-1.20000e+00	1.295235e-05	
159	-1.25000e+00	1.295479e-05	
160	-1.30000e+00	1.295695e-05	
161	-1.35000e+00	1.295888e-05	
162	-1.40000e+00	1.296064e-05	
163	-1.45000e+00	1.296226e-05	
164	-1.50000e+00	1.296376e-05	
165	-1.55000e+00	1.296516e-05	
166	-1.60000e+00	1.296649e-05	
167	-1.65000e+00	1.296774e-05	
168	-1.70000e+00	1.296893e-05	
169	-1.75000e+00	1.297006e-05	
170	-1.80000e+00	1.297114e-05	

Index   v-sweep         i(vds)          
--------------------------------------------------------------------------------
171	-1.85000e+00	1.297218e-05	
172	-1.90000e+00	1.297319e-05	
173	-1.95000e+00	1.297415e-05	
174	-2.00000e+00	1.297509e-05	
175	-2.05000e+00	1.297599e-05	
176	-2.10000e+00	1.297687e-05	
177	-2.15000e+00	1.297772e-05	
178	-2.20000e+00	1.297854e-05	
179	-2.25000e+00	1.297935e-05	
180	-2.30000e+00	1.298013e-05	
181	-2.35000e+00	1.298090e-05	
182	-2.40000e+00	1.298165e-05	
183	-2.45000e+00	1.298238e-05	
184	-2.50000e+00	1.298309e-05	
185	-2.55000e+00	1.298379e-05	
186	-2.60000e+00	1.298448e-05	
187	-2.65000e+00	1.298515e-05	
188	-2.70000e+00	1.298582e-05	
189	-2.75000e+00	1.298647e-05	
190	-2.80000e+00	1.298710e-05	
191	-2.85000e+00	1.298773e-05	
192	-2.90000e+00	1.298836e-05	
193	-2.95000e+00	1.298897e-05	
194	-3.00000e+00	1.298958e-05	
195	-3.05000e+00	1.299019e-05	
196	-3.10000e+00	1.299080e-05	
197	-3.15000e+00	1.299141e-05	
198	-3.20000e+00	1.299203e-05	
199	-3.25000e+00	1.299266e-05	
200	-3.30000e+00	1.299331e-05	
201	0.000000e+00	-1.94206e-21	
202	-5.00000e-02	2.407595e-06	
203	-1.00000e-01	4.701242e-06	
204	-1.50000e-01	6.880977e-06	
205	-2.00000e-01	8.946833e-06	
206	-2.50000e-01	1.089885e-05	
207	-3.00000e-01	1.273707e-05	
208	-3.50000e-01	1.446155e-05	
209	-4.00000e-01	1.607232e-05	
210	-4.50000e-01	1.756947e-05	
211	-5.00000e-01	1.895307e-05	
212	-5.50000e-01	2.022321e-05	
213	-6.00000e-01	2.138005e-05	
214	-6.50000e-01	2.242378e-05	
215	-7.00000e-01	2.335468e-05	
216	-7.50000e-01	2.417320e-05	
217	-8.00000e-01	2.488007e-05	
218	-8.50000e-01	2.547653e-05	
219	-9.00000e-01	2.596476e-05	
220	-9.50000e-01	2.634868e-05	
221	-1.00000e+00	2.663527e-05	
222	-1.05000e+00	2.683615e-05	
223	-1.10000e+00	2.696814e-05	
224	-1.15000e+00	2.705081e-05	
225	-1.20000e+00	2.710190e-05	
226	-1.25000e+00	2.713423e-05	
227	-1.30000e+00	2.715568e-05	
228	-1.35000e+00	2.717073e-05	

Index   v-sweep         i(vds)          
--------------------------------------------------------------------------------
229	-1.40000e+00	2.718190e-05	
230	-1.45000e+00	2.719060e-05	
231	-1.50000e+00	2.719765e-05	
232	-1.55000e+00	2.720356e-05	
233	-1.60000e+00	2.720864e-05	
234	-1.65000e+00	2.721311e-05	
235	-1.70000e+00	2.721711e-05	
236	-1.75000e+00	2.722074e-05	
237	-1.80000e+00	2.722406e-05	
238	-1.85000e+00	2.722714e-05	
239	-1.90000e+00	2.723001e-05	
240	-1.95000e+00	2.723271e-05	
241	-2.00000e+00	2.723525e-05	
242	-2.05000e+00	2.723766e-05	
243	-2.10000e+00	2.723995e-05	
244	-2.15000e+00	2.724213e-05	
245	-2.20000e+00	2.724423e-05	
246	-2.25000e+00	2.724624e-05	
247	-2.30000e+00	2.724818e-05	
248	-2.35000e+00	2.725004e-05	
249	-2.40000e+00	2.725185e-05	
250	-2.45000e+00	2.725359e-05	
251	-2.50000e+00	2.725529e-05	
252	-2.55000e+00	2.725693e-05	
253	-2.60000e+00	2.725852e-05	
254	-2.65000e+00	2.726008e-05	
255	-2.70000e+00	2.726159e-05	
256	-2.75000e+00	2.726306e-05	
257	-2.80000e+00	2.726450e-05	
258	-2.85000e+00	2.726591e-05	
259	-2.90000e+00	2.726728e-05	
260	-2.95000e+00	2.726863e-05	
261	-3.00000e+00	2.726994e-05	
262	-3.05000e+00	2.727124e-05	
263	-3.10000e+00	2.727250e-05	
264	-3.15000e+00	2.727375e-05	
265	-3.20000e+00	2.727497e-05	
266	-3.25000e+00	2.727618e-05	
267	-3.30000e+00	2.727737e-05	
268	0.000000e+00	-4.41904e-21	
269	-5.00000e-02	3.021753e-06	
270	-1.00000e-01	5.938848e-06	
271	-1.50000e-01	8.751311e-06	
272	-2.00000e-01	1.145917e-05	
273	-2.50000e-01	1.406245e-05	
274	-3.00000e-01	1.656118e-05	
275	-3.50000e-01	1.895540e-05	
276	-4.00000e-01	2.124512e-05	
277	-4.50000e-01	2.343038e-05	
278	-5.00000e-01	2.551122e-05	
279	-5.50000e-01	2.748767e-05	
280	-6.00000e-01	2.935976e-05	
281	-6.50000e-01	3.112756e-05	
282	-7.00000e-01	3.279109e-05	
283	-7.50000e-01	3.435043e-05	
284	-8.00000e-01	3.580564e-05	
285	-8.50000e-01	3.715682e-05	
286	-9.00000e-01	3.840406e-05	

Index   v-sweep         i(vds)          
--------------------------------------------------------------------------------
287	-9.50000e-01	3.954754e-05	
288	-1.00000e+00	4.058744e-05	
289	-1.05000e+00	4.152408e-05	
290	-1.10000e+00	4.235790e-05	
291	-1.15000e+00	4.308959e-05	
292	-1.20000e+00	4.372022e-05	
293	-1.25000e+00	4.425159e-05	
294	-1.30000e+00	4.468662e-05	
295	-1.35000e+00	4.503016e-05	
296	-1.40000e+00	4.528996e-05	
297	-1.45000e+00	4.547732e-05	
298	-1.50000e+00	4.560674e-05	
299	-1.55000e+00	4.569372e-05	
300	-1.60000e+00	4.575200e-05	
301	-1.65000e+00	4.579184e-05	
302	-1.70000e+00	4.582008e-05	
303	-1.75000e+00	4.584096e-05	
304	-1.80000e+00	4.585707e-05	
305	-1.85000e+00	4.586998e-05	
306	-1.90000e+00	4.588068e-05	
307	-1.95000e+00	4.588979e-05	
308	-2.00000e+00	4.589772e-05	
309	-2.05000e+00	4.590475e-05	
310	-2.10000e+00	4.591107e-05	
311	-2.15000e+00	4.591684e-05	
312	-2.20000e+00	4.592214e-05	
313	-2.25000e+00	4.592706e-05	
314	-2.30000e+00	4.593166e-05	
315	-2.35000e+00	4.593598e-05	
316	-2.40000e+00	4.594006e-05	
317	-2.45000e+00	4.594394e-05	
318	-2.50000e+00	4.594762e-05	
319	-2.55000e+00	4.595114e-05	
320	-2.60000e+00	4.595451e-05	
321	-2.65000e+00	4.595775e-05	
322	-2.70000e+00	4.596087e-05	
323	-2.75000e+00	4.596387e-05	
324	-2.80000e+00	4.596677e-05	
325	-2.85000e+00	4.596958e-05	
326	-2.90000e+00	4.597230e-05	
327	-2.95000e+00	4.597494e-05	
328	-3.00000e+00	4.597751e-05	
329	-3.05000e+00	4.598000e-05	
330	-3.10000e+00	4.598243e-05	
331	-3.15000e+00	4.598480e-05	
332	-3.20000e+00	4.598711e-05	
333	-3.25000e+00	4.598936e-05	
334	-3.30000e+00	4.599157e-05	
335	0.000000e+00	-1.05317e-21	
336	-5.00000e-02	3.546825e-06	
337	-1.00000e-01	6.998030e-06	
338	-1.50000e-01	1.035364e-05	
339	-2.00000e-01	1.361367e-05	
340	-2.50000e-01	1.677815e-05	
341	-3.00000e-01	1.984710e-05	
342	-3.50000e-01	2.282054e-05	
343	-4.00000e-01	2.569850e-05	
344	-4.50000e-01	2.848100e-05	

Index   v-sweep         i(vds)          
--------------------------------------------------------------------------------
345	-5.00000e-01	3.116806e-05	
346	-5.50000e-01	3.375971e-05	
347	-6.00000e-01	3.625597e-05	
348	-6.50000e-01	3.865688e-05	
349	-7.00000e-01	4.096245e-05	
350	-7.50000e-01	4.317271e-05	
351	-8.00000e-01	4.528770e-05	
352	-8.50000e-01	4.730745e-05	
353	-9.00000e-01	4.923199e-05	
354	-9.50000e-01	5.106135e-05	
355	-1.00000e+00	5.279559e-05	
356	-1.05000e+00	5.443474e-05	
357	-1.10000e+00	5.597887e-05	
358	-1.15000e+00	5.742804e-05	
359	-1.20000e+00	5.878233e-05	
360	-1.25000e+00	6.004185e-05	
361	-1.30000e+00	6.120673e-05	
362	-1.35000e+00	6.227715e-05	
363	-1.40000e+00	6.325335e-05	
364	-1.45000e+00	6.413570e-05	
365	-1.50000e+00	6.492469e-05	
366	-1.55000e+00	6.562108e-05	
367	-1.60000e+00	6.622603e-05	
368	-1.65000e+00	6.674135e-05	
369	-1.70000e+00	6.716985e-05	
370	-1.75000e+00	6.751591e-05	
371	-1.80000e+00	6.778609e-05	
372	-1.85000e+00	6.798955e-05	
373	-1.90000e+00	6.813778e-05	
374	-1.95000e+00	6.824336e-05	
375	-2.00000e+00	6.831807e-05	
376	-2.05000e+00	6.837152e-05	
377	-2.10000e+00	6.841071e-05	
378	-2.15000e+00	6.844039e-05	
379	-2.20000e+00	6.846363e-05	
380	-2.25000e+00	6.848244e-05	
381	-2.30000e+00	6.849811e-05	
382	-2.35000e+00	6.851150e-05	
383	-2.40000e+00	6.852317e-05	
384	-2.45000e+00	6.853352e-05	
385	-2.50000e+00	6.854284e-05	
386	-2.55000e+00	6.855133e-05	
387	-2.60000e+00	6.855913e-05	
388	-2.65000e+00	6.856637e-05	
389	-2.70000e+00	6.857313e-05	
390	-2.75000e+00	6.857948e-05	
391	-2.80000e+00	6.858547e-05	
392	-2.85000e+00	6.859115e-05	
393	-2.90000e+00	6.859656e-05	
394	-2.95000e+00	6.860172e-05	
395	-3.00000e+00	6.860665e-05	
396	-3.05000e+00	6.861139e-05	
397	-3.10000e+00	6.861595e-05	
398	-3.15000e+00	6.862034e-05	
399	-3.20000e+00	6.862458e-05	
400	-3.25000e+00	6.862868e-05	
401	-3.30000e+00	6.863265e-05	
Note: No ".plot", ".print", or ".fourier" lines; no simulations run
