
Note: Compatibility modes selected: hs

Warning: m=xx on .subckt line will override multiplier m hierarchy!


Circuit: ***************************

Doing analysis at TEMP = 125.000000 and TNOM = 125.000000


No. of Data Rows : 402
                          ***************************
                          DC transfer characteristic  Mon Jan  9 13:58:24  2023
--------------------------------------------------------------------------------
Index   v-sweep         i(vds)          
--------------------------------------------------------------------------------
0	0.000000e+00	1.532494e-24	
1	-5.00000e-02	1.165925e-08	
2	-1.00000e-01	1.648648e-08	
3	-1.50000e-01	1.804563e-08	
4	-2.00000e-01	1.841781e-08	
5	-2.50000e-01	1.851779e-08	
6	-3.00000e-01	1.855411e-08	
7	-3.50000e-01	1.857138e-08	
8	-4.00000e-01	1.858145e-08	
9	-4.50000e-01	1.858827e-08	
10	-5.00000e-01	1.859336e-08	
11	-5.50000e-01	1.859745e-08	
12	-6.00000e-01	1.860091e-08	
13	-6.50000e-01	1.860393e-08	
14	-7.00000e-01	1.860665e-08	
15	-7.50000e-01	1.860914e-08	
16	-8.00000e-01	1.861145e-08	
17	-8.50000e-01	1.861363e-08	
18	-9.00000e-01	1.861570e-08	
19	-9.50000e-01	1.861767e-08	
20	-1.00000e+00	1.861957e-08	
21	-1.05000e+00	1.862140e-08	
22	-1.10000e+00	1.862318e-08	
23	-1.15000e+00	1.862490e-08	
24	-1.20000e+00	1.862659e-08	
25	-1.25000e+00	1.862823e-08	
26	-1.30000e+00	1.862983e-08	
27	-1.35000e+00	1.863141e-08	
28	-1.40000e+00	1.863295e-08	
29	-1.45000e+00	1.863447e-08	
30	-1.50000e+00	1.863597e-08	
31	-1.55000e+00	1.863744e-08	
32	-1.60000e+00	1.863889e-08	
33	-1.65000e+00	1.864032e-08	
34	-1.70000e+00	1.864173e-08	
35	-1.75000e+00	1.864313e-08	
36	-1.80000e+00	1.864451e-08	
37	-1.85000e+00	1.864587e-08	
38	-1.90000e+00	1.864722e-08	
39	-1.95000e+00	1.864856e-08	
40	-2.00000e+00	1.864988e-08	
41	-2.05000e+00	1.865119e-08	
42	-2.10000e+00	1.865249e-08	
43	-2.15000e+00	1.865378e-08	
44	-2.20000e+00	1.865507e-08	
45	-2.25000e+00	1.865634e-08	
46	-2.30000e+00	1.865760e-08	
47	-2.35000e+00	1.865886e-08	
48	-2.40000e+00	1.866011e-08	
49	-2.45000e+00	1.866136e-08	
50	-2.50000e+00	1.866261e-08	
51	-2.55000e+00	1.866386e-08	
52	-2.60000e+00	1.866511e-08	
53	-2.65000e+00	1.866637e-08	
54	-2.70000e+00	1.866764e-08	

Index   v-sweep         i(vds)          
--------------------------------------------------------------------------------
55	-2.75000e+00	1.866893e-08	
56	-2.80000e+00	1.867025e-08	
57	-2.85000e+00	1.867161e-08	
58	-2.90000e+00	1.867301e-08	
59	-2.95000e+00	1.867448e-08	
60	-3.00000e+00	1.867603e-08	
61	-3.05000e+00	1.867768e-08	
62	-3.10000e+00	1.867945e-08	
63	-3.15000e+00	1.868138e-08	
64	-3.20000e+00	1.868349e-08	
65	-3.25000e+00	1.868582e-08	
66	-3.30000e+00	1.868842e-08	
67	0.000000e+00	-1.53434e-23	
68	-5.00000e-02	4.137911e-08	
69	-1.00000e-01	7.479194e-08	
70	-1.50000e-01	1.029883e-07	
71	-2.00000e-01	1.266202e-07	
72	-2.50000e-01	1.458619e-07	
73	-3.00000e-01	1.608036e-07	
74	-3.50000e-01	1.715869e-07	
75	-4.00000e-01	1.785432e-07	
76	-4.50000e-01	1.823911e-07	
77	-5.00000e-01	1.842299e-07	
78	-5.50000e-01	1.850667e-07	
79	-6.00000e-01	1.854729e-07	
80	-6.50000e-01	1.856941e-07	
81	-7.00000e-01	1.858293e-07	
82	-7.50000e-01	1.859206e-07	
83	-8.00000e-01	1.859873e-07	
84	-8.50000e-01	1.860391e-07	
85	-9.00000e-01	1.860815e-07	
86	-9.50000e-01	1.861173e-07	
87	-1.00000e+00	1.861485e-07	
88	-1.05000e+00	1.861763e-07	
89	-1.10000e+00	1.862015e-07	
90	-1.15000e+00	1.862246e-07	
91	-1.20000e+00	1.862460e-07	
92	-1.25000e+00	1.862661e-07	
93	-1.30000e+00	1.862851e-07	
94	-1.35000e+00	1.863030e-07	
95	-1.40000e+00	1.863201e-07	
96	-1.45000e+00	1.863365e-07	
97	-1.50000e+00	1.863522e-07	
98	-1.55000e+00	1.863674e-07	
99	-1.60000e+00	1.863820e-07	
100	-1.65000e+00	1.863961e-07	
101	-1.70000e+00	1.864098e-07	
102	-1.75000e+00	1.864232e-07	
103	-1.80000e+00	1.864361e-07	
104	-1.85000e+00	1.864488e-07	
105	-1.90000e+00	1.864611e-07	
106	-1.95000e+00	1.864731e-07	
107	-2.00000e+00	1.864849e-07	
108	-2.05000e+00	1.864964e-07	
109	-2.10000e+00	1.865077e-07	
110	-2.15000e+00	1.865188e-07	
111	-2.20000e+00	1.865297e-07	
112	-2.25000e+00	1.865403e-07	

Index   v-sweep         i(vds)          
--------------------------------------------------------------------------------
113	-2.30000e+00	1.865508e-07	
114	-2.35000e+00	1.865611e-07	
115	-2.40000e+00	1.865713e-07	
116	-2.45000e+00	1.865813e-07	
117	-2.50000e+00	1.865911e-07	
118	-2.55000e+00	1.866009e-07	
119	-2.60000e+00	1.866105e-07	
120	-2.65000e+00	1.866200e-07	
121	-2.70000e+00	1.866294e-07	
122	-2.75000e+00	1.866388e-07	
123	-2.80000e+00	1.866481e-07	
124	-2.85000e+00	1.866574e-07	
125	-2.90000e+00	1.866668e-07	
126	-2.95000e+00	1.866763e-07	
127	-3.00000e+00	1.866859e-07	
128	-3.05000e+00	1.866958e-07	
129	-3.10000e+00	1.867060e-07	
130	-3.15000e+00	1.867167e-07	
131	-3.20000e+00	1.867280e-07	
132	-3.25000e+00	1.867402e-07	
133	-3.30000e+00	1.867534e-07	
134	0.000000e+00	2.310031e-23	
135	-5.00000e-02	7.045773e-08	
136	-1.00000e-01	1.330250e-07	
137	-1.50000e-01	1.904429e-07	
138	-2.00000e-01	2.433524e-07	
139	-2.50000e-01	2.919048e-07	
140	-3.00000e-01	3.361377e-07	
141	-3.50000e-01	3.760635e-07	
142	-4.00000e-01	4.116903e-07	
143	-4.50000e-01	4.430286e-07	
144	-5.00000e-01	4.700952e-07	
145	-5.50000e-01	4.929198e-07	
146	-6.00000e-01	5.115578e-07	
147	-6.50000e-01	5.261181e-07	
148	-7.00000e-01	5.368171e-07	
149	-7.50000e-01	5.440674e-07	
150	-8.00000e-01	5.485469e-07	
151	-8.50000e-01	5.511130e-07	
152	-9.00000e-01	5.525458e-07	
153	-9.50000e-01	5.533704e-07	
154	-1.00000e+00	5.538766e-07	
155	-1.05000e+00	5.542114e-07	
156	-1.10000e+00	5.544491e-07	
157	-1.15000e+00	5.546284e-07	
158	-1.20000e+00	5.547705e-07	
159	-1.25000e+00	5.548879e-07	
160	-1.30000e+00	5.549879e-07	
161	-1.35000e+00	5.550752e-07	
162	-1.40000e+00	5.551531e-07	
163	-1.45000e+00	5.552236e-07	
164	-1.50000e+00	5.552882e-07	
165	-1.55000e+00	5.553481e-07	
166	-1.60000e+00	5.554040e-07	
167	-1.65000e+00	5.554566e-07	
168	-1.70000e+00	5.555063e-07	
169	-1.75000e+00	5.555535e-07	
170	-1.80000e+00	5.555986e-07	

Index   v-sweep         i(vds)          
--------------------------------------------------------------------------------
171	-1.85000e+00	5.556417e-07	
172	-1.90000e+00	5.556831e-07	
173	-1.95000e+00	5.557230e-07	
174	-2.00000e+00	5.557615e-07	
175	-2.05000e+00	5.557987e-07	
176	-2.10000e+00	5.558347e-07	
177	-2.15000e+00	5.558697e-07	
178	-2.20000e+00	5.559037e-07	
179	-2.25000e+00	5.559368e-07	
180	-2.30000e+00	5.559690e-07	
181	-2.35000e+00	5.560004e-07	
182	-2.40000e+00	5.560311e-07	
183	-2.45000e+00	5.560610e-07	
184	-2.50000e+00	5.560904e-07	
185	-2.55000e+00	5.561191e-07	
186	-2.60000e+00	5.561472e-07	
187	-2.65000e+00	5.561747e-07	
188	-2.70000e+00	5.562018e-07	
189	-2.75000e+00	5.562284e-07	
190	-2.80000e+00	5.562545e-07	
191	-2.85000e+00	5.562802e-07	
192	-2.90000e+00	5.563054e-07	
193	-2.95000e+00	5.563304e-07	
194	-3.00000e+00	5.563550e-07	
195	-3.05000e+00	5.563794e-07	
196	-3.10000e+00	5.564037e-07	
197	-3.15000e+00	5.564278e-07	
198	-3.20000e+00	5.564520e-07	
199	-3.25000e+00	5.564763e-07	
200	-3.30000e+00	5.565009e-07	
201	0.000000e+00	2.059633e-22	
202	-5.00000e-02	9.766801e-08	
203	-1.00000e-01	1.876366e-07	
204	-1.50000e-01	2.726433e-07	
205	-2.00000e-01	3.533279e-07	
206	-2.50000e-01	4.298405e-07	
207	-3.00000e-01	5.022169e-07	
208	-3.50000e-01	5.704663e-07	
209	-4.00000e-01	6.345918e-07	
210	-4.50000e-01	6.945955e-07	
211	-5.00000e-01	7.504793e-07	
212	-5.50000e-01	8.022456e-07	
213	-6.00000e-01	8.498977e-07	
214	-6.50000e-01	8.934400e-07	
215	-7.00000e-01	9.328788e-07	
216	-7.50000e-01	9.682234e-07	
217	-8.00000e-01	9.994883e-07	
218	-8.50000e-01	1.026697e-06	
219	-9.00000e-01	1.049887e-06	
220	-9.50000e-01	1.069127e-06	
221	-1.00000e+00	1.084535e-06	
222	-1.05000e+00	1.096320e-06	
223	-1.10000e+00	1.104835e-06	
224	-1.15000e+00	1.110613e-06	
225	-1.20000e+00	1.114326e-06	
226	-1.25000e+00	1.116647e-06	
227	-1.30000e+00	1.118106e-06	
228	-1.35000e+00	1.119059e-06	

Index   v-sweep         i(vds)          
--------------------------------------------------------------------------------
229	-1.40000e+00	1.119712e-06	
230	-1.45000e+00	1.120185e-06	
231	-1.50000e+00	1.120545e-06	
232	-1.55000e+00	1.120832e-06	
233	-1.60000e+00	1.121069e-06	
234	-1.65000e+00	1.121270e-06	
235	-1.70000e+00	1.121446e-06	
236	-1.75000e+00	1.121602e-06	
237	-1.80000e+00	1.121743e-06	
238	-1.85000e+00	1.121872e-06	
239	-1.90000e+00	1.121991e-06	
240	-1.95000e+00	1.122102e-06	
241	-2.00000e+00	1.122206e-06	
242	-2.05000e+00	1.122304e-06	
243	-2.10000e+00	1.122397e-06	
244	-2.15000e+00	1.122485e-06	
245	-2.20000e+00	1.122570e-06	
246	-2.25000e+00	1.122651e-06	
247	-2.30000e+00	1.122728e-06	
248	-2.35000e+00	1.122803e-06	
249	-2.40000e+00	1.122876e-06	
250	-2.45000e+00	1.122946e-06	
251	-2.50000e+00	1.123013e-06	
252	-2.55000e+00	1.123079e-06	
253	-2.60000e+00	1.123143e-06	
254	-2.65000e+00	1.123205e-06	
255	-2.70000e+00	1.123266e-06	
256	-2.75000e+00	1.123324e-06	
257	-2.80000e+00	1.123382e-06	
258	-2.85000e+00	1.123438e-06	
259	-2.90000e+00	1.123493e-06	
260	-2.95000e+00	1.123547e-06	
261	-3.00000e+00	1.123599e-06	
262	-3.05000e+00	1.123651e-06	
263	-3.10000e+00	1.123701e-06	
264	-3.15000e+00	1.123751e-06	
265	-3.20000e+00	1.123800e-06	
266	-3.25000e+00	1.123848e-06	
267	-3.30000e+00	1.123895e-06	
268	0.000000e+00	4.532684e-23	
269	-5.00000e-02	1.232110e-07	
270	-1.00000e-01	2.389350e-07	
271	-1.50000e-01	3.499067e-07	
272	-2.00000e-01	4.567654e-07	
273	-2.50000e-01	5.596609e-07	
274	-3.00000e-01	6.586288e-07	
275	-3.50000e-01	7.536778e-07	
276	-4.00000e-01	8.448107e-07	
277	-4.50000e-01	9.320286e-07	
278	-5.00000e-01	1.015332e-06	
279	-5.50000e-01	1.094723e-06	
280	-6.00000e-01	1.170201e-06	
281	-6.50000e-01	1.241769e-06	
282	-7.00000e-01	1.309426e-06	
283	-7.50000e-01	1.373175e-06	
284	-8.00000e-01	1.433018e-06	
285	-8.50000e-01	1.488957e-06	
286	-9.00000e-01	1.540993e-06	

Index   v-sweep         i(vds)          
--------------------------------------------------------------------------------
287	-9.50000e-01	1.589133e-06	
288	-1.00000e+00	1.633379e-06	
289	-1.05000e+00	1.673740e-06	
290	-1.10000e+00	1.710225e-06	
291	-1.15000e+00	1.742850e-06	
292	-1.20000e+00	1.771637e-06	
293	-1.25000e+00	1.796623e-06	
294	-1.30000e+00	1.817865e-06	
295	-1.35000e+00	1.835459e-06	
296	-1.40000e+00	1.849562e-06	
297	-1.45000e+00	1.860421e-06	
298	-1.50000e+00	1.868413e-06	
299	-1.55000e+00	1.874038e-06	
300	-1.60000e+00	1.877864e-06	
301	-1.65000e+00	1.880433e-06	
302	-1.70000e+00	1.882176e-06	
303	-1.75000e+00	1.883392e-06	
304	-1.80000e+00	1.884276e-06	
305	-1.85000e+00	1.884946e-06	
306	-1.90000e+00	1.885473e-06	
307	-1.95000e+00	1.885904e-06	
308	-2.00000e+00	1.886267e-06	
309	-2.05000e+00	1.886580e-06	
310	-2.10000e+00	1.886855e-06	
311	-2.15000e+00	1.887102e-06	
312	-2.20000e+00	1.887326e-06	
313	-2.25000e+00	1.887532e-06	
314	-2.30000e+00	1.887723e-06	
315	-2.35000e+00	1.887901e-06	
316	-2.40000e+00	1.888068e-06	
317	-2.45000e+00	1.888226e-06	
318	-2.50000e+00	1.888375e-06	
319	-2.55000e+00	1.888518e-06	
320	-2.60000e+00	1.888654e-06	
321	-2.65000e+00	1.888785e-06	
322	-2.70000e+00	1.888911e-06	
323	-2.75000e+00	1.889032e-06	
324	-2.80000e+00	1.889149e-06	
325	-2.85000e+00	1.889262e-06	
326	-2.90000e+00	1.889371e-06	
327	-2.95000e+00	1.889477e-06	
328	-3.00000e+00	1.889580e-06	
329	-3.05000e+00	1.889680e-06	
330	-3.10000e+00	1.889778e-06	
331	-3.15000e+00	1.889873e-06	
332	-3.20000e+00	1.889965e-06	
333	-3.25000e+00	1.890056e-06	
334	-3.30000e+00	1.890144e-06	
335	0.000000e+00	-3.83194e-22	
336	-5.00000e-02	1.473163e-07	
337	-1.00000e-01	2.873568e-07	
338	-1.50000e-01	4.228538e-07	
339	-2.00000e-01	5.544463e-07	
340	-2.50000e-01	6.822840e-07	
341	-3.00000e-01	8.064024e-07	
342	-3.50000e-01	9.268102e-07	
343	-4.00000e-01	1.043510e-06	
344	-4.50000e-01	1.156503e-06	

Index   v-sweep         i(vds)          
--------------------------------------------------------------------------------
345	-5.00000e-01	1.265789e-06	
346	-5.50000e-01	1.371370e-06	
347	-6.00000e-01	1.473246e-06	
348	-6.50000e-01	1.571417e-06	
349	-7.00000e-01	1.665885e-06	
350	-7.50000e-01	1.756650e-06	
351	-8.00000e-01	1.843712e-06	
352	-8.50000e-01	1.927074e-06	
353	-9.00000e-01	2.006735e-06	
354	-9.50000e-01	2.082697e-06	
355	-1.00000e+00	2.154960e-06	
356	-1.05000e+00	2.223527e-06	
357	-1.10000e+00	2.288398e-06	
358	-1.15000e+00	2.349576e-06	
359	-1.20000e+00	2.407062e-06	
360	-1.25000e+00	2.460860e-06	
361	-1.30000e+00	2.510973e-06	
362	-1.35000e+00	2.557406e-06	
363	-1.40000e+00	2.600165e-06	
364	-1.45000e+00	2.639259e-06	
365	-1.50000e+00	2.674700e-06	
366	-1.55000e+00	2.706506e-06	
367	-1.60000e+00	2.734705e-06	
368	-1.65000e+00	2.759336e-06	
369	-1.70000e+00	2.780461e-06	
370	-1.75000e+00	2.798179e-06	
371	-1.80000e+00	2.812640e-06	
372	-1.85000e+00	2.824069e-06	
373	-1.90000e+00	2.832790e-06	
374	-1.95000e+00	2.839220e-06	
375	-2.00000e+00	2.843835e-06	
376	-2.05000e+00	2.847106e-06	
377	-2.10000e+00	2.849433e-06	
378	-2.15000e+00	2.851122e-06	
379	-2.20000e+00	2.852383e-06	
380	-2.25000e+00	2.853357e-06	
381	-2.30000e+00	2.854134e-06	
382	-2.35000e+00	2.854774e-06	
383	-2.40000e+00	2.855316e-06	
384	-2.45000e+00	2.855784e-06	
385	-2.50000e+00	2.856197e-06	
386	-2.55000e+00	2.856567e-06	
387	-2.60000e+00	2.856904e-06	
388	-2.65000e+00	2.857212e-06	
389	-2.70000e+00	2.857498e-06	
390	-2.75000e+00	2.857764e-06	
391	-2.80000e+00	2.858015e-06	
392	-2.85000e+00	2.858251e-06	
393	-2.90000e+00	2.858475e-06	
394	-2.95000e+00	2.858688e-06	
395	-3.00000e+00	2.858892e-06	
396	-3.05000e+00	2.859087e-06	
397	-3.10000e+00	2.859274e-06	
398	-3.15000e+00	2.859455e-06	
399	-3.20000e+00	2.859628e-06	
400	-3.25000e+00	2.859796e-06	
401	-3.30000e+00	2.859959e-06	
Note: No ".plot", ".print", or ".fourier" lines; no simulations run
