
Note: Compatibility modes selected: hs

Warning: m=xx on .subckt line will override multiplier m hierarchy!


Circuit: ***************************

Doing analysis at TEMP = -40.000000 and TNOM = -40.000000


No. of Data Rows : 402
                          ***************************
                          DC transfer characteristic  Mon Jan  9 13:58:23  2023
--------------------------------------------------------------------------------
Index   v-sweep         i(vds)          
--------------------------------------------------------------------------------
0	0.000000e+00	7.524871e-38	
1	-5.00000e-02	6.791487e-07	
2	-1.00000e-01	8.146186e-07	
3	-1.50000e-01	8.552278e-07	
4	-2.00000e-01	8.839537e-07	
5	-2.50000e-01	9.098068e-07	
6	-3.00000e-01	9.345432e-07	
7	-3.50000e-01	9.587293e-07	
8	-4.00000e-01	9.826195e-07	
9	-4.50000e-01	1.006356e-06	
10	-5.00000e-01	1.030031e-06	
11	-5.50000e-01	1.053708e-06	
12	-6.00000e-01	1.077436e-06	
13	-6.50000e-01	1.101253e-06	
14	-7.00000e-01	1.125190e-06	
15	-7.50000e-01	1.149272e-06	
16	-8.00000e-01	1.173520e-06	
17	-8.50000e-01	1.197954e-06	
18	-9.00000e-01	1.222588e-06	
19	-9.50000e-01	1.247438e-06	
20	-1.00000e+00	1.272515e-06	
21	-1.05000e+00	1.297831e-06	
22	-1.10000e+00	1.323396e-06	
23	-1.15000e+00	1.349219e-06	
24	-1.20000e+00	1.375309e-06	
25	-1.25000e+00	1.401674e-06	
26	-1.30000e+00	1.428321e-06	
27	-1.35000e+00	1.455257e-06	
28	-1.40000e+00	1.482488e-06	
29	-1.45000e+00	1.510020e-06	
30	-1.50000e+00	1.537860e-06	
31	-1.55000e+00	1.566012e-06	
32	-1.60000e+00	1.594483e-06	
33	-1.65000e+00	1.623276e-06	
34	-1.70000e+00	1.652397e-06	
35	-1.75000e+00	1.681851e-06	
36	-1.80000e+00	1.711642e-06	
37	-1.85000e+00	1.741774e-06	
38	-1.90000e+00	1.772253e-06	
39	-1.95000e+00	1.803082e-06	
40	-2.00000e+00	1.834266e-06	
41	-2.05000e+00	1.865810e-06	
42	-2.10000e+00	1.897717e-06	
43	-2.15000e+00	1.929994e-06	
44	-2.20000e+00	1.962644e-06	
45	-2.25000e+00	1.995675e-06	
46	-2.30000e+00	2.029090e-06	
47	-2.35000e+00	2.062897e-06	
48	-2.40000e+00	2.097104e-06	
49	-2.45000e+00	2.131717e-06	
50	-2.50000e+00	2.166747e-06	
51	-2.55000e+00	2.202203e-06	
52	-2.60000e+00	2.238096e-06	
53	-2.65000e+00	2.274440e-06	
54	-2.70000e+00	2.311249e-06	

Index   v-sweep         i(vds)          
--------------------------------------------------------------------------------
55	-2.75000e+00	2.348540e-06	
56	-2.80000e+00	2.386333e-06	
57	-2.85000e+00	2.424648e-06	
58	-2.90000e+00	2.463509e-06	
59	-2.95000e+00	2.502943e-06	
60	-3.00000e+00	2.542982e-06	
61	-3.05000e+00	2.583659e-06	
62	-3.10000e+00	2.625011e-06	
63	-3.15000e+00	2.667082e-06	
64	-3.20000e+00	2.709917e-06	
65	-3.25000e+00	2.753568e-06	
66	-3.30000e+00	2.798091e-06	
67	0.000000e+00	-4.22014e-21	
68	-5.00000e-02	1.960749e-05	
69	-1.00000e-01	3.688843e-05	
70	-1.50000e-01	5.188481e-05	
71	-2.00000e-01	6.464082e-05	
72	-2.50000e-01	7.520612e-05	
73	-3.00000e-01	8.364421e-05	
74	-3.50000e-01	9.005483e-05	
75	-4.00000e-01	9.462805e-05	
76	-4.50000e-01	9.772538e-05	
77	-5.00000e-01	9.985629e-05	
78	-5.50000e-01	1.014638e-04	
79	-6.00000e-01	1.027978e-04	
80	-6.50000e-01	1.039730e-04	
81	-7.00000e-01	1.050433e-04	
82	-7.50000e-01	1.060367e-04	
83	-8.00000e-01	1.069702e-04	
84	-8.50000e-01	1.078550e-04	
85	-9.00000e-01	1.086992e-04	
86	-9.50000e-01	1.095087e-04	
87	-1.00000e+00	1.102883e-04	
88	-1.05000e+00	1.110417e-04	
89	-1.10000e+00	1.117720e-04	
90	-1.15000e+00	1.124817e-04	
91	-1.20000e+00	1.131731e-04	
92	-1.25000e+00	1.138478e-04	
93	-1.30000e+00	1.145076e-04	
94	-1.35000e+00	1.151538e-04	
95	-1.40000e+00	1.157876e-04	
96	-1.45000e+00	1.164100e-04	
97	-1.50000e+00	1.170220e-04	
98	-1.55000e+00	1.176244e-04	
99	-1.60000e+00	1.182178e-04	
100	-1.65000e+00	1.188031e-04	
101	-1.70000e+00	1.193807e-04	
102	-1.75000e+00	1.199512e-04	
103	-1.80000e+00	1.205151e-04	
104	-1.85000e+00	1.210728e-04	
105	-1.90000e+00	1.216247e-04	
106	-1.95000e+00	1.221712e-04	
107	-2.00000e+00	1.227126e-04	
108	-2.05000e+00	1.232493e-04	
109	-2.10000e+00	1.237815e-04	
110	-2.15000e+00	1.243094e-04	
111	-2.20000e+00	1.248334e-04	
112	-2.25000e+00	1.253537e-04	

Index   v-sweep         i(vds)          
--------------------------------------------------------------------------------
113	-2.30000e+00	1.258705e-04	
114	-2.35000e+00	1.263839e-04	
115	-2.40000e+00	1.268943e-04	
116	-2.45000e+00	1.274018e-04	
117	-2.50000e+00	1.279066e-04	
118	-2.55000e+00	1.284090e-04	
119	-2.60000e+00	1.289091e-04	
120	-2.65000e+00	1.294072e-04	
121	-2.70000e+00	1.299036e-04	
122	-2.75000e+00	1.303985e-04	
123	-2.80000e+00	1.308923e-04	
124	-2.85000e+00	1.313853e-04	
125	-2.90000e+00	1.318779e-04	
126	-2.95000e+00	1.323706e-04	
127	-3.00000e+00	1.328638e-04	
128	-3.05000e+00	1.333581e-04	
129	-3.10000e+00	1.338542e-04	
130	-3.15000e+00	1.343528e-04	
131	-3.20000e+00	1.348547e-04	
132	-3.25000e+00	1.353607e-04	
133	-3.30000e+00	1.358721e-04	
134	0.000000e+00	-6.01803e-21	
135	-5.00000e-02	3.482350e-05	
136	-1.00000e-01	6.747527e-05	
137	-1.50000e-01	9.798276e-05	
138	-2.00000e-01	1.263734e-04	
139	-2.50000e-01	1.526747e-04	
140	-3.00000e-01	1.769142e-04	
141	-3.50000e-01	1.991196e-04	
142	-4.00000e-01	2.193192e-04	
143	-4.50000e-01	2.375420e-04	
144	-5.00000e-01	2.538188e-04	
145	-5.50000e-01	2.681833e-04	
146	-6.00000e-01	2.806753e-04	
147	-6.50000e-01	2.913474e-04	
148	-7.00000e-01	3.002773e-04	
149	-7.50000e-01	3.075916e-04	
150	-8.00000e-01	3.134952e-04	
151	-8.50000e-01	3.182752e-04	
152	-9.00000e-01	3.222431e-04	
153	-9.50000e-01	3.256539e-04	
154	-1.00000e+00	3.286782e-04	
155	-1.05000e+00	3.314210e-04	
156	-1.10000e+00	3.339476e-04	
157	-1.15000e+00	3.363010e-04	
158	-1.20000e+00	3.385115e-04	
159	-1.25000e+00	3.406012e-04	
160	-1.30000e+00	3.425872e-04	
161	-1.35000e+00	3.444829e-04	
162	-1.40000e+00	3.462991e-04	
163	-1.45000e+00	3.480449e-04	
164	-1.50000e+00	3.497278e-04	
165	-1.55000e+00	3.513541e-04	
166	-1.60000e+00	3.529292e-04	
167	-1.65000e+00	3.544579e-04	
168	-1.70000e+00	3.559441e-04	
169	-1.75000e+00	3.573914e-04	
170	-1.80000e+00	3.588030e-04	

Index   v-sweep         i(vds)          
--------------------------------------------------------------------------------
171	-1.85000e+00	3.601816e-04	
172	-1.90000e+00	3.615297e-04	
173	-1.95000e+00	3.628495e-04	
174	-2.00000e+00	3.641430e-04	
175	-2.05000e+00	3.654119e-04	
176	-2.10000e+00	3.666578e-04	
177	-2.15000e+00	3.678823e-04	
178	-2.20000e+00	3.690866e-04	
179	-2.25000e+00	3.702719e-04	
180	-2.30000e+00	3.714394e-04	
181	-2.35000e+00	3.725901e-04	
182	-2.40000e+00	3.737249e-04	
183	-2.45000e+00	3.748447e-04	
184	-2.50000e+00	3.759503e-04	
185	-2.55000e+00	3.770424e-04	
186	-2.60000e+00	3.781217e-04	
187	-2.65000e+00	3.791890e-04	
188	-2.70000e+00	3.802448e-04	
189	-2.75000e+00	3.812898e-04	
190	-2.80000e+00	3.823247e-04	
191	-2.85000e+00	3.833499e-04	
192	-2.90000e+00	3.843662e-04	
193	-2.95000e+00	3.853741e-04	
194	-3.00000e+00	3.863744e-04	
195	-3.05000e+00	3.873679e-04	
196	-3.10000e+00	3.883552e-04	
197	-3.15000e+00	3.893374e-04	
198	-3.20000e+00	3.903153e-04	
199	-3.25000e+00	3.912901e-04	
200	-3.30000e+00	3.922630e-04	
201	0.000000e+00	-3.75694e-33	
202	-5.00000e-02	4.579022e-05	
203	-1.00000e-01	8.961666e-05	
204	-1.50000e-01	1.314988e-04	
205	-2.00000e-01	1.714560e-04	
206	-2.50000e-01	2.095078e-04	
207	-3.00000e-01	2.456737e-04	
208	-3.50000e-01	2.799731e-04	
209	-4.00000e-01	3.124256e-04	
210	-4.50000e-01	3.430506e-04	
211	-5.00000e-01	3.718678e-04	
212	-5.50000e-01	3.988968e-04	
213	-6.00000e-01	4.241573e-04	
214	-6.50000e-01	4.476694e-04	
215	-7.00000e-01	4.694535e-04	
216	-7.50000e-01	4.895307e-04	
217	-8.00000e-01	5.079232e-04	
218	-8.50000e-01	5.246551e-04	
219	-9.00000e-01	5.397540e-04	
220	-9.50000e-01	5.532537e-04	
221	-1.00000e+00	5.651992e-04	
222	-1.05000e+00	5.756559e-04	
223	-1.10000e+00	5.847223e-04	
224	-1.15000e+00	5.925438e-04	
225	-1.20000e+00	5.993113e-04	
226	-1.25000e+00	6.052345e-04	
227	-1.30000e+00	6.105032e-04	
228	-1.35000e+00	6.152656e-04	

Index   v-sweep         i(vds)          
--------------------------------------------------------------------------------
229	-1.40000e+00	6.196289e-04	
230	-1.45000e+00	6.236692e-04	
231	-1.50000e+00	6.274418e-04	
232	-1.55000e+00	6.309881e-04	
233	-1.60000e+00	6.343400e-04	
234	-1.65000e+00	6.375227e-04	
235	-1.70000e+00	6.405569e-04	
236	-1.75000e+00	6.434592e-04	
237	-1.80000e+00	6.462439e-04	
238	-1.85000e+00	6.489228e-04	
239	-1.90000e+00	6.515060e-04	
240	-1.95000e+00	6.540024e-04	
241	-2.00000e+00	6.564196e-04	
242	-2.05000e+00	6.587641e-04	
243	-2.10000e+00	6.610419e-04	
244	-2.15000e+00	6.632581e-04	
245	-2.20000e+00	6.654174e-04	
246	-2.25000e+00	6.675237e-04	
247	-2.30000e+00	6.695808e-04	
248	-2.35000e+00	6.715921e-04	
249	-2.40000e+00	6.735604e-04	
250	-2.45000e+00	6.754885e-04	
251	-2.50000e+00	6.773789e-04	
252	-2.55000e+00	6.792339e-04	
253	-2.60000e+00	6.810554e-04	
254	-2.65000e+00	6.828453e-04	
255	-2.70000e+00	6.846055e-04	
256	-2.75000e+00	6.863375e-04	
257	-2.80000e+00	6.880428e-04	
258	-2.85000e+00	6.897228e-04	
259	-2.90000e+00	6.913787e-04	
260	-2.95000e+00	6.930118e-04	
261	-3.00000e+00	6.946233e-04	
262	-3.05000e+00	6.962142e-04	
263	-3.10000e+00	6.977857e-04	
264	-3.15000e+00	6.993388e-04	
265	-3.20000e+00	7.008746e-04	
266	-3.25000e+00	7.023941e-04	
267	-3.30000e+00	7.038986e-04	
268	0.000000e+00	-3.36786e-21	
269	-5.00000e-02	5.388048e-05	
270	-1.00000e-01	1.059924e-04	
271	-1.50000e-01	1.563502e-04	
272	-2.00000e-01	2.049680e-04	
273	-2.50000e-01	2.518603e-04	
274	-3.00000e-01	2.970414e-04	
275	-3.50000e-01	3.405257e-04	
276	-4.00000e-01	3.823277e-04	
277	-4.50000e-01	4.224618e-04	
278	-5.00000e-01	4.609425e-04	
279	-5.50000e-01	4.977841e-04	
280	-6.00000e-01	5.330012e-04	
281	-6.50000e-01	5.666084e-04	
282	-7.00000e-01	5.986200e-04	
283	-7.50000e-01	6.290507e-04	
284	-8.00000e-01	6.579151e-04	
285	-8.50000e-01	6.852279e-04	
286	-9.00000e-01	7.110040e-04	

Index   v-sweep         i(vds)          
--------------------------------------------------------------------------------
287	-9.50000e-01	7.352583e-04	
288	-1.00000e+00	7.580063e-04	
289	-1.05000e+00	7.792638e-04	
290	-1.10000e+00	7.990474e-04	
291	-1.15000e+00	8.173752e-04	
292	-1.20000e+00	8.342670e-04	
293	-1.25000e+00	8.497466e-04	
294	-1.30000e+00	8.638435e-04	
295	-1.35000e+00	8.765977e-04	
296	-1.40000e+00	8.880657e-04	
297	-1.45000e+00	8.983283e-04	
298	-1.50000e+00	9.074969e-04	
299	-1.55000e+00	9.157091e-04	
300	-1.60000e+00	9.231138e-04	
301	-1.65000e+00	9.298503e-04	
302	-1.70000e+00	9.360363e-04	
303	-1.75000e+00	9.417649e-04	
304	-1.80000e+00	9.471085e-04	
305	-1.85000e+00	9.521238e-04	
306	-1.90000e+00	9.568554e-04	
307	-1.95000e+00	9.613392e-04	
308	-2.00000e+00	9.656047e-04	
309	-2.05000e+00	9.696763e-04	
310	-2.10000e+00	9.735745e-04	
311	-2.15000e+00	9.773165e-04	
312	-2.20000e+00	9.809173e-04	
313	-2.25000e+00	9.843896e-04	
314	-2.30000e+00	9.877447e-04	
315	-2.35000e+00	9.909923e-04	
316	-2.40000e+00	9.941410e-04	
317	-2.45000e+00	9.971984e-04	
318	-2.50000e+00	1.000171e-03	
319	-2.55000e+00	1.003066e-03	
320	-2.60000e+00	1.005887e-03	
321	-2.65000e+00	1.008640e-03	
322	-2.70000e+00	1.011330e-03	
323	-2.75000e+00	1.013959e-03	
324	-2.80000e+00	1.016533e-03	
325	-2.85000e+00	1.019054e-03	
326	-2.90000e+00	1.021525e-03	
327	-2.95000e+00	1.023949e-03	
328	-3.00000e+00	1.026329e-03	
329	-3.05000e+00	1.028666e-03	
330	-3.10000e+00	1.030964e-03	
331	-3.15000e+00	1.033224e-03	
332	-3.20000e+00	1.035448e-03	
333	-3.25000e+00	1.037638e-03	
334	-3.30000e+00	1.039796e-03	
335	0.000000e+00	-5.22823e-20	
336	-5.00000e-02	5.996046e-05	
337	-1.00000e-01	1.183248e-04	
338	-1.50000e-01	1.751037e-04	
339	-2.00000e-01	2.303082e-04	
340	-2.50000e-01	2.839492e-04	
341	-3.00000e-01	3.360375e-04	
342	-3.50000e-01	3.865841e-04	
343	-4.00000e-01	4.356000e-04	
344	-4.50000e-01	4.830963e-04	

Index   v-sweep         i(vds)          
--------------------------------------------------------------------------------
345	-5.00000e-01	5.290839e-04	
346	-5.50000e-01	5.735739e-04	
347	-6.00000e-01	6.165774e-04	
348	-6.50000e-01	6.581055e-04	
349	-7.00000e-01	6.981692e-04	
350	-7.50000e-01	7.367797e-04	
351	-8.00000e-01	7.739480e-04	
352	-8.50000e-01	8.096854e-04	
353	-9.00000e-01	8.440029e-04	
354	-9.50000e-01	8.769118e-04	
355	-1.00000e+00	9.084232e-04	
356	-1.05000e+00	9.385485e-04	
357	-1.10000e+00	9.672987e-04	
358	-1.15000e+00	9.946855e-04	
359	-1.20000e+00	1.020720e-03	
360	-1.25000e+00	1.045414e-03	
361	-1.30000e+00	1.068780e-03	
362	-1.35000e+00	1.090829e-03	
363	-1.40000e+00	1.111575e-03	
364	-1.45000e+00	1.131031e-03	
365	-1.50000e+00	1.149213e-03	
366	-1.55000e+00	1.166137e-03	
367	-1.60000e+00	1.181824e-03	
368	-1.65000e+00	1.196300e-03	
369	-1.70000e+00	1.209602e-03	
370	-1.75000e+00	1.221778e-03	
371	-1.80000e+00	1.232896e-03	
372	-1.85000e+00	1.243043e-03	
373	-1.90000e+00	1.252322e-03	
374	-1.95000e+00	1.260844e-03	
375	-2.00000e+00	1.268715e-03	
376	-2.05000e+00	1.276027e-03	
377	-2.10000e+00	1.282860e-03	
378	-2.15000e+00	1.289277e-03	
379	-2.20000e+00	1.295332e-03	
380	-2.25000e+00	1.301068e-03	
381	-2.30000e+00	1.306523e-03	
382	-2.35000e+00	1.311726e-03	
383	-2.40000e+00	1.316703e-03	
384	-2.45000e+00	1.321477e-03	
385	-2.50000e+00	1.326066e-03	
386	-2.55000e+00	1.330488e-03	
387	-2.60000e+00	1.334755e-03	
388	-2.65000e+00	1.338882e-03	
389	-2.70000e+00	1.342878e-03	
390	-2.75000e+00	1.346755e-03	
391	-2.80000e+00	1.350520e-03	
392	-2.85000e+00	1.354182e-03	
393	-2.90000e+00	1.357748e-03	
394	-2.95000e+00	1.361223e-03	
395	-3.00000e+00	1.364615e-03	
396	-3.05000e+00	1.367927e-03	
397	-3.10000e+00	1.371166e-03	
398	-3.15000e+00	1.374334e-03	
399	-3.20000e+00	1.377437e-03	
400	-3.25000e+00	1.380478e-03	
401	-3.30000e+00	1.383459e-03	
Note: No ".plot", ".print", or ".fourier" lines; no simulations run
