
Note: Compatibility modes selected: hs

Warning: m=xx on .subckt line will override multiplier m hierarchy!


Circuit: ***************************

Doing analysis at TEMP = 125.000000 and TNOM = 125.000000


No. of Data Rows : 402
                          ***************************
                          DC transfer characteristic  Mon Jan  9 13:58:24  2023
--------------------------------------------------------------------------------
Index   v-sweep         i(vds)          
--------------------------------------------------------------------------------
0	0.000000e+00	-2.10077e-23	
1	-5.00000e-02	1.210303e-07	
2	-1.00000e-01	1.722786e-07	
3	-1.50000e-01	1.893057e-07	
4	-2.00000e-01	1.934348e-07	
5	-2.50000e-01	1.945412e-07	
6	-3.00000e-01	1.949417e-07	
7	-3.50000e-01	1.951314e-07	
8	-4.00000e-01	1.952416e-07	
9	-4.50000e-01	1.953157e-07	
10	-5.00000e-01	1.953708e-07	
11	-5.50000e-01	1.954149e-07	
12	-6.00000e-01	1.954518e-07	
13	-6.50000e-01	1.954840e-07	
14	-7.00000e-01	1.955128e-07	
15	-7.50000e-01	1.955391e-07	
16	-8.00000e-01	1.955635e-07	
17	-8.50000e-01	1.955863e-07	
18	-9.00000e-01	1.956079e-07	
19	-9.50000e-01	1.956285e-07	
20	-1.00000e+00	1.956483e-07	
21	-1.05000e+00	1.956673e-07	
22	-1.10000e+00	1.956856e-07	
23	-1.15000e+00	1.957034e-07	
24	-1.20000e+00	1.957208e-07	
25	-1.25000e+00	1.957376e-07	
26	-1.30000e+00	1.957541e-07	
27	-1.35000e+00	1.957703e-07	
28	-1.40000e+00	1.957861e-07	
29	-1.45000e+00	1.958016e-07	
30	-1.50000e+00	1.958168e-07	
31	-1.55000e+00	1.958318e-07	
32	-1.60000e+00	1.958466e-07	
33	-1.65000e+00	1.958611e-07	
34	-1.70000e+00	1.958754e-07	
35	-1.75000e+00	1.958896e-07	
36	-1.80000e+00	1.959035e-07	
37	-1.85000e+00	1.959173e-07	
38	-1.90000e+00	1.959310e-07	
39	-1.95000e+00	1.959445e-07	
40	-2.00000e+00	1.959578e-07	
41	-2.05000e+00	1.959711e-07	
42	-2.10000e+00	1.959842e-07	
43	-2.15000e+00	1.959972e-07	
44	-2.20000e+00	1.960101e-07	
45	-2.25000e+00	1.960229e-07	
46	-2.30000e+00	1.960356e-07	
47	-2.35000e+00	1.960482e-07	
48	-2.40000e+00	1.960608e-07	
49	-2.45000e+00	1.960734e-07	
50	-2.50000e+00	1.960859e-07	
51	-2.55000e+00	1.960985e-07	
52	-2.60000e+00	1.961112e-07	
53	-2.65000e+00	1.961240e-07	
54	-2.70000e+00	1.961369e-07	

Index   v-sweep         i(vds)          
--------------------------------------------------------------------------------
55	-2.75000e+00	1.961502e-07	
56	-2.80000e+00	1.961639e-07	
57	-2.85000e+00	1.961780e-07	
58	-2.90000e+00	1.961929e-07	
59	-2.95000e+00	1.962086e-07	
60	-3.00000e+00	1.962254e-07	
61	-3.05000e+00	1.962436e-07	
62	-3.10000e+00	1.962634e-07	
63	-3.15000e+00	1.962853e-07	
64	-3.20000e+00	1.963097e-07	
65	-3.25000e+00	1.963370e-07	
66	-3.30000e+00	1.963680e-07	
67	0.000000e+00	1.583073e-22	
68	-5.00000e-02	4.298552e-07	
69	-1.00000e-01	7.789879e-07	
70	-1.50000e-01	1.074899e-06	
71	-2.00000e-01	1.324105e-06	
72	-2.50000e-01	1.528333e-06	
73	-3.00000e-01	1.688440e-06	
74	-3.50000e-01	1.805712e-06	
75	-4.00000e-01	1.883116e-06	
76	-4.50000e-01	1.927252e-06	
77	-5.00000e-01	1.948900e-06	
78	-5.50000e-01	1.958824e-06	
79	-6.00000e-01	1.963601e-06	
80	-6.50000e-01	1.966166e-06	
81	-7.00000e-01	1.967713e-06	
82	-7.50000e-01	1.968745e-06	
83	-8.00000e-01	1.969492e-06	
84	-8.50000e-01	1.970070e-06	
85	-9.00000e-01	1.970538e-06	
86	-9.50000e-01	1.970932e-06	
87	-1.00000e+00	1.971274e-06	
88	-1.05000e+00	1.971578e-06	
89	-1.10000e+00	1.971853e-06	
90	-1.15000e+00	1.972104e-06	
91	-1.20000e+00	1.972337e-06	
92	-1.25000e+00	1.972554e-06	
93	-1.30000e+00	1.972759e-06	
94	-1.35000e+00	1.972953e-06	
95	-1.40000e+00	1.973137e-06	
96	-1.45000e+00	1.973314e-06	
97	-1.50000e+00	1.973483e-06	
98	-1.55000e+00	1.973645e-06	
99	-1.60000e+00	1.973802e-06	
100	-1.65000e+00	1.973954e-06	
101	-1.70000e+00	1.974101e-06	
102	-1.75000e+00	1.974243e-06	
103	-1.80000e+00	1.974382e-06	
104	-1.85000e+00	1.974517e-06	
105	-1.90000e+00	1.974649e-06	
106	-1.95000e+00	1.974777e-06	
107	-2.00000e+00	1.974903e-06	
108	-2.05000e+00	1.975026e-06	
109	-2.10000e+00	1.975146e-06	
110	-2.15000e+00	1.975264e-06	
111	-2.20000e+00	1.975380e-06	
112	-2.25000e+00	1.975493e-06	

Index   v-sweep         i(vds)          
--------------------------------------------------------------------------------
113	-2.30000e+00	1.975605e-06	
114	-2.35000e+00	1.975714e-06	
115	-2.40000e+00	1.975822e-06	
116	-2.45000e+00	1.975928e-06	
117	-2.50000e+00	1.976033e-06	
118	-2.55000e+00	1.976136e-06	
119	-2.60000e+00	1.976238e-06	
120	-2.65000e+00	1.976339e-06	
121	-2.70000e+00	1.976439e-06	
122	-2.75000e+00	1.976539e-06	
123	-2.80000e+00	1.976638e-06	
124	-2.85000e+00	1.976738e-06	
125	-2.90000e+00	1.976838e-06	
126	-2.95000e+00	1.976940e-06	
127	-3.00000e+00	1.977044e-06	
128	-3.05000e+00	1.977151e-06	
129	-3.10000e+00	1.977264e-06	
130	-3.15000e+00	1.977382e-06	
131	-3.20000e+00	1.977510e-06	
132	-3.25000e+00	1.977648e-06	
133	-3.30000e+00	1.977800e-06	
134	0.000000e+00	5.312070e-22	
135	-5.00000e-02	7.209244e-07	
136	-1.00000e-01	1.362689e-06	
137	-1.50000e-01	1.952714e-06	
138	-2.00000e-01	2.497409e-06	
139	-2.50000e-01	2.998288e-06	
140	-3.00000e-01	3.455729e-06	
141	-3.50000e-01	3.869853e-06	
142	-4.00000e-01	4.240739e-06	
143	-4.50000e-01	4.568483e-06	
144	-5.00000e-01	4.853235e-06	
145	-5.50000e-01	5.095255e-06	
146	-6.00000e-01	5.295016e-06	
147	-6.50000e-01	5.453431e-06	
148	-7.00000e-01	5.572303e-06	
149	-7.50000e-01	5.655115e-06	
150	-8.00000e-01	5.707873e-06	
151	-8.50000e-01	5.738825e-06	
152	-9.00000e-01	5.756245e-06	
153	-9.50000e-01	5.766200e-06	
154	-1.00000e+00	5.772217e-06	
155	-1.05000e+00	5.776129e-06	
156	-1.10000e+00	5.778860e-06	
157	-1.15000e+00	5.780892e-06	
158	-1.20000e+00	5.782484e-06	
159	-1.25000e+00	5.783786e-06	
160	-1.30000e+00	5.784887e-06	
161	-1.35000e+00	5.785843e-06	
162	-1.40000e+00	5.786690e-06	
163	-1.45000e+00	5.787455e-06	
164	-1.50000e+00	5.788153e-06	
165	-1.55000e+00	5.788797e-06	
166	-1.60000e+00	5.789398e-06	
167	-1.65000e+00	5.789962e-06	
168	-1.70000e+00	5.790493e-06	
169	-1.75000e+00	5.790998e-06	
170	-1.80000e+00	5.791478e-06	

Index   v-sweep         i(vds)          
--------------------------------------------------------------------------------
171	-1.85000e+00	5.791938e-06	
172	-1.90000e+00	5.792378e-06	
173	-1.95000e+00	5.792802e-06	
174	-2.00000e+00	5.793211e-06	
175	-2.05000e+00	5.793605e-06	
176	-2.10000e+00	5.793987e-06	
177	-2.15000e+00	5.794358e-06	
178	-2.20000e+00	5.794717e-06	
179	-2.25000e+00	5.795067e-06	
180	-2.30000e+00	5.795407e-06	
181	-2.35000e+00	5.795739e-06	
182	-2.40000e+00	5.796063e-06	
183	-2.45000e+00	5.796379e-06	
184	-2.50000e+00	5.796688e-06	
185	-2.55000e+00	5.796991e-06	
186	-2.60000e+00	5.797287e-06	
187	-2.65000e+00	5.797577e-06	
188	-2.70000e+00	5.797862e-06	
189	-2.75000e+00	5.798141e-06	
190	-2.80000e+00	5.798416e-06	
191	-2.85000e+00	5.798686e-06	
192	-2.90000e+00	5.798952e-06	
193	-2.95000e+00	5.799214e-06	
194	-3.00000e+00	5.799473e-06	
195	-3.05000e+00	5.799730e-06	
196	-3.10000e+00	5.799985e-06	
197	-3.15000e+00	5.800239e-06	
198	-3.20000e+00	5.800494e-06	
199	-3.25000e+00	5.800751e-06	
200	-3.30000e+00	5.801013e-06	
201	0.000000e+00	-2.04077e-22	
202	-5.00000e-02	9.824284e-07	
203	-1.00000e-01	1.888368e-06	
204	-1.50000e-01	2.745208e-06	
205	-2.00000e-01	3.559346e-06	
206	-2.50000e-01	4.332286e-06	
207	-3.00000e-01	5.064385e-06	
208	-3.50000e-01	5.755738e-06	
209	-4.00000e-01	6.406376e-06	
210	-4.50000e-01	7.016321e-06	
211	-5.00000e-01	7.585592e-06	
212	-5.50000e-01	8.114213e-06	
213	-6.00000e-01	8.602215e-06	
214	-6.50000e-01	9.049637e-06	
215	-7.00000e-01	9.456537e-06	
216	-7.50000e-01	9.822995e-06	
217	-8.00000e-01	1.014913e-05	
218	-8.50000e-01	1.043514e-05	
219	-9.00000e-01	1.068134e-05	
220	-9.50000e-01	1.088826e-05	
221	-1.00000e+00	1.105682e-05	
222	-1.05000e+00	1.118866e-05	
223	-1.10000e+00	1.128660e-05	
224	-1.15000e+00	1.135509e-05	
225	-1.20000e+00	1.140026e-05	
226	-1.25000e+00	1.142887e-05	
227	-1.30000e+00	1.144684e-05	
228	-1.35000e+00	1.145841e-05	

Index   v-sweep         i(vds)          
--------------------------------------------------------------------------------
229	-1.40000e+00	1.146620e-05	
230	-1.45000e+00	1.147173e-05	
231	-1.50000e+00	1.147587e-05	
232	-1.55000e+00	1.147911e-05	
233	-1.60000e+00	1.148175e-05	
234	-1.65000e+00	1.148397e-05	
235	-1.70000e+00	1.148589e-05	
236	-1.75000e+00	1.148758e-05	
237	-1.80000e+00	1.148910e-05	
238	-1.85000e+00	1.149048e-05	
239	-1.90000e+00	1.149175e-05	
240	-1.95000e+00	1.149293e-05	
241	-2.00000e+00	1.149403e-05	
242	-2.05000e+00	1.149506e-05	
243	-2.10000e+00	1.149604e-05	
244	-2.15000e+00	1.149697e-05	
245	-2.20000e+00	1.149786e-05	
246	-2.25000e+00	1.149871e-05	
247	-2.30000e+00	1.149953e-05	
248	-2.35000e+00	1.150031e-05	
249	-2.40000e+00	1.150107e-05	
250	-2.45000e+00	1.150180e-05	
251	-2.50000e+00	1.150251e-05	
252	-2.55000e+00	1.150319e-05	
253	-2.60000e+00	1.150386e-05	
254	-2.65000e+00	1.150450e-05	
255	-2.70000e+00	1.150513e-05	
256	-2.75000e+00	1.150575e-05	
257	-2.80000e+00	1.150634e-05	
258	-2.85000e+00	1.150693e-05	
259	-2.90000e+00	1.150750e-05	
260	-2.95000e+00	1.150806e-05	
261	-3.00000e+00	1.150860e-05	
262	-3.05000e+00	1.150913e-05	
263	-3.10000e+00	1.150966e-05	
264	-3.15000e+00	1.151017e-05	
265	-3.20000e+00	1.151068e-05	
266	-3.25000e+00	1.151117e-05	
267	-3.30000e+00	1.151166e-05	
268	0.000000e+00	-1.28399e-25	
269	-5.00000e-02	1.217510e-06	
270	-1.00000e-01	2.361338e-06	
271	-1.50000e-01	3.458847e-06	
272	-2.00000e-01	4.516433e-06	
273	-2.50000e-01	5.535596e-06	
274	-3.00000e-01	6.516690e-06	
275	-3.50000e-01	7.459806e-06	
276	-4.00000e-01	8.364971e-06	
277	-4.50000e-01	9.232198e-06	
278	-5.00000e-01	1.006150e-05	
279	-5.50000e-01	1.085287e-05	
280	-6.00000e-01	1.160635e-05	
281	-6.50000e-01	1.232192e-05	
282	-7.00000e-01	1.299961e-05	
283	-7.50000e-01	1.363943e-05	
284	-8.00000e-01	1.424141e-05	
285	-8.50000e-01	1.480555e-05	
286	-9.00000e-01	1.533188e-05	

Index   v-sweep         i(vds)          
--------------------------------------------------------------------------------
287	-9.50000e-01	1.582044e-05	
288	-1.00000e+00	1.627128e-05	
289	-1.05000e+00	1.668444e-05	
290	-1.10000e+00	1.706002e-05	
291	-1.15000e+00	1.739813e-05	
292	-1.20000e+00	1.769895e-05	
293	-1.25000e+00	1.796275e-05	
294	-1.30000e+00	1.818998e-05	
295	-1.35000e+00	1.838132e-05	
296	-1.40000e+00	1.853793e-05	
297	-1.45000e+00	1.866166e-05	
298	-1.50000e+00	1.875540e-05	
299	-1.55000e+00	1.882329e-05	
300	-1.60000e+00	1.887050e-05	
301	-1.65000e+00	1.890251e-05	
302	-1.70000e+00	1.892414e-05	
303	-1.75000e+00	1.893902e-05	
304	-1.80000e+00	1.894961e-05	
305	-1.85000e+00	1.895747e-05	
306	-1.90000e+00	1.896353e-05	
307	-1.95000e+00	1.896839e-05	
308	-2.00000e+00	1.897241e-05	
309	-2.05000e+00	1.897584e-05	
310	-2.10000e+00	1.897883e-05	
311	-2.15000e+00	1.898148e-05	
312	-2.20000e+00	1.898386e-05	
313	-2.25000e+00	1.898604e-05	
314	-2.30000e+00	1.898805e-05	
315	-2.35000e+00	1.898992e-05	
316	-2.40000e+00	1.899167e-05	
317	-2.45000e+00	1.899331e-05	
318	-2.50000e+00	1.899487e-05	
319	-2.55000e+00	1.899635e-05	
320	-2.60000e+00	1.899776e-05	
321	-2.65000e+00	1.899911e-05	
322	-2.70000e+00	1.900041e-05	
323	-2.75000e+00	1.900165e-05	
324	-2.80000e+00	1.900286e-05	
325	-2.85000e+00	1.900402e-05	
326	-2.90000e+00	1.900514e-05	
327	-2.95000e+00	1.900623e-05	
328	-3.00000e+00	1.900728e-05	
329	-3.05000e+00	1.900831e-05	
330	-3.10000e+00	1.900931e-05	
331	-3.15000e+00	1.901028e-05	
332	-3.20000e+00	1.901123e-05	
333	-3.25000e+00	1.901215e-05	
334	-3.30000e+00	1.901305e-05	
335	0.000000e+00	2.234840e-25	
336	-5.00000e-02	1.429437e-06	
337	-1.00000e-01	2.787909e-06	
338	-1.50000e-01	4.102757e-06	
339	-2.00000e-01	5.380375e-06	
340	-2.50000e-01	6.622262e-06	
341	-3.00000e-01	7.828771e-06	
342	-3.50000e-01	8.999992e-06	
343	-4.00000e-01	1.013595e-05	
344	-4.50000e-01	1.123665e-05	

Index   v-sweep         i(vds)          
--------------------------------------------------------------------------------
345	-5.00000e-01	1.230211e-05	
346	-5.50000e-01	1.333234e-05	
347	-6.00000e-01	1.432733e-05	
348	-6.50000e-01	1.528710e-05	
349	-7.00000e-01	1.621165e-05	
350	-7.50000e-01	1.710100e-05	
351	-8.00000e-01	1.795515e-05	
352	-8.50000e-01	1.877410e-05	
353	-9.00000e-01	1.955788e-05	
354	-9.50000e-01	2.030649e-05	
355	-1.00000e+00	2.101993e-05	
356	-1.05000e+00	2.169823e-05	
357	-1.10000e+00	2.234140e-05	
358	-1.15000e+00	2.294945e-05	
359	-1.20000e+00	2.352240e-05	
360	-1.25000e+00	2.406029e-05	
361	-1.30000e+00	2.456312e-05	
362	-1.35000e+00	2.503096e-05	
363	-1.40000e+00	2.546384e-05	
364	-1.45000e+00	2.586184e-05	
365	-1.50000e+00	2.622505e-05	
366	-1.55000e+00	2.655360e-05	
367	-1.60000e+00	2.684768e-05	
368	-1.65000e+00	2.710759e-05	
369	-1.70000e+00	2.733376e-05	
370	-1.75000e+00	2.752685e-05	
371	-1.80000e+00	2.768792e-05	
372	-1.85000e+00	2.781856e-05	
373	-1.90000e+00	2.792112e-05	
374	-1.95000e+00	2.799890e-05	
375	-2.00000e+00	2.805600e-05	
376	-2.05000e+00	2.809695e-05	
377	-2.10000e+00	2.812607e-05	
378	-2.15000e+00	2.814695e-05	
379	-2.20000e+00	2.816224e-05	
380	-2.25000e+00	2.817379e-05	
381	-2.30000e+00	2.818279e-05	
382	-2.35000e+00	2.819005e-05	
383	-2.40000e+00	2.819607e-05	
384	-2.45000e+00	2.820120e-05	
385	-2.50000e+00	2.820566e-05	
386	-2.55000e+00	2.820961e-05	
387	-2.60000e+00	2.821317e-05	
388	-2.65000e+00	2.821640e-05	
389	-2.70000e+00	2.821938e-05	
390	-2.75000e+00	2.822215e-05	
391	-2.80000e+00	2.822473e-05	
392	-2.85000e+00	2.822716e-05	
393	-2.90000e+00	2.822946e-05	
394	-2.95000e+00	2.823164e-05	
395	-3.00000e+00	2.823372e-05	
396	-3.05000e+00	2.823570e-05	
397	-3.10000e+00	2.823760e-05	
398	-3.15000e+00	2.823943e-05	
399	-3.20000e+00	2.824119e-05	
400	-3.25000e+00	2.824289e-05	
401	-3.30000e+00	2.824454e-05	
Note: No ".plot", ".print", or ".fourier" lines; no simulations run
