
Note: Compatibility modes selected: hs

Warning: m=xx on .subckt line will override multiplier m hierarchy!


Circuit: ***************************

Doing analysis at TEMP = 25.000000 and TNOM = 25.000000


No. of Data Rows : 402
                          ***************************
                          DC transfer characteristic  Mon Jan  9 13:58:23  2023
--------------------------------------------------------------------------------
Index   v-sweep         i(vds)          
--------------------------------------------------------------------------------
0	0.000000e+00	8.506167e-24	
1	-5.00000e-02	5.787441e-08	
2	-1.00000e-01	7.219546e-08	
3	-1.50000e-01	7.454850e-08	
4	-2.00000e-01	7.525147e-08	
5	-2.50000e-01	7.562644e-08	
6	-3.00000e-01	7.589515e-08	
7	-3.50000e-01	7.611588e-08	
8	-4.00000e-01	7.630956e-08	
9	-4.50000e-01	7.648550e-08	
10	-5.00000e-01	7.664858e-08	
11	-5.50000e-01	7.680167e-08	
12	-6.00000e-01	7.694666e-08	
13	-6.50000e-01	7.708485e-08	
14	-7.00000e-01	7.721720e-08	
15	-7.50000e-01	7.734445e-08	
16	-8.00000e-01	7.746720e-08	
17	-8.50000e-01	7.758592e-08	
18	-9.00000e-01	7.770101e-08	
19	-9.50000e-01	7.781280e-08	
20	-1.00000e+00	7.792160e-08	
21	-1.05000e+00	7.802764e-08	
22	-1.10000e+00	7.813114e-08	
23	-1.15000e+00	7.823230e-08	
24	-1.20000e+00	7.833127e-08	
25	-1.25000e+00	7.842823e-08	
26	-1.30000e+00	7.852329e-08	
27	-1.35000e+00	7.861659e-08	
28	-1.40000e+00	7.870823e-08	
29	-1.45000e+00	7.879831e-08	
30	-1.50000e+00	7.888693e-08	
31	-1.55000e+00	7.897416e-08	
32	-1.60000e+00	7.906008e-08	
33	-1.65000e+00	7.914477e-08	
34	-1.70000e+00	7.922829e-08	
35	-1.75000e+00	7.931069e-08	
36	-1.80000e+00	7.939204e-08	
37	-1.85000e+00	7.947238e-08	
38	-1.90000e+00	7.955177e-08	
39	-1.95000e+00	7.963025e-08	
40	-2.00000e+00	7.970787e-08	
41	-2.05000e+00	7.978467e-08	
42	-2.10000e+00	7.986069e-08	
43	-2.15000e+00	7.993599e-08	
44	-2.20000e+00	8.001060e-08	
45	-2.25000e+00	8.008458e-08	
46	-2.30000e+00	8.015798e-08	
47	-2.35000e+00	8.023086e-08	
48	-2.40000e+00	8.030329e-08	
49	-2.45000e+00	8.037533e-08	
50	-2.50000e+00	8.044709e-08	
51	-2.55000e+00	8.051866e-08	
52	-2.60000e+00	8.059016e-08	
53	-2.65000e+00	8.066172e-08	
54	-2.70000e+00	8.073351e-08	

Index   v-sweep         i(vds)          
--------------------------------------------------------------------------------
55	-2.75000e+00	8.080569e-08	
56	-2.80000e+00	8.087849e-08	
57	-2.85000e+00	8.095215e-08	
58	-2.90000e+00	8.102693e-08	
59	-2.95000e+00	8.110316e-08	
60	-3.00000e+00	8.118118e-08	
61	-3.05000e+00	8.126140e-08	
62	-3.10000e+00	8.134426e-08	
63	-3.15000e+00	8.143027e-08	
64	-3.20000e+00	8.151998e-08	
65	-3.25000e+00	8.161401e-08	
66	-3.30000e+00	8.171305e-08	
67	0.000000e+00	4.749031e-32	
68	-5.00000e-02	8.486340e-07	
69	-1.00000e-01	1.586225e-06	
70	-1.50000e-01	2.213316e-06	
71	-2.00000e-01	2.730672e-06	
72	-2.50000e-01	3.139592e-06	
73	-3.00000e-01	3.442775e-06	
74	-3.50000e-01	3.646678e-06	
75	-4.00000e-01	3.766394e-06	
76	-4.50000e-01	3.828385e-06	
77	-5.00000e-01	3.860371e-06	
78	-5.50000e-01	3.879300e-06	
79	-6.00000e-01	3.892508e-06	
80	-6.50000e-01	3.902889e-06	
81	-7.00000e-01	3.911660e-06	
82	-7.50000e-01	3.919391e-06	
83	-8.00000e-01	3.926383e-06	
84	-8.50000e-01	3.932813e-06	
85	-9.00000e-01	3.938792e-06	
86	-9.50000e-01	3.944397e-06	
87	-1.00000e+00	3.949684e-06	
88	-1.05000e+00	3.954696e-06	
89	-1.10000e+00	3.959465e-06	
90	-1.15000e+00	3.964018e-06	
91	-1.20000e+00	3.968377e-06	
92	-1.25000e+00	3.972560e-06	
93	-1.30000e+00	3.976584e-06	
94	-1.35000e+00	3.980461e-06	
95	-1.40000e+00	3.984204e-06	
96	-1.45000e+00	3.987823e-06	
97	-1.50000e+00	3.991327e-06	
98	-1.55000e+00	3.994723e-06	
99	-1.60000e+00	3.998020e-06	
100	-1.65000e+00	4.001224e-06	
101	-1.70000e+00	4.004340e-06	
102	-1.75000e+00	4.007374e-06	
103	-1.80000e+00	4.010331e-06	
104	-1.85000e+00	4.013215e-06	
105	-1.90000e+00	4.016030e-06	
106	-1.95000e+00	4.018780e-06	
107	-2.00000e+00	4.021468e-06	
108	-2.05000e+00	4.024098e-06	
109	-2.10000e+00	4.026673e-06	
110	-2.15000e+00	4.029194e-06	
111	-2.20000e+00	4.031665e-06	
112	-2.25000e+00	4.034089e-06	

Index   v-sweep         i(vds)          
--------------------------------------------------------------------------------
113	-2.30000e+00	4.036467e-06	
114	-2.35000e+00	4.038801e-06	
115	-2.40000e+00	4.041095e-06	
116	-2.45000e+00	4.043349e-06	
117	-2.50000e+00	4.045567e-06	
118	-2.55000e+00	4.047751e-06	
119	-2.60000e+00	4.049903e-06	
120	-2.65000e+00	4.052026e-06	
121	-2.70000e+00	4.054124e-06	
122	-2.75000e+00	4.056199e-06	
123	-2.80000e+00	4.058255e-06	
124	-2.85000e+00	4.060297e-06	
125	-2.90000e+00	4.062331e-06	
126	-2.95000e+00	4.064362e-06	
127	-3.00000e+00	4.066398e-06	
128	-3.05000e+00	4.068446e-06	
129	-3.10000e+00	4.070516e-06	
130	-3.15000e+00	4.072619e-06	
131	-3.20000e+00	4.074767e-06	
132	-3.25000e+00	4.076975e-06	
133	-3.30000e+00	4.079258e-06	
134	0.000000e+00	-9.07466e-32	
135	-5.00000e-02	1.614970e-06	
136	-1.00000e-01	3.123315e-06	
137	-1.50000e-01	4.525326e-06	
138	-2.00000e-01	5.821299e-06	
139	-2.50000e-01	7.011545e-06	
140	-3.00000e-01	8.096392e-06	
141	-3.50000e-01	9.076196e-06	
142	-4.00000e-01	9.951368e-06	
143	-4.50000e-01	1.072241e-05	
144	-5.00000e-01	1.138999e-05	
145	-5.50000e-01	1.195510e-05	
146	-6.00000e-01	1.241941e-05	
147	-6.50000e-01	1.278592e-05	
148	-7.00000e-01	1.306043e-05	
149	-7.50000e-01	1.325359e-05	
150	-8.00000e-01	1.338234e-05	
151	-8.50000e-01	1.346704e-05	
152	-9.00000e-01	1.352537e-05	
153	-9.50000e-01	1.356883e-05	
154	-1.00000e+00	1.360374e-05	
155	-1.05000e+00	1.363336e-05	
156	-1.10000e+00	1.365944e-05	
157	-1.15000e+00	1.368298e-05	
158	-1.20000e+00	1.370456e-05	
159	-1.25000e+00	1.372457e-05	
160	-1.30000e+00	1.374330e-05	
161	-1.35000e+00	1.376092e-05	
162	-1.40000e+00	1.377758e-05	
163	-1.45000e+00	1.379341e-05	
164	-1.50000e+00	1.380849e-05	
165	-1.55000e+00	1.382291e-05	
166	-1.60000e+00	1.383671e-05	
167	-1.65000e+00	1.384997e-05	
168	-1.70000e+00	1.386272e-05	
169	-1.75000e+00	1.387501e-05	
170	-1.80000e+00	1.388687e-05	

Index   v-sweep         i(vds)          
--------------------------------------------------------------------------------
171	-1.85000e+00	1.389834e-05	
172	-1.90000e+00	1.390944e-05	
173	-1.95000e+00	1.392019e-05	
174	-2.00000e+00	1.393063e-05	
175	-2.05000e+00	1.394076e-05	
176	-2.10000e+00	1.395061e-05	
177	-2.15000e+00	1.396019e-05	
178	-2.20000e+00	1.396953e-05	
179	-2.25000e+00	1.397862e-05	
180	-2.30000e+00	1.398750e-05	
181	-2.35000e+00	1.399616e-05	
182	-2.40000e+00	1.400462e-05	
183	-2.45000e+00	1.401289e-05	
184	-2.50000e+00	1.402097e-05	
185	-2.55000e+00	1.402889e-05	
186	-2.60000e+00	1.403664e-05	
187	-2.65000e+00	1.404423e-05	
188	-2.70000e+00	1.405167e-05	
189	-2.75000e+00	1.405898e-05	
190	-2.80000e+00	1.406614e-05	
191	-2.85000e+00	1.407318e-05	
192	-2.90000e+00	1.408011e-05	
193	-2.95000e+00	1.408692e-05	
194	-3.00000e+00	1.409363e-05	
195	-3.05000e+00	1.410024e-05	
196	-3.10000e+00	1.410678e-05	
197	-3.15000e+00	1.411325e-05	
198	-3.20000e+00	1.411966e-05	
199	-3.25000e+00	1.412604e-05	
200	-3.30000e+00	1.413241e-05	
201	0.000000e+00	-1.63989e-31	
202	-5.00000e-02	2.266959e-06	
203	-1.00000e-01	4.434941e-06	
204	-1.50000e-01	6.504178e-06	
205	-2.00000e-01	8.474905e-06	
206	-2.50000e-01	1.034736e-05	
207	-3.00000e-01	1.212177e-05	
208	-3.50000e-01	1.379839e-05	
209	-4.00000e-01	1.537746e-05	
210	-4.50000e-01	1.685923e-05	
211	-5.00000e-01	1.824394e-05	
212	-5.50000e-01	1.953188e-05	
213	-6.00000e-01	2.072331e-05	
214	-6.50000e-01	2.181855e-05	
215	-7.00000e-01	2.281794e-05	
216	-7.50000e-01	2.372187e-05	
217	-8.00000e-01	2.453084e-05	
218	-8.50000e-01	2.524550e-05	
219	-9.00000e-01	2.586681e-05	
220	-9.50000e-01	2.639621e-05	
221	-1.00000e+00	2.683611e-05	
222	-1.05000e+00	2.719058e-05	
223	-1.10000e+00	2.746645e-05	
224	-1.15000e+00	2.767431e-05	
225	-1.20000e+00	2.782828e-05	
226	-1.25000e+00	2.794351e-05	
227	-1.30000e+00	2.803289e-05	
228	-1.35000e+00	2.810556e-05	

Index   v-sweep         i(vds)          
--------------------------------------------------------------------------------
229	-1.40000e+00	2.816723e-05	
230	-1.45000e+00	2.822132e-05	
231	-1.50000e+00	2.826991e-05	
232	-1.55000e+00	2.831430e-05	
233	-1.60000e+00	2.835534e-05	
234	-1.65000e+00	2.839363e-05	
235	-1.70000e+00	2.842958e-05	
236	-1.75000e+00	2.846352e-05	
237	-1.80000e+00	2.849570e-05	
238	-1.85000e+00	2.852633e-05	
239	-1.90000e+00	2.855555e-05	
240	-1.95000e+00	2.858351e-05	
241	-2.00000e+00	2.861033e-05	
242	-2.05000e+00	2.863610e-05	
243	-2.10000e+00	2.866091e-05	
244	-2.15000e+00	2.868483e-05	
245	-2.20000e+00	2.870793e-05	
246	-2.25000e+00	2.873027e-05	
247	-2.30000e+00	2.875190e-05	
248	-2.35000e+00	2.877286e-05	
249	-2.40000e+00	2.879321e-05	
250	-2.45000e+00	2.881297e-05	
251	-2.50000e+00	2.883219e-05	
252	-2.55000e+00	2.885088e-05	
253	-2.60000e+00	2.886909e-05	
254	-2.65000e+00	2.888684e-05	
255	-2.70000e+00	2.890415e-05	
256	-2.75000e+00	2.892105e-05	
257	-2.80000e+00	2.893755e-05	
258	-2.85000e+00	2.895368e-05	
259	-2.90000e+00	2.896945e-05	
260	-2.95000e+00	2.898488e-05	
261	-3.00000e+00	2.899999e-05	
262	-3.05000e+00	2.901479e-05	
263	-3.10000e+00	2.902929e-05	
264	-3.15000e+00	2.904352e-05	
265	-3.20000e+00	2.905749e-05	
266	-3.25000e+00	2.907121e-05	
267	-3.30000e+00	2.908469e-05	
268	0.000000e+00	3.533013e-31	
269	-5.00000e-02	2.817667e-06	
270	-1.00000e-01	5.544255e-06	
271	-1.50000e-01	8.179959e-06	
272	-2.00000e-01	1.072498e-05	
273	-2.50000e-01	1.317951e-05	
274	-3.00000e-01	1.554374e-05	
275	-3.50000e-01	1.781789e-05	
276	-4.00000e-01	2.000214e-05	
277	-4.50000e-01	2.209669e-05	
278	-5.00000e-01	2.410176e-05	
279	-5.50000e-01	2.601753e-05	
280	-6.00000e-01	2.784421e-05	
281	-6.50000e-01	2.958202e-05	
282	-7.00000e-01	3.123115e-05	
283	-7.50000e-01	3.279183e-05	
284	-8.00000e-01	3.426426e-05	
285	-8.50000e-01	3.564869e-05	
286	-9.00000e-01	3.694533e-05	

Index   v-sweep         i(vds)          
--------------------------------------------------------------------------------
287	-9.50000e-01	3.815445e-05	
288	-1.00000e+00	3.927631e-05	
289	-1.05000e+00	4.031122e-05	
290	-1.10000e+00	4.125954e-05	
291	-1.15000e+00	4.212169e-05	
292	-1.20000e+00	4.289823e-05	
293	-1.25000e+00	4.358990e-05	
294	-1.30000e+00	4.419778e-05	
295	-1.35000e+00	4.472351e-05	
296	-1.40000e+00	4.516964e-05	
297	-1.45000e+00	4.554021e-05	
298	-1.50000e+00	4.584142e-05	
299	-1.55000e+00	4.608211e-05	
300	-1.60000e+00	4.627330e-05	
301	-1.65000e+00	4.642671e-05	
302	-1.70000e+00	4.655278e-05	
303	-1.75000e+00	4.665951e-05	
304	-1.80000e+00	4.675247e-05	
305	-1.85000e+00	4.683536e-05	
306	-1.90000e+00	4.691058e-05	
307	-1.95000e+00	4.697975e-05	
308	-2.00000e+00	4.704400e-05	
309	-2.05000e+00	4.710413e-05	
310	-2.10000e+00	4.716074e-05	
311	-2.15000e+00	4.721429e-05	
312	-2.20000e+00	4.726514e-05	
313	-2.25000e+00	4.731359e-05	
314	-2.30000e+00	4.735988e-05	
315	-2.35000e+00	4.740421e-05	
316	-2.40000e+00	4.744675e-05	
317	-2.45000e+00	4.748766e-05	
318	-2.50000e+00	4.752707e-05	
319	-2.55000e+00	4.756509e-05	
320	-2.60000e+00	4.760183e-05	
321	-2.65000e+00	4.763736e-05	
322	-2.70000e+00	4.767177e-05	
323	-2.75000e+00	4.770515e-05	
324	-2.80000e+00	4.773753e-05	
325	-2.85000e+00	4.776900e-05	
326	-2.90000e+00	4.779960e-05	
327	-2.95000e+00	4.782939e-05	
328	-3.00000e+00	4.785839e-05	
329	-3.05000e+00	4.788667e-05	
330	-3.10000e+00	4.791425e-05	
331	-3.15000e+00	4.794117e-05	
332	-3.20000e+00	4.796747e-05	
333	-3.25000e+00	4.799317e-05	
334	-3.30000e+00	4.801830e-05	
335	0.000000e+00	-1.64466e-30	
336	-5.00000e-02	3.281121e-06	
337	-1.00000e-01	6.478693e-06	
338	-1.50000e-01	9.592884e-06	
339	-2.00000e-01	1.262386e-05	
340	-2.50000e-01	1.557180e-05	
341	-3.00000e-01	1.843685e-05	
342	-3.50000e-01	2.121920e-05	
343	-4.00000e-01	2.391901e-05	
344	-4.50000e-01	2.653645e-05	

Index   v-sweep         i(vds)          
--------------------------------------------------------------------------------
345	-5.00000e-01	2.907169e-05	
346	-5.50000e-01	3.152490e-05	
347	-6.00000e-01	3.389625e-05	
348	-6.50000e-01	3.618592e-05	
349	-7.00000e-01	3.839406e-05	
350	-7.50000e-01	4.052087e-05	
351	-8.00000e-01	4.256650e-05	
352	-8.50000e-01	4.453113e-05	
353	-9.00000e-01	4.641495e-05	
354	-9.50000e-01	4.821812e-05	
355	-1.00000e+00	4.994083e-05	
356	-1.05000e+00	5.158326e-05	
357	-1.10000e+00	5.314560e-05	
358	-1.15000e+00	5.462803e-05	
359	-1.20000e+00	5.603075e-05	
360	-1.25000e+00	5.735397e-05	
361	-1.30000e+00	5.859791e-05	
362	-1.35000e+00	5.976279e-05	
363	-1.40000e+00	6.084889e-05	
364	-1.45000e+00	6.185648e-05	
365	-1.50000e+00	6.278591e-05	
366	-1.55000e+00	6.363761e-05	
367	-1.60000e+00	6.441210e-05	
368	-1.65000e+00	6.511012e-05	
369	-1.70000e+00	6.573269e-05	
370	-1.75000e+00	6.628128e-05	
371	-1.80000e+00	6.675811e-05	
372	-1.85000e+00	6.716652e-05	
373	-1.90000e+00	6.751135e-05	
374	-1.95000e+00	6.779932e-05	
375	-2.00000e+00	6.803879e-05	
376	-2.05000e+00	6.823900e-05	
377	-2.10000e+00	6.840881e-05	
378	-2.15000e+00	6.855567e-05	
379	-2.20000e+00	6.868528e-05	
380	-2.25000e+00	6.880174e-05	
381	-2.30000e+00	6.890793e-05	
382	-2.35000e+00	6.900587e-05	
383	-2.40000e+00	6.909703e-05	
384	-2.45000e+00	6.918246e-05	
385	-2.50000e+00	6.926297e-05	
386	-2.55000e+00	6.933919e-05	
387	-2.60000e+00	6.941161e-05	
388	-2.65000e+00	6.948065e-05	
389	-2.70000e+00	6.954664e-05	
390	-2.75000e+00	6.960986e-05	
391	-2.80000e+00	6.967057e-05	
392	-2.85000e+00	6.972895e-05	
393	-2.90000e+00	6.978521e-05	
394	-2.95000e+00	6.983950e-05	
395	-3.00000e+00	6.989195e-05	
396	-3.05000e+00	6.994270e-05	
397	-3.10000e+00	6.999187e-05	
398	-3.15000e+00	7.003954e-05	
399	-3.20000e+00	7.008582e-05	
400	-3.25000e+00	7.013078e-05	
401	-3.30000e+00	7.017451e-05	
Note: No ".plot", ".print", or ".fourier" lines; no simulations run
