
Note: Compatibility modes selected: hs

Warning: m=xx on .subckt line will override multiplier m hierarchy!


Circuit: ***************************

Doing analysis at TEMP = 25.000000 and TNOM = 25.000000


No. of Data Rows : 402
                          ***************************
                          DC transfer characteristic  Mon Jan  9 13:58:23  2023
--------------------------------------------------------------------------------
Index   v-sweep         i(vds)          
--------------------------------------------------------------------------------
0	0.000000e+00	4.967886e-32	
1	-5.00000e-02	4.182968e-06	
2	-1.00000e-01	6.111162e-06	
3	-1.50000e-01	6.718769e-06	
4	-2.00000e-01	6.963266e-06	
5	-2.50000e-01	7.134129e-06	
6	-3.00000e-01	7.283525e-06	
7	-3.50000e-01	7.423555e-06	
8	-4.00000e-01	7.558277e-06	
9	-4.50000e-01	7.689505e-06	
10	-5.00000e-01	7.818236e-06	
11	-5.50000e-01	7.945102e-06	
12	-6.00000e-01	8.070545e-06	
13	-6.50000e-01	8.194893e-06	
14	-7.00000e-01	8.318399e-06	
15	-7.50000e-01	8.441268e-06	
16	-8.00000e-01	8.563666e-06	
17	-8.50000e-01	8.685734e-06	
18	-9.00000e-01	8.807589e-06	
19	-9.50000e-01	8.929333e-06	
20	-1.00000e+00	9.051053e-06	
21	-1.05000e+00	9.172824e-06	
22	-1.10000e+00	9.294715e-06	
23	-1.15000e+00	9.416784e-06	
24	-1.20000e+00	9.539084e-06	
25	-1.25000e+00	9.661661e-06	
26	-1.30000e+00	9.784559e-06	
27	-1.35000e+00	9.907815e-06	
28	-1.40000e+00	1.003146e-05	
29	-1.45000e+00	1.015554e-05	
30	-1.50000e+00	1.028006e-05	
31	-1.55000e+00	1.040507e-05	
32	-1.60000e+00	1.053058e-05	
33	-1.65000e+00	1.065661e-05	
34	-1.70000e+00	1.078320e-05	
35	-1.75000e+00	1.091034e-05	
36	-1.80000e+00	1.103808e-05	
37	-1.85000e+00	1.116641e-05	
38	-1.90000e+00	1.129536e-05	
39	-1.95000e+00	1.142494e-05	
40	-2.00000e+00	1.155517e-05	
41	-2.05000e+00	1.168606e-05	
42	-2.10000e+00	1.181764e-05	
43	-2.15000e+00	1.194990e-05	
44	-2.20000e+00	1.208288e-05	
45	-2.25000e+00	1.221659e-05	
46	-2.30000e+00	1.235105e-05	
47	-2.35000e+00	1.248628e-05	
48	-2.40000e+00	1.262231e-05	
49	-2.45000e+00	1.275916e-05	
50	-2.50000e+00	1.289688e-05	
51	-2.55000e+00	1.303549e-05	
52	-2.60000e+00	1.317505e-05	
53	-2.65000e+00	1.331560e-05	
54	-2.70000e+00	1.345720e-05	

Index   v-sweep         i(vds)          
--------------------------------------------------------------------------------
55	-2.75000e+00	1.359992e-05	
56	-2.80000e+00	1.374384e-05	
57	-2.85000e+00	1.388905e-05	
58	-2.90000e+00	1.403565e-05	
59	-2.95000e+00	1.418376e-05	
60	-3.00000e+00	1.433349e-05	
61	-3.05000e+00	1.448500e-05	
62	-3.10000e+00	1.463845e-05	
63	-3.15000e+00	1.479401e-05	
64	-3.20000e+00	1.495190e-05	
65	-3.25000e+00	1.511232e-05	
66	-3.30000e+00	1.527552e-05	
67	0.000000e+00	-6.64265e-21	
68	-5.00000e-02	3.571495e-05	
69	-1.00000e-01	6.776510e-05	
70	-1.50000e-01	9.620318e-05	
71	-2.00000e-01	1.210835e-04	
72	-2.50000e-01	1.424641e-04	
73	-3.00000e-01	1.604111e-04	
74	-3.50000e-01	1.750102e-04	
75	-4.00000e-01	1.863943e-04	
76	-4.50000e-01	1.948092e-04	
77	-5.00000e-01	2.007230e-04	
78	-5.50000e-01	2.048552e-04	
79	-6.00000e-01	2.079396e-04	
80	-6.50000e-01	2.104626e-04	
81	-7.00000e-01	2.126687e-04	
82	-7.50000e-01	2.146731e-04	
83	-8.00000e-01	2.165342e-04	
84	-8.50000e-01	2.182851e-04	
85	-9.00000e-01	2.199472e-04	
86	-9.50000e-01	2.215350e-04	
87	-1.00000e+00	2.230594e-04	
88	-1.05000e+00	2.245289e-04	
89	-1.10000e+00	2.259501e-04	
90	-1.15000e+00	2.273285e-04	
91	-1.20000e+00	2.286687e-04	
92	-1.25000e+00	2.299745e-04	
93	-1.30000e+00	2.312492e-04	
94	-1.35000e+00	2.324957e-04	
95	-1.40000e+00	2.337164e-04	
96	-1.45000e+00	2.349136e-04	
97	-1.50000e+00	2.360890e-04	
98	-1.55000e+00	2.372445e-04	
99	-1.60000e+00	2.383815e-04	
100	-1.65000e+00	2.395014e-04	
101	-1.70000e+00	2.406054e-04	
102	-1.75000e+00	2.416945e-04	
103	-1.80000e+00	2.427699e-04	
104	-1.85000e+00	2.438323e-04	
105	-1.90000e+00	2.448827e-04	
106	-1.95000e+00	2.459217e-04	
107	-2.00000e+00	2.469501e-04	
108	-2.05000e+00	2.479684e-04	
109	-2.10000e+00	2.489773e-04	
110	-2.15000e+00	2.499774e-04	
111	-2.20000e+00	2.509690e-04	
112	-2.25000e+00	2.519527e-04	

Index   v-sweep         i(vds)          
--------------------------------------------------------------------------------
113	-2.30000e+00	2.529290e-04	
114	-2.35000e+00	2.538982e-04	
115	-2.40000e+00	2.548608e-04	
116	-2.45000e+00	2.558172e-04	
117	-2.50000e+00	2.567677e-04	
118	-2.55000e+00	2.577127e-04	
119	-2.60000e+00	2.586527e-04	
120	-2.65000e+00	2.595881e-04	
121	-2.70000e+00	2.605193e-04	
122	-2.75000e+00	2.614468e-04	
123	-2.80000e+00	2.623712e-04	
124	-2.85000e+00	2.632931e-04	
125	-2.90000e+00	2.642130e-04	
126	-2.95000e+00	2.651318e-04	
127	-3.00000e+00	2.660504e-04	
128	-3.05000e+00	2.669696e-04	
129	-3.10000e+00	2.678906e-04	
130	-3.15000e+00	2.688147e-04	
131	-3.20000e+00	2.697431e-04	
132	-3.25000e+00	2.706774e-04	
133	-3.30000e+00	2.716195e-04	
134	0.000000e+00	-1.58112e-20	
135	-5.00000e-02	6.011607e-05	
136	-1.00000e-01	1.167984e-04	
137	-1.50000e-01	1.700831e-04	
138	-2.00000e-01	2.200061e-04	
139	-2.50000e-01	2.666034e-04	
140	-3.00000e-01	3.099111e-04	
141	-3.50000e-01	3.499658e-04	
142	-4.00000e-01	3.868040e-04	
143	-4.50000e-01	4.204633e-04	
144	-5.00000e-01	4.509826e-04	
145	-5.50000e-01	4.784030e-04	
146	-6.00000e-01	5.027701e-04	
147	-6.50000e-01	5.241379e-04	
148	-7.00000e-01	5.425765e-04	
149	-7.50000e-01	5.581879e-04	
150	-8.00000e-01	5.711357e-04	
151	-8.50000e-01	5.816882e-04	
152	-9.00000e-01	5.902474e-04	
153	-9.50000e-01	5.973032e-04	
154	-1.00000e+00	6.033116e-04	
155	-1.05000e+00	6.086057e-04	
156	-1.10000e+00	6.133958e-04	
157	-1.15000e+00	6.178099e-04	
158	-1.20000e+00	6.219286e-04	
159	-1.25000e+00	6.258057e-04	
160	-1.30000e+00	6.294797e-04	
161	-1.35000e+00	6.329793e-04	
162	-1.40000e+00	6.363269e-04	
163	-1.45000e+00	6.395405e-04	
164	-1.50000e+00	6.426348e-04	
165	-1.55000e+00	6.456222e-04	
166	-1.60000e+00	6.485131e-04	
167	-1.65000e+00	6.513164e-04	
168	-1.70000e+00	6.540399e-04	
169	-1.75000e+00	6.566904e-04	
170	-1.80000e+00	6.592737e-04	

Index   v-sweep         i(vds)          
--------------------------------------------------------------------------------
171	-1.85000e+00	6.617950e-04	
172	-1.90000e+00	6.642591e-04	
173	-1.95000e+00	6.666701e-04	
174	-2.00000e+00	6.690316e-04	
175	-2.05000e+00	6.713471e-04	
176	-2.10000e+00	6.736195e-04	
177	-2.15000e+00	6.758516e-04	
178	-2.20000e+00	6.780458e-04	
179	-2.25000e+00	6.802044e-04	
180	-2.30000e+00	6.823296e-04	
181	-2.35000e+00	6.844232e-04	
182	-2.40000e+00	6.864870e-04	
183	-2.45000e+00	6.885225e-04	
184	-2.50000e+00	6.905313e-04	
185	-2.55000e+00	6.925148e-04	
186	-2.60000e+00	6.944743e-04	
187	-2.65000e+00	6.964111e-04	
188	-2.70000e+00	6.983261e-04	
189	-2.75000e+00	7.002207e-04	
190	-2.80000e+00	7.020958e-04	
191	-2.85000e+00	7.039526e-04	
192	-2.90000e+00	7.057920e-04	
193	-2.95000e+00	7.076151e-04	
194	-3.00000e+00	7.094232e-04	
195	-3.05000e+00	7.112172e-04	
196	-3.10000e+00	7.129985e-04	
197	-3.15000e+00	7.147684e-04	
198	-3.20000e+00	7.165285e-04	
199	-3.25000e+00	7.182804e-04	
200	-3.30000e+00	7.200260e-04	
201	0.000000e+00	-5.84754e-21	
202	-5.00000e-02	7.822545e-05	
203	-1.00000e-01	1.533208e-04	
204	-1.50000e-01	2.253122e-04	
205	-2.00000e-01	2.942259e-04	
206	-2.50000e-01	3.600881e-04	
207	-3.00000e-01	4.229250e-04	
208	-3.50000e-01	4.827629e-04	
209	-4.00000e-01	5.396280e-04	
210	-4.50000e-01	5.935467e-04	
211	-5.00000e-01	6.445453e-04	
212	-5.50000e-01	6.926503e-04	
213	-6.00000e-01	7.378884e-04	
214	-6.50000e-01	7.802864e-04	
215	-7.00000e-01	8.198716e-04	
216	-7.50000e-01	8.566718e-04	
217	-8.00000e-01	8.907158e-04	
218	-8.50000e-01	9.220341e-04	
219	-9.00000e-01	9.506596e-04	
220	-9.50000e-01	9.766299e-04	
221	-1.00000e+00	9.999904e-04	
222	-1.05000e+00	1.020800e-03	
223	-1.10000e+00	1.039144e-03	
224	-1.15000e+00	1.055146e-03	
225	-1.20000e+00	1.068999e-03	
226	-1.25000e+00	1.080970e-03	
227	-1.30000e+00	1.091392e-03	
228	-1.35000e+00	1.100602e-03	

Index   v-sweep         i(vds)          
--------------------------------------------------------------------------------
229	-1.40000e+00	1.108886e-03	
230	-1.45000e+00	1.116458e-03	
231	-1.50000e+00	1.123467e-03	
232	-1.55000e+00	1.130019e-03	
233	-1.60000e+00	1.136187e-03	
234	-1.65000e+00	1.142027e-03	
235	-1.70000e+00	1.147584e-03	
236	-1.75000e+00	1.152892e-03	
237	-1.80000e+00	1.157977e-03	
238	-1.85000e+00	1.162865e-03	
239	-1.90000e+00	1.167573e-03	
240	-1.95000e+00	1.172120e-03	
241	-2.00000e+00	1.176520e-03	
242	-2.05000e+00	1.180785e-03	
243	-2.10000e+00	1.184926e-03	
244	-2.15000e+00	1.188952e-03	
245	-2.20000e+00	1.192874e-03	
246	-2.25000e+00	1.196697e-03	
247	-2.30000e+00	1.200429e-03	
248	-2.35000e+00	1.204077e-03	
249	-2.40000e+00	1.207645e-03	
250	-2.45000e+00	1.211139e-03	
251	-2.50000e+00	1.214563e-03	
252	-2.55000e+00	1.217921e-03	
253	-2.60000e+00	1.221218e-03	
254	-2.65000e+00	1.224457e-03	
255	-2.70000e+00	1.227641e-03	
256	-2.75000e+00	1.230772e-03	
257	-2.80000e+00	1.233855e-03	
258	-2.85000e+00	1.236890e-03	
259	-2.90000e+00	1.239881e-03	
260	-2.95000e+00	1.242830e-03	
261	-3.00000e+00	1.245739e-03	
262	-3.05000e+00	1.248610e-03	
263	-3.10000e+00	1.251444e-03	
264	-3.15000e+00	1.254244e-03	
265	-3.20000e+00	1.257011e-03	
266	-3.25000e+00	1.259748e-03	
267	-3.30000e+00	1.262455e-03	
268	0.000000e+00	-1.13510e-29	
269	-5.00000e-02	9.198886e-05	
270	-1.00000e-01	1.811338e-04	
271	-1.50000e-01	2.674545e-04	
272	-2.00000e-01	3.509707e-04	
273	-2.50000e-01	4.317021e-04	
274	-3.00000e-01	5.096686e-04	
275	-3.50000e-01	5.848900e-04	
276	-4.00000e-01	6.573862e-04	
277	-4.50000e-01	7.271770e-04	
278	-5.00000e-01	7.942825e-04	
279	-5.50000e-01	8.587224e-04	
280	-6.00000e-01	9.205168e-04	
281	-6.50000e-01	9.796857e-04	
282	-7.00000e-01	1.036249e-03	
283	-7.50000e-01	1.090227e-03	
284	-8.00000e-01	1.141640e-03	
285	-8.50000e-01	1.190508e-03	
286	-9.00000e-01	1.236851e-03	

Index   v-sweep         i(vds)          
--------------------------------------------------------------------------------
287	-9.50000e-01	1.280691e-03	
288	-1.00000e+00	1.322047e-03	
289	-1.05000e+00	1.360942e-03	
290	-1.10000e+00	1.397398e-03	
291	-1.15000e+00	1.431437e-03	
292	-1.20000e+00	1.463085e-03	
293	-1.25000e+00	1.492369e-03	
294	-1.30000e+00	1.519321e-03	
295	-1.35000e+00	1.543982e-03	
296	-1.40000e+00	1.566401e-03	
297	-1.45000e+00	1.586652e-03	
298	-1.50000e+00	1.604838e-03	
299	-1.55000e+00	1.621106e-03	
300	-1.60000e+00	1.635654e-03	
301	-1.65000e+00	1.648723e-03	
302	-1.70000e+00	1.660561e-03	
303	-1.75000e+00	1.671395e-03	
304	-1.80000e+00	1.681410e-03	
305	-1.85000e+00	1.690747e-03	
306	-1.90000e+00	1.699515e-03	
307	-1.95000e+00	1.707794e-03	
308	-2.00000e+00	1.715650e-03	
309	-2.05000e+00	1.723134e-03	
310	-2.10000e+00	1.730287e-03	
311	-2.15000e+00	1.737145e-03	
312	-2.20000e+00	1.743736e-03	
313	-2.25000e+00	1.750087e-03	
314	-2.30000e+00	1.756217e-03	
315	-2.35000e+00	1.762147e-03	
316	-2.40000e+00	1.767892e-03	
317	-2.45000e+00	1.773466e-03	
318	-2.50000e+00	1.778884e-03	
319	-2.55000e+00	1.784155e-03	
320	-2.60000e+00	1.789291e-03	
321	-2.65000e+00	1.794301e-03	
322	-2.70000e+00	1.799192e-03	
323	-2.75000e+00	1.803972e-03	
324	-2.80000e+00	1.808648e-03	
325	-2.85000e+00	1.813227e-03	
326	-2.90000e+00	1.817713e-03	
327	-2.95000e+00	1.822113e-03	
328	-3.00000e+00	1.826430e-03	
329	-3.05000e+00	1.830670e-03	
330	-3.10000e+00	1.834836e-03	
331	-3.15000e+00	1.838932e-03	
332	-3.20000e+00	1.842962e-03	
333	-3.25000e+00	1.846929e-03	
334	-3.30000e+00	1.850835e-03	
335	0.000000e+00	-1.48495e-20	
336	-5.00000e-02	1.026568e-04	
337	-1.00000e-01	2.027238e-04	
338	-1.50000e-01	3.002164e-04	
339	-2.00000e-01	3.951498e-04	
340	-2.50000e-01	4.875393e-04	
341	-3.00000e-01	5.774003e-04	
342	-3.50000e-01	6.647482e-04	
343	-4.00000e-01	7.495984e-04	
344	-4.50000e-01	8.319664e-04	

Index   v-sweep         i(vds)          
--------------------------------------------------------------------------------
345	-5.00000e-01	9.118677e-04	
346	-5.50000e-01	9.893179e-04	
347	-6.00000e-01	1.064332e-03	
348	-6.50000e-01	1.136927e-03	
349	-7.00000e-01	1.207117e-03	
350	-7.50000e-01	1.274918e-03	
351	-8.00000e-01	1.340346e-03	
352	-8.50000e-01	1.403417e-03	
353	-9.00000e-01	1.464146e-03	
354	-9.50000e-01	1.522549e-03	
355	-1.00000e+00	1.578641e-03	
356	-1.05000e+00	1.632439e-03	
357	-1.10000e+00	1.683959e-03	
358	-1.15000e+00	1.733215e-03	
359	-1.20000e+00	1.780226e-03	
360	-1.25000e+00	1.825006e-03	
361	-1.30000e+00	1.867572e-03	
362	-1.35000e+00	1.907942e-03	
363	-1.40000e+00	1.946132e-03	
364	-1.45000e+00	1.982161e-03	
365	-1.50000e+00	2.016048e-03	
366	-1.55000e+00	2.047815e-03	
367	-1.60000e+00	2.077484e-03	
368	-1.65000e+00	2.105085e-03	
369	-1.70000e+00	2.130652e-03	
370	-1.75000e+00	2.154231e-03	
371	-1.80000e+00	2.175884e-03	
372	-1.85000e+00	2.195699e-03	
373	-1.90000e+00	2.213795e-03	
374	-1.95000e+00	2.230325e-03	
375	-2.00000e+00	2.245471e-03	
376	-2.05000e+00	2.259422e-03	
377	-2.10000e+00	2.272355e-03	
378	-2.15000e+00	2.284424e-03	
379	-2.20000e+00	2.295755e-03	
380	-2.25000e+00	2.306448e-03	
381	-2.30000e+00	2.316585e-03	
382	-2.35000e+00	2.326231e-03	
383	-2.40000e+00	2.335440e-03	
384	-2.45000e+00	2.344258e-03	
385	-2.50000e+00	2.352724e-03	
386	-2.55000e+00	2.360869e-03	
387	-2.60000e+00	2.368723e-03	
388	-2.65000e+00	2.376310e-03	
389	-2.70000e+00	2.383652e-03	
390	-2.75000e+00	2.390768e-03	
391	-2.80000e+00	2.397674e-03	
392	-2.85000e+00	2.404386e-03	
393	-2.90000e+00	2.410918e-03	
394	-2.95000e+00	2.417281e-03	
395	-3.00000e+00	2.423486e-03	
396	-3.05000e+00	2.429544e-03	
397	-3.10000e+00	2.435463e-03	
398	-3.15000e+00	2.441252e-03	
399	-3.20000e+00	2.446918e-03	
400	-3.25000e+00	2.452468e-03	
401	-3.30000e+00	2.457908e-03	
Note: No ".plot", ".print", or ".fourier" lines; no simulations run
