
Note: Compatibility modes selected: hs

Warning: m=xx on .subckt line will override multiplier m hierarchy!


Circuit: ***************************

Doing analysis at TEMP = -40.000000 and TNOM = -40.000000


No. of Data Rows : 402
                          ***************************
                          DC transfer characteristic  Mon Jan  9 13:58:23  2023
--------------------------------------------------------------------------------
Index   v-sweep         i(vds)          
--------------------------------------------------------------------------------
0	0.000000e+00	2.353731e-24	
1	-5.00000e-02	1.275192e-08	
2	-1.00000e-01	1.368684e-08	
3	-1.50000e-01	1.383066e-08	
4	-2.00000e-01	1.387839e-08	
5	-2.50000e-01	1.390198e-08	
6	-3.00000e-01	1.391675e-08	
7	-3.50000e-01	1.392750e-08	
8	-4.00000e-01	1.393611e-08	
9	-4.50000e-01	1.394346e-08	
10	-5.00000e-01	1.395001e-08	
11	-5.50000e-01	1.395601e-08	
12	-6.00000e-01	1.396162e-08	
13	-6.50000e-01	1.396693e-08	
14	-7.00000e-01	1.397202e-08	
15	-7.50000e-01	1.397693e-08	
16	-8.00000e-01	1.398169e-08	
17	-8.50000e-01	1.398633e-08	
18	-9.00000e-01	1.399087e-08	
19	-9.50000e-01	1.399532e-08	
20	-1.00000e+00	1.399969e-08	
21	-1.05000e+00	1.400400e-08	
22	-1.10000e+00	1.400824e-08	
23	-1.15000e+00	1.401244e-08	
24	-1.20000e+00	1.401659e-08	
25	-1.25000e+00	1.402069e-08	
26	-1.30000e+00	1.402476e-08	
27	-1.35000e+00	1.402879e-08	
28	-1.40000e+00	1.403279e-08	
29	-1.45000e+00	1.403676e-08	
30	-1.50000e+00	1.404070e-08	
31	-1.55000e+00	1.404462e-08	
32	-1.60000e+00	1.404851e-08	
33	-1.65000e+00	1.405238e-08	
34	-1.70000e+00	1.405623e-08	
35	-1.75000e+00	1.406006e-08	
36	-1.80000e+00	1.406387e-08	
37	-1.85000e+00	1.406767e-08	
38	-1.90000e+00	1.407145e-08	
39	-1.95000e+00	1.407521e-08	
40	-2.00000e+00	1.407896e-08	
41	-2.05000e+00	1.408269e-08	
42	-2.10000e+00	1.408642e-08	
43	-2.15000e+00	1.409013e-08	
44	-2.20000e+00	1.409383e-08	
45	-2.25000e+00	1.409753e-08	
46	-2.30000e+00	1.410122e-08	
47	-2.35000e+00	1.410490e-08	
48	-2.40000e+00	1.410859e-08	
49	-2.45000e+00	1.411227e-08	
50	-2.50000e+00	1.411597e-08	
51	-2.55000e+00	1.411967e-08	
52	-2.60000e+00	1.412340e-08	
53	-2.65000e+00	1.412716e-08	
54	-2.70000e+00	1.413095e-08	

Index   v-sweep         i(vds)          
--------------------------------------------------------------------------------
55	-2.75000e+00	1.413481e-08	
56	-2.80000e+00	1.413873e-08	
57	-2.85000e+00	1.414275e-08	
58	-2.90000e+00	1.414688e-08	
59	-2.95000e+00	1.415115e-08	
60	-3.00000e+00	1.415560e-08	
61	-3.05000e+00	1.416028e-08	
62	-3.10000e+00	1.416521e-08	
63	-3.15000e+00	1.417047e-08	
64	-3.20000e+00	1.417611e-08	
65	-3.25000e+00	1.418220e-08	
66	-3.30000e+00	1.418882e-08	
67	0.000000e+00	-2.65278e-22	
68	-5.00000e-02	9.961694e-07	
69	-1.00000e-01	1.823210e-06	
70	-1.50000e-01	2.482056e-06	
71	-2.00000e-01	2.974974e-06	
72	-2.50000e-01	3.308228e-06	
73	-3.00000e-01	3.499520e-06	
74	-3.50000e-01	3.588084e-06	
75	-4.00000e-01	3.623605e-06	
76	-4.50000e-01	3.638411e-06	
77	-5.00000e-01	3.645560e-06	
78	-5.50000e-01	3.649589e-06	
79	-6.00000e-01	3.652167e-06	
80	-6.50000e-01	3.653987e-06	
81	-7.00000e-01	3.655369e-06	
82	-7.50000e-01	3.656479e-06	
83	-8.00000e-01	3.657406e-06	
84	-8.50000e-01	3.658206e-06	
85	-9.00000e-01	3.658913e-06	
86	-9.50000e-01	3.659549e-06	
87	-1.00000e+00	3.660129e-06	
88	-1.05000e+00	3.660665e-06	
89	-1.10000e+00	3.661164e-06	
90	-1.15000e+00	3.661633e-06	
91	-1.20000e+00	3.662076e-06	
92	-1.25000e+00	3.662496e-06	
93	-1.30000e+00	3.662897e-06	
94	-1.35000e+00	3.663281e-06	
95	-1.40000e+00	3.663650e-06	
96	-1.45000e+00	3.664006e-06	
97	-1.50000e+00	3.664349e-06	
98	-1.55000e+00	3.664682e-06	
99	-1.60000e+00	3.665004e-06	
100	-1.65000e+00	3.665317e-06	
101	-1.70000e+00	3.665622e-06	
102	-1.75000e+00	3.665919e-06	
103	-1.80000e+00	3.666209e-06	
104	-1.85000e+00	3.666492e-06	
105	-1.90000e+00	3.666769e-06	
106	-1.95000e+00	3.667040e-06	
107	-2.00000e+00	3.667305e-06	
108	-2.05000e+00	3.667566e-06	
109	-2.10000e+00	3.667822e-06	
110	-2.15000e+00	3.668073e-06	
111	-2.20000e+00	3.668320e-06	
112	-2.25000e+00	3.668564e-06	

Index   v-sweep         i(vds)          
--------------------------------------------------------------------------------
113	-2.30000e+00	3.668803e-06	
114	-2.35000e+00	3.669039e-06	
115	-2.40000e+00	3.669272e-06	
116	-2.45000e+00	3.669502e-06	
117	-2.50000e+00	3.669729e-06	
118	-2.55000e+00	3.669955e-06	
119	-2.60000e+00	3.670178e-06	
120	-2.65000e+00	3.670401e-06	
121	-2.70000e+00	3.670624e-06	
122	-2.75000e+00	3.670847e-06	
123	-2.80000e+00	3.671073e-06	
124	-2.85000e+00	3.671302e-06	
125	-2.90000e+00	3.671537e-06	
126	-2.95000e+00	3.671780e-06	
127	-3.00000e+00	3.672034e-06	
128	-3.05000e+00	3.672303e-06	
129	-3.10000e+00	3.672591e-06	
130	-3.15000e+00	3.672904e-06	
131	-3.20000e+00	3.673248e-06	
132	-3.25000e+00	3.673631e-06	
133	-3.30000e+00	3.674062e-06	
134	0.000000e+00	1.999339e-21	
135	-5.00000e-02	2.061377e-06	
136	-1.00000e-01	3.960620e-06	
137	-1.50000e-01	5.697834e-06	
138	-2.00000e-01	7.273152e-06	
139	-2.50000e-01	8.686752e-06	
140	-3.00000e-01	9.938894e-06	
141	-3.50000e-01	1.102999e-05	
142	-4.00000e-01	1.196071e-05	
143	-4.50000e-01	1.273233e-05	
144	-5.00000e-01	1.334733e-05	
145	-5.50000e-01	1.381086e-05	
146	-6.00000e-01	1.413374e-05	
147	-6.50000e-01	1.433679e-05	
148	-7.00000e-01	1.445193e-05	
149	-7.50000e-01	1.451351e-05	
150	-8.00000e-01	1.454693e-05	
151	-8.50000e-01	1.456635e-05	
152	-9.00000e-01	1.457864e-05	
153	-9.50000e-01	1.458710e-05	
154	-1.00000e+00	1.459333e-05	
155	-1.05000e+00	1.459819e-05	
156	-1.10000e+00	1.460214e-05	
157	-1.15000e+00	1.460547e-05	
158	-1.20000e+00	1.460836e-05	
159	-1.25000e+00	1.461090e-05	
160	-1.30000e+00	1.461319e-05	
161	-1.35000e+00	1.461527e-05	
162	-1.40000e+00	1.461719e-05	
163	-1.45000e+00	1.461897e-05	
164	-1.50000e+00	1.462063e-05	
165	-1.55000e+00	1.462220e-05	
166	-1.60000e+00	1.462368e-05	
167	-1.65000e+00	1.462508e-05	
168	-1.70000e+00	1.462642e-05	
169	-1.75000e+00	1.462770e-05	
170	-1.80000e+00	1.462893e-05	

Index   v-sweep         i(vds)          
--------------------------------------------------------------------------------
171	-1.85000e+00	1.463011e-05	
172	-1.90000e+00	1.463124e-05	
173	-1.95000e+00	1.463234e-05	
174	-2.00000e+00	1.463341e-05	
175	-2.05000e+00	1.463444e-05	
176	-2.10000e+00	1.463544e-05	
177	-2.15000e+00	1.463641e-05	
178	-2.20000e+00	1.463735e-05	
179	-2.25000e+00	1.463828e-05	
180	-2.30000e+00	1.463917e-05	
181	-2.35000e+00	1.464005e-05	
182	-2.40000e+00	1.464091e-05	
183	-2.45000e+00	1.464175e-05	
184	-2.50000e+00	1.464257e-05	
185	-2.55000e+00	1.464337e-05	
186	-2.60000e+00	1.464416e-05	
187	-2.65000e+00	1.464493e-05	
188	-2.70000e+00	1.464569e-05	
189	-2.75000e+00	1.464644e-05	
190	-2.80000e+00	1.464718e-05	
191	-2.85000e+00	1.464791e-05	
192	-2.90000e+00	1.464862e-05	
193	-2.95000e+00	1.464934e-05	
194	-3.00000e+00	1.465005e-05	
195	-3.05000e+00	1.465076e-05	
196	-3.10000e+00	1.465147e-05	
197	-3.15000e+00	1.465220e-05	
198	-3.20000e+00	1.465294e-05	
199	-3.25000e+00	1.465370e-05	
200	-3.30000e+00	1.465450e-05	
201	0.000000e+00	7.687974e-22	
202	-5.00000e-02	2.977358e-06	
203	-1.00000e-01	5.805415e-06	
204	-1.50000e-01	8.484227e-06	
205	-2.00000e-01	1.101385e-05	
206	-2.50000e-01	1.339436e-05	
207	-3.00000e-01	1.562581e-05	
208	-3.50000e-01	1.770829e-05	
209	-4.00000e-01	1.964189e-05	
210	-4.50000e-01	2.142672e-05	
211	-5.00000e-01	2.306293e-05	
212	-5.50000e-01	2.455069e-05	
213	-6.00000e-01	2.589028e-05	
214	-6.50000e-01	2.708208e-05	
215	-7.00000e-01	2.812669e-05	
216	-7.50000e-01	2.902510e-05	
217	-8.00000e-01	2.977899e-05	
218	-8.50000e-01	3.039141e-05	
219	-9.00000e-01	3.086787e-05	
220	-9.50000e-01	3.121834e-05	
221	-1.00000e+00	3.145943e-05	
222	-1.05000e+00	3.161464e-05	
223	-1.10000e+00	3.171027e-05	
224	-1.15000e+00	3.176892e-05	
225	-1.20000e+00	3.180609e-05	
226	-1.25000e+00	3.183094e-05	
227	-1.30000e+00	3.184857e-05	
228	-1.35000e+00	3.186179e-05	

Index   v-sweep         i(vds)          
--------------------------------------------------------------------------------
229	-1.40000e+00	3.187218e-05	
230	-1.45000e+00	3.188066e-05	
231	-1.50000e+00	3.188782e-05	
232	-1.55000e+00	3.189400e-05	
233	-1.60000e+00	3.189945e-05	
234	-1.65000e+00	3.190434e-05	
235	-1.70000e+00	3.190878e-05	
236	-1.75000e+00	3.191285e-05	
237	-1.80000e+00	3.191662e-05	
238	-1.85000e+00	3.192013e-05	
239	-1.90000e+00	3.192343e-05	
240	-1.95000e+00	3.192654e-05	
241	-2.00000e+00	3.192948e-05	
242	-2.05000e+00	3.193228e-05	
243	-2.10000e+00	3.193496e-05	
244	-2.15000e+00	3.193751e-05	
245	-2.20000e+00	3.193997e-05	
246	-2.25000e+00	3.194232e-05	
247	-2.30000e+00	3.194460e-05	
248	-2.35000e+00	3.194679e-05	
249	-2.40000e+00	3.194891e-05	
250	-2.45000e+00	3.195097e-05	
251	-2.50000e+00	3.195296e-05	
252	-2.55000e+00	3.195490e-05	
253	-2.60000e+00	3.195678e-05	
254	-2.65000e+00	3.195862e-05	
255	-2.70000e+00	3.196040e-05	
256	-2.75000e+00	3.196215e-05	
257	-2.80000e+00	3.196385e-05	
258	-2.85000e+00	3.196551e-05	
259	-2.90000e+00	3.196714e-05	
260	-2.95000e+00	3.196873e-05	
261	-3.00000e+00	3.197029e-05	
262	-3.05000e+00	3.197182e-05	
263	-3.10000e+00	3.197332e-05	
264	-3.15000e+00	3.197480e-05	
265	-3.20000e+00	3.197626e-05	
266	-3.25000e+00	3.197770e-05	
267	-3.30000e+00	3.197912e-05	
268	0.000000e+00	1.596861e-21	
269	-5.00000e-02	3.746707e-06	
270	-1.00000e-01	7.357649e-06	
271	-1.50000e-01	1.083287e-05	
272	-2.00000e-01	1.417241e-05	
273	-2.50000e-01	1.737631e-05	
274	-3.00000e-01	2.044462e-05	
275	-3.50000e-01	2.337739e-05	
276	-4.00000e-01	2.617467e-05	
277	-4.50000e-01	2.883650e-05	
278	-5.00000e-01	3.136294e-05	
279	-5.50000e-01	3.375406e-05	
280	-6.00000e-01	3.600990e-05	
281	-6.50000e-01	3.813056e-05	
282	-7.00000e-01	4.011611e-05	
283	-7.50000e-01	4.196665e-05	
284	-8.00000e-01	4.368230e-05	
285	-8.50000e-01	4.526322e-05	
286	-9.00000e-01	4.670962e-05	

Index   v-sweep         i(vds)          
--------------------------------------------------------------------------------
287	-9.50000e-01	4.802179e-05	
288	-1.00000e+00	4.920014e-05	
289	-1.05000e+00	5.024528e-05	
290	-1.10000e+00	5.115817e-05	
291	-1.15000e+00	5.194036e-05	
292	-1.20000e+00	5.259437e-05	
293	-1.25000e+00	5.312446e-05	
294	-1.30000e+00	5.353770e-05	
295	-1.35000e+00	5.384528e-05	
296	-1.40000e+00	5.406333e-05	
297	-1.45000e+00	5.421167e-05	
298	-1.50000e+00	5.431049e-05	
299	-1.55000e+00	5.437665e-05	
300	-1.60000e+00	5.442219e-05	
301	-1.65000e+00	5.445483e-05	
302	-1.70000e+00	5.447929e-05	
303	-1.75000e+00	5.449839e-05	
304	-1.80000e+00	5.451386e-05	
305	-1.85000e+00	5.452679e-05	
306	-1.90000e+00	5.453788e-05	
307	-1.95000e+00	5.454758e-05	
308	-2.00000e+00	5.455621e-05	
309	-2.05000e+00	5.456400e-05	
310	-2.10000e+00	5.457111e-05	
311	-2.15000e+00	5.457766e-05	
312	-2.20000e+00	5.458374e-05	
313	-2.25000e+00	5.458942e-05	
314	-2.30000e+00	5.459476e-05	
315	-2.35000e+00	5.459980e-05	
316	-2.40000e+00	5.460458e-05	
317	-2.45000e+00	5.460913e-05	
318	-2.50000e+00	5.461347e-05	
319	-2.55000e+00	5.461763e-05	
320	-2.60000e+00	5.462162e-05	
321	-2.65000e+00	5.462546e-05	
322	-2.70000e+00	5.462915e-05	
323	-2.75000e+00	5.463272e-05	
324	-2.80000e+00	5.463617e-05	
325	-2.85000e+00	5.463952e-05	
326	-2.90000e+00	5.464276e-05	
327	-2.95000e+00	5.464590e-05	
328	-3.00000e+00	5.464896e-05	
329	-3.05000e+00	5.465193e-05	
330	-3.10000e+00	5.465483e-05	
331	-3.15000e+00	5.465766e-05	
332	-3.20000e+00	5.466042e-05	
333	-3.25000e+00	5.466311e-05	
334	-3.30000e+00	5.466574e-05	
335	0.000000e+00	7.677058e-22	
336	-5.00000e-02	4.381404e-06	
337	-1.00000e-01	8.640141e-06	
338	-1.50000e-01	1.277625e-05	
339	-2.00000e-01	1.678976e-05	
340	-2.50000e-01	2.068071e-05	
341	-3.00000e-01	2.444913e-05	
342	-3.50000e-01	2.809507e-05	
343	-4.00000e-01	3.161856e-05	
344	-4.50000e-01	3.501963e-05	

Index   v-sweep         i(vds)          
--------------------------------------------------------------------------------
345	-5.00000e-01	3.829833e-05	
346	-5.50000e-01	4.145469e-05	
347	-6.00000e-01	4.448876e-05	
348	-6.50000e-01	4.740057e-05	
349	-7.00000e-01	5.019017e-05	
350	-7.50000e-01	5.285760e-05	
351	-8.00000e-01	5.540292e-05	
352	-8.50000e-01	5.782616e-05	
353	-9.00000e-01	6.012739e-05	
354	-9.50000e-01	6.230667e-05	
355	-1.00000e+00	6.436406e-05	
356	-1.05000e+00	6.629965e-05	
357	-1.10000e+00	6.811353e-05	
358	-1.15000e+00	6.980582e-05	
359	-1.20000e+00	7.137666e-05	
360	-1.25000e+00	7.282623e-05	
361	-1.30000e+00	7.415480e-05	
362	-1.35000e+00	7.536270e-05	
363	-1.40000e+00	7.645043e-05	
364	-1.45000e+00	7.741870e-05	
365	-1.50000e+00	7.826862e-05	
366	-1.55000e+00	7.900187e-05	
367	-1.60000e+00	7.962108e-05	
368	-1.65000e+00	8.013045e-05	
369	-1.70000e+00	8.053643e-05	
370	-1.75000e+00	8.084863e-05	
371	-1.80000e+00	8.108010e-05	
372	-1.85000e+00	8.124655e-05	
373	-1.90000e+00	8.136424e-05	
374	-1.95000e+00	8.144755e-05	
375	-2.00000e+00	8.150758e-05	
376	-2.05000e+00	8.155213e-05	
377	-2.10000e+00	8.158634e-05	
378	-2.15000e+00	8.161350e-05	
379	-2.20000e+00	8.163576e-05	
380	-2.25000e+00	8.165450e-05	
381	-2.30000e+00	8.167063e-05	
382	-2.35000e+00	8.168480e-05	
383	-2.40000e+00	8.169743e-05	
384	-2.45000e+00	8.170885e-05	
385	-2.50000e+00	8.171927e-05	
386	-2.55000e+00	8.172887e-05	
387	-2.60000e+00	8.173779e-05	
388	-2.65000e+00	8.174613e-05	
389	-2.70000e+00	8.175396e-05	
390	-2.75000e+00	8.176135e-05	
391	-2.80000e+00	8.176836e-05	
392	-2.85000e+00	8.177502e-05	
393	-2.90000e+00	8.178138e-05	
394	-2.95000e+00	8.178747e-05	
395	-3.00000e+00	8.179330e-05	
396	-3.05000e+00	8.179891e-05	
397	-3.10000e+00	8.180432e-05	
398	-3.15000e+00	8.180953e-05	
399	-3.20000e+00	8.181457e-05	
400	-3.25000e+00	8.181945e-05	
401	-3.30000e+00	8.182417e-05	
Note: No ".plot", ".print", or ".fourier" lines; no simulations run
