
Note: Compatibility modes selected: hs

Warning: m=xx on .subckt line will override multiplier m hierarchy!


Circuit: ***************************

Doing analysis at TEMP = -40.000000 and TNOM = -40.000000


No. of Data Rows : 402
                          ***************************
                          DC transfer characteristic  Mon Jan  9 13:58:23  2023
--------------------------------------------------------------------------------
Index   v-sweep         i(vds)          
--------------------------------------------------------------------------------
0	0.000000e+00	4.161209e-24	
1	-5.00000e-02	2.428791e-08	
2	-1.00000e-01	2.608006e-08	
3	-1.50000e-01	2.636405e-08	
4	-2.00000e-01	2.646391e-08	
5	-2.50000e-01	2.651696e-08	
6	-3.00000e-01	2.655254e-08	
7	-3.50000e-01	2.657993e-08	
8	-4.00000e-01	2.660282e-08	
9	-4.50000e-01	2.662296e-08	
10	-5.00000e-01	2.664126e-08	
11	-5.50000e-01	2.665826e-08	
12	-6.00000e-01	2.667428e-08	
13	-6.50000e-01	2.668955e-08	
14	-7.00000e-01	2.670422e-08	
15	-7.50000e-01	2.671838e-08	
16	-8.00000e-01	2.673213e-08	
17	-8.50000e-01	2.674552e-08	
18	-9.00000e-01	2.675861e-08	
19	-9.50000e-01	2.677143e-08	
20	-1.00000e+00	2.678401e-08	
21	-1.05000e+00	2.679638e-08	
22	-1.10000e+00	2.680855e-08	
23	-1.15000e+00	2.682056e-08	
24	-1.20000e+00	2.683241e-08	
25	-1.25000e+00	2.684411e-08	
26	-1.30000e+00	2.685569e-08	
27	-1.35000e+00	2.686714e-08	
28	-1.40000e+00	2.687848e-08	
29	-1.45000e+00	2.688972e-08	
30	-1.50000e+00	2.690086e-08	
31	-1.55000e+00	2.691191e-08	
32	-1.60000e+00	2.692287e-08	
33	-1.65000e+00	2.693376e-08	
34	-1.70000e+00	2.694457e-08	
35	-1.75000e+00	2.695531e-08	
36	-1.80000e+00	2.696599e-08	
37	-1.85000e+00	2.697660e-08	
38	-1.90000e+00	2.698715e-08	
39	-1.95000e+00	2.699765e-08	
40	-2.00000e+00	2.700810e-08	
41	-2.05000e+00	2.701850e-08	
42	-2.10000e+00	2.702885e-08	
43	-2.15000e+00	2.703917e-08	
44	-2.20000e+00	2.704945e-08	
45	-2.25000e+00	2.705970e-08	
46	-2.30000e+00	2.706993e-08	
47	-2.35000e+00	2.708015e-08	
48	-2.40000e+00	2.709036e-08	
49	-2.45000e+00	2.710060e-08	
50	-2.50000e+00	2.711086e-08	
51	-2.55000e+00	2.712119e-08	
52	-2.60000e+00	2.713160e-08	
53	-2.65000e+00	2.714214e-08	
54	-2.70000e+00	2.715284e-08	

Index   v-sweep         i(vds)          
--------------------------------------------------------------------------------
55	-2.75000e+00	2.716377e-08	
56	-2.80000e+00	2.717499e-08	
57	-2.85000e+00	2.718658e-08	
58	-2.90000e+00	2.719864e-08	
59	-2.95000e+00	2.721128e-08	
60	-3.00000e+00	2.722464e-08	
61	-3.05000e+00	2.723887e-08	
62	-3.10000e+00	2.725416e-08	
63	-3.15000e+00	2.727072e-08	
64	-3.20000e+00	2.728879e-08	
65	-3.25000e+00	2.730866e-08	
66	-3.30000e+00	2.733062e-08	
67	0.000000e+00	4.659565e-22	
68	-5.00000e-02	1.992391e-06	
69	-1.00000e-01	3.650180e-06	
70	-1.50000e-01	4.975268e-06	
71	-2.00000e-01	5.972043e-06	
72	-2.50000e-01	6.652295e-06	
73	-3.00000e-01	7.049101e-06	
74	-3.50000e-01	7.237084e-06	
75	-4.00000e-01	7.314429e-06	
76	-4.50000e-01	7.347698e-06	
77	-5.00000e-01	7.364499e-06	
78	-5.50000e-01	7.374516e-06	
79	-6.00000e-01	7.381327e-06	
80	-6.50000e-01	7.386419e-06	
81	-7.00000e-01	7.390489e-06	
82	-7.50000e-01	7.393900e-06	
83	-8.00000e-01	7.396853e-06	
84	-8.50000e-01	7.399475e-06	
85	-9.00000e-01	7.401844e-06	
86	-9.50000e-01	7.404013e-06	
87	-1.00000e+00	7.406022e-06	
88	-1.05000e+00	7.407898e-06	
89	-1.10000e+00	7.409661e-06	
90	-1.15000e+00	7.411328e-06	
91	-1.20000e+00	7.412912e-06	
92	-1.25000e+00	7.414422e-06	
93	-1.30000e+00	7.415867e-06	
94	-1.35000e+00	7.417254e-06	
95	-1.40000e+00	7.418589e-06	
96	-1.45000e+00	7.419876e-06	
97	-1.50000e+00	7.421120e-06	
98	-1.55000e+00	7.422325e-06	
99	-1.60000e+00	7.423493e-06	
100	-1.65000e+00	7.424628e-06	
101	-1.70000e+00	7.425732e-06	
102	-1.75000e+00	7.426807e-06	
103	-1.80000e+00	7.427855e-06	
104	-1.85000e+00	7.428878e-06	
105	-1.90000e+00	7.429878e-06	
106	-1.95000e+00	7.430855e-06	
107	-2.00000e+00	7.431812e-06	
108	-2.05000e+00	7.432749e-06	
109	-2.10000e+00	7.433668e-06	
110	-2.15000e+00	7.434570e-06	
111	-2.20000e+00	7.435455e-06	
112	-2.25000e+00	7.436325e-06	

Index   v-sweep         i(vds)          
--------------------------------------------------------------------------------
113	-2.30000e+00	7.437180e-06	
114	-2.35000e+00	7.438022e-06	
115	-2.40000e+00	7.438851e-06	
116	-2.45000e+00	7.439670e-06	
117	-2.50000e+00	7.440479e-06	
118	-2.55000e+00	7.441280e-06	
119	-2.60000e+00	7.442075e-06	
120	-2.65000e+00	7.442867e-06	
121	-2.70000e+00	7.443659e-06	
122	-2.75000e+00	7.444456e-06	
123	-2.80000e+00	7.445262e-06	
124	-2.85000e+00	7.446085e-06	
125	-2.90000e+00	7.446933e-06	
126	-2.95000e+00	7.447815e-06	
127	-3.00000e+00	7.448745e-06	
128	-3.05000e+00	7.449739e-06	
129	-3.10000e+00	7.450814e-06	
130	-3.15000e+00	7.451993e-06	
131	-3.20000e+00	7.453304e-06	
132	-3.25000e+00	7.454777e-06	
133	-3.30000e+00	7.456450e-06	
134	0.000000e+00	1.747964e-21	
135	-5.00000e-02	4.122053e-06	
136	-1.00000e-01	7.923715e-06	
137	-1.50000e-01	1.140530e-05	
138	-2.00000e-01	1.456716e-05	
139	-2.50000e-01	1.740975e-05	
140	-3.00000e-01	1.993366e-05	
141	-3.50000e-01	2.213976e-05	
142	-4.00000e-01	2.402940e-05	
143	-4.50000e-01	2.560497e-05	
144	-5.00000e-01	2.687103e-05	
145	-5.50000e-01	2.783682e-05	
146	-6.00000e-01	2.852165e-05	
147	-6.50000e-01	2.896315e-05	
148	-7.00000e-01	2.922120e-05	
149	-7.50000e-01	2.936384e-05	
150	-8.00000e-01	2.944415e-05	
151	-8.50000e-01	2.949289e-05	
152	-9.00000e-01	2.952534e-05	
153	-9.50000e-01	2.954883e-05	
154	-1.00000e+00	2.956702e-05	
155	-1.05000e+00	2.958183e-05	
156	-1.10000e+00	2.959437e-05	
157	-1.15000e+00	2.960528e-05	
158	-1.20000e+00	2.961498e-05	
159	-1.25000e+00	2.962374e-05	
160	-1.30000e+00	2.963176e-05	
161	-1.35000e+00	2.963916e-05	
162	-1.40000e+00	2.964605e-05	
163	-1.45000e+00	2.965252e-05	
164	-1.50000e+00	2.965861e-05	
165	-1.55000e+00	2.966437e-05	
166	-1.60000e+00	2.966985e-05	
167	-1.65000e+00	2.967508e-05	
168	-1.70000e+00	2.968008e-05	
169	-1.75000e+00	2.968487e-05	
170	-1.80000e+00	2.968948e-05	

Index   v-sweep         i(vds)          
--------------------------------------------------------------------------------
171	-1.85000e+00	2.969392e-05	
172	-1.90000e+00	2.969821e-05	
173	-1.95000e+00	2.970235e-05	
174	-2.00000e+00	2.970636e-05	
175	-2.05000e+00	2.971025e-05	
176	-2.10000e+00	2.971402e-05	
177	-2.15000e+00	2.971769e-05	
178	-2.20000e+00	2.972126e-05	
179	-2.25000e+00	2.972474e-05	
180	-2.30000e+00	2.972813e-05	
181	-2.35000e+00	2.973144e-05	
182	-2.40000e+00	2.973467e-05	
183	-2.45000e+00	2.973783e-05	
184	-2.50000e+00	2.974092e-05	
185	-2.55000e+00	2.974394e-05	
186	-2.60000e+00	2.974691e-05	
187	-2.65000e+00	2.974982e-05	
188	-2.70000e+00	2.975267e-05	
189	-2.75000e+00	2.975548e-05	
190	-2.80000e+00	2.975824e-05	
191	-2.85000e+00	2.976096e-05	
192	-2.90000e+00	2.976366e-05	
193	-2.95000e+00	2.976633e-05	
194	-3.00000e+00	2.976899e-05	
195	-3.05000e+00	2.977166e-05	
196	-3.10000e+00	2.977434e-05	
197	-3.15000e+00	2.977707e-05	
198	-3.20000e+00	2.977986e-05	
199	-3.25000e+00	2.978276e-05	
200	-3.30000e+00	2.978580e-05	
201	0.000000e+00	1.082577e-20	
202	-5.00000e-02	5.944619e-06	
203	-1.00000e-01	1.159449e-05	
204	-1.50000e-01	1.694983e-05	
205	-2.00000e-01	2.201083e-05	
206	-2.50000e-01	2.677772e-05	
207	-3.00000e-01	3.125071e-05	
208	-3.50000e-01	3.543006e-05	
209	-4.00000e-01	3.931603e-05	
210	-4.50000e-01	4.290893e-05	
211	-5.00000e-01	4.620910e-05	
212	-5.50000e-01	4.921700e-05	
213	-6.00000e-01	5.193319e-05	
214	-6.50000e-01	5.435845e-05	
215	-7.00000e-01	5.649397e-05	
216	-7.50000e-01	5.834155e-05	
217	-8.00000e-01	5.990426e-05	
218	-8.50000e-01	6.118740e-05	
219	-9.00000e-01	6.220058e-05	
220	-9.50000e-01	6.296109e-05	
221	-1.00000e+00	6.349828e-05	
222	-1.05000e+00	6.385532e-05	
223	-1.10000e+00	6.408324e-05	
224	-1.15000e+00	6.422846e-05	
225	-1.20000e+00	6.432440e-05	
226	-1.25000e+00	6.439151e-05	
227	-1.30000e+00	6.444137e-05	
228	-1.35000e+00	6.448046e-05	

Index   v-sweep         i(vds)          
--------------------------------------------------------------------------------
229	-1.40000e+00	6.451248e-05	
230	-1.45000e+00	6.453959e-05	
231	-1.50000e+00	6.456318e-05	
232	-1.55000e+00	6.458411e-05	
233	-1.60000e+00	6.460298e-05	
234	-1.65000e+00	6.462020e-05	
235	-1.70000e+00	6.463607e-05	
236	-1.75000e+00	6.465082e-05	
237	-1.80000e+00	6.466461e-05	
238	-1.85000e+00	6.467758e-05	
239	-1.90000e+00	6.468984e-05	
240	-1.95000e+00	6.470147e-05	
241	-2.00000e+00	6.471254e-05	
242	-2.05000e+00	6.472312e-05	
243	-2.10000e+00	6.473324e-05	
244	-2.15000e+00	6.474295e-05	
245	-2.20000e+00	6.475229e-05	
246	-2.25000e+00	6.476129e-05	
247	-2.30000e+00	6.476997e-05	
248	-2.35000e+00	6.477837e-05	
249	-2.40000e+00	6.478650e-05	
250	-2.45000e+00	6.479438e-05	
251	-2.50000e+00	6.480202e-05	
252	-2.55000e+00	6.480945e-05	
253	-2.60000e+00	6.481668e-05	
254	-2.65000e+00	6.482372e-05	
255	-2.70000e+00	6.483057e-05	
256	-2.75000e+00	6.483726e-05	
257	-2.80000e+00	6.484379e-05	
258	-2.85000e+00	6.485016e-05	
259	-2.90000e+00	6.485640e-05	
260	-2.95000e+00	6.486250e-05	
261	-3.00000e+00	6.486848e-05	
262	-3.05000e+00	6.487434e-05	
263	-3.10000e+00	6.488009e-05	
264	-3.15000e+00	6.488574e-05	
265	-3.20000e+00	6.489131e-05	
266	-3.25000e+00	6.489681e-05	
267	-3.30000e+00	6.490226e-05	
268	0.000000e+00	2.324070e-35	
269	-5.00000e-02	7.469506e-06	
270	-1.00000e-01	1.467116e-05	
271	-1.50000e-01	2.160512e-05	
272	-2.00000e-01	2.827155e-05	
273	-2.50000e-01	3.467063e-05	
274	-3.00000e-01	4.080251e-05	
275	-3.50000e-01	4.666737e-05	
276	-4.00000e-01	5.226538e-05	
277	-4.50000e-01	5.759672e-05	
278	-5.00000e-01	6.266158e-05	
279	-5.50000e-01	6.746014e-05	
280	-6.00000e-01	7.199261e-05	
281	-6.50000e-01	7.625921e-05	
282	-7.00000e-01	8.026017e-05	
283	-7.50000e-01	8.399576e-05	
284	-8.00000e-01	8.746628e-05	
285	-8.50000e-01	9.067210e-05	
286	-9.00000e-01	9.361368e-05	

Index   v-sweep         i(vds)          
--------------------------------------------------------------------------------
287	-9.50000e-01	9.629160e-05	
288	-1.00000e+00	9.870667e-05	
289	-1.05000e+00	1.008600e-04	
290	-1.10000e+00	1.027534e-04	
291	-1.15000e+00	1.043896e-04	
292	-1.20000e+00	1.057728e-04	
293	-1.25000e+00	1.069103e-04	
294	-1.30000e+00	1.078142e-04	
295	-1.35000e+00	1.085036e-04	
296	-1.40000e+00	1.090073e-04	
297	-1.45000e+00	1.093619e-04	
298	-1.50000e+00	1.096071e-04	
299	-1.55000e+00	1.097780e-04	
300	-1.60000e+00	1.099006e-04	
301	-1.65000e+00	1.099924e-04	
302	-1.70000e+00	1.100641e-04	
303	-1.75000e+00	1.101224e-04	
304	-1.80000e+00	1.101714e-04	
305	-1.85000e+00	1.102136e-04	
306	-1.90000e+00	1.102508e-04	
307	-1.95000e+00	1.102842e-04	
308	-2.00000e+00	1.103144e-04	
309	-2.05000e+00	1.103421e-04	
310	-2.10000e+00	1.103678e-04	
311	-2.15000e+00	1.103917e-04	
312	-2.20000e+00	1.104142e-04	
313	-2.25000e+00	1.104353e-04	
314	-2.30000e+00	1.104553e-04	
315	-2.35000e+00	1.104743e-04	
316	-2.40000e+00	1.104924e-04	
317	-2.45000e+00	1.105097e-04	
318	-2.50000e+00	1.105262e-04	
319	-2.55000e+00	1.105421e-04	
320	-2.60000e+00	1.105574e-04	
321	-2.65000e+00	1.105721e-04	
322	-2.70000e+00	1.105864e-04	
323	-2.75000e+00	1.106001e-04	
324	-2.80000e+00	1.106134e-04	
325	-2.85000e+00	1.106263e-04	
326	-2.90000e+00	1.106388e-04	
327	-2.95000e+00	1.106510e-04	
328	-3.00000e+00	1.106628e-04	
329	-3.05000e+00	1.106743e-04	
330	-3.10000e+00	1.106855e-04	
331	-3.15000e+00	1.106965e-04	
332	-3.20000e+00	1.107071e-04	
333	-3.25000e+00	1.107176e-04	
334	-3.30000e+00	1.107278e-04	
335	0.000000e+00	2.137166e-35	
336	-5.00000e-02	8.723710e-06	
337	-1.00000e-01	1.720548e-05	
338	-1.50000e-01	2.544545e-05	
339	-2.00000e-01	3.344375e-05	
340	-2.50000e-01	4.120053e-05	
341	-3.00000e-01	4.871592e-05	
342	-3.50000e-01	5.599006e-05	
343	-4.00000e-01	6.302310e-05	
344	-4.50000e-01	6.981517e-05	

Index   v-sweep         i(vds)          
--------------------------------------------------------------------------------
345	-5.00000e-01	7.636641e-05	
346	-5.50000e-01	8.267698e-05	
347	-6.00000e-01	8.874701e-05	
348	-6.50000e-01	9.457665e-05	
349	-7.00000e-01	1.001661e-04	
350	-7.50000e-01	1.055154e-04	
351	-8.00000e-01	1.106248e-04	
352	-8.50000e-01	1.154944e-04	
353	-9.00000e-01	1.201245e-04	
354	-9.50000e-01	1.245152e-04	
355	-1.00000e+00	1.286667e-04	
356	-1.05000e+00	1.325792e-04	
357	-1.10000e+00	1.362529e-04	
358	-1.15000e+00	1.396882e-04	
359	-1.20000e+00	1.428853e-04	
360	-1.25000e+00	1.458447e-04	
361	-1.30000e+00	1.485669e-04	
362	-1.35000e+00	1.510525e-04	
363	-1.40000e+00	1.533025e-04	
364	-1.45000e+00	1.553181e-04	
365	-1.50000e+00	1.571013e-04	
366	-1.55000e+00	1.586549e-04	
367	-1.60000e+00	1.599834e-04	
368	-1.65000e+00	1.610937e-04	
369	-1.70000e+00	1.619967e-04	
370	-1.75000e+00	1.627088e-04	
371	-1.80000e+00	1.632529e-04	
372	-1.85000e+00	1.636578e-04	
373	-1.90000e+00	1.639550e-04	
374	-1.95000e+00	1.641738e-04	
375	-2.00000e+00	1.643379e-04	
376	-2.05000e+00	1.644648e-04	
377	-2.10000e+00	1.645662e-04	
378	-2.15000e+00	1.646498e-04	
379	-2.20000e+00	1.647206e-04	
380	-2.25000e+00	1.647821e-04	
381	-2.30000e+00	1.648364e-04	
382	-2.35000e+00	1.648852e-04	
383	-2.40000e+00	1.649296e-04	
384	-2.45000e+00	1.649703e-04	
385	-2.50000e+00	1.650080e-04	
386	-2.55000e+00	1.650431e-04	
387	-2.60000e+00	1.650760e-04	
388	-2.65000e+00	1.651071e-04	
389	-2.70000e+00	1.651364e-04	
390	-2.75000e+00	1.651643e-04	
391	-2.80000e+00	1.651909e-04	
392	-2.85000e+00	1.652162e-04	
393	-2.90000e+00	1.652405e-04	
394	-2.95000e+00	1.652638e-04	
395	-3.00000e+00	1.652863e-04	
396	-3.05000e+00	1.653079e-04	
397	-3.10000e+00	1.653287e-04	
398	-3.15000e+00	1.653489e-04	
399	-3.20000e+00	1.653684e-04	
400	-3.25000e+00	1.653873e-04	
401	-3.30000e+00	1.654056e-04	
Note: No ".plot", ".print", or ".fourier" lines; no simulations run
