
Note: Compatibility modes selected: hs

Warning: m=xx on .subckt line will override multiplier m hierarchy!


Circuit: ***************************

Doing analysis at TEMP = 25.000000 and TNOM = 25.000000


No. of Data Rows : 402
                          ***************************
                          DC transfer characteristic  Mon Jan  9 13:58:23  2023
--------------------------------------------------------------------------------
Index   v-sweep         i(vds)          
--------------------------------------------------------------------------------
0	0.000000e+00	2.770135e-26	
1	-5.00000e-02	3.204512e-09	
2	-1.00000e-01	3.928835e-09	
3	-1.50000e-01	4.035445e-09	
4	-2.00000e-01	4.061305e-09	
5	-2.50000e-01	4.071396e-09	
6	-3.00000e-01	4.076688e-09	
7	-3.50000e-01	4.080054e-09	
8	-4.00000e-01	4.082489e-09	
9	-4.50000e-01	4.084416e-09	
10	-5.00000e-01	4.086035e-09	
11	-5.50000e-01	4.087455e-09	
12	-6.00000e-01	4.088738e-09	
13	-6.50000e-01	4.089922e-09	
14	-7.00000e-01	4.091031e-09	
15	-7.50000e-01	4.092082e-09	
16	-8.00000e-01	4.093087e-09	
17	-8.50000e-01	4.094055e-09	
18	-9.00000e-01	4.094991e-09	
19	-9.50000e-01	4.095901e-09	
20	-1.00000e+00	4.096788e-09	
21	-1.05000e+00	4.097655e-09	
22	-1.10000e+00	4.098505e-09	
23	-1.15000e+00	4.099339e-09	
24	-1.20000e+00	4.100160e-09	
25	-1.25000e+00	4.100968e-09	
26	-1.30000e+00	4.101765e-09	
27	-1.35000e+00	4.102552e-09	
28	-1.40000e+00	4.103329e-09	
29	-1.45000e+00	4.104098e-09	
30	-1.50000e+00	4.104859e-09	
31	-1.55000e+00	4.105612e-09	
32	-1.60000e+00	4.106359e-09	
33	-1.65000e+00	4.107099e-09	
34	-1.70000e+00	4.107833e-09	
35	-1.75000e+00	4.108562e-09	
36	-1.80000e+00	4.109285e-09	
37	-1.85000e+00	4.110004e-09	
38	-1.90000e+00	4.110718e-09	
39	-1.95000e+00	4.111427e-09	
40	-2.00000e+00	4.112132e-09	
41	-2.05000e+00	4.112834e-09	
42	-2.10000e+00	4.113532e-09	
43	-2.15000e+00	4.114226e-09	
44	-2.20000e+00	4.114917e-09	
45	-2.25000e+00	4.115606e-09	
46	-2.30000e+00	4.116293e-09	
47	-2.35000e+00	4.116977e-09	
48	-2.40000e+00	4.117660e-09	
49	-2.45000e+00	4.118343e-09	
50	-2.50000e+00	4.119026e-09	
51	-2.55000e+00	4.119711e-09	
52	-2.60000e+00	4.120398e-09	
53	-2.65000e+00	4.121090e-09	
54	-2.70000e+00	4.121789e-09	

Index   v-sweep         i(vds)          
--------------------------------------------------------------------------------
55	-2.75000e+00	4.122498e-09	
56	-2.80000e+00	4.123219e-09	
57	-2.85000e+00	4.123958e-09	
58	-2.90000e+00	4.124717e-09	
59	-2.95000e+00	4.125505e-09	
60	-3.00000e+00	4.126327e-09	
61	-3.05000e+00	4.127191e-09	
62	-3.10000e+00	4.128108e-09	
63	-3.15000e+00	4.129088e-09	
64	-3.20000e+00	4.130145e-09	
65	-3.25000e+00	4.131294e-09	
66	-3.30000e+00	4.132551e-09	
67	0.000000e+00	-6.07916e-24	
68	-5.00000e-02	4.336470e-08	
69	-1.00000e-01	8.045344e-08	
70	-1.50000e-01	1.112853e-07	
71	-2.00000e-01	1.359009e-07	
72	-2.50000e-01	1.543970e-07	
73	-3.00000e-01	1.670282e-07	
74	-3.50000e-01	1.744619e-07	
75	-4.00000e-01	1.780839e-07	
76	-4.50000e-01	1.796339e-07	
77	-5.00000e-01	1.803110e-07	
78	-5.50000e-01	1.806451e-07	
79	-6.00000e-01	1.808344e-07	
80	-6.50000e-01	1.809554e-07	
81	-7.00000e-01	1.810405e-07	
82	-7.50000e-01	1.811047e-07	
83	-8.00000e-01	1.811561e-07	
84	-8.50000e-01	1.811989e-07	
85	-9.00000e-01	1.812358e-07	
86	-9.50000e-01	1.812683e-07	
87	-1.00000e+00	1.812976e-07	
88	-1.05000e+00	1.813243e-07	
89	-1.10000e+00	1.813489e-07	
90	-1.15000e+00	1.813718e-07	
91	-1.20000e+00	1.813934e-07	
92	-1.25000e+00	1.814138e-07	
93	-1.30000e+00	1.814331e-07	
94	-1.35000e+00	1.814516e-07	
95	-1.40000e+00	1.814693e-07	
96	-1.45000e+00	1.814863e-07	
97	-1.50000e+00	1.815026e-07	
98	-1.55000e+00	1.815185e-07	
99	-1.60000e+00	1.815338e-07	
100	-1.65000e+00	1.815487e-07	
101	-1.70000e+00	1.815631e-07	
102	-1.75000e+00	1.815772e-07	
103	-1.80000e+00	1.815909e-07	
104	-1.85000e+00	1.816043e-07	
105	-1.90000e+00	1.816174e-07	
106	-1.95000e+00	1.816302e-07	
107	-2.00000e+00	1.816427e-07	
108	-2.05000e+00	1.816550e-07	
109	-2.10000e+00	1.816670e-07	
110	-2.15000e+00	1.816788e-07	
111	-2.20000e+00	1.816904e-07	
112	-2.25000e+00	1.817018e-07	

Index   v-sweep         i(vds)          
--------------------------------------------------------------------------------
113	-2.30000e+00	1.817130e-07	
114	-2.35000e+00	1.817241e-07	
115	-2.40000e+00	1.817350e-07	
116	-2.45000e+00	1.817457e-07	
117	-2.50000e+00	1.817563e-07	
118	-2.55000e+00	1.817668e-07	
119	-2.60000e+00	1.817772e-07	
120	-2.65000e+00	1.817875e-07	
121	-2.70000e+00	1.817977e-07	
122	-2.75000e+00	1.818079e-07	
123	-2.80000e+00	1.818181e-07	
124	-2.85000e+00	1.818284e-07	
125	-2.90000e+00	1.818388e-07	
126	-2.95000e+00	1.818494e-07	
127	-3.00000e+00	1.818602e-07	
128	-3.05000e+00	1.818715e-07	
129	-3.10000e+00	1.818833e-07	
130	-3.15000e+00	1.818959e-07	
131	-3.20000e+00	1.819093e-07	
132	-3.25000e+00	1.819240e-07	
133	-3.30000e+00	1.819401e-07	
134	0.000000e+00	-9.07012e-23	
135	-5.00000e-02	8.430583e-08	
136	-1.00000e-01	1.624521e-07	
137	-1.50000e-01	2.344415e-07	
138	-2.00000e-01	3.002777e-07	
139	-2.50000e-01	3.599652e-07	
140	-3.00000e-01	4.135107e-07	
141	-3.50000e-01	4.609245e-07	
142	-4.00000e-01	5.022230e-07	
143	-4.50000e-01	5.374347e-07	
144	-5.00000e-01	5.666122e-07	
145	-5.50000e-01	5.898588e-07	
146	-6.00000e-01	6.073855e-07	
147	-6.50000e-01	6.196241e-07	
148	-7.00000e-01	6.273769e-07	
149	-7.50000e-01	6.318356e-07	
150	-8.00000e-01	6.342641e-07	
151	-8.50000e-01	6.356029e-07	
152	-9.00000e-01	6.363884e-07	
153	-9.50000e-01	6.368880e-07	
154	-1.00000e+00	6.372318e-07	
155	-1.05000e+00	6.374851e-07	
156	-1.10000e+00	6.376823e-07	
157	-1.15000e+00	6.378428e-07	
158	-1.20000e+00	6.379780e-07	
159	-1.25000e+00	6.380951e-07	
160	-1.30000e+00	6.381986e-07	
161	-1.35000e+00	6.382917e-07	
162	-1.40000e+00	6.383766e-07	
163	-1.45000e+00	6.384548e-07	
164	-1.50000e+00	6.385274e-07	
165	-1.55000e+00	6.385955e-07	
166	-1.60000e+00	6.386596e-07	
167	-1.65000e+00	6.387203e-07	
168	-1.70000e+00	6.387780e-07	
169	-1.75000e+00	6.388331e-07	
170	-1.80000e+00	6.388859e-07	

Index   v-sweep         i(vds)          
--------------------------------------------------------------------------------
171	-1.85000e+00	6.389366e-07	
172	-1.90000e+00	6.389854e-07	
173	-1.95000e+00	6.390325e-07	
174	-2.00000e+00	6.390780e-07	
175	-2.05000e+00	6.391221e-07	
176	-2.10000e+00	6.391648e-07	
177	-2.15000e+00	6.392063e-07	
178	-2.20000e+00	6.392468e-07	
179	-2.25000e+00	6.392861e-07	
180	-2.30000e+00	6.393245e-07	
181	-2.35000e+00	6.393619e-07	
182	-2.40000e+00	6.393985e-07	
183	-2.45000e+00	6.394342e-07	
184	-2.50000e+00	6.394692e-07	
185	-2.55000e+00	6.395035e-07	
186	-2.60000e+00	6.395371e-07	
187	-2.65000e+00	6.395701e-07	
188	-2.70000e+00	6.396024e-07	
189	-2.75000e+00	6.396343e-07	
190	-2.80000e+00	6.396656e-07	
191	-2.85000e+00	6.396964e-07	
192	-2.90000e+00	6.397268e-07	
193	-2.95000e+00	6.397568e-07	
194	-3.00000e+00	6.397866e-07	
195	-3.05000e+00	6.398162e-07	
196	-3.10000e+00	6.398457e-07	
197	-3.15000e+00	6.398753e-07	
198	-3.20000e+00	6.399052e-07	
199	-3.25000e+00	6.399355e-07	
200	-3.30000e+00	6.399665e-07	
201	0.000000e+00	-9.10383e-23	
202	-5.00000e-02	1.217661e-07	
203	-1.00000e-01	2.376960e-07	
204	-1.50000e-01	3.477914e-07	
205	-2.00000e-01	4.520537e-07	
206	-2.50000e-01	5.504846e-07	
207	-3.00000e-01	6.430860e-07	
208	-3.50000e-01	7.298601e-07	
209	-4.00000e-01	8.108094e-07	
210	-4.50000e-01	8.859371e-07	
211	-5.00000e-01	9.552471e-07	
212	-5.50000e-01	1.018745e-06	
213	-6.00000e-01	1.076437e-06	
214	-6.50000e-01	1.128335e-06	
215	-7.00000e-01	1.174455e-06	
216	-7.50000e-01	1.214821e-06	
217	-8.00000e-01	1.249477e-06	
218	-8.50000e-01	1.278494e-06	
219	-9.00000e-01	1.302001e-06	
220	-9.50000e-01	1.320234e-06	
221	-1.00000e+00	1.333606e-06	
222	-1.05000e+00	1.342790e-06	
223	-1.10000e+00	1.348712e-06	
224	-1.15000e+00	1.352378e-06	
225	-1.20000e+00	1.354642e-06	
226	-1.25000e+00	1.356085e-06	
227	-1.30000e+00	1.357055e-06	
228	-1.35000e+00	1.357744e-06	

Index   v-sweep         i(vds)          
--------------------------------------------------------------------------------
229	-1.40000e+00	1.358262e-06	
230	-1.45000e+00	1.358670e-06	
231	-1.50000e+00	1.359003e-06	
232	-1.55000e+00	1.359285e-06	
233	-1.60000e+00	1.359529e-06	
234	-1.65000e+00	1.359744e-06	
235	-1.70000e+00	1.359938e-06	
236	-1.75000e+00	1.360114e-06	
237	-1.80000e+00	1.360275e-06	
238	-1.85000e+00	1.360425e-06	
239	-1.90000e+00	1.360566e-06	
240	-1.95000e+00	1.360698e-06	
241	-2.00000e+00	1.360822e-06	
242	-2.05000e+00	1.360940e-06	
243	-2.10000e+00	1.361053e-06	
244	-2.15000e+00	1.361160e-06	
245	-2.20000e+00	1.361264e-06	
246	-2.25000e+00	1.361363e-06	
247	-2.30000e+00	1.361458e-06	
248	-2.35000e+00	1.361550e-06	
249	-2.40000e+00	1.361639e-06	
250	-2.45000e+00	1.361725e-06	
251	-2.50000e+00	1.361809e-06	
252	-2.55000e+00	1.361890e-06	
253	-2.60000e+00	1.361969e-06	
254	-2.65000e+00	1.362046e-06	
255	-2.70000e+00	1.362121e-06	
256	-2.75000e+00	1.362194e-06	
257	-2.80000e+00	1.362265e-06	
258	-2.85000e+00	1.362335e-06	
259	-2.90000e+00	1.362403e-06	
260	-2.95000e+00	1.362469e-06	
261	-3.00000e+00	1.362535e-06	
262	-3.05000e+00	1.362599e-06	
263	-3.10000e+00	1.362662e-06	
264	-3.15000e+00	1.362723e-06	
265	-3.20000e+00	1.362784e-06	
266	-3.25000e+00	1.362844e-06	
267	-3.30000e+00	1.362903e-06	
268	0.000000e+00	-3.65505e-22	
269	-5.00000e-02	1.555878e-07	
270	-1.00000e-01	3.057100e-07	
271	-1.50000e-01	4.503678e-07	
272	-2.00000e-01	5.895623e-07	
273	-2.50000e-01	7.232949e-07	
274	-3.00000e-01	8.515666e-07	
275	-3.50000e-01	9.743789e-07	
276	-4.00000e-01	1.091733e-06	
277	-4.50000e-01	1.203630e-06	
278	-5.00000e-01	1.310072e-06	
279	-5.50000e-01	1.411061e-06	
280	-6.00000e-01	1.506598e-06	
281	-6.50000e-01	1.596685e-06	
282	-7.00000e-01	1.681325e-06	
283	-7.50000e-01	1.760522e-06	
284	-8.00000e-01	1.834277e-06	
285	-8.50000e-01	1.902598e-06	
286	-9.00000e-01	1.965489e-06	

Index   v-sweep         i(vds)          
--------------------------------------------------------------------------------
287	-9.50000e-01	2.022959e-06	
288	-1.00000e+00	2.075020e-06	
289	-1.05000e+00	2.121691e-06	
290	-1.10000e+00	2.162998e-06	
291	-1.15000e+00	2.198984e-06	
292	-1.20000e+00	2.229716e-06	
293	-1.25000e+00	2.255310e-06	
294	-1.30000e+00	2.275952e-06	
295	-1.35000e+00	2.291952e-06	
296	-1.40000e+00	2.303793e-06	
297	-1.45000e+00	2.312147e-06	
298	-1.50000e+00	2.317817e-06	
299	-1.55000e+00	2.321597e-06	
300	-1.60000e+00	2.324136e-06	
301	-1.65000e+00	2.325891e-06	
302	-1.70000e+00	2.327154e-06	
303	-1.75000e+00	2.328104e-06	
304	-1.80000e+00	2.328848e-06	
305	-1.85000e+00	2.329453e-06	
306	-1.90000e+00	2.329959e-06	
307	-1.95000e+00	2.330395e-06	
308	-2.00000e+00	2.330777e-06	
309	-2.05000e+00	2.331118e-06	
310	-2.10000e+00	2.331427e-06	
311	-2.15000e+00	2.331709e-06	
312	-2.20000e+00	2.331970e-06	
313	-2.25000e+00	2.332212e-06	
314	-2.30000e+00	2.332440e-06	
315	-2.35000e+00	2.332654e-06	
316	-2.40000e+00	2.332857e-06	
317	-2.45000e+00	2.333049e-06	
318	-2.50000e+00	2.333233e-06	
319	-2.55000e+00	2.333408e-06	
320	-2.60000e+00	2.333576e-06	
321	-2.65000e+00	2.333738e-06	
322	-2.70000e+00	2.333894e-06	
323	-2.75000e+00	2.334044e-06	
324	-2.80000e+00	2.334189e-06	
325	-2.85000e+00	2.334330e-06	
326	-2.90000e+00	2.334466e-06	
327	-2.95000e+00	2.334599e-06	
328	-3.00000e+00	2.334728e-06	
329	-3.05000e+00	2.334853e-06	
330	-3.10000e+00	2.334975e-06	
331	-3.15000e+00	2.335094e-06	
332	-3.20000e+00	2.335210e-06	
333	-3.25000e+00	2.335323e-06	
334	-3.30000e+00	2.335434e-06	
335	0.000000e+00	3.833499e-23	
336	-5.00000e-02	1.858421e-07	
337	-1.00000e-01	3.665971e-07	
338	-1.50000e-01	5.422660e-07	
339	-2.00000e-01	7.128500e-07	
340	-2.50000e-01	8.783499e-07	
341	-3.00000e-01	1.038767e-06	
342	-3.50000e-01	1.194102e-06	
343	-4.00000e-01	1.344356e-06	
344	-4.50000e-01	1.489530e-06	

Index   v-sweep         i(vds)          
--------------------------------------------------------------------------------
345	-5.00000e-01	1.629626e-06	
346	-5.50000e-01	1.764644e-06	
347	-6.00000e-01	1.894585e-06	
348	-6.50000e-01	2.019452e-06	
349	-7.00000e-01	2.139244e-06	
350	-7.50000e-01	2.253964e-06	
351	-8.00000e-01	2.363612e-06	
352	-8.50000e-01	2.468191e-06	
353	-9.00000e-01	2.567702e-06	
354	-9.50000e-01	2.662147e-06	
355	-1.00000e+00	2.751528e-06	
356	-1.05000e+00	2.835848e-06	
357	-1.10000e+00	2.915110e-06	
358	-1.15000e+00	2.989317e-06	
359	-1.20000e+00	3.058474e-06	
360	-1.25000e+00	3.122587e-06	
361	-1.30000e+00	3.181665e-06	
362	-1.35000e+00	3.235718e-06	
363	-1.40000e+00	3.284762e-06	
364	-1.45000e+00	3.328819e-06	
365	-1.50000e+00	3.367922e-06	
366	-1.55000e+00	3.402123e-06	
367	-1.60000e+00	3.431499e-06	
368	-1.65000e+00	3.456175e-06	
369	-1.70000e+00	3.476342e-06	
370	-1.75000e+00	3.492299e-06	
371	-1.80000e+00	3.504476e-06	
372	-1.85000e+00	3.513440e-06	
373	-1.90000e+00	3.519856e-06	
374	-1.95000e+00	3.524384e-06	
375	-2.00000e+00	3.527593e-06	
376	-2.05000e+00	3.529914e-06	
377	-2.10000e+00	3.531644e-06	
378	-2.15000e+00	3.532978e-06	
379	-2.20000e+00	3.534042e-06	
380	-2.25000e+00	3.534918e-06	
381	-2.30000e+00	3.535659e-06	
382	-2.35000e+00	3.536299e-06	
383	-2.40000e+00	3.536863e-06	
384	-2.45000e+00	3.537367e-06	
385	-2.50000e+00	3.537824e-06	
386	-2.55000e+00	3.538243e-06	
387	-2.60000e+00	3.538631e-06	
388	-2.65000e+00	3.538991e-06	
389	-2.70000e+00	3.539329e-06	
390	-2.75000e+00	3.539647e-06	
391	-2.80000e+00	3.539948e-06	
392	-2.85000e+00	3.540234e-06	
393	-2.90000e+00	3.540506e-06	
394	-2.95000e+00	3.540767e-06	
395	-3.00000e+00	3.541016e-06	
396	-3.05000e+00	3.541256e-06	
397	-3.10000e+00	3.541487e-06	
398	-3.15000e+00	3.541710e-06	
399	-3.20000e+00	3.541925e-06	
400	-3.25000e+00	3.542133e-06	
401	-3.30000e+00	3.542335e-06	
Note: No ".plot", ".print", or ".fourier" lines; no simulations run
