
Note: Compatibility modes selected: hs

Warning: m=xx on .subckt line will override multiplier m hierarchy!


Circuit: ***************************

Doing analysis at TEMP = -40.000000 and TNOM = -40.000000


No. of Data Rows : 402
                          ***************************
                          DC transfer characteristic  Mon Jan  9 13:58:23  2023
--------------------------------------------------------------------------------
Index   v-sweep         i(vds)          
--------------------------------------------------------------------------------
0	0.000000e+00	-2.24276e-23	
1	-5.00000e-02	9.463805e-08	
2	-1.00000e-01	1.023088e-07	
3	-1.50000e-01	1.037841e-07	
4	-2.00000e-01	1.044815e-07	
5	-2.50000e-01	1.049648e-07	
6	-3.00000e-01	1.053576e-07	
7	-3.50000e-01	1.057008e-07	
8	-4.00000e-01	1.060121e-07	
9	-4.50000e-01	1.063007e-07	
10	-5.00000e-01	1.065719e-07	
11	-5.50000e-01	1.068294e-07	
12	-6.00000e-01	1.070756e-07	
13	-6.50000e-01	1.073121e-07	
14	-7.00000e-01	1.075404e-07	
15	-7.50000e-01	1.077616e-07	
16	-8.00000e-01	1.079764e-07	
17	-8.50000e-01	1.081857e-07	
18	-9.00000e-01	1.083899e-07	
19	-9.50000e-01	1.085897e-07	
20	-1.00000e+00	1.087853e-07	
21	-1.05000e+00	1.089772e-07	
22	-1.10000e+00	1.091657e-07	
23	-1.15000e+00	1.093510e-07	
24	-1.20000e+00	1.095334e-07	
25	-1.25000e+00	1.097132e-07	
26	-1.30000e+00	1.098905e-07	
27	-1.35000e+00	1.100654e-07	
28	-1.40000e+00	1.102382e-07	
29	-1.45000e+00	1.104090e-07	
30	-1.50000e+00	1.105779e-07	
31	-1.55000e+00	1.107450e-07	
32	-1.60000e+00	1.109104e-07	
33	-1.65000e+00	1.110743e-07	
34	-1.70000e+00	1.112367e-07	
35	-1.75000e+00	1.113976e-07	
36	-1.80000e+00	1.115572e-07	
37	-1.85000e+00	1.117156e-07	
38	-1.90000e+00	1.118728e-07	
39	-1.95000e+00	1.120288e-07	
40	-2.00000e+00	1.121838e-07	
41	-2.05000e+00	1.123377e-07	
42	-2.10000e+00	1.124907e-07	
43	-2.15000e+00	1.126429e-07	
44	-2.20000e+00	1.127942e-07	
45	-2.25000e+00	1.129448e-07	
46	-2.30000e+00	1.130947e-07	
47	-2.35000e+00	1.132441e-07	
48	-2.40000e+00	1.133930e-07	
49	-2.45000e+00	1.135416e-07	
50	-2.50000e+00	1.136900e-07	
51	-2.55000e+00	1.138383e-07	
52	-2.60000e+00	1.139869e-07	
53	-2.65000e+00	1.141357e-07	
54	-2.70000e+00	1.142852e-07	

Index   v-sweep         i(vds)          
--------------------------------------------------------------------------------
55	-2.75000e+00	1.144357e-07	
56	-2.80000e+00	1.145874e-07	
57	-2.85000e+00	1.147408e-07	
58	-2.90000e+00	1.148963e-07	
59	-2.95000e+00	1.150543e-07	
60	-3.00000e+00	1.152156e-07	
61	-3.05000e+00	1.153807e-07	
62	-3.10000e+00	1.155504e-07	
63	-3.15000e+00	1.157254e-07	
64	-3.20000e+00	1.159066e-07	
65	-3.25000e+00	1.160951e-07	
66	-3.30000e+00	1.162920e-07	
67	0.000000e+00	2.751682e-35	
68	-5.00000e-02	1.002319e-05	
69	-1.00000e-01	1.849183e-05	
70	-1.50000e-01	2.541831e-05	
71	-2.00000e-01	3.082244e-05	
72	-2.50000e-01	3.474483e-05	
73	-3.00000e-01	3.728632e-05	
74	-3.50000e-01	3.869132e-05	
75	-4.00000e-01	3.937343e-05	
76	-4.50000e-01	3.971637e-05	
77	-5.00000e-01	3.992121e-05	
78	-5.50000e-01	4.006578e-05	
79	-6.00000e-01	4.017962e-05	
80	-6.50000e-01	4.027522e-05	
81	-7.00000e-01	4.035869e-05	
82	-7.50000e-01	4.043337e-05	
83	-8.00000e-01	4.050130e-05	
84	-8.50000e-01	4.056385e-05	
85	-9.00000e-01	4.062194e-05	
86	-9.50000e-01	4.067628e-05	
87	-1.00000e+00	4.072739e-05	
88	-1.05000e+00	4.077570e-05	
89	-1.10000e+00	4.082155e-05	
90	-1.15000e+00	4.086520e-05	
91	-1.20000e+00	4.090688e-05	
92	-1.25000e+00	4.094680e-05	
93	-1.30000e+00	4.098511e-05	
94	-1.35000e+00	4.102196e-05	
95	-1.40000e+00	4.105747e-05	
96	-1.45000e+00	4.109175e-05	
97	-1.50000e+00	4.112489e-05	
98	-1.55000e+00	4.115698e-05	
99	-1.60000e+00	4.118810e-05	
100	-1.65000e+00	4.121831e-05	
101	-1.70000e+00	4.124767e-05	
102	-1.75000e+00	4.127623e-05	
103	-1.80000e+00	4.130406e-05	
104	-1.85000e+00	4.133118e-05	
105	-1.90000e+00	4.135764e-05	
106	-1.95000e+00	4.138348e-05	
107	-2.00000e+00	4.140874e-05	
108	-2.05000e+00	4.143344e-05	
109	-2.10000e+00	4.145761e-05	
110	-2.15000e+00	4.148129e-05	
111	-2.20000e+00	4.150449e-05	
112	-2.25000e+00	4.152725e-05	

Index   v-sweep         i(vds)          
--------------------------------------------------------------------------------
113	-2.30000e+00	4.154959e-05	
114	-2.35000e+00	4.157152e-05	
115	-2.40000e+00	4.159308e-05	
116	-2.45000e+00	4.161428e-05	
117	-2.50000e+00	4.163516e-05	
118	-2.55000e+00	4.165573e-05	
119	-2.60000e+00	4.167604e-05	
120	-2.65000e+00	4.169610e-05	
121	-2.70000e+00	4.171597e-05	
122	-2.75000e+00	4.173567e-05	
123	-2.80000e+00	4.175527e-05	
124	-2.85000e+00	4.177481e-05	
125	-2.90000e+00	4.179437e-05	
126	-2.95000e+00	4.181402e-05	
127	-3.00000e+00	4.183385e-05	
128	-3.05000e+00	4.185396e-05	
129	-3.10000e+00	4.187446e-05	
130	-3.15000e+00	4.189550e-05	
131	-3.20000e+00	4.191723e-05	
132	-3.25000e+00	4.193982e-05	
133	-3.30000e+00	4.196348e-05	
134	0.000000e+00	-7.22654e-35	
135	-5.00000e-02	2.052943e-05	
136	-1.00000e-01	3.957636e-05	
137	-1.50000e-01	5.714667e-05	
138	-2.00000e-01	7.324637e-05	
139	-2.50000e-01	8.788171e-05	
140	-3.00000e-01	1.010593e-04	
141	-3.50000e-01	1.127867e-04	
142	-4.00000e-01	1.230723e-04	
143	-4.50000e-01	1.319273e-04	
144	-5.00000e-01	1.393676e-04	
145	-5.50000e-01	1.454192e-04	
146	-6.00000e-01	1.501298e-04	
147	-6.50000e-01	1.535915e-04	
148	-7.00000e-01	1.559738e-04	
149	-7.50000e-01	1.575348e-04	
150	-8.00000e-01	1.585606e-04	
151	-8.50000e-01	1.592756e-04	
152	-9.00000e-01	1.598146e-04	
153	-9.50000e-01	1.602492e-04	
154	-1.00000e+00	1.606168e-04	
155	-1.05000e+00	1.609378e-04	
156	-1.10000e+00	1.612246e-04	
157	-1.15000e+00	1.614847e-04	
158	-1.20000e+00	1.617234e-04	
159	-1.25000e+00	1.619444e-04	
160	-1.30000e+00	1.621505e-04	
161	-1.35000e+00	1.623438e-04	
162	-1.40000e+00	1.625259e-04	
163	-1.45000e+00	1.626982e-04	
164	-1.50000e+00	1.628617e-04	
165	-1.55000e+00	1.630175e-04	
166	-1.60000e+00	1.631662e-04	
167	-1.65000e+00	1.633086e-04	
168	-1.70000e+00	1.634451e-04	
169	-1.75000e+00	1.635763e-04	
170	-1.80000e+00	1.637027e-04	

Index   v-sweep         i(vds)          
--------------------------------------------------------------------------------
171	-1.85000e+00	1.638246e-04	
172	-1.90000e+00	1.639423e-04	
173	-1.95000e+00	1.640561e-04	
174	-2.00000e+00	1.641664e-04	
175	-2.05000e+00	1.642732e-04	
176	-2.10000e+00	1.643770e-04	
177	-2.15000e+00	1.644778e-04	
178	-2.20000e+00	1.645758e-04	
179	-2.25000e+00	1.646713e-04	
180	-2.30000e+00	1.647642e-04	
181	-2.35000e+00	1.648549e-04	
182	-2.40000e+00	1.649434e-04	
183	-2.45000e+00	1.650297e-04	
184	-2.50000e+00	1.651142e-04	
185	-2.55000e+00	1.651967e-04	
186	-2.60000e+00	1.652775e-04	
187	-2.65000e+00	1.653566e-04	
188	-2.70000e+00	1.654342e-04	
189	-2.75000e+00	1.655102e-04	
190	-2.80000e+00	1.655849e-04	
191	-2.85000e+00	1.656582e-04	
192	-2.90000e+00	1.657303e-04	
193	-2.95000e+00	1.658014e-04	
194	-3.00000e+00	1.658714e-04	
195	-3.05000e+00	1.659407e-04	
196	-3.10000e+00	1.660093e-04	
197	-3.15000e+00	1.660774e-04	
198	-3.20000e+00	1.661452e-04	
199	-3.25000e+00	1.662130e-04	
200	-3.30000e+00	1.662810e-04	
201	0.000000e+00	9.311963e-35	
202	-5.00000e-02	2.915768e-05	
203	-1.00000e-01	5.695518e-05	
204	-1.50000e-01	8.339709e-05	
205	-2.00000e-01	1.084880e-04	
206	-2.50000e-01	1.322326e-04	
207	-3.00000e-01	1.546356e-04	
208	-3.50000e-01	1.757015e-04	
209	-4.00000e-01	1.954353e-04	
210	-4.50000e-01	2.138417e-04	
211	-5.00000e-01	2.309259e-04	
212	-5.50000e-01	2.466929e-04	
213	-6.00000e-01	2.611483e-04	
214	-6.50000e-01	2.742982e-04	
215	-7.00000e-01	2.861495e-04	
216	-7.50000e-01	2.967105e-04	
217	-8.00000e-01	3.059918e-04	
218	-8.50000e-01	3.140088e-04	
219	-9.00000e-01	3.207848e-04	
220	-9.50000e-01	3.263584e-04	
221	-1.00000e+00	3.307957e-04	
222	-1.05000e+00	3.342063e-04	
223	-1.10000e+00	3.367542e-04	
224	-1.15000e+00	3.386423e-04	
225	-1.20000e+00	3.400693e-04	
226	-1.25000e+00	3.411905e-04	
227	-1.30000e+00	3.421097e-04	
228	-1.35000e+00	3.428909e-04	

Index   v-sweep         i(vds)          
--------------------------------------------------------------------------------
229	-1.40000e+00	3.435736e-04	
230	-1.45000e+00	3.441824e-04	
231	-1.50000e+00	3.447335e-04	
232	-1.55000e+00	3.452381e-04	
233	-1.60000e+00	3.457044e-04	
234	-1.65000e+00	3.461383e-04	
235	-1.70000e+00	3.465444e-04	
236	-1.75000e+00	3.469264e-04	
237	-1.80000e+00	3.472871e-04	
238	-1.85000e+00	3.476290e-04	
239	-1.90000e+00	3.479541e-04	
240	-1.95000e+00	3.482641e-04	
241	-2.00000e+00	3.485603e-04	
242	-2.05000e+00	3.488441e-04	
243	-2.10000e+00	3.491165e-04	
244	-2.15000e+00	3.493784e-04	
245	-2.20000e+00	3.496307e-04	
246	-2.25000e+00	3.498741e-04	
247	-2.30000e+00	3.501092e-04	
248	-2.35000e+00	3.503366e-04	
249	-2.40000e+00	3.505569e-04	
250	-2.45000e+00	3.507704e-04	
251	-2.50000e+00	3.509777e-04	
252	-2.55000e+00	3.511790e-04	
253	-2.60000e+00	3.513748e-04	
254	-2.65000e+00	3.515654e-04	
255	-2.70000e+00	3.517510e-04	
256	-2.75000e+00	3.519320e-04	
257	-2.80000e+00	3.521085e-04	
258	-2.85000e+00	3.522809e-04	
259	-2.90000e+00	3.524492e-04	
260	-2.95000e+00	3.526138e-04	
261	-3.00000e+00	3.527749e-04	
262	-3.05000e+00	3.529325e-04	
263	-3.10000e+00	3.530870e-04	
264	-3.15000e+00	3.532384e-04	
265	-3.20000e+00	3.533871e-04	
266	-3.25000e+00	3.535331e-04	
267	-3.30000e+00	3.536768e-04	
268	0.000000e+00	1.480019e-34	
269	-5.00000e-02	3.614558e-05	
270	-1.00000e-01	7.105535e-05	
271	-1.50000e-01	1.047331e-04	
272	-2.00000e-01	1.371825e-04	
273	-2.50000e-01	1.684074e-04	
274	-3.00000e-01	1.984115e-04	
275	-3.50000e-01	2.271987e-04	
276	-4.00000e-01	2.547726e-04	
277	-4.50000e-01	2.811371e-04	
278	-5.00000e-01	3.062960e-04	
279	-5.50000e-01	3.302532e-04	
280	-6.00000e-01	3.530125e-04	
281	-6.50000e-01	3.745777e-04	
282	-7.00000e-01	3.949530e-04	
283	-7.50000e-01	4.141422e-04	
284	-8.00000e-01	4.321495e-04	
285	-8.50000e-01	4.489792e-04	
286	-9.00000e-01	4.646357e-04	

Index   v-sweep         i(vds)          
--------------------------------------------------------------------------------
287	-9.50000e-01	4.791238e-04	
288	-1.00000e+00	4.924488e-04	
289	-1.05000e+00	5.046167e-04	
290	-1.10000e+00	5.156345e-04	
291	-1.15000e+00	5.255113e-04	
292	-1.20000e+00	5.342592e-04	
293	-1.25000e+00	5.418959e-04	
294	-1.30000e+00	5.484481e-04	
295	-1.35000e+00	5.539581e-04	
296	-1.40000e+00	5.584922e-04	
297	-1.45000e+00	5.621499e-04	
298	-1.50000e+00	5.650649e-04	
299	-1.55000e+00	5.673910e-04	
300	-1.60000e+00	5.692763e-04	
301	-1.65000e+00	5.708423e-04	
302	-1.70000e+00	5.721773e-04	
303	-1.75000e+00	5.733421e-04	
304	-1.80000e+00	5.743778e-04	
305	-1.85000e+00	5.753123e-04	
306	-1.90000e+00	5.761654e-04	
307	-1.95000e+00	5.769513e-04	
308	-2.00000e+00	5.776808e-04	
309	-2.05000e+00	5.783619e-04	
310	-2.10000e+00	5.790012e-04	
311	-2.15000e+00	5.796038e-04	
312	-2.20000e+00	5.801740e-04	
313	-2.25000e+00	5.807153e-04	
314	-2.30000e+00	5.812306e-04	
315	-2.35000e+00	5.817224e-04	
316	-2.40000e+00	5.821929e-04	
317	-2.45000e+00	5.826440e-04	
318	-2.50000e+00	5.830772e-04	
319	-2.55000e+00	5.834941e-04	
320	-2.60000e+00	5.838957e-04	
321	-2.65000e+00	5.842834e-04	
322	-2.70000e+00	5.846580e-04	
323	-2.75000e+00	5.850204e-04	
324	-2.80000e+00	5.853715e-04	
325	-2.85000e+00	5.857119e-04	
326	-2.90000e+00	5.860424e-04	
327	-2.95000e+00	5.863635e-04	
328	-3.00000e+00	5.866758e-04	
329	-3.05000e+00	5.869797e-04	
330	-3.10000e+00	5.872758e-04	
331	-3.15000e+00	5.875644e-04	
332	-3.20000e+00	5.878460e-04	
333	-3.25000e+00	5.881209e-04	
334	-3.30000e+00	5.883894e-04	
335	0.000000e+00	1.954574e-35	
336	-5.00000e-02	4.175191e-05	
337	-1.00000e-01	8.238517e-05	
338	-1.50000e-01	1.219029e-04	
339	-2.00000e-01	1.603082e-04	
340	-2.50000e-01	1.976041e-04	
341	-3.00000e-01	2.337938e-04	
342	-3.50000e-01	2.688803e-04	
343	-4.00000e-01	3.028669e-04	
344	-4.50000e-01	3.357565e-04	

Index   v-sweep         i(vds)          
--------------------------------------------------------------------------------
345	-5.00000e-01	3.675524e-04	
346	-5.50000e-01	3.982577e-04	
347	-6.00000e-01	4.278754e-04	
348	-6.50000e-01	4.564087e-04	
349	-7.00000e-01	4.838608e-04	
350	-7.50000e-01	5.102349e-04	
351	-8.00000e-01	5.355341e-04	
352	-8.50000e-01	5.597616e-04	
353	-9.00000e-01	5.829205e-04	
354	-9.50000e-01	6.050143e-04	
355	-1.00000e+00	6.260460e-04	
356	-1.05000e+00	6.460191e-04	
357	-1.10000e+00	6.649369e-04	
358	-1.15000e+00	6.828029e-04	
359	-1.20000e+00	6.996206e-04	
360	-1.25000e+00	7.153939e-04	
361	-1.30000e+00	7.301267e-04	
362	-1.35000e+00	7.438234e-04	
363	-1.40000e+00	7.564888e-04	
364	-1.45000e+00	7.681285e-04	
365	-1.50000e+00	7.787495e-04	
366	-1.55000e+00	7.883604e-04	
367	-1.60000e+00	7.969733e-04	
368	-1.65000e+00	8.046048e-04	
369	-1.70000e+00	8.112800e-04	
370	-1.75000e+00	8.170360e-04	
371	-1.80000e+00	8.219283e-04	
372	-1.85000e+00	8.260357e-04	
373	-1.90000e+00	8.294599e-04	
374	-1.95000e+00	8.323180e-04	
375	-2.00000e+00	8.347265e-04	
376	-2.05000e+00	8.367876e-04	
377	-2.10000e+00	8.385823e-04	
378	-2.15000e+00	8.401709e-04	
379	-2.20000e+00	8.415973e-04	
380	-2.25000e+00	8.428931e-04	
381	-2.30000e+00	8.440817e-04	
382	-2.35000e+00	8.451806e-04	
383	-2.40000e+00	8.462033e-04	
384	-2.45000e+00	8.471603e-04	
385	-2.50000e+00	8.480600e-04	
386	-2.55000e+00	8.489093e-04	
387	-2.60000e+00	8.497137e-04	
388	-2.65000e+00	8.504781e-04	
389	-2.70000e+00	8.512063e-04	
390	-2.75000e+00	8.519018e-04	
391	-2.80000e+00	8.525675e-04	
392	-2.85000e+00	8.532060e-04	
393	-2.90000e+00	8.538195e-04	
394	-2.95000e+00	8.544100e-04	
395	-3.00000e+00	8.549792e-04	
396	-3.05000e+00	8.555286e-04	
397	-3.10000e+00	8.560596e-04	
398	-3.15000e+00	8.565734e-04	
399	-3.20000e+00	8.570713e-04	
400	-3.25000e+00	8.575541e-04	
401	-3.30000e+00	8.580228e-04	
Note: No ".plot", ".print", or ".fourier" lines; no simulations run
