
Note: Compatibility modes selected: hs

Warning: m=xx on .subckt line will override multiplier m hierarchy!


Circuit: ***************************

Doing analysis at TEMP = 25.000000 and TNOM = 25.000000


No. of Data Rows : 402
                          ***************************
                          DC transfer characteristic  Mon Jan  9 13:58:23  2023
--------------------------------------------------------------------------------
Index   v-sweep         i(vds)          
--------------------------------------------------------------------------------
0	0.000000e+00	1.227969e-24	
1	-5.00000e-02	3.228006e-09	
2	-1.00000e-01	3.980847e-09	
3	-1.50000e-01	4.094076e-09	
4	-2.00000e-01	4.122243e-09	
5	-2.50000e-01	4.133825e-09	
6	-3.00000e-01	4.140335e-09	
7	-3.50000e-01	4.144774e-09	
8	-4.00000e-01	4.148190e-09	
9	-4.50000e-01	4.151027e-09	
10	-5.00000e-01	4.153499e-09	
11	-5.50000e-01	4.155725e-09	
12	-6.00000e-01	4.157773e-09	
13	-6.50000e-01	4.159687e-09	
14	-7.00000e-01	4.161495e-09	
15	-7.50000e-01	4.163217e-09	
16	-8.00000e-01	4.164868e-09	
17	-8.50000e-01	4.166460e-09	
18	-9.00000e-01	4.167999e-09	
19	-9.50000e-01	4.169494e-09	
20	-1.00000e+00	4.170948e-09	
21	-1.05000e+00	4.172367e-09	
22	-1.10000e+00	4.173754e-09	
23	-1.15000e+00	4.175113e-09	
24	-1.20000e+00	4.176445e-09	
25	-1.25000e+00	4.177753e-09	
26	-1.30000e+00	4.179039e-09	
27	-1.35000e+00	4.180305e-09	
28	-1.40000e+00	4.181552e-09	
29	-1.45000e+00	4.182782e-09	
30	-1.50000e+00	4.183995e-09	
31	-1.55000e+00	4.185193e-09	
32	-1.60000e+00	4.186376e-09	
33	-1.65000e+00	4.187546e-09	
34	-1.70000e+00	4.188703e-09	
35	-1.75000e+00	4.189849e-09	
36	-1.80000e+00	4.190983e-09	
37	-1.85000e+00	4.192106e-09	
38	-1.90000e+00	4.193219e-09	
39	-1.95000e+00	4.194323e-09	
40	-2.00000e+00	4.195418e-09	
41	-2.05000e+00	4.196504e-09	
42	-2.10000e+00	4.197582e-09	
43	-2.15000e+00	4.198653e-09	
44	-2.20000e+00	4.199716e-09	
45	-2.25000e+00	4.200774e-09	
46	-2.30000e+00	4.201826e-09	
47	-2.35000e+00	4.202873e-09	
48	-2.40000e+00	4.203917e-09	
49	-2.45000e+00	4.204959e-09	
50	-2.50000e+00	4.206000e-09	
51	-2.55000e+00	4.207042e-09	
52	-2.60000e+00	4.208089e-09	
53	-2.65000e+00	4.209143e-09	
54	-2.70000e+00	4.210208e-09	

Index   v-sweep         i(vds)          
--------------------------------------------------------------------------------
55	-2.75000e+00	4.211289e-09	
56	-2.80000e+00	4.212392e-09	
57	-2.85000e+00	4.213524e-09	
58	-2.90000e+00	4.214694e-09	
59	-2.95000e+00	4.215912e-09	
60	-3.00000e+00	4.217191e-09	
61	-3.05000e+00	4.218545e-09	
62	-3.10000e+00	4.219991e-09	
63	-3.15000e+00	4.221549e-09	
64	-3.20000e+00	4.223243e-09	
65	-3.25000e+00	4.225099e-09	
66	-3.30000e+00	4.227149e-09	
67	0.000000e+00	1.054881e-23	
68	-5.00000e-02	4.361741e-08	
69	-1.00000e-01	8.102961e-08	
70	-1.50000e-01	1.122551e-07	
71	-2.00000e-01	1.373316e-07	
72	-2.50000e-01	1.563476e-07	
73	-3.00000e-01	1.695311e-07	
74	-3.50000e-01	1.774806e-07	
75	-4.00000e-01	1.814803e-07	
76	-4.50000e-01	1.832457e-07	
77	-5.00000e-01	1.840412e-07	
78	-5.50000e-01	1.844510e-07	
79	-6.00000e-01	1.846968e-07	
80	-6.50000e-01	1.848645e-07	
81	-7.00000e-01	1.849902e-07	
82	-7.50000e-01	1.850911e-07	
83	-8.00000e-01	1.851759e-07	
84	-8.50000e-01	1.852498e-07	
85	-9.00000e-01	1.853156e-07	
86	-9.50000e-01	1.853753e-07	
87	-1.00000e+00	1.854303e-07	
88	-1.05000e+00	1.854814e-07	
89	-1.10000e+00	1.855292e-07	
90	-1.15000e+00	1.855743e-07	
91	-1.20000e+00	1.856170e-07	
92	-1.25000e+00	1.856577e-07	
93	-1.30000e+00	1.856965e-07	
94	-1.35000e+00	1.857338e-07	
95	-1.40000e+00	1.857696e-07	
96	-1.45000e+00	1.858041e-07	
97	-1.50000e+00	1.858374e-07	
98	-1.55000e+00	1.858696e-07	
99	-1.60000e+00	1.859009e-07	
100	-1.65000e+00	1.859312e-07	
101	-1.70000e+00	1.859606e-07	
102	-1.75000e+00	1.859892e-07	
103	-1.80000e+00	1.860171e-07	
104	-1.85000e+00	1.860444e-07	
105	-1.90000e+00	1.860709e-07	
106	-1.95000e+00	1.860969e-07	
107	-2.00000e+00	1.861223e-07	
108	-2.05000e+00	1.861471e-07	
109	-2.10000e+00	1.861714e-07	
110	-2.15000e+00	1.861953e-07	
111	-2.20000e+00	1.862187e-07	
112	-2.25000e+00	1.862416e-07	

Index   v-sweep         i(vds)          
--------------------------------------------------------------------------------
113	-2.30000e+00	1.862641e-07	
114	-2.35000e+00	1.862863e-07	
115	-2.40000e+00	1.863081e-07	
116	-2.45000e+00	1.863295e-07	
117	-2.50000e+00	1.863507e-07	
118	-2.55000e+00	1.863715e-07	
119	-2.60000e+00	1.863921e-07	
120	-2.65000e+00	1.864125e-07	
121	-2.70000e+00	1.864327e-07	
122	-2.75000e+00	1.864528e-07	
123	-2.80000e+00	1.864729e-07	
124	-2.85000e+00	1.864930e-07	
125	-2.90000e+00	1.865132e-07	
126	-2.95000e+00	1.865337e-07	
127	-3.00000e+00	1.865547e-07	
128	-3.05000e+00	1.865764e-07	
129	-3.10000e+00	1.865989e-07	
130	-3.15000e+00	1.866227e-07	
131	-3.20000e+00	1.866480e-07	
132	-3.25000e+00	1.866754e-07	
133	-3.30000e+00	1.867054e-07	
134	0.000000e+00	8.489369e-23	
135	-5.00000e-02	8.571780e-08	
136	-1.00000e-01	1.652698e-07	
137	-1.50000e-01	2.386591e-07	
138	-2.00000e-01	3.058897e-07	
139	-2.50000e-01	3.669665e-07	
140	-3.00000e-01	4.218962e-07	
141	-3.50000e-01	4.706888e-07	
142	-4.00000e-01	5.133600e-07	
143	-4.50000e-01	5.499361e-07	
144	-5.00000e-01	5.804648e-07	
145	-5.50000e-01	6.050381e-07	
146	-6.00000e-01	6.238420e-07	
147	-6.50000e-01	6.372567e-07	
148	-7.00000e-01	6.460046e-07	
149	-7.50000e-01	6.512108e-07	
150	-8.00000e-01	6.541503e-07	
151	-8.50000e-01	6.558363e-07	
152	-9.00000e-01	6.568733e-07	
153	-9.50000e-01	6.575706e-07	
154	-1.00000e+00	6.580797e-07	
155	-1.05000e+00	6.584772e-07	
156	-1.10000e+00	6.588037e-07	
157	-1.15000e+00	6.590820e-07	
158	-1.20000e+00	6.593260e-07	
159	-1.25000e+00	6.595444e-07	
160	-1.30000e+00	6.597429e-07	
161	-1.35000e+00	6.599254e-07	
162	-1.40000e+00	6.600950e-07	
163	-1.45000e+00	6.602536e-07	
164	-1.50000e+00	6.604028e-07	
165	-1.55000e+00	6.605441e-07	
166	-1.60000e+00	6.606782e-07	
167	-1.65000e+00	6.608061e-07	
168	-1.70000e+00	6.609284e-07	
169	-1.75000e+00	6.610457e-07	
170	-1.80000e+00	6.611585e-07	

Index   v-sweep         i(vds)          
--------------------------------------------------------------------------------
171	-1.85000e+00	6.612671e-07	
172	-1.90000e+00	6.613719e-07	
173	-1.95000e+00	6.614732e-07	
174	-2.00000e+00	6.615713e-07	
175	-2.05000e+00	6.616664e-07	
176	-2.10000e+00	6.617587e-07	
177	-2.15000e+00	6.618485e-07	
178	-2.20000e+00	6.619358e-07	
179	-2.25000e+00	6.620208e-07	
180	-2.30000e+00	6.621037e-07	
181	-2.35000e+00	6.621845e-07	
182	-2.40000e+00	6.622635e-07	
183	-2.45000e+00	6.623407e-07	
184	-2.50000e+00	6.624161e-07	
185	-2.55000e+00	6.624900e-07	
186	-2.60000e+00	6.625623e-07	
187	-2.65000e+00	6.626332e-07	
188	-2.70000e+00	6.627028e-07	
189	-2.75000e+00	6.627710e-07	
190	-2.80000e+00	6.628381e-07	
191	-2.85000e+00	6.629041e-07	
192	-2.90000e+00	6.629691e-07	
193	-2.95000e+00	6.630331e-07	
194	-3.00000e+00	6.630965e-07	
195	-3.05000e+00	6.631593e-07	
196	-3.10000e+00	6.632217e-07	
197	-3.15000e+00	6.632840e-07	
198	-3.20000e+00	6.633465e-07	
199	-3.25000e+00	6.634097e-07	
200	-3.30000e+00	6.634739e-07	
201	0.000000e+00	-2.32230e-22	
202	-5.00000e-02	1.252906e-07	
203	-1.00000e-01	2.446613e-07	
204	-1.50000e-01	3.581143e-07	
205	-2.00000e-01	4.656516e-07	
206	-2.50000e-01	5.672754e-07	
207	-3.00000e-01	6.629880e-07	
208	-3.50000e-01	7.527922e-07	
209	-4.00000e-01	8.366909e-07	
210	-4.50000e-01	9.146875e-07	
211	-5.00000e-01	9.867865e-07	
212	-5.50000e-01	1.052993e-06	
213	-6.00000e-01	1.113315e-06	
214	-6.50000e-01	1.167762e-06	
215	-7.00000e-01	1.216350e-06	
216	-7.50000e-01	1.259102e-06	
217	-8.00000e-01	1.296056e-06	
218	-8.50000e-01	1.327277e-06	
219	-9.00000e-01	1.352879e-06	
220	-9.50000e-01	1.373068e-06	
221	-1.00000e+00	1.388212e-06	
222	-1.05000e+00	1.398918e-06	
223	-1.10000e+00	1.406065e-06	
224	-1.15000e+00	1.410664e-06	
225	-1.20000e+00	1.413628e-06	
226	-1.25000e+00	1.415610e-06	
227	-1.30000e+00	1.417015e-06	
228	-1.35000e+00	1.418071e-06	

Index   v-sweep         i(vds)          
--------------------------------------------------------------------------------
229	-1.40000e+00	1.418909e-06	
230	-1.45000e+00	1.419602e-06	
231	-1.50000e+00	1.420195e-06	
232	-1.55000e+00	1.420715e-06	
233	-1.60000e+00	1.421181e-06	
234	-1.65000e+00	1.421603e-06	
235	-1.70000e+00	1.421992e-06	
236	-1.75000e+00	1.422352e-06	
237	-1.80000e+00	1.422688e-06	
238	-1.85000e+00	1.423004e-06	
239	-1.90000e+00	1.423303e-06	
240	-1.95000e+00	1.423586e-06	
241	-2.00000e+00	1.423856e-06	
242	-2.05000e+00	1.424113e-06	
243	-2.10000e+00	1.424360e-06	
244	-2.15000e+00	1.424596e-06	
245	-2.20000e+00	1.424824e-06	
246	-2.25000e+00	1.425043e-06	
247	-2.30000e+00	1.425255e-06	
248	-2.35000e+00	1.425460e-06	
249	-2.40000e+00	1.425658e-06	
250	-2.45000e+00	1.425850e-06	
251	-2.50000e+00	1.426037e-06	
252	-2.55000e+00	1.426218e-06	
253	-2.60000e+00	1.426395e-06	
254	-2.65000e+00	1.426566e-06	
255	-2.70000e+00	1.426734e-06	
256	-2.75000e+00	1.426897e-06	
257	-2.80000e+00	1.427056e-06	
258	-2.85000e+00	1.427212e-06	
259	-2.90000e+00	1.427364e-06	
260	-2.95000e+00	1.427513e-06	
261	-3.00000e+00	1.427659e-06	
262	-3.05000e+00	1.427802e-06	
263	-3.10000e+00	1.427942e-06	
264	-3.15000e+00	1.428080e-06	
265	-3.20000e+00	1.428215e-06	
266	-3.25000e+00	1.428348e-06	
267	-3.30000e+00	1.428478e-06	
268	0.000000e+00	2.283359e-22	
269	-5.00000e-02	1.620956e-07	
270	-1.00000e-01	3.185700e-07	
271	-1.50000e-01	4.694247e-07	
272	-2.00000e-01	6.146618e-07	
273	-2.50000e-01	7.542828e-07	
274	-3.00000e-01	8.882897e-07	
275	-3.50000e-01	1.016684e-06	
276	-4.00000e-01	1.139469e-06	
277	-4.50000e-01	1.256644e-06	
278	-5.00000e-01	1.368214e-06	
279	-5.50000e-01	1.474179e-06	
280	-6.00000e-01	1.574543e-06	
281	-6.50000e-01	1.669308e-06	
282	-7.00000e-01	1.758477e-06	
283	-7.50000e-01	1.842053e-06	
284	-8.00000e-01	1.920041e-06	
285	-8.50000e-01	1.992445e-06	
286	-9.00000e-01	2.059272e-06	

Index   v-sweep         i(vds)          
--------------------------------------------------------------------------------
287	-9.50000e-01	2.120530e-06	
288	-1.00000e+00	2.176232e-06	
289	-1.05000e+00	2.226393e-06	
290	-1.10000e+00	2.271040e-06	
291	-1.15000e+00	2.310211e-06	
292	-1.20000e+00	2.343968e-06	
293	-1.25000e+00	2.372411e-06	
294	-1.30000e+00	2.395709e-06	
295	-1.35000e+00	2.414137e-06	
296	-1.40000e+00	2.428133e-06	
297	-1.45000e+00	2.438329e-06	
298	-1.50000e+00	2.445514e-06	
299	-1.55000e+00	2.450511e-06	
300	-1.60000e+00	2.454028e-06	
301	-1.65000e+00	2.456587e-06	
302	-1.70000e+00	2.458529e-06	
303	-1.75000e+00	2.460069e-06	
304	-1.80000e+00	2.461337e-06	
305	-1.85000e+00	2.462416e-06	
306	-1.90000e+00	2.463356e-06	
307	-1.95000e+00	2.464193e-06	
308	-2.00000e+00	2.464949e-06	
309	-2.05000e+00	2.465641e-06	
310	-2.10000e+00	2.466279e-06	
311	-2.15000e+00	2.466873e-06	
312	-2.20000e+00	2.467430e-06	
313	-2.25000e+00	2.467955e-06	
314	-2.30000e+00	2.468451e-06	
315	-2.35000e+00	2.468923e-06	
316	-2.40000e+00	2.469372e-06	
317	-2.45000e+00	2.469801e-06	
318	-2.50000e+00	2.470213e-06	
319	-2.55000e+00	2.470608e-06	
320	-2.60000e+00	2.470988e-06	
321	-2.65000e+00	2.471355e-06	
322	-2.70000e+00	2.471709e-06	
323	-2.75000e+00	2.472051e-06	
324	-2.80000e+00	2.472383e-06	
325	-2.85000e+00	2.472704e-06	
326	-2.90000e+00	2.473016e-06	
327	-2.95000e+00	2.473319e-06	
328	-3.00000e+00	2.473614e-06	
329	-3.05000e+00	2.473901e-06	
330	-3.10000e+00	2.474181e-06	
331	-3.15000e+00	2.474454e-06	
332	-3.20000e+00	2.474720e-06	
333	-3.25000e+00	2.474980e-06	
334	-3.30000e+00	2.475234e-06	
335	0.000000e+00	1.894927e-22	
336	-5.00000e-02	1.960915e-07	
337	-1.00000e-01	3.868754e-07	
338	-1.50000e-01	5.723534e-07	
339	-2.00000e-01	7.525272e-07	
340	-2.50000e-01	9.273984e-07	
341	-3.00000e-01	1.096969e-06	
342	-3.50000e-01	1.261240e-06	
343	-4.00000e-01	1.420214e-06	
344	-4.50000e-01	1.573892e-06	

Index   v-sweep         i(vds)          
--------------------------------------------------------------------------------
345	-5.00000e-01	1.722276e-06	
346	-5.50000e-01	1.865368e-06	
347	-6.00000e-01	2.003169e-06	
348	-6.50000e-01	2.135682e-06	
349	-7.00000e-01	2.262909e-06	
350	-7.50000e-01	2.384850e-06	
351	-8.00000e-01	2.501509e-06	
352	-8.50000e-01	2.612887e-06	
353	-9.00000e-01	2.718987e-06	
354	-9.50000e-01	2.819811e-06	
355	-1.00000e+00	2.915362e-06	
356	-1.05000e+00	3.005643e-06	
357	-1.10000e+00	3.090658e-06	
358	-1.15000e+00	3.170411e-06	
359	-1.20000e+00	3.244906e-06	
360	-1.25000e+00	3.314151e-06	
361	-1.30000e+00	3.378152e-06	
362	-1.35000e+00	3.436923e-06	
363	-1.40000e+00	3.490476e-06	
364	-1.45000e+00	3.538834e-06	
365	-1.50000e+00	3.582027e-06	
366	-1.55000e+00	3.620103e-06	
367	-1.60000e+00	3.653133e-06	
368	-1.65000e+00	3.681229e-06	
369	-1.70000e+00	3.704567e-06	
370	-1.75000e+00	3.723418e-06	
371	-1.80000e+00	3.738182e-06	
372	-1.85000e+00	3.749405e-06	
373	-1.90000e+00	3.757745e-06	
374	-1.95000e+00	3.763891e-06	
375	-2.00000e+00	3.768460e-06	
376	-2.05000e+00	3.771938e-06	
377	-2.10000e+00	3.774669e-06	
378	-2.15000e+00	3.776888e-06	
379	-2.20000e+00	3.778746e-06	
380	-2.25000e+00	3.780343e-06	
381	-2.30000e+00	3.781746e-06	
382	-2.35000e+00	3.782999e-06	
383	-2.40000e+00	3.784136e-06	
384	-2.45000e+00	3.785177e-06	
385	-2.50000e+00	3.786141e-06	
386	-2.55000e+00	3.787038e-06	
387	-2.60000e+00	3.787880e-06	
388	-2.65000e+00	3.788672e-06	
389	-2.70000e+00	3.789423e-06	
390	-2.75000e+00	3.790136e-06	
391	-2.80000e+00	3.790815e-06	
392	-2.85000e+00	3.791464e-06	
393	-2.90000e+00	3.792086e-06	
394	-2.95000e+00	3.792684e-06	
395	-3.00000e+00	3.793258e-06	
396	-3.05000e+00	3.793812e-06	
397	-3.10000e+00	3.794347e-06	
398	-3.15000e+00	3.794864e-06	
399	-3.20000e+00	3.795364e-06	
400	-3.25000e+00	3.795849e-06	
401	-3.30000e+00	3.796320e-06	
Note: No ".plot", ".print", or ".fourier" lines; no simulations run
