
Note: Compatibility modes selected: hs

Warning: m=xx on .subckt line will override multiplier m hierarchy!


Circuit: ***************************

Doing analysis at TEMP = 125.000000 and TNOM = 125.000000


No. of Data Rows : 402
                          ***************************
                          DC transfer characteristic  Mon Jan  9 13:58:24  2023
--------------------------------------------------------------------------------
Index   v-sweep         i(vds)          
--------------------------------------------------------------------------------
0	0.000000e+00	2.615223e-26	
1	-5.00000e-02	4.272501e-06	
2	-1.00000e-01	7.370076e-06	
3	-1.50000e-01	9.374638e-06	
4	-2.00000e-01	1.044797e-05	
5	-2.50000e-01	1.093808e-05	
6	-3.00000e-01	1.119953e-05	
7	-3.50000e-01	1.138976e-05	
8	-4.00000e-01	1.155409e-05	
9	-4.50000e-01	1.170603e-05	
10	-5.00000e-01	1.185055e-05	
11	-5.50000e-01	1.198992e-05	
12	-6.00000e-01	1.212537e-05	
13	-6.50000e-01	1.225770e-05	
14	-7.00000e-01	1.238743e-05	
15	-7.50000e-01	1.251496e-05	
16	-8.00000e-01	1.264062e-05	
17	-8.50000e-01	1.276464e-05	
18	-9.00000e-01	1.288724e-05	
19	-9.50000e-01	1.300859e-05	
20	-1.00000e+00	1.312885e-05	
21	-1.05000e+00	1.324813e-05	
22	-1.10000e+00	1.336655e-05	
23	-1.15000e+00	1.348422e-05	
24	-1.20000e+00	1.360121e-05	
25	-1.25000e+00	1.371760e-05	
26	-1.30000e+00	1.383347e-05	
27	-1.35000e+00	1.394887e-05	
28	-1.40000e+00	1.406386e-05	
29	-1.45000e+00	1.417849e-05	
30	-1.50000e+00	1.429281e-05	
31	-1.55000e+00	1.440686e-05	
32	-1.60000e+00	1.452068e-05	
33	-1.65000e+00	1.463430e-05	
34	-1.70000e+00	1.474775e-05	
35	-1.75000e+00	1.486107e-05	
36	-1.80000e+00	1.497428e-05	
37	-1.85000e+00	1.508740e-05	
38	-1.90000e+00	1.520047e-05	
39	-1.95000e+00	1.531350e-05	
40	-2.00000e+00	1.542652e-05	
41	-2.05000e+00	1.553954e-05	
42	-2.10000e+00	1.565258e-05	
43	-2.15000e+00	1.576568e-05	
44	-2.20000e+00	1.587883e-05	
45	-2.25000e+00	1.599207e-05	
46	-2.30000e+00	1.610542e-05	
47	-2.35000e+00	1.621889e-05	
48	-2.40000e+00	1.633252e-05	
49	-2.45000e+00	1.644633e-05	
50	-2.50000e+00	1.656035e-05	
51	-2.55000e+00	1.667463e-05	
52	-2.60000e+00	1.678919e-05	
53	-2.65000e+00	1.690409e-05	
54	-2.70000e+00	1.701938e-05	

Index   v-sweep         i(vds)          
--------------------------------------------------------------------------------
55	-2.75000e+00	1.713513e-05	
56	-2.80000e+00	1.725139e-05	
57	-2.85000e+00	1.736826e-05	
58	-2.90000e+00	1.748582e-05	
59	-2.95000e+00	1.760418e-05	
60	-3.00000e+00	1.772346e-05	
61	-3.05000e+00	1.784379e-05	
62	-3.10000e+00	1.796532e-05	
63	-3.15000e+00	1.808822e-05	
64	-3.20000e+00	1.821266e-05	
65	-3.25000e+00	1.833886e-05	
66	-3.30000e+00	1.846704e-05	
67	0.000000e+00	-1.21880e-21	
68	-5.00000e-02	1.607341e-05	
69	-1.00000e-01	3.077444e-05	
70	-1.50000e-01	4.414310e-05	
71	-2.00000e-01	5.620005e-05	
72	-2.50000e-01	6.696160e-05	
73	-3.00000e-01	7.644374e-05	
74	-3.50000e-01	8.466379e-05	
75	-4.00000e-01	9.164245e-05	
76	-4.50000e-01	9.740783e-05	
77	-5.00000e-01	1.020048e-04	
78	-5.50000e-01	1.055146e-04	
79	-6.00000e-01	1.080869e-04	
80	-6.50000e-01	1.099537e-04	
81	-7.00000e-01	1.113720e-04	
82	-7.50000e-01	1.125355e-04	
83	-8.00000e-01	1.135538e-04	
84	-8.50000e-01	1.144815e-04	
85	-9.00000e-01	1.153463e-04	
86	-9.50000e-01	1.161635e-04	
87	-1.00000e+00	1.169425e-04	
88	-1.05000e+00	1.176895e-04	
89	-1.10000e+00	1.184091e-04	
90	-1.15000e+00	1.191047e-04	
91	-1.20000e+00	1.197791e-04	
92	-1.25000e+00	1.204344e-04	
93	-1.30000e+00	1.210727e-04	
94	-1.35000e+00	1.216954e-04	
95	-1.40000e+00	1.223039e-04	
96	-1.45000e+00	1.228995e-04	
97	-1.50000e+00	1.234832e-04	
98	-1.55000e+00	1.240558e-04	
99	-1.60000e+00	1.246183e-04	
100	-1.65000e+00	1.251714e-04	
101	-1.70000e+00	1.257156e-04	
102	-1.75000e+00	1.262517e-04	
103	-1.80000e+00	1.267801e-04	
104	-1.85000e+00	1.273014e-04	
105	-1.90000e+00	1.278159e-04	
106	-1.95000e+00	1.283241e-04	
107	-2.00000e+00	1.288264e-04	
108	-2.05000e+00	1.293231e-04	
109	-2.10000e+00	1.298145e-04	
110	-2.15000e+00	1.303009e-04	
111	-2.20000e+00	1.307826e-04	
112	-2.25000e+00	1.312598e-04	

Index   v-sweep         i(vds)          
--------------------------------------------------------------------------------
113	-2.30000e+00	1.317328e-04	
114	-2.35000e+00	1.322018e-04	
115	-2.40000e+00	1.326669e-04	
116	-2.45000e+00	1.331285e-04	
117	-2.50000e+00	1.335867e-04	
118	-2.55000e+00	1.340416e-04	
119	-2.60000e+00	1.344936e-04	
120	-2.65000e+00	1.349426e-04	
121	-2.70000e+00	1.353891e-04	
122	-2.75000e+00	1.358331e-04	
123	-2.80000e+00	1.362749e-04	
124	-2.85000e+00	1.367147e-04	
125	-2.90000e+00	1.371528e-04	
126	-2.95000e+00	1.375894e-04	
127	-3.00000e+00	1.380250e-04	
128	-3.05000e+00	1.384599e-04	
129	-3.10000e+00	1.388945e-04	
130	-3.15000e+00	1.393293e-04	
131	-3.20000e+00	1.397648e-04	
132	-3.25000e+00	1.402017e-04	
133	-3.30000e+00	1.406406e-04	
134	0.000000e+00	-5.79832e-21	
135	-5.00000e-02	2.518720e-05	
136	-1.00000e-01	4.908225e-05	
137	-1.50000e-01	7.172027e-05	
138	-2.00000e-01	9.311758e-05	
139	-2.50000e-01	1.132859e-04	
140	-3.00000e-01	1.322358e-04	
141	-3.50000e-01	1.499775e-04	
142	-4.00000e-01	1.665216e-04	
143	-4.50000e-01	1.818783e-04	
144	-5.00000e-01	1.960583e-04	
145	-5.50000e-01	2.090725e-04	
146	-6.00000e-01	2.209325e-04	
147	-6.50000e-01	2.316506e-04	
148	-7.00000e-01	2.412408e-04	
149	-7.50000e-01	2.497200e-04	
150	-8.00000e-01	2.571103e-04	
151	-8.50000e-01	2.634440e-04	
152	-9.00000e-01	2.687724e-04	
153	-9.50000e-01	2.731786e-04	
154	-1.00000e+00	2.767907e-04	
155	-1.05000e+00	2.797772e-04	
156	-1.10000e+00	2.823128e-04	
157	-1.15000e+00	2.845399e-04	
158	-1.20000e+00	2.865544e-04	
159	-1.25000e+00	2.884156e-04	
160	-1.30000e+00	2.901593e-04	
161	-1.35000e+00	2.918086e-04	
162	-1.40000e+00	2.933791e-04	
163	-1.45000e+00	2.948819e-04	
164	-1.50000e+00	2.963257e-04	
165	-1.55000e+00	2.977170e-04	
166	-1.60000e+00	2.990614e-04	
167	-1.65000e+00	3.003635e-04	
168	-1.70000e+00	3.016270e-04	
169	-1.75000e+00	3.028554e-04	
170	-1.80000e+00	3.040515e-04	

Index   v-sweep         i(vds)          
--------------------------------------------------------------------------------
171	-1.85000e+00	3.052178e-04	
172	-1.90000e+00	3.063567e-04	
173	-1.95000e+00	3.074700e-04	
174	-2.00000e+00	3.085596e-04	
175	-2.05000e+00	3.096270e-04	
176	-2.10000e+00	3.106738e-04	
177	-2.15000e+00	3.117011e-04	
178	-2.20000e+00	3.127103e-04	
179	-2.25000e+00	3.137023e-04	
180	-2.30000e+00	3.146782e-04	
181	-2.35000e+00	3.156389e-04	
182	-2.40000e+00	3.165852e-04	
183	-2.45000e+00	3.175179e-04	
184	-2.50000e+00	3.184377e-04	
185	-2.55000e+00	3.193453e-04	
186	-2.60000e+00	3.202412e-04	
187	-2.65000e+00	3.211261e-04	
188	-2.70000e+00	3.220005e-04	
189	-2.75000e+00	3.228649e-04	
190	-2.80000e+00	3.237197e-04	
191	-2.85000e+00	3.245655e-04	
192	-2.90000e+00	3.254026e-04	
193	-2.95000e+00	3.262316e-04	
194	-3.00000e+00	3.270529e-04	
195	-3.05000e+00	3.278669e-04	
196	-3.10000e+00	3.286740e-04	
197	-3.15000e+00	3.294749e-04	
198	-3.20000e+00	3.302699e-04	
199	-3.25000e+00	3.310598e-04	
200	-3.30000e+00	3.318450e-04	
201	0.000000e+00	-8.65630e-21	
202	-5.00000e-02	3.225005e-05	
203	-1.00000e-01	6.330665e-05	
204	-1.50000e-01	9.320173e-05	
205	-2.00000e-01	1.219490e-04	
206	-2.50000e-01	1.495578e-04	
207	-3.00000e-01	1.760360e-04	
208	-3.50000e-01	2.013914e-04	
209	-4.00000e-01	2.256319e-04	
210	-4.50000e-01	2.487650e-04	
211	-5.00000e-01	2.707985e-04	
212	-5.50000e-01	2.917402e-04	
213	-6.00000e-01	3.115978e-04	
214	-6.50000e-01	3.303793e-04	
215	-7.00000e-01	3.480924e-04	
216	-7.50000e-01	3.647453e-04	
217	-8.00000e-01	3.803460e-04	
218	-8.50000e-01	3.949030e-04	
219	-9.00000e-01	4.084250e-04	
220	-9.50000e-01	4.209213e-04	
221	-1.00000e+00	4.324021e-04	
222	-1.05000e+00	4.428790e-04	
223	-1.10000e+00	4.523660e-04	
224	-1.15000e+00	4.608813e-04	
225	-1.20000e+00	4.684504e-04	
226	-1.25000e+00	4.751107e-04	
227	-1.30000e+00	4.809191e-04	
228	-1.35000e+00	4.859592e-04	

Index   v-sweep         i(vds)          
--------------------------------------------------------------------------------
229	-1.40000e+00	4.903431e-04	
230	-1.45000e+00	4.941994e-04	
231	-1.50000e+00	4.976511e-04	
232	-1.55000e+00	5.007976e-04	
233	-1.60000e+00	5.037105e-04	
234	-1.65000e+00	5.064388e-04	
235	-1.70000e+00	5.090162e-04	
236	-1.75000e+00	5.114663e-04	
237	-1.80000e+00	5.138066e-04	
238	-1.85000e+00	5.160504e-04	
239	-1.90000e+00	5.182086e-04	
240	-1.95000e+00	5.202897e-04	
241	-2.00000e+00	5.223011e-04	
242	-2.05000e+00	5.242490e-04	
243	-2.10000e+00	5.261387e-04	
244	-2.15000e+00	5.279750e-04	
245	-2.20000e+00	5.297618e-04	
246	-2.25000e+00	5.315028e-04	
247	-2.30000e+00	5.332013e-04	
248	-2.35000e+00	5.348601e-04	
249	-2.40000e+00	5.364819e-04	
250	-2.45000e+00	5.380690e-04	
251	-2.50000e+00	5.396235e-04	
252	-2.55000e+00	5.411475e-04	
253	-2.60000e+00	5.426425e-04	
254	-2.65000e+00	5.441104e-04	
255	-2.70000e+00	5.455526e-04	
256	-2.75000e+00	5.469704e-04	
257	-2.80000e+00	5.483651e-04	
258	-2.85000e+00	5.497380e-04	
259	-2.90000e+00	5.510900e-04	
260	-2.95000e+00	5.524223e-04	
261	-3.00000e+00	5.537357e-04	
262	-3.05000e+00	5.550311e-04	
263	-3.10000e+00	5.563095e-04	
264	-3.15000e+00	5.575715e-04	
265	-3.20000e+00	5.588179e-04	
266	-3.25000e+00	5.600496e-04	
267	-3.30000e+00	5.612671e-04	
268	0.000000e+00	-6.03931e-21	
269	-5.00000e-02	3.788375e-05	
270	-1.00000e-01	7.466613e-05	
271	-1.50000e-01	1.103768e-04	
272	-2.00000e-01	1.450279e-04	
273	-2.50000e-01	1.786269e-04	
274	-3.00000e-01	2.111800e-04	
275	-3.50000e-01	2.426935e-04	
276	-4.00000e-01	2.731734e-04	
277	-4.50000e-01	3.026256e-04	
278	-5.00000e-01	3.310562e-04	
279	-5.50000e-01	3.584713e-04	
280	-6.00000e-01	3.848769e-04	
281	-6.50000e-01	4.102791e-04	
282	-7.00000e-01	4.346839e-04	
283	-7.50000e-01	4.580974e-04	
284	-8.00000e-01	4.805258e-04	
285	-8.50000e-01	5.019752e-04	
286	-9.00000e-01	5.224518e-04	

Index   v-sweep         i(vds)          
--------------------------------------------------------------------------------
287	-9.50000e-01	5.419618e-04	
288	-1.00000e+00	5.605114e-04	
289	-1.05000e+00	5.781070e-04	
290	-1.10000e+00	5.947552e-04	
291	-1.15000e+00	6.104625e-04	
292	-1.20000e+00	6.252358e-04	
293	-1.25000e+00	6.390824e-04	
294	-1.30000e+00	6.520100e-04	
295	-1.35000e+00	6.640274e-04	
296	-1.40000e+00	6.751443e-04	
297	-1.45000e+00	6.853729e-04	
298	-1.50000e+00	6.947286e-04	
299	-1.55000e+00	7.032324e-04	
300	-1.60000e+00	7.109140e-04	
301	-1.65000e+00	7.178165e-04	
302	-1.70000e+00	7.240008e-04	
303	-1.75000e+00	7.295473e-04	
304	-1.80000e+00	7.345510e-04	
305	-1.85000e+00	7.391096e-04	
306	-1.90000e+00	7.433101e-04	
307	-1.95000e+00	7.472223e-04	
308	-2.00000e+00	7.508985e-04	
309	-2.05000e+00	7.543772e-04	
310	-2.10000e+00	7.576870e-04	
311	-2.15000e+00	7.608494e-04	
312	-2.20000e+00	7.638817e-04	
313	-2.25000e+00	7.667976e-04	
314	-2.30000e+00	7.696084e-04	
315	-2.35000e+00	7.723237e-04	
316	-2.40000e+00	7.749517e-04	
317	-2.45000e+00	7.774995e-04	
318	-2.50000e+00	7.799734e-04	
319	-2.55000e+00	7.823788e-04	
320	-2.60000e+00	7.847207e-04	
321	-2.65000e+00	7.870033e-04	
322	-2.70000e+00	7.892306e-04	
323	-2.75000e+00	7.914062e-04	
324	-2.80000e+00	7.935332e-04	
325	-2.85000e+00	7.956145e-04	
326	-2.90000e+00	7.976528e-04	
327	-2.95000e+00	7.996506e-04	
328	-3.00000e+00	8.016101e-04	
329	-3.05000e+00	8.035333e-04	
330	-3.10000e+00	8.054221e-04	
331	-3.15000e+00	8.072782e-04	
332	-3.20000e+00	8.091034e-04	
333	-3.25000e+00	8.108991e-04	
334	-3.30000e+00	8.126666e-04	
335	0.000000e+00	3.794657e-19	
336	-5.00000e-02	4.248807e-05	
337	-1.00000e-01	8.395635e-05	
338	-1.50000e-01	1.244329e-04	
339	-2.00000e-01	1.639286e-04	
340	-2.50000e-01	2.024497e-04	
341	-3.00000e-01	2.400014e-04	
342	-3.50000e-01	2.765885e-04	
343	-4.00000e-01	3.122160e-04	
344	-4.50000e-01	3.468887e-04	

Index   v-sweep         i(vds)          
--------------------------------------------------------------------------------
345	-5.00000e-01	3.806114e-04	
346	-5.50000e-01	4.133889e-04	
347	-6.00000e-01	4.452262e-04	
348	-6.50000e-01	4.761281e-04	
349	-7.00000e-01	5.060995e-04	
350	-7.50000e-01	5.351453e-04	
351	-8.00000e-01	5.632703e-04	
352	-8.50000e-01	5.904795e-04	
353	-9.00000e-01	6.167778e-04	
354	-9.50000e-01	6.421701e-04	
355	-1.00000e+00	6.666615e-04	
356	-1.05000e+00	6.902568e-04	
357	-1.10000e+00	7.129610e-04	
358	-1.15000e+00	7.347791e-04	
359	-1.20000e+00	7.557161e-04	
360	-1.25000e+00	7.757772e-04	
361	-1.30000e+00	7.949675e-04	
362	-1.35000e+00	8.132920e-04	
363	-1.40000e+00	8.307561e-04	
364	-1.45000e+00	8.473653e-04	
365	-1.50000e+00	8.631249e-04	
366	-1.55000e+00	8.780409e-04	
367	-1.60000e+00	8.921195e-04	
368	-1.65000e+00	9.053673e-04	
369	-1.70000e+00	9.177918e-04	
370	-1.75000e+00	9.294017e-04	
371	-1.80000e+00	9.402076e-04	
372	-1.85000e+00	9.502229e-04	
373	-1.90000e+00	9.594655e-04	
374	-1.95000e+00	9.679603e-04	
375	-2.00000e+00	9.757415e-04	
376	-2.05000e+00	9.828566e-04	
377	-2.10000e+00	9.893668e-04	
378	-2.15000e+00	9.953446e-04	
379	-2.20000e+00	1.000867e-03	
380	-2.25000e+00	1.006006e-03	
381	-2.30000e+00	1.010825e-03	
382	-2.35000e+00	1.015374e-03	
383	-2.40000e+00	1.019690e-03	
384	-2.45000e+00	1.023805e-03	
385	-2.50000e+00	1.027742e-03	
386	-2.55000e+00	1.031522e-03	
387	-2.60000e+00	1.035158e-03	
388	-2.65000e+00	1.038665e-03	
389	-2.70000e+00	1.042054e-03	
390	-2.75000e+00	1.045335e-03	
391	-2.80000e+00	1.048516e-03	
392	-2.85000e+00	1.051605e-03	
393	-2.90000e+00	1.054607e-03	
394	-2.95000e+00	1.057530e-03	
395	-3.00000e+00	1.060379e-03	
396	-3.05000e+00	1.063157e-03	
397	-3.10000e+00	1.065870e-03	
398	-3.15000e+00	1.068522e-03	
399	-3.20000e+00	1.071116e-03	
400	-3.25000e+00	1.073655e-03	
401	-3.30000e+00	1.076142e-03	
Note: No ".plot", ".print", or ".fourier" lines; no simulations run
