
Note: Compatibility modes selected: hs

Warning: m=xx on .subckt line will override multiplier m hierarchy!


Circuit: ***************************

Doing analysis at TEMP = -40.000000 and TNOM = -40.000000


No. of Data Rows : 402
                          ***************************
                          DC transfer characteristic  Mon Jan  9 13:58:24  2023
--------------------------------------------------------------------------------
Index   v-sweep         i(vds)          
--------------------------------------------------------------------------------
0	0.000000e+00	4.801472e-24	
1	-5.00000e-02	9.845638e-08	
2	-1.00000e-01	1.235955e-07	
3	-1.50000e-01	1.303897e-07	
4	-2.00000e-01	1.347073e-07	
5	-2.50000e-01	1.385022e-07	
6	-3.00000e-01	1.421169e-07	
7	-3.50000e-01	1.456487e-07	
8	-4.00000e-01	1.491366e-07	
9	-4.50000e-01	1.526005e-07	
10	-5.00000e-01	1.560524e-07	
11	-5.50000e-01	1.595007e-07	
12	-6.00000e-01	1.629515e-07	
13	-6.50000e-01	1.664095e-07	
14	-7.00000e-01	1.698786e-07	
15	-7.50000e-01	1.733619e-07	
16	-8.00000e-01	1.768624e-07	
17	-8.50000e-01	1.803822e-07	
18	-9.00000e-01	1.839234e-07	
19	-9.50000e-01	1.874879e-07	
20	-1.00000e+00	1.910774e-07	
21	-1.05000e+00	1.946931e-07	
22	-1.10000e+00	1.983365e-07	
23	-1.15000e+00	2.020087e-07	
24	-1.20000e+00	2.057109e-07	
25	-1.25000e+00	2.094441e-07	
26	-1.30000e+00	2.132091e-07	
27	-1.35000e+00	2.170069e-07	
28	-1.40000e+00	2.208382e-07	
29	-1.45000e+00	2.247038e-07	
30	-1.50000e+00	2.286045e-07	
31	-1.55000e+00	2.325408e-07	
32	-1.60000e+00	2.365135e-07	
33	-1.65000e+00	2.405231e-07	
34	-1.70000e+00	2.445702e-07	
35	-1.75000e+00	2.486554e-07	
36	-1.80000e+00	2.527791e-07	
37	-1.85000e+00	2.569420e-07	
38	-1.90000e+00	2.611444e-07	
39	-1.95000e+00	2.653870e-07	
40	-2.00000e+00	2.696702e-07	
41	-2.05000e+00	2.739945e-07	
42	-2.10000e+00	2.783605e-07	
43	-2.15000e+00	2.827687e-07	
44	-2.20000e+00	2.872196e-07	
45	-2.25000e+00	2.917140e-07	
46	-2.30000e+00	2.962525e-07	
47	-2.35000e+00	3.008358e-07	
48	-2.40000e+00	3.054648e-07	
49	-2.45000e+00	3.101405e-07	
50	-2.50000e+00	3.148639e-07	
51	-2.55000e+00	3.196362e-07	
52	-2.60000e+00	3.244590e-07	
53	-2.65000e+00	3.293337e-07	
54	-2.70000e+00	3.342623e-07	

Index   v-sweep         i(vds)          
--------------------------------------------------------------------------------
55	-2.75000e+00	3.392468e-07	
56	-2.80000e+00	3.442895e-07	
57	-2.85000e+00	3.493933e-07	
58	-2.90000e+00	3.545610e-07	
59	-2.95000e+00	3.597962e-07	
60	-3.00000e+00	3.651028e-07	
61	-3.05000e+00	3.704850e-07	
62	-3.10000e+00	3.759477e-07	
63	-3.15000e+00	3.814962e-07	
64	-3.20000e+00	3.871364e-07	
65	-3.25000e+00	3.928750e-07	
66	-3.30000e+00	3.987192e-07	
67	0.000000e+00	-3.77175e-22	
68	-5.00000e-02	1.873379e-06	
69	-1.00000e-01	3.539735e-06	
70	-1.50000e-01	5.002124e-06	
71	-2.00000e-01	6.263758e-06	
72	-2.50000e-01	7.328196e-06	
73	-3.00000e-01	8.199822e-06	
74	-3.50000e-01	8.885055e-06	
75	-4.00000e-01	9.395433e-06	
76	-4.50000e-01	9.753859e-06	
77	-5.00000e-01	9.999602e-06	
78	-5.50000e-01	1.017804e-05	
79	-6.00000e-01	1.032171e-05	
80	-6.50000e-01	1.044700e-05	
81	-7.00000e-01	1.056123e-05	
82	-7.50000e-01	1.066781e-05	
83	-8.00000e-01	1.076860e-05	
84	-8.50000e-01	1.086468e-05	
85	-9.00000e-01	1.095683e-05	
86	-9.50000e-01	1.104558e-05	
87	-1.00000e+00	1.113135e-05	
88	-1.05000e+00	1.121449e-05	
89	-1.10000e+00	1.129527e-05	
90	-1.15000e+00	1.137392e-05	
91	-1.20000e+00	1.145065e-05	
92	-1.25000e+00	1.152563e-05	
93	-1.30000e+00	1.159900e-05	
94	-1.35000e+00	1.167091e-05	
95	-1.40000e+00	1.174145e-05	
96	-1.45000e+00	1.181075e-05	
97	-1.50000e+00	1.187889e-05	
98	-1.55000e+00	1.194595e-05	
99	-1.60000e+00	1.201200e-05	
100	-1.65000e+00	1.207712e-05	
101	-1.70000e+00	1.214137e-05	
102	-1.75000e+00	1.220480e-05	
103	-1.80000e+00	1.226746e-05	
104	-1.85000e+00	1.232940e-05	
105	-1.90000e+00	1.239066e-05	
106	-1.95000e+00	1.245129e-05	
107	-2.00000e+00	1.251131e-05	
108	-2.05000e+00	1.257076e-05	
109	-2.10000e+00	1.262968e-05	
110	-2.15000e+00	1.268808e-05	
111	-2.20000e+00	1.274601e-05	
112	-2.25000e+00	1.280348e-05	

Index   v-sweep         i(vds)          
--------------------------------------------------------------------------------
113	-2.30000e+00	1.286052e-05	
114	-2.35000e+00	1.291715e-05	
115	-2.40000e+00	1.297340e-05	
116	-2.45000e+00	1.302929e-05	
117	-2.50000e+00	1.308484e-05	
118	-2.55000e+00	1.314007e-05	
119	-2.60000e+00	1.319501e-05	
120	-2.65000e+00	1.324967e-05	
121	-2.70000e+00	1.330410e-05	
122	-2.75000e+00	1.335831e-05	
123	-2.80000e+00	1.341234e-05	
124	-2.85000e+00	1.346622e-05	
125	-2.90000e+00	1.351999e-05	
126	-2.95000e+00	1.357369e-05	
127	-3.00000e+00	1.362737e-05	
128	-3.05000e+00	1.368108e-05	
129	-3.10000e+00	1.373489e-05	
130	-3.15000e+00	1.378886e-05	
131	-3.20000e+00	1.384307e-05	
132	-3.25000e+00	1.389761e-05	
133	-3.30000e+00	1.395257e-05	
134	0.000000e+00	-9.01961e-22	
135	-5.00000e-02	3.293344e-06	
136	-1.00000e-01	6.392906e-06	
137	-1.50000e-01	9.300697e-06	
138	-2.00000e-01	1.201873e-05	
139	-2.50000e-01	1.454905e-05	
140	-3.00000e-01	1.689367e-05	
141	-3.50000e-01	1.905468e-05	
142	-4.00000e-01	2.103417e-05	
143	-4.50000e-01	2.283431e-05	
144	-5.00000e-01	2.445737e-05	
145	-5.50000e-01	2.590584e-05	
146	-6.00000e-01	2.718256e-05	
147	-6.50000e-01	2.829111e-05	
148	-7.00000e-01	2.923651e-05	
149	-7.50000e-01	3.002664e-05	
150	-8.00000e-01	3.067458e-05	
151	-8.50000e-01	3.120114e-05	
152	-9.00000e-01	3.163402e-05	
153	-9.50000e-01	3.200140e-05	
154	-1.00000e+00	3.232504e-05	
155	-1.05000e+00	3.261874e-05	
156	-1.10000e+00	3.289064e-05	
157	-1.15000e+00	3.314559e-05	
158	-1.20000e+00	3.338671e-05	
159	-1.25000e+00	3.361614e-05	
160	-1.30000e+00	3.383546e-05	
161	-1.35000e+00	3.404590e-05	
162	-1.40000e+00	3.424843e-05	
163	-1.45000e+00	3.444387e-05	
164	-1.50000e+00	3.463290e-05	
165	-1.55000e+00	3.481609e-05	
166	-1.60000e+00	3.499395e-05	
167	-1.65000e+00	3.516691e-05	
168	-1.70000e+00	3.533537e-05	
169	-1.75000e+00	3.549965e-05	
170	-1.80000e+00	3.566007e-05	

Index   v-sweep         i(vds)          
--------------------------------------------------------------------------------
171	-1.85000e+00	3.581690e-05	
172	-1.90000e+00	3.597037e-05	
173	-1.95000e+00	3.612071e-05	
174	-2.00000e+00	3.626811e-05	
175	-2.05000e+00	3.641277e-05	
176	-2.10000e+00	3.655484e-05	
177	-2.15000e+00	3.669447e-05	
178	-2.20000e+00	3.683181e-05	
179	-2.25000e+00	3.696697e-05	
180	-2.30000e+00	3.710009e-05	
181	-2.35000e+00	3.723125e-05	
182	-2.40000e+00	3.736058e-05	
183	-2.45000e+00	3.748815e-05	
184	-2.50000e+00	3.761405e-05	
185	-2.55000e+00	3.773838e-05	
186	-2.60000e+00	3.786119e-05	
187	-2.65000e+00	3.798257e-05	
188	-2.70000e+00	3.810259e-05	
189	-2.75000e+00	3.822131e-05	
190	-2.80000e+00	3.833880e-05	
191	-2.85000e+00	3.845511e-05	
192	-2.90000e+00	3.857033e-05	
193	-2.95000e+00	3.868450e-05	
194	-3.00000e+00	3.879771e-05	
195	-3.05000e+00	3.891001e-05	
196	-3.10000e+00	3.902150e-05	
197	-3.15000e+00	3.913225e-05	
198	-3.20000e+00	3.924235e-05	
199	-3.25000e+00	3.935192e-05	
200	-3.30000e+00	3.946105e-05	
201	0.000000e+00	-3.34774e-22	
202	-5.00000e-02	4.348642e-06	
203	-1.00000e-01	8.520850e-06	
204	-1.50000e-01	1.251806e-05	
205	-2.00000e-01	1.634170e-05	
206	-2.50000e-01	1.999323e-05	
207	-3.00000e-01	2.347409e-05	
208	-3.50000e-01	2.678575e-05	
209	-4.00000e-01	2.992965e-05	
210	-4.50000e-01	3.290728e-05	
211	-5.00000e-01	3.572011e-05	
212	-5.50000e-01	3.836962e-05	
213	-6.00000e-01	4.085733e-05	
214	-6.50000e-01	4.318476e-05	
215	-7.00000e-01	4.535346e-05	
216	-7.50000e-01	4.736505e-05	
217	-8.00000e-01	4.922120e-05	
218	-8.50000e-01	5.092374e-05	
219	-9.00000e-01	5.247468e-05	
220	-9.50000e-01	5.387642e-05	
221	-1.00000e+00	5.513201e-05	
222	-1.05000e+00	5.624566e-05	
223	-1.10000e+00	5.722363e-05	
224	-1.15000e+00	5.807549e-05	
225	-1.20000e+00	5.881533e-05	
226	-1.25000e+00	5.946155e-05	
227	-1.30000e+00	6.003419e-05	
228	-1.35000e+00	6.055109e-05	

Index   v-sweep         i(vds)          
--------------------------------------------------------------------------------
229	-1.40000e+00	6.102572e-05	
230	-1.45000e+00	6.146738e-05	
231	-1.50000e+00	6.188235e-05	
232	-1.55000e+00	6.227499e-05	
233	-1.60000e+00	6.264847e-05	
234	-1.65000e+00	6.300520e-05	
235	-1.70000e+00	6.334708e-05	
236	-1.75000e+00	6.367568e-05	
237	-1.80000e+00	6.399228e-05	
238	-1.85000e+00	6.429798e-05	
239	-1.90000e+00	6.459373e-05	
240	-1.95000e+00	6.488035e-05	
241	-2.00000e+00	6.515856e-05	
242	-2.05000e+00	6.542899e-05	
243	-2.10000e+00	6.569221e-05	
244	-2.15000e+00	6.594873e-05	
245	-2.20000e+00	6.619900e-05	
246	-2.25000e+00	6.644343e-05	
247	-2.30000e+00	6.668238e-05	
248	-2.35000e+00	6.691620e-05	
249	-2.40000e+00	6.714519e-05	
250	-2.45000e+00	6.736963e-05	
251	-2.50000e+00	6.758977e-05	
252	-2.55000e+00	6.780586e-05	
253	-2.60000e+00	6.801810e-05	
254	-2.65000e+00	6.822670e-05	
255	-2.70000e+00	6.843185e-05	
256	-2.75000e+00	6.863372e-05	
257	-2.80000e+00	6.883246e-05	
258	-2.85000e+00	6.902823e-05	
259	-2.90000e+00	6.922116e-05	
260	-2.95000e+00	6.941139e-05	
261	-3.00000e+00	6.959905e-05	
262	-3.05000e+00	6.978425e-05	
263	-3.10000e+00	6.996710e-05	
264	-3.15000e+00	7.014773e-05	
265	-3.20000e+00	7.032624e-05	
266	-3.25000e+00	7.050274e-05	
267	-3.30000e+00	7.067734e-05	
268	0.000000e+00	5.607112e-37	
269	-5.00000e-02	5.150753e-06	
270	-1.00000e-01	1.014140e-05	
271	-1.50000e-01	1.497300e-05	
272	-2.00000e-01	1.964662e-05	
273	-2.50000e-01	2.416333e-05	
274	-3.00000e-01	2.852421e-05	
275	-3.50000e-01	3.273034e-05	
276	-4.00000e-01	3.678281e-05	
277	-4.50000e-01	4.068271e-05	
278	-5.00000e-01	4.443113e-05	
279	-5.50000e-01	4.802918e-05	
280	-6.00000e-01	5.147797e-05	
281	-6.50000e-01	5.477859e-05	
282	-7.00000e-01	5.793218e-05	
283	-7.50000e-01	6.093985e-05	
284	-8.00000e-01	6.380273e-05	
285	-8.50000e-01	6.652197e-05	
286	-9.00000e-01	6.909871e-05	

Index   v-sweep         i(vds)          
--------------------------------------------------------------------------------
287	-9.50000e-01	7.153413e-05	
288	-1.00000e+00	7.382944e-05	
289	-1.05000e+00	7.598586e-05	
290	-1.10000e+00	7.800468e-05	
291	-1.15000e+00	7.988729e-05	
292	-1.20000e+00	8.163520e-05	
293	-1.25000e+00	8.325015e-05	
294	-1.30000e+00	8.473424e-05	
295	-1.35000e+00	8.609016e-05	
296	-1.40000e+00	8.732164e-05	
297	-1.45000e+00	8.843397e-05	
298	-1.50000e+00	8.943485e-05	
299	-1.55000e+00	9.033493e-05	
300	-1.60000e+00	9.114762e-05	
301	-1.65000e+00	9.188750e-05	
302	-1.70000e+00	9.256822e-05	
303	-1.75000e+00	9.320100e-05	
304	-1.80000e+00	9.379436e-05	
305	-1.85000e+00	9.435458e-05	
306	-1.90000e+00	9.488637e-05	
307	-1.95000e+00	9.539332e-05	
308	-2.00000e+00	9.587828e-05	
309	-2.05000e+00	9.634354e-05	
310	-2.10000e+00	9.679103e-05	
311	-2.15000e+00	9.722238e-05	
312	-2.20000e+00	9.763898e-05	
313	-2.25000e+00	9.804204e-05	
314	-2.30000e+00	9.843262e-05	
315	-2.35000e+00	9.881167e-05	
316	-2.40000e+00	9.918002e-05	
317	-2.45000e+00	9.953840e-05	
318	-2.50000e+00	9.988750e-05	
319	-2.55000e+00	1.002279e-04	
320	-2.60000e+00	1.005602e-04	
321	-2.65000e+00	1.008848e-04	
322	-2.70000e+00	1.012022e-04	
323	-2.75000e+00	1.015129e-04	
324	-2.80000e+00	1.018171e-04	
325	-2.85000e+00	1.021153e-04	
326	-2.90000e+00	1.024078e-04	
327	-2.95000e+00	1.026949e-04	
328	-3.00000e+00	1.029767e-04	
329	-3.05000e+00	1.032537e-04	
330	-3.10000e+00	1.035260e-04	
331	-3.15000e+00	1.037939e-04	
332	-3.20000e+00	1.040575e-04	
333	-3.25000e+00	1.043171e-04	
334	-3.30000e+00	1.045728e-04	
335	0.000000e+00	-1.42398e-21	
336	-5.00000e-02	5.771983e-06	
337	-1.00000e-01	1.139836e-05	
338	-1.50000e-01	1.687993e-05	
339	-2.00000e-01	2.221751e-05	
340	-2.50000e-01	2.741192e-05	
341	-3.00000e-01	3.246398e-05	
342	-3.50000e-01	3.737453e-05	
343	-4.00000e-01	4.214438e-05	
344	-4.50000e-01	4.677439e-05	

Index   v-sweep         i(vds)          
--------------------------------------------------------------------------------
345	-5.00000e-01	5.126538e-05	
346	-5.50000e-01	5.561821e-05	
347	-6.00000e-01	5.983372e-05	
348	-6.50000e-01	6.391277e-05	
349	-7.00000e-01	6.785620e-05	
350	-7.50000e-01	7.166489e-05	
351	-8.00000e-01	7.533970e-05	
352	-8.50000e-01	7.888148e-05	
353	-9.00000e-01	8.229112e-05	
354	-9.50000e-01	8.556948e-05	
355	-1.00000e+00	8.871745e-05	
356	-1.05000e+00	9.173591e-05	
357	-1.10000e+00	9.462576e-05	
358	-1.15000e+00	9.738789e-05	
359	-1.20000e+00	1.000232e-04	
360	-1.25000e+00	1.025327e-04	
361	-1.30000e+00	1.049172e-04	
362	-1.35000e+00	1.071778e-04	
363	-1.40000e+00	1.093154e-04	
364	-1.45000e+00	1.113312e-04	
365	-1.50000e+00	1.132263e-04	
366	-1.55000e+00	1.150020e-04	
367	-1.60000e+00	1.166600e-04	
368	-1.65000e+00	1.182019e-04	
369	-1.70000e+00	1.196305e-04	
370	-1.75000e+00	1.209488e-04	
371	-1.80000e+00	1.221617e-04	
372	-1.85000e+00	1.232755e-04	
373	-1.90000e+00	1.242987e-04	
374	-1.95000e+00	1.252416e-04	
375	-2.00000e+00	1.261152e-04	
376	-2.05000e+00	1.269299e-04	
377	-2.10000e+00	1.276947e-04	
378	-2.15000e+00	1.284170e-04	
379	-2.20000e+00	1.291025e-04	
380	-2.25000e+00	1.297557e-04	
381	-2.30000e+00	1.303803e-04	
382	-2.35000e+00	1.309791e-04	
383	-2.40000e+00	1.315547e-04	
384	-2.45000e+00	1.321091e-04	
385	-2.50000e+00	1.326443e-04	
386	-2.55000e+00	1.331616e-04	
387	-2.60000e+00	1.336626e-04	
388	-2.65000e+00	1.341484e-04	
389	-2.70000e+00	1.346201e-04	
390	-2.75000e+00	1.350787e-04	
391	-2.80000e+00	1.355250e-04	
392	-2.85000e+00	1.359599e-04	
393	-2.90000e+00	1.363840e-04	
394	-2.95000e+00	1.367981e-04	
395	-3.00000e+00	1.372026e-04	
396	-3.05000e+00	1.375981e-04	
397	-3.10000e+00	1.379852e-04	
398	-3.15000e+00	1.383642e-04	
399	-3.20000e+00	1.387357e-04	
400	-3.25000e+00	1.390999e-04	
401	-3.30000e+00	1.394573e-04	
Note: No ".plot", ".print", or ".fourier" lines; no simulations run
