
Note: Compatibility modes selected: hs

Warning: m=xx on .subckt line will override multiplier m hierarchy!


Circuit: ***************************

Doing analysis at TEMP = 125.000000 and TNOM = 125.000000


No. of Data Rows : 402
                          ***************************
                          DC transfer characteristic  Mon Jan  9 13:58:24  2023
--------------------------------------------------------------------------------
Index   v-sweep         i(vds)          
--------------------------------------------------------------------------------
0	0.000000e+00	-4.54082e-22	
1	-5.00000e-02	1.641216e-06	
2	-1.00000e-01	2.648957e-06	
3	-1.50000e-01	3.127720e-06	
4	-2.00000e-01	3.289209e-06	
5	-2.50000e-01	3.344747e-06	
6	-3.00000e-01	3.373468e-06	
7	-3.50000e-01	3.393846e-06	
8	-4.00000e-01	3.410671e-06	
9	-4.50000e-01	3.425549e-06	
10	-5.00000e-01	3.439157e-06	
11	-5.50000e-01	3.451838e-06	
12	-6.00000e-01	3.463794e-06	
13	-6.50000e-01	3.475154e-06	
14	-7.00000e-01	3.486009e-06	
15	-7.50000e-01	3.496430e-06	
16	-8.00000e-01	3.506467e-06	
17	-8.50000e-01	3.516166e-06	
18	-9.00000e-01	3.525560e-06	
19	-9.50000e-01	3.534679e-06	
20	-1.00000e+00	3.543549e-06	
21	-1.05000e+00	3.552191e-06	
22	-1.10000e+00	3.560623e-06	
23	-1.15000e+00	3.568863e-06	
24	-1.20000e+00	3.576924e-06	
25	-1.25000e+00	3.584821e-06	
26	-1.30000e+00	3.592563e-06	
27	-1.35000e+00	3.600162e-06	
28	-1.40000e+00	3.607628e-06	
29	-1.45000e+00	3.614968e-06	
30	-1.50000e+00	3.622190e-06	
31	-1.55000e+00	3.629301e-06	
32	-1.60000e+00	3.636308e-06	
33	-1.65000e+00	3.643216e-06	
34	-1.70000e+00	3.650031e-06	
35	-1.75000e+00	3.656758e-06	
36	-1.80000e+00	3.663402e-06	
37	-1.85000e+00	3.669966e-06	
38	-1.90000e+00	3.676455e-06	
39	-1.95000e+00	3.682873e-06	
40	-2.00000e+00	3.689223e-06	
41	-2.05000e+00	3.695509e-06	
42	-2.10000e+00	3.701733e-06	
43	-2.15000e+00	3.707900e-06	
44	-2.20000e+00	3.714013e-06	
45	-2.25000e+00	3.720075e-06	
46	-2.30000e+00	3.726089e-06	
47	-2.35000e+00	3.732060e-06	
48	-2.40000e+00	3.737992e-06	
49	-2.45000e+00	3.743889e-06	
50	-2.50000e+00	3.749757e-06	
51	-2.55000e+00	3.755600e-06	
52	-2.60000e+00	3.761426e-06	
53	-2.65000e+00	3.767243e-06	
54	-2.70000e+00	3.773057e-06	

Index   v-sweep         i(vds)          
--------------------------------------------------------------------------------
55	-2.75000e+00	3.778880e-06	
56	-2.80000e+00	3.784721e-06	
57	-2.85000e+00	3.790593e-06	
58	-2.90000e+00	3.796510e-06	
59	-2.95000e+00	3.802487e-06	
60	-3.00000e+00	3.808541e-06	
61	-3.05000e+00	3.814693e-06	
62	-3.10000e+00	3.820962e-06	
63	-3.15000e+00	3.827374e-06	
64	-3.20000e+00	3.833954e-06	
65	-3.25000e+00	3.840731e-06	
66	-3.30000e+00	3.847736e-06	
67	0.000000e+00	-2.23652e-24	
68	-5.00000e-02	8.205661e-06	
69	-1.00000e-01	1.559207e-05	
70	-1.50000e-01	2.219083e-05	
71	-2.00000e-01	2.801359e-05	
72	-2.50000e-01	3.306771e-05	
73	-3.00000e-01	3.736065e-05	
74	-3.50000e-01	4.090216e-05	
75	-4.00000e-01	4.370792e-05	
76	-4.50000e-01	4.580774e-05	
77	-5.00000e-01	4.726335e-05	
78	-5.50000e-01	4.819286e-05	
79	-6.00000e-01	4.876550e-05	
80	-6.50000e-01	4.913938e-05	
81	-7.00000e-01	4.941286e-05	
82	-7.50000e-01	4.963379e-05	
83	-8.00000e-01	4.982403e-05	
84	-8.50000e-01	4.999412e-05	
85	-9.00000e-01	5.014964e-05	
86	-9.50000e-01	5.029388e-05	
87	-1.00000e+00	5.042896e-05	
88	-1.05000e+00	5.055633e-05	
89	-1.10000e+00	5.067708e-05	
90	-1.15000e+00	5.079204e-05	
91	-1.20000e+00	5.090188e-05	
92	-1.25000e+00	5.100712e-05	
93	-1.30000e+00	5.110822e-05	
94	-1.35000e+00	5.120556e-05	
95	-1.40000e+00	5.129946e-05	
96	-1.45000e+00	5.139022e-05	
97	-1.50000e+00	5.147808e-05	
98	-1.55000e+00	5.156325e-05	
99	-1.60000e+00	5.164593e-05	
100	-1.65000e+00	5.172630e-05	
101	-1.70000e+00	5.180450e-05	
102	-1.75000e+00	5.188068e-05	
103	-1.80000e+00	5.195496e-05	
104	-1.85000e+00	5.202747e-05	
105	-1.90000e+00	5.209829e-05	
106	-1.95000e+00	5.216753e-05	
107	-2.00000e+00	5.223528e-05	
108	-2.05000e+00	5.230162e-05	
109	-2.10000e+00	5.236662e-05	
110	-2.15000e+00	5.243034e-05	
111	-2.20000e+00	5.249286e-05	
112	-2.25000e+00	5.255423e-05	

Index   v-sweep         i(vds)          
--------------------------------------------------------------------------------
113	-2.30000e+00	5.261450e-05	
114	-2.35000e+00	5.267374e-05	
115	-2.40000e+00	5.273198e-05	
116	-2.45000e+00	5.278929e-05	
117	-2.50000e+00	5.284570e-05	
118	-2.55000e+00	5.290127e-05	
119	-2.60000e+00	5.295603e-05	
120	-2.65000e+00	5.301005e-05	
121	-2.70000e+00	5.306336e-05	
122	-2.75000e+00	5.311604e-05	
123	-2.80000e+00	5.316813e-05	
124	-2.85000e+00	5.321970e-05	
125	-2.90000e+00	5.327083e-05	
126	-2.95000e+00	5.332161e-05	
127	-3.00000e+00	5.337212e-05	
128	-3.05000e+00	5.342247e-05	
129	-3.10000e+00	5.347279e-05	
130	-3.15000e+00	5.352321e-05	
131	-3.20000e+00	5.357390e-05	
132	-3.25000e+00	5.362502e-05	
133	-3.30000e+00	5.367678e-05	
134	0.000000e+00	-3.96583e-25	
135	-5.00000e-02	1.381569e-05	
136	-1.00000e-01	2.684771e-05	
137	-1.50000e-01	3.912576e-05	
138	-2.00000e-01	5.065975e-05	
139	-2.50000e-01	6.145484e-05	
140	-3.00000e-01	7.151510e-05	
141	-3.50000e-01	8.084435e-05	
142	-4.00000e-01	8.944646e-05	
143	-4.50000e-01	9.732539e-05	
144	-5.00000e-01	1.044853e-04	
145	-5.50000e-01	1.109309e-04	
146	-6.00000e-01	1.166673e-04	
147	-6.50000e-01	1.217010e-04	
148	-7.00000e-01	1.260406e-04	
149	-7.50000e-01	1.296988e-04	
150	-8.00000e-01	1.326966e-04	
151	-8.50000e-01	1.350702e-04	
152	-9.00000e-01	1.368818e-04	
153	-9.50000e-01	1.382279e-04	
154	-1.00000e+00	1.392291e-04	
155	-1.05000e+00	1.400006e-04	
156	-1.10000e+00	1.406273e-04	
157	-1.15000e+00	1.411619e-04	
158	-1.20000e+00	1.416345e-04	
159	-1.25000e+00	1.420626e-04	
160	-1.30000e+00	1.424566e-04	
161	-1.35000e+00	1.428233e-04	
162	-1.40000e+00	1.431673e-04	
163	-1.45000e+00	1.434919e-04	
164	-1.50000e+00	1.437997e-04	
165	-1.55000e+00	1.440927e-04	
166	-1.60000e+00	1.443724e-04	
167	-1.65000e+00	1.446403e-04	
168	-1.70000e+00	1.448974e-04	
169	-1.75000e+00	1.451447e-04	
170	-1.80000e+00	1.453830e-04	

Index   v-sweep         i(vds)          
--------------------------------------------------------------------------------
171	-1.85000e+00	1.456130e-04	
172	-1.90000e+00	1.458354e-04	
173	-1.95000e+00	1.460507e-04	
174	-2.00000e+00	1.462594e-04	
175	-2.05000e+00	1.464620e-04	
176	-2.10000e+00	1.466589e-04	
177	-2.15000e+00	1.468504e-04	
178	-2.20000e+00	1.470368e-04	
179	-2.25000e+00	1.472185e-04	
180	-2.30000e+00	1.473957e-04	
181	-2.35000e+00	1.475687e-04	
182	-2.40000e+00	1.477376e-04	
183	-2.45000e+00	1.479028e-04	
184	-2.50000e+00	1.480644e-04	
185	-2.55000e+00	1.482226e-04	
186	-2.60000e+00	1.483775e-04	
187	-2.65000e+00	1.485293e-04	
188	-2.70000e+00	1.486782e-04	
189	-2.75000e+00	1.488243e-04	
190	-2.80000e+00	1.489678e-04	
191	-2.85000e+00	1.491086e-04	
192	-2.90000e+00	1.492471e-04	
193	-2.95000e+00	1.493833e-04	
194	-3.00000e+00	1.495173e-04	
195	-3.05000e+00	1.496493e-04	
196	-3.10000e+00	1.497795e-04	
197	-3.15000e+00	1.499079e-04	
198	-3.20000e+00	1.500347e-04	
199	-3.25000e+00	1.501601e-04	
200	-3.30000e+00	1.502844e-04	
201	0.000000e+00	4.916559e-25	
202	-5.00000e-02	1.843583e-05	
203	-1.00000e-01	3.613947e-05	
204	-1.50000e-01	5.313947e-05	
205	-2.00000e-01	6.944495e-05	
206	-2.50000e-01	8.506032e-05	
207	-3.00000e-01	9.998885e-05	
208	-3.50000e-01	1.142335e-04	
209	-4.00000e-01	1.277973e-04	
210	-4.50000e-01	1.406831e-04	
211	-5.00000e-01	1.528939e-04	
212	-5.50000e-01	1.644325e-04	
213	-6.00000e-01	1.753021e-04	
214	-6.50000e-01	1.855057e-04	
215	-7.00000e-01	1.950463e-04	
216	-7.50000e-01	2.039271e-04	
217	-8.00000e-01	2.121516e-04	
218	-8.50000e-01	2.197233e-04	
219	-9.00000e-01	2.266460e-04	
220	-9.50000e-01	2.329243e-04	
221	-1.00000e+00	2.385636e-04	
222	-1.05000e+00	2.435710e-04	
223	-1.10000e+00	2.479560e-04	
224	-1.15000e+00	2.517333e-04	
225	-1.20000e+00	2.549256e-04	
226	-1.25000e+00	2.575694e-04	
227	-1.30000e+00	2.597203e-04	
228	-1.35000e+00	2.614556e-04	

Index   v-sweep         i(vds)          
--------------------------------------------------------------------------------
229	-1.40000e+00	2.628658e-04	
230	-1.45000e+00	2.640382e-04	
231	-1.50000e+00	2.650424e-04	
232	-1.55000e+00	2.659271e-04	
233	-1.60000e+00	2.667242e-04	
234	-1.65000e+00	2.674542e-04	
235	-1.70000e+00	2.681308e-04	
236	-1.75000e+00	2.687633e-04	
237	-1.80000e+00	2.693585e-04	
238	-1.85000e+00	2.699215e-04	
239	-1.90000e+00	2.704562e-04	
240	-1.95000e+00	2.709657e-04	
241	-2.00000e+00	2.714527e-04	
242	-2.05000e+00	2.719193e-04	
243	-2.10000e+00	2.723674e-04	
244	-2.15000e+00	2.727986e-04	
245	-2.20000e+00	2.732142e-04	
246	-2.25000e+00	2.736154e-04	
247	-2.30000e+00	2.740033e-04	
248	-2.35000e+00	2.743789e-04	
249	-2.40000e+00	2.747429e-04	
250	-2.45000e+00	2.750962e-04	
251	-2.50000e+00	2.754394e-04	
252	-2.55000e+00	2.757731e-04	
253	-2.60000e+00	2.760980e-04	
254	-2.65000e+00	2.764144e-04	
255	-2.70000e+00	2.767230e-04	
256	-2.75000e+00	2.770241e-04	
257	-2.80000e+00	2.773181e-04	
258	-2.85000e+00	2.776054e-04	
259	-2.90000e+00	2.778863e-04	
260	-2.95000e+00	2.781611e-04	
261	-3.00000e+00	2.784302e-04	
262	-3.05000e+00	2.786938e-04	
263	-3.10000e+00	2.789521e-04	
264	-3.15000e+00	2.792054e-04	
265	-3.20000e+00	2.794540e-04	
266	-3.25000e+00	2.796981e-04	
267	-3.30000e+00	2.799378e-04	
268	0.000000e+00	-1.17343e-21	
269	-5.00000e-02	2.229739e-05	
270	-1.00000e-01	4.391302e-05	
271	-1.50000e-01	6.487452e-05	
272	-2.00000e-01	8.519050e-05	
273	-2.50000e-01	1.048648e-04	
274	-3.00000e-01	1.239003e-04	
275	-3.50000e-01	1.422994e-04	
276	-4.00000e-01	1.600644e-04	
277	-4.50000e-01	1.771979e-04	
278	-5.00000e-01	1.937021e-04	
279	-5.50000e-01	2.095796e-04	
280	-6.00000e-01	2.248326e-04	
281	-6.50000e-01	2.394636e-04	
282	-7.00000e-01	2.534751e-04	
283	-7.50000e-01	2.668693e-04	
284	-8.00000e-01	2.796489e-04	
285	-8.50000e-01	2.918162e-04	
286	-9.00000e-01	3.033736e-04	

Index   v-sweep         i(vds)          
--------------------------------------------------------------------------------
287	-9.50000e-01	3.143239e-04	
288	-1.00000e+00	3.246693e-04	
289	-1.05000e+00	3.344127e-04	
290	-1.10000e+00	3.435567e-04	
291	-1.15000e+00	3.521041e-04	
292	-1.20000e+00	3.600580e-04	
293	-1.25000e+00	3.674217e-04	
294	-1.30000e+00	3.741990e-04	
295	-1.35000e+00	3.803942e-04	
296	-1.40000e+00	3.860130e-04	
297	-1.45000e+00	3.910625e-04	
298	-1.50000e+00	3.955530e-04	
299	-1.55000e+00	3.994993e-04	
300	-1.60000e+00	4.029239e-04	
301	-1.65000e+00	4.058600e-04	
302	-1.70000e+00	4.083554e-04	
303	-1.75000e+00	4.104718e-04	
304	-1.80000e+00	4.122795e-04	
305	-1.85000e+00	4.138466e-04	
306	-1.90000e+00	4.152307e-04	
307	-1.95000e+00	4.164754e-04	
308	-2.00000e+00	4.176119e-04	
309	-2.05000e+00	4.186618e-04	
310	-2.10000e+00	4.196406e-04	
311	-2.15000e+00	4.205595e-04	
312	-2.20000e+00	4.214268e-04	
313	-2.25000e+00	4.222491e-04	
314	-2.30000e+00	4.230316e-04	
315	-2.35000e+00	4.237784e-04	
316	-2.40000e+00	4.244930e-04	
317	-2.45000e+00	4.251785e-04	
318	-2.50000e+00	4.258373e-04	
319	-2.55000e+00	4.264717e-04	
320	-2.60000e+00	4.270835e-04	
321	-2.65000e+00	4.276745e-04	
322	-2.70000e+00	4.282462e-04	
323	-2.75000e+00	4.287998e-04	
324	-2.80000e+00	4.293366e-04	
325	-2.85000e+00	4.298576e-04	
326	-2.90000e+00	4.303639e-04	
327	-2.95000e+00	4.308563e-04	
328	-3.00000e+00	4.313356e-04	
329	-3.05000e+00	4.318026e-04	
330	-3.10000e+00	4.322580e-04	
331	-3.15000e+00	4.327023e-04	
332	-3.20000e+00	4.331361e-04	
333	-3.25000e+00	4.335600e-04	
334	-3.30000e+00	4.339744e-04	
335	0.000000e+00	-1.09110e-21	
336	-5.00000e-02	2.557107e-05	
337	-1.00000e-01	5.050654e-05	
338	-1.50000e-01	7.483339e-05	
339	-2.00000e-01	9.855978e-05	
340	-2.50000e-01	1.216892e-04	
341	-3.00000e-01	1.442241e-04	
342	-3.50000e-01	1.661665e-04	
343	-4.00000e-01	1.875184e-04	
344	-4.50000e-01	2.082819e-04	

Index   v-sweep         i(vds)          
--------------------------------------------------------------------------------
345	-5.00000e-01	2.284590e-04	
346	-5.50000e-01	2.480517e-04	
347	-6.00000e-01	2.670619e-04	
348	-6.50000e-01	2.854917e-04	
349	-7.00000e-01	3.033432e-04	
350	-7.50000e-01	3.206182e-04	
351	-8.00000e-01	3.373189e-04	
352	-8.50000e-01	3.534473e-04	
353	-9.00000e-01	3.690054e-04	
354	-9.50000e-01	3.839953e-04	
355	-1.00000e+00	3.984189e-04	
356	-1.05000e+00	4.122783e-04	
357	-1.10000e+00	4.255756e-04	
358	-1.15000e+00	4.383128e-04	
359	-1.20000e+00	4.504921e-04	
360	-1.25000e+00	4.621155e-04	
361	-1.30000e+00	4.731852e-04	
362	-1.35000e+00	4.837034e-04	
363	-1.40000e+00	4.936723e-04	
364	-1.45000e+00	5.030942e-04	
365	-1.50000e+00	5.119715e-04	
366	-1.55000e+00	5.203068e-04	
367	-1.60000e+00	5.281029e-04	
368	-1.65000e+00	5.353629e-04	
369	-1.70000e+00	5.420904e-04	
370	-1.75000e+00	5.482896e-04	
371	-1.80000e+00	5.539661e-04	
372	-1.85000e+00	5.591270e-04	
373	-1.90000e+00	5.637822e-04	
374	-1.95000e+00	5.679459e-04	
375	-2.00000e+00	5.716386e-04	
376	-2.05000e+00	5.748894e-04	
377	-2.10000e+00	5.777378e-04	
378	-2.15000e+00	5.802335e-04	
379	-2.20000e+00	5.824318e-04	
380	-2.25000e+00	5.843876e-04	
381	-2.30000e+00	5.861493e-04	
382	-2.35000e+00	5.877557e-04	
383	-2.40000e+00	5.892365e-04	
384	-2.45000e+00	5.906138e-04	
385	-2.50000e+00	5.919039e-04	
386	-2.55000e+00	5.931193e-04	
387	-2.60000e+00	5.942697e-04	
388	-2.65000e+00	5.953627e-04	
389	-2.70000e+00	5.964046e-04	
390	-2.75000e+00	5.974004e-04	
391	-2.80000e+00	5.983546e-04	
392	-2.85000e+00	5.992708e-04	
393	-2.90000e+00	6.001522e-04	
394	-2.95000e+00	6.010016e-04	
395	-3.00000e+00	6.018213e-04	
396	-3.05000e+00	6.026136e-04	
397	-3.10000e+00	6.033803e-04	
398	-3.15000e+00	6.041233e-04	
399	-3.20000e+00	6.048439e-04	
400	-3.25000e+00	6.055437e-04	
401	-3.30000e+00	6.062238e-04	
Note: No ".plot", ".print", or ".fourier" lines; no simulations run
