
Note: Compatibility modes selected: hs

Warning: m=xx on .subckt line will override multiplier m hierarchy!


Circuit: ***************************

Doing analysis at TEMP = -40.000000 and TNOM = -40.000000


No. of Data Rows : 402
                          ***************************
                          DC transfer characteristic  Mon Jan  9 13:58:23  2023
--------------------------------------------------------------------------------
Index   v-sweep         i(vds)          
--------------------------------------------------------------------------------
0	0.000000e+00	-3.97277e-25	
1	-5.00000e-02	2.443742e-09	
2	-1.00000e-01	2.626366e-09	
3	-1.50000e-01	2.655215e-09	
4	-2.00000e-01	2.665360e-09	
5	-2.50000e-01	2.670770e-09	
6	-3.00000e-01	2.674420e-09	
7	-3.50000e-01	2.677248e-09	
8	-4.00000e-01	2.679627e-09	
9	-4.50000e-01	2.681730e-09	
10	-5.00000e-01	2.683650e-09	
11	-5.50000e-01	2.685440e-09	
12	-6.00000e-01	2.687134e-09	
13	-6.50000e-01	2.688752e-09	
14	-7.00000e-01	2.690310e-09	
15	-7.50000e-01	2.691818e-09	
16	-8.00000e-01	2.693284e-09	
17	-8.50000e-01	2.694715e-09	
18	-9.00000e-01	2.696116e-09	
19	-9.50000e-01	2.697489e-09	
20	-1.00000e+00	2.698839e-09	
21	-1.05000e+00	2.700167e-09	
22	-1.10000e+00	2.701476e-09	
23	-1.15000e+00	2.702768e-09	
24	-1.20000e+00	2.704045e-09	
25	-1.25000e+00	2.705306e-09	
26	-1.30000e+00	2.706555e-09	
27	-1.35000e+00	2.707791e-09	
28	-1.40000e+00	2.709016e-09	
29	-1.45000e+00	2.710231e-09	
30	-1.50000e+00	2.711435e-09	
31	-1.55000e+00	2.712631e-09	
32	-1.60000e+00	2.713818e-09	
33	-1.65000e+00	2.714997e-09	
34	-1.70000e+00	2.716168e-09	
35	-1.75000e+00	2.717332e-09	
36	-1.80000e+00	2.718490e-09	
37	-1.85000e+00	2.719641e-09	
38	-1.90000e+00	2.720786e-09	
39	-1.95000e+00	2.721925e-09	
40	-2.00000e+00	2.723060e-09	
41	-2.05000e+00	2.724189e-09	
42	-2.10000e+00	2.725314e-09	
43	-2.15000e+00	2.726434e-09	
44	-2.20000e+00	2.727551e-09	
45	-2.25000e+00	2.728665e-09	
46	-2.30000e+00	2.729776e-09	
47	-2.35000e+00	2.730886e-09	
48	-2.40000e+00	2.731995e-09	
49	-2.45000e+00	2.733106e-09	
50	-2.50000e+00	2.734218e-09	
51	-2.55000e+00	2.735335e-09	
52	-2.60000e+00	2.736460e-09	
53	-2.65000e+00	2.737595e-09	
54	-2.70000e+00	2.738745e-09	

Index   v-sweep         i(vds)          
--------------------------------------------------------------------------------
55	-2.75000e+00	2.739914e-09	
56	-2.80000e+00	2.741109e-09	
57	-2.85000e+00	2.742336e-09	
58	-2.90000e+00	2.743605e-09	
59	-2.95000e+00	2.744926e-09	
60	-3.00000e+00	2.746310e-09	
61	-3.05000e+00	2.747772e-09	
62	-3.10000e+00	2.749329e-09	
63	-3.15000e+00	2.751000e-09	
64	-3.20000e+00	2.752806e-09	
65	-3.25000e+00	2.754774e-09	
66	-3.30000e+00	2.756931e-09	
67	0.000000e+00	-1.80712e-22	
68	-5.00000e-02	1.906114e-07	
69	-1.00000e-01	3.491195e-07	
70	-1.50000e-01	4.757056e-07	
71	-2.00000e-01	5.707933e-07	
72	-2.50000e-01	6.355299e-07	
73	-3.00000e-01	6.731411e-07	
74	-3.50000e-01	6.908686e-07	
75	-4.00000e-01	6.981376e-07	
76	-4.50000e-01	7.012626e-07	
77	-5.00000e-01	7.028421e-07	
78	-5.50000e-01	7.037854e-07	
79	-6.00000e-01	7.044279e-07	
80	-6.50000e-01	7.049094e-07	
81	-7.00000e-01	7.052952e-07	
82	-7.50000e-01	7.056190e-07	
83	-8.00000e-01	7.059002e-07	
84	-8.50000e-01	7.061502e-07	
85	-9.00000e-01	7.063764e-07	
86	-9.50000e-01	7.065840e-07	
87	-1.00000e+00	7.067765e-07	
88	-1.05000e+00	7.069564e-07	
89	-1.10000e+00	7.071258e-07	
90	-1.15000e+00	7.072860e-07	
91	-1.20000e+00	7.074384e-07	
92	-1.25000e+00	7.075838e-07	
93	-1.30000e+00	7.077230e-07	
94	-1.35000e+00	7.078568e-07	
95	-1.40000e+00	7.079855e-07	
96	-1.45000e+00	7.081098e-07	
97	-1.50000e+00	7.082299e-07	
98	-1.55000e+00	7.083463e-07	
99	-1.60000e+00	7.084592e-07	
100	-1.65000e+00	7.085689e-07	
101	-1.70000e+00	7.086757e-07	
102	-1.75000e+00	7.087797e-07	
103	-1.80000e+00	7.088811e-07	
104	-1.85000e+00	7.089801e-07	
105	-1.90000e+00	7.090769e-07	
106	-1.95000e+00	7.091716e-07	
107	-2.00000e+00	7.092642e-07	
108	-2.05000e+00	7.093550e-07	
109	-2.10000e+00	7.094440e-07	
110	-2.15000e+00	7.095314e-07	
111	-2.20000e+00	7.096171e-07	
112	-2.25000e+00	7.097014e-07	

Index   v-sweep         i(vds)          
--------------------------------------------------------------------------------
113	-2.30000e+00	7.097843e-07	
114	-2.35000e+00	7.098658e-07	
115	-2.40000e+00	7.099462e-07	
116	-2.45000e+00	7.100255e-07	
117	-2.50000e+00	7.101038e-07	
118	-2.55000e+00	7.101813e-07	
119	-2.60000e+00	7.102582e-07	
120	-2.65000e+00	7.103347e-07	
121	-2.70000e+00	7.104110e-07	
122	-2.75000e+00	7.104876e-07	
123	-2.80000e+00	7.105649e-07	
124	-2.85000e+00	7.106435e-07	
125	-2.90000e+00	7.107241e-07	
126	-2.95000e+00	7.108075e-07	
127	-3.00000e+00	7.108948e-07	
128	-3.05000e+00	7.109874e-07	
129	-3.10000e+00	7.110868e-07	
130	-3.15000e+00	7.111950e-07	
131	-3.20000e+00	7.113143e-07	
132	-3.25000e+00	7.114473e-07	
133	-3.30000e+00	7.115973e-07	
134	0.000000e+00	6.509310e-22	
135	-5.00000e-02	3.981686e-07	
136	-1.00000e-01	7.652558e-07	
137	-1.50000e-01	1.101289e-06	
138	-2.00000e-01	1.406301e-06	
139	-2.50000e-01	1.680334e-06	
140	-3.00000e-01	1.923442e-06	
141	-3.50000e-01	2.135708e-06	
142	-4.00000e-01	2.317267e-06	
143	-4.50000e-01	2.468354e-06	
144	-5.00000e-01	2.589424e-06	
145	-5.50000e-01	2.681412e-06	
146	-6.00000e-01	2.746266e-06	
147	-6.50000e-01	2.787773e-06	
148	-7.00000e-01	2.811861e-06	
149	-7.50000e-01	2.825125e-06	
150	-8.00000e-01	2.832597e-06	
151	-8.50000e-01	2.837146e-06	
152	-9.00000e-01	2.840189e-06	
153	-9.50000e-01	2.842401e-06	
154	-1.00000e+00	2.844121e-06	
155	-1.05000e+00	2.845528e-06	
156	-1.10000e+00	2.846723e-06	
157	-1.15000e+00	2.847766e-06	
158	-1.20000e+00	2.848695e-06	
159	-1.25000e+00	2.849536e-06	
160	-1.30000e+00	2.850307e-06	
161	-1.35000e+00	2.851021e-06	
162	-1.40000e+00	2.851686e-06	
163	-1.45000e+00	2.852311e-06	
164	-1.50000e+00	2.852900e-06	
165	-1.55000e+00	2.853459e-06	
166	-1.60000e+00	2.853990e-06	
167	-1.65000e+00	2.854498e-06	
168	-1.70000e+00	2.854983e-06	
169	-1.75000e+00	2.855450e-06	
170	-1.80000e+00	2.855898e-06	

Index   v-sweep         i(vds)          
--------------------------------------------------------------------------------
171	-1.85000e+00	2.856330e-06	
172	-1.90000e+00	2.856748e-06	
173	-1.95000e+00	2.857151e-06	
174	-2.00000e+00	2.857542e-06	
175	-2.05000e+00	2.857922e-06	
176	-2.10000e+00	2.858290e-06	
177	-2.15000e+00	2.858648e-06	
178	-2.20000e+00	2.858997e-06	
179	-2.25000e+00	2.859337e-06	
180	-2.30000e+00	2.859668e-06	
181	-2.35000e+00	2.859991e-06	
182	-2.40000e+00	2.860307e-06	
183	-2.45000e+00	2.860616e-06	
184	-2.50000e+00	2.860918e-06	
185	-2.55000e+00	2.861214e-06	
186	-2.60000e+00	2.861504e-06	
187	-2.65000e+00	2.861789e-06	
188	-2.70000e+00	2.862068e-06	
189	-2.75000e+00	2.862343e-06	
190	-2.80000e+00	2.862613e-06	
191	-2.85000e+00	2.862879e-06	
192	-2.90000e+00	2.863143e-06	
193	-2.95000e+00	2.863403e-06	
194	-3.00000e+00	2.863663e-06	
195	-3.05000e+00	2.863922e-06	
196	-3.10000e+00	2.864183e-06	
197	-3.15000e+00	2.864446e-06	
198	-3.20000e+00	2.864715e-06	
199	-3.25000e+00	2.864993e-06	
200	-3.30000e+00	2.865283e-06	
201	0.000000e+00	-8.64446e-23	
202	-5.00000e-02	5.794440e-07	
203	-1.00000e-01	1.130019e-06	
204	-1.50000e-01	1.651744e-06	
205	-2.00000e-01	2.144635e-06	
206	-2.50000e-01	2.608713e-06	
207	-3.00000e-01	3.043998e-06	
208	-3.50000e-01	3.450511e-06	
209	-4.00000e-01	3.828278e-06	
210	-4.50000e-01	4.177325e-06	
211	-5.00000e-01	4.497686e-06	
212	-5.50000e-01	4.789403e-06	
213	-6.00000e-01	5.052531e-06	
214	-6.50000e-01	5.287149e-06	
215	-7.00000e-01	5.493373e-06	
216	-7.50000e-01	5.671389e-06	
217	-8.00000e-01	5.821509e-06	
218	-8.50000e-01	5.944285e-06	
219	-9.00000e-01	6.040716e-06	
220	-9.50000e-01	6.112602e-06	
221	-1.00000e+00	6.162969e-06	
222	-1.05000e+00	6.196191e-06	
223	-1.10000e+00	6.217300e-06	
224	-1.15000e+00	6.230747e-06	
225	-1.20000e+00	6.239663e-06	
226	-1.25000e+00	6.245935e-06	
227	-1.30000e+00	6.250624e-06	
228	-1.35000e+00	6.254321e-06	

Index   v-sweep         i(vds)          
--------------------------------------------------------------------------------
229	-1.40000e+00	6.257363e-06	
230	-1.45000e+00	6.259953e-06	
231	-1.50000e+00	6.262213e-06	
232	-1.55000e+00	6.264226e-06	
233	-1.60000e+00	6.266046e-06	
234	-1.65000e+00	6.267711e-06	
235	-1.70000e+00	6.269248e-06	
236	-1.75000e+00	6.270680e-06	
237	-1.80000e+00	6.272021e-06	
238	-1.85000e+00	6.273285e-06	
239	-1.90000e+00	6.274480e-06	
240	-1.95000e+00	6.275615e-06	
241	-2.00000e+00	6.276697e-06	
242	-2.05000e+00	6.277732e-06	
243	-2.10000e+00	6.278722e-06	
244	-2.15000e+00	6.279674e-06	
245	-2.20000e+00	6.280590e-06	
246	-2.25000e+00	6.281473e-06	
247	-2.30000e+00	6.282326e-06	
248	-2.35000e+00	6.283151e-06	
249	-2.40000e+00	6.283950e-06	
250	-2.45000e+00	6.284725e-06	
251	-2.50000e+00	6.285477e-06	
252	-2.55000e+00	6.286208e-06	
253	-2.60000e+00	6.286920e-06	
254	-2.65000e+00	6.287613e-06	
255	-2.70000e+00	6.288288e-06	
256	-2.75000e+00	6.288947e-06	
257	-2.80000e+00	6.289591e-06	
258	-2.85000e+00	6.290220e-06	
259	-2.90000e+00	6.290835e-06	
260	-2.95000e+00	6.291437e-06	
261	-3.00000e+00	6.292027e-06	
262	-3.05000e+00	6.292605e-06	
263	-3.10000e+00	6.293173e-06	
264	-3.15000e+00	6.293731e-06	
265	-3.20000e+00	6.294280e-06	
266	-3.25000e+00	6.294823e-06	
267	-3.30000e+00	6.295360e-06	
268	0.000000e+00	5.009271e-22	
269	-5.00000e-02	7.337085e-07	
270	-1.00000e-01	1.440969e-06	
271	-1.50000e-01	2.121796e-06	
272	-2.00000e-01	2.776204e-06	
273	-2.50000e-01	3.404208e-06	
274	-3.00000e-01	4.005823e-06	
275	-3.50000e-01	4.581063e-06	
276	-4.00000e-01	5.129945e-06	
277	-4.50000e-01	5.652485e-06	
278	-5.00000e-01	6.148698e-06	
279	-5.50000e-01	6.618603e-06	
280	-6.00000e-01	7.062217e-06	
281	-6.50000e-01	7.479562e-06	
282	-7.00000e-01	7.870658e-06	
283	-7.50000e-01	8.235531e-06	
284	-8.00000e-01	8.574210e-06	
285	-8.50000e-01	8.886731e-06	
286	-9.00000e-01	9.173138e-06	

Index   v-sweep         i(vds)          
--------------------------------------------------------------------------------
287	-9.50000e-01	9.433490e-06	
288	-1.00000e+00	9.667870e-06	
289	-1.05000e+00	9.876396e-06	
290	-1.10000e+00	1.005925e-05	
291	-1.15000e+00	1.021671e-05	
292	-1.20000e+00	1.034926e-05	
293	-1.25000e+00	1.045765e-05	
294	-1.30000e+00	1.054318e-05	
295	-1.35000e+00	1.060789e-05	
296	-1.40000e+00	1.065477e-05	
297	-1.45000e+00	1.068757e-05	
298	-1.50000e+00	1.071019e-05	
299	-1.55000e+00	1.072598e-05	
300	-1.60000e+00	1.073737e-05	
301	-1.65000e+00	1.074595e-05	
302	-1.70000e+00	1.075270e-05	
303	-1.75000e+00	1.075822e-05	
304	-1.80000e+00	1.076289e-05	
305	-1.85000e+00	1.076693e-05	
306	-1.90000e+00	1.077051e-05	
307	-1.95000e+00	1.077373e-05	
308	-2.00000e+00	1.077666e-05	
309	-2.05000e+00	1.077936e-05	
310	-2.10000e+00	1.078185e-05	
311	-2.15000e+00	1.078419e-05	
312	-2.20000e+00	1.078638e-05	
313	-2.25000e+00	1.078845e-05	
314	-2.30000e+00	1.079041e-05	
315	-2.35000e+00	1.079227e-05	
316	-2.40000e+00	1.079405e-05	
317	-2.45000e+00	1.079575e-05	
318	-2.50000e+00	1.079738e-05	
319	-2.55000e+00	1.079895e-05	
320	-2.60000e+00	1.080046e-05	
321	-2.65000e+00	1.080191e-05	
322	-2.70000e+00	1.080332e-05	
323	-2.75000e+00	1.080468e-05	
324	-2.80000e+00	1.080599e-05	
325	-2.85000e+00	1.080727e-05	
326	-2.90000e+00	1.080851e-05	
327	-2.95000e+00	1.080971e-05	
328	-3.00000e+00	1.081088e-05	
329	-3.05000e+00	1.081203e-05	
330	-3.10000e+00	1.081314e-05	
331	-3.15000e+00	1.081422e-05	
332	-3.20000e+00	1.081528e-05	
333	-3.25000e+00	1.081632e-05	
334	-3.30000e+00	1.081733e-05	
335	0.000000e+00	-2.77458e-21	
336	-5.00000e-02	8.623561e-07	
337	-1.00000e-01	1.700662e-06	
338	-1.50000e-01	2.514931e-06	
339	-2.00000e-01	3.305175e-06	
340	-2.50000e-01	4.071405e-06	
341	-3.00000e-01	4.813636e-06	
342	-3.50000e-01	5.531878e-06	
343	-4.00000e-01	6.226146e-06	
344	-4.50000e-01	6.896451e-06	

Index   v-sweep         i(vds)          
--------------------------------------------------------------------------------
345	-5.00000e-01	7.542806e-06	
346	-5.50000e-01	8.165225e-06	
347	-6.00000e-01	8.763721e-06	
348	-6.50000e-01	9.338306e-06	
349	-7.00000e-01	9.888995e-06	
350	-7.50000e-01	1.041580e-05	
351	-8.00000e-01	1.091874e-05	
352	-8.50000e-01	1.139783e-05	
353	-9.00000e-01	1.185308e-05	
354	-9.50000e-01	1.228451e-05	
355	-1.00000e+00	1.269214e-05	
356	-1.05000e+00	1.307599e-05	
357	-1.10000e+00	1.343609e-05	
358	-1.15000e+00	1.377246e-05	
359	-1.20000e+00	1.408512e-05	
360	-1.25000e+00	1.437414e-05	
361	-1.30000e+00	1.463955e-05	
362	-1.35000e+00	1.488142e-05	
363	-1.40000e+00	1.509985e-05	
364	-1.45000e+00	1.529499e-05	
365	-1.50000e+00	1.546703e-05	
366	-1.55000e+00	1.561629e-05	
367	-1.60000e+00	1.574325e-05	
368	-1.65000e+00	1.584870e-05	
369	-1.70000e+00	1.593381e-05	
370	-1.75000e+00	1.600036e-05	
371	-1.80000e+00	1.605079e-05	
372	-1.85000e+00	1.608809e-05	
373	-1.90000e+00	1.611540e-05	
374	-1.95000e+00	1.613553e-05	
375	-2.00000e+00	1.615071e-05	
376	-2.05000e+00	1.616253e-05	
377	-2.10000e+00	1.617204e-05	
378	-2.15000e+00	1.617994e-05	
379	-2.20000e+00	1.618668e-05	
380	-2.25000e+00	1.619257e-05	
381	-2.30000e+00	1.619779e-05	
382	-2.35000e+00	1.620251e-05	
383	-2.40000e+00	1.620681e-05	
384	-2.45000e+00	1.621077e-05	
385	-2.50000e+00	1.621444e-05	
386	-2.55000e+00	1.621788e-05	
387	-2.60000e+00	1.622110e-05	
388	-2.65000e+00	1.622415e-05	
389	-2.70000e+00	1.622704e-05	
390	-2.75000e+00	1.622978e-05	
391	-2.80000e+00	1.623240e-05	
392	-2.85000e+00	1.623491e-05	
393	-2.90000e+00	1.623731e-05	
394	-2.95000e+00	1.623962e-05	
395	-3.00000e+00	1.624184e-05	
396	-3.05000e+00	1.624398e-05	
397	-3.10000e+00	1.624604e-05	
398	-3.15000e+00	1.624804e-05	
399	-3.20000e+00	1.624998e-05	
400	-3.25000e+00	1.625186e-05	
401	-3.30000e+00	1.625368e-05	
Note: No ".plot", ".print", or ".fourier" lines; no simulations run
