
Note: Compatibility modes selected: hs

Warning: m=xx on .subckt line will override multiplier m hierarchy!


Circuit: ***************************

Doing analysis at TEMP = -40.000000 and TNOM = -40.000000


No. of Data Rows : 402
                          ***************************
                          DC transfer characteristic  Mon Jan  9 13:58:23  2023
--------------------------------------------------------------------------------
Index   v-sweep         i(vds)          
--------------------------------------------------------------------------------
0	0.000000e+00	-5.77234e-37	
1	-5.00000e-02	1.209491e-06	
2	-1.00000e-01	1.437902e-06	
3	-1.50000e-01	1.508433e-06	
4	-2.00000e-01	1.559353e-06	
5	-2.50000e-01	1.605438e-06	
6	-3.00000e-01	1.649626e-06	
7	-3.50000e-01	1.692884e-06	
8	-4.00000e-01	1.735654e-06	
9	-4.50000e-01	1.778183e-06	
10	-5.00000e-01	1.820634e-06	
11	-5.50000e-01	1.863120e-06	
12	-6.00000e-01	1.905727e-06	
13	-6.50000e-01	1.948524e-06	
14	-7.00000e-01	1.991565e-06	
15	-7.50000e-01	2.034895e-06	
16	-8.00000e-01	2.078552e-06	
17	-8.50000e-01	2.122571e-06	
18	-9.00000e-01	2.166979e-06	
19	-9.50000e-01	2.211802e-06	
20	-1.00000e+00	2.257064e-06	
21	-1.05000e+00	2.302783e-06	
22	-1.10000e+00	2.348979e-06	
23	-1.15000e+00	2.395668e-06	
24	-1.20000e+00	2.442868e-06	
25	-1.25000e+00	2.490591e-06	
26	-1.30000e+00	2.538851e-06	
27	-1.35000e+00	2.587662e-06	
28	-1.40000e+00	2.637035e-06	
29	-1.45000e+00	2.686982e-06	
30	-1.50000e+00	2.737513e-06	
31	-1.55000e+00	2.788639e-06	
32	-1.60000e+00	2.840370e-06	
33	-1.65000e+00	2.892715e-06	
34	-1.70000e+00	2.945684e-06	
35	-1.75000e+00	2.999285e-06	
36	-1.80000e+00	3.053529e-06	
37	-1.85000e+00	3.108422e-06	
38	-1.90000e+00	3.163974e-06	
39	-1.95000e+00	3.220194e-06	
40	-2.00000e+00	3.277089e-06	
41	-2.05000e+00	3.334669e-06	
42	-2.10000e+00	3.392943e-06	
43	-2.15000e+00	3.451919e-06	
44	-2.20000e+00	3.511609e-06	
45	-2.25000e+00	3.572021e-06	
46	-2.30000e+00	3.633168e-06	
47	-2.35000e+00	3.695063e-06	
48	-2.40000e+00	3.757717e-06	
49	-2.45000e+00	3.821148e-06	
50	-2.50000e+00	3.885371e-06	
51	-2.55000e+00	3.950405e-06	
52	-2.60000e+00	4.016273e-06	
53	-2.65000e+00	4.082998e-06	
54	-2.70000e+00	4.150609e-06	

Index   v-sweep         i(vds)          
--------------------------------------------------------------------------------
55	-2.75000e+00	4.219135e-06	
56	-2.80000e+00	4.288612e-06	
57	-2.85000e+00	4.359080e-06	
58	-2.90000e+00	4.430584e-06	
59	-2.95000e+00	4.503173e-06	
60	-3.00000e+00	4.576903e-06	
61	-3.05000e+00	4.651839e-06	
62	-3.10000e+00	4.728048e-06	
63	-3.15000e+00	4.805610e-06	
64	-3.20000e+00	4.884610e-06	
65	-3.25000e+00	4.965143e-06	
66	-3.30000e+00	5.047314e-06	
67	0.000000e+00	-8.54745e-21	
68	-5.00000e-02	3.918301e-05	
69	-1.00000e-01	7.365281e-05	
70	-1.50000e-01	1.034961e-04	
71	-2.00000e-01	1.288044e-04	
72	-2.50000e-01	1.496811e-04	
73	-3.00000e-01	1.662605e-04	
74	-3.50000e-01	1.787578e-04	
75	-4.00000e-01	1.875887e-04	
76	-4.50000e-01	1.935319e-04	
77	-5.00000e-01	1.976348e-04	
78	-5.50000e-01	2.007574e-04	
79	-6.00000e-01	2.033656e-04	
80	-6.50000e-01	2.056711e-04	
81	-7.00000e-01	2.077738e-04	
82	-7.50000e-01	2.097272e-04	
83	-8.00000e-01	2.115637e-04	
84	-8.50000e-01	2.133050e-04	
85	-9.00000e-01	2.149666e-04	
86	-9.50000e-01	2.165604e-04	
87	-1.00000e+00	2.180956e-04	
88	-1.05000e+00	2.195795e-04	
89	-1.10000e+00	2.210181e-04	
90	-1.15000e+00	2.224165e-04	
91	-1.20000e+00	2.237790e-04	
92	-1.25000e+00	2.251091e-04	
93	-1.30000e+00	2.264099e-04	
94	-1.35000e+00	2.276842e-04	
95	-1.40000e+00	2.289342e-04	
96	-1.45000e+00	2.301620e-04	
97	-1.50000e+00	2.313694e-04	
98	-1.55000e+00	2.325580e-04	
99	-1.60000e+00	2.337294e-04	
100	-1.65000e+00	2.348847e-04	
101	-1.70000e+00	2.360251e-04	
102	-1.75000e+00	2.371516e-04	
103	-1.80000e+00	2.382653e-04	
104	-1.85000e+00	2.393669e-04	
105	-1.90000e+00	2.404573e-04	
106	-1.95000e+00	2.415372e-04	
107	-2.00000e+00	2.426072e-04	
108	-2.05000e+00	2.436679e-04	
109	-2.10000e+00	2.447199e-04	
110	-2.15000e+00	2.457637e-04	
111	-2.20000e+00	2.467998e-04	
112	-2.25000e+00	2.478287e-04	

Index   v-sweep         i(vds)          
--------------------------------------------------------------------------------
113	-2.30000e+00	2.488507e-04	
114	-2.35000e+00	2.498664e-04	
115	-2.40000e+00	2.508761e-04	
116	-2.45000e+00	2.518802e-04	
117	-2.50000e+00	2.528791e-04	
118	-2.55000e+00	2.538733e-04	
119	-2.60000e+00	2.548632e-04	
120	-2.65000e+00	2.558493e-04	
121	-2.70000e+00	2.568320e-04	
122	-2.75000e+00	2.578120e-04	
123	-2.80000e+00	2.587899e-04	
124	-2.85000e+00	2.597663e-04	
125	-2.90000e+00	2.607422e-04	
126	-2.95000e+00	2.617182e-04	
127	-3.00000e+00	2.626956e-04	
128	-3.05000e+00	2.636754e-04	
129	-3.10000e+00	2.646588e-04	
130	-3.15000e+00	2.656474e-04	
131	-3.20000e+00	2.666428e-04	
132	-3.25000e+00	2.676467e-04	
133	-3.30000e+00	2.686613e-04	
134	0.000000e+00	-1.21897e-20	
135	-5.00000e-02	6.992804e-05	
136	-1.00000e-01	1.354563e-04	
137	-1.50000e-01	1.966412e-04	
138	-2.00000e-01	2.535391e-04	
139	-2.50000e-01	3.062066e-04	
140	-3.00000e-01	3.547003e-04	
141	-3.50000e-01	3.990773e-04	
142	-4.00000e-01	4.393956e-04	
143	-4.50000e-01	4.757151e-04	
144	-5.00000e-01	5.080992e-04	
145	-5.50000e-01	5.366180e-04	
146	-6.00000e-01	5.613551e-04	
147	-6.50000e-01	5.824216e-04	
148	-7.00000e-01	5.999846e-04	
149	-7.50000e-01	6.143179e-04	
150	-8.00000e-01	6.258604e-04	
151	-8.50000e-01	6.352105e-04	
152	-9.00000e-01	6.429927e-04	
153	-9.50000e-01	6.497019e-04	
154	-1.00000e+00	6.556628e-04	
155	-1.05000e+00	6.610749e-04	
156	-1.10000e+00	6.660634e-04	
157	-1.15000e+00	6.707116e-04	
158	-1.20000e+00	6.750780e-04	
159	-1.25000e+00	6.792063e-04	
160	-1.30000e+00	6.831300e-04	
161	-1.35000e+00	6.868755e-04	
162	-1.40000e+00	6.904644e-04	
163	-1.45000e+00	6.939143e-04	
164	-1.50000e+00	6.972401e-04	
165	-1.55000e+00	7.004543e-04	
166	-1.60000e+00	7.035677e-04	
167	-1.65000e+00	7.065895e-04	
168	-1.70000e+00	7.095276e-04	
169	-1.75000e+00	7.123892e-04	
170	-1.80000e+00	7.151804e-04	

Index   v-sweep         i(vds)          
--------------------------------------------------------------------------------
171	-1.85000e+00	7.179066e-04	
172	-1.90000e+00	7.205729e-04	
173	-1.95000e+00	7.231833e-04	
174	-2.00000e+00	7.257420e-04	
175	-2.05000e+00	7.282523e-04	
176	-2.10000e+00	7.307176e-04	
177	-2.15000e+00	7.331405e-04	
178	-2.20000e+00	7.355238e-04	
179	-2.25000e+00	7.378698e-04	
180	-2.30000e+00	7.401808e-04	
181	-2.35000e+00	7.424587e-04	
182	-2.40000e+00	7.447053e-04	
183	-2.45000e+00	7.469225e-04	
184	-2.50000e+00	7.491117e-04	
185	-2.55000e+00	7.512745e-04	
186	-2.60000e+00	7.534123e-04	
187	-2.65000e+00	7.555263e-04	
188	-2.70000e+00	7.576179e-04	
189	-2.75000e+00	7.596883e-04	
190	-2.80000e+00	7.617387e-04	
191	-2.85000e+00	7.637703e-04	
192	-2.90000e+00	7.657844e-04	
193	-2.95000e+00	7.677823e-04	
194	-3.00000e+00	7.697653e-04	
195	-3.05000e+00	7.717349e-04	
196	-3.10000e+00	7.736927e-04	
197	-3.15000e+00	7.756406e-04	
198	-3.20000e+00	7.775804e-04	
199	-3.25000e+00	7.795145e-04	
200	-3.30000e+00	7.814453e-04	
201	0.000000e+00	-7.18896e-33	
202	-5.00000e-02	9.201745e-05	
203	-1.00000e-01	1.800594e-04	
204	-1.50000e-01	2.641656e-04	
205	-2.00000e-01	3.443761e-04	
206	-2.50000e-01	4.207307e-04	
207	-3.00000e-01	4.932695e-04	
208	-3.50000e-01	5.620324e-04	
209	-4.00000e-01	6.270593e-04	
210	-4.50000e-01	6.883902e-04	
211	-5.00000e-01	7.460654e-04	
212	-5.50000e-01	8.001250e-04	
213	-6.00000e-01	8.506096e-04	
214	-6.50000e-01	8.975604e-04	
215	-7.00000e-01	9.410192e-04	
216	-7.50000e-01	9.810293e-04	
217	-8.00000e-01	1.017637e-03	
218	-8.50000e-01	1.050891e-03	
219	-9.00000e-01	1.080849e-03	
220	-9.50000e-01	1.107584e-03	
221	-1.00000e+00	1.131190e-03	
222	-1.05000e+00	1.151807e-03	
223	-1.10000e+00	1.169648e-03	
224	-1.15000e+00	1.185022e-03	
225	-1.20000e+00	1.198326e-03	
226	-1.25000e+00	1.209982e-03	
227	-1.30000e+00	1.220364e-03	
228	-1.35000e+00	1.229757e-03	

Index   v-sweep         i(vds)          
--------------------------------------------------------------------------------
229	-1.40000e+00	1.238369e-03	
230	-1.45000e+00	1.246347e-03	
231	-1.50000e+00	1.253798e-03	
232	-1.55000e+00	1.260802e-03	
233	-1.60000e+00	1.267424e-03	
234	-1.65000e+00	1.273711e-03	
235	-1.70000e+00	1.279705e-03	
236	-1.75000e+00	1.285439e-03	
237	-1.80000e+00	1.290941e-03	
238	-1.85000e+00	1.296234e-03	
239	-1.90000e+00	1.301338e-03	
240	-1.95000e+00	1.306271e-03	
241	-2.00000e+00	1.311048e-03	
242	-2.05000e+00	1.315681e-03	
243	-2.10000e+00	1.320183e-03	
244	-2.15000e+00	1.324564e-03	
245	-2.20000e+00	1.328832e-03	
246	-2.25000e+00	1.332996e-03	
247	-2.30000e+00	1.337063e-03	
248	-2.35000e+00	1.341040e-03	
249	-2.40000e+00	1.344932e-03	
250	-2.45000e+00	1.348745e-03	
251	-2.50000e+00	1.352484e-03	
252	-2.55000e+00	1.356153e-03	
253	-2.60000e+00	1.359756e-03	
254	-2.65000e+00	1.363297e-03	
255	-2.70000e+00	1.366779e-03	
256	-2.75000e+00	1.370206e-03	
257	-2.80000e+00	1.373580e-03	
258	-2.85000e+00	1.376904e-03	
259	-2.90000e+00	1.380182e-03	
260	-2.95000e+00	1.383414e-03	
261	-3.00000e+00	1.386604e-03	
262	-3.05000e+00	1.389753e-03	
263	-3.10000e+00	1.392864e-03	
264	-3.15000e+00	1.395940e-03	
265	-3.20000e+00	1.398981e-03	
266	-3.25000e+00	1.401990e-03	
267	-3.30000e+00	1.404970e-03	
268	0.000000e+00	-6.81104e-21	
269	-5.00000e-02	1.082630e-04	
270	-1.00000e-01	2.129488e-04	
271	-1.50000e-01	3.140866e-04	
272	-2.00000e-01	4.117057e-04	
273	-2.50000e-01	5.058356e-04	
274	-3.00000e-01	5.965056e-04	
275	-3.50000e-01	6.837452e-04	
276	-4.00000e-01	7.675840e-04	
277	-4.50000e-01	8.480515e-04	
278	-5.00000e-01	9.251774e-04	
279	-5.50000e-01	9.989910e-04	
280	-6.00000e-01	1.069522e-03	
281	-6.50000e-01	1.136801e-03	
282	-7.00000e-01	1.200856e-03	
283	-7.50000e-01	1.261718e-03	
284	-8.00000e-01	1.319416e-03	
285	-8.50000e-01	1.373981e-03	
286	-9.00000e-01	1.425443e-03	

Index   v-sweep         i(vds)          
--------------------------------------------------------------------------------
287	-9.50000e-01	1.473833e-03	
288	-1.00000e+00	1.519182e-03	
289	-1.05000e+00	1.561523e-03	
290	-1.10000e+00	1.600890e-03	
291	-1.15000e+00	1.637320e-03	
292	-1.20000e+00	1.670854e-03	
293	-1.25000e+00	1.701543e-03	
294	-1.30000e+00	1.729448e-03	
295	-1.35000e+00	1.754655e-03	
296	-1.40000e+00	1.777284e-03	
297	-1.45000e+00	1.797510e-03	
298	-1.50000e+00	1.815566e-03	
299	-1.55000e+00	1.831737e-03	
300	-1.60000e+00	1.846325e-03	
301	-1.65000e+00	1.859603e-03	
302	-1.70000e+00	1.871802e-03	
303	-1.75000e+00	1.883103e-03	
304	-1.80000e+00	1.893647e-03	
305	-1.85000e+00	1.903544e-03	
306	-1.90000e+00	1.912882e-03	
307	-1.95000e+00	1.921733e-03	
308	-2.00000e+00	1.930152e-03	
309	-2.05000e+00	1.938190e-03	
310	-2.10000e+00	1.945885e-03	
311	-2.15000e+00	1.953272e-03	
312	-2.20000e+00	1.960381e-03	
313	-2.25000e+00	1.967237e-03	
314	-2.30000e+00	1.973861e-03	
315	-2.35000e+00	1.980274e-03	
316	-2.40000e+00	1.986492e-03	
317	-2.45000e+00	1.992530e-03	
318	-2.50000e+00	1.998401e-03	
319	-2.55000e+00	2.004118e-03	
320	-2.60000e+00	2.009691e-03	
321	-2.65000e+00	2.015130e-03	
322	-2.70000e+00	2.020443e-03	
323	-2.75000e+00	2.025639e-03	
324	-2.80000e+00	2.030724e-03	
325	-2.85000e+00	2.035705e-03	
326	-2.90000e+00	2.040588e-03	
327	-2.95000e+00	2.045379e-03	
328	-3.00000e+00	2.050082e-03	
329	-3.05000e+00	2.054703e-03	
330	-3.10000e+00	2.059245e-03	
331	-3.15000e+00	2.063713e-03	
332	-3.20000e+00	2.068110e-03	
333	-3.25000e+00	2.072440e-03	
334	-3.30000e+00	2.076707e-03	
335	0.000000e+00	-1.11858e-19	
336	-5.00000e-02	1.204342e-04	
337	-1.00000e-01	2.376425e-04	
338	-1.50000e-01	3.516469e-04	
339	-2.00000e-01	4.624697e-04	
340	-2.50000e-01	5.701332e-04	
341	-3.00000e-01	6.746597e-04	
342	-3.50000e-01	7.760716e-04	
343	-4.00000e-01	8.743914e-04	
344	-4.50000e-01	9.696416e-04	

Index   v-sweep         i(vds)          
--------------------------------------------------------------------------------
345	-5.00000e-01	1.061845e-03	
346	-5.50000e-01	1.151023e-03	
347	-6.00000e-01	1.237200e-03	
348	-6.50000e-01	1.320397e-03	
349	-7.00000e-01	1.400638e-03	
350	-7.50000e-01	1.477945e-03	
351	-8.00000e-01	1.552341e-03	
352	-8.50000e-01	1.623848e-03	
353	-9.00000e-01	1.692490e-03	
354	-9.50000e-01	1.758288e-03	
355	-1.00000e+00	1.821267e-03	
356	-1.05000e+00	1.881448e-03	
357	-1.10000e+00	1.938856e-03	
358	-1.15000e+00	1.993512e-03	
359	-1.20000e+00	2.045442e-03	
360	-1.25000e+00	2.094667e-03	
361	-1.30000e+00	2.141213e-03	
362	-1.35000e+00	2.185105e-03	
363	-1.40000e+00	2.226369e-03	
364	-1.45000e+00	2.265034e-03	
365	-1.50000e+00	2.301129e-03	
366	-1.55000e+00	2.334692e-03	
367	-1.60000e+00	2.365765e-03	
368	-1.65000e+00	2.394405e-03	
369	-1.70000e+00	2.420688e-03	
370	-1.75000e+00	2.444717e-03	
371	-1.80000e+00	2.466637e-03	
372	-1.85000e+00	2.486631e-03	
373	-1.90000e+00	2.504911e-03	
374	-1.95000e+00	2.521702e-03	
375	-2.00000e+00	2.537212e-03	
376	-2.05000e+00	2.551625e-03	
377	-2.10000e+00	2.565094e-03	
378	-2.15000e+00	2.577745e-03	
379	-2.20000e+00	2.589684e-03	
380	-2.25000e+00	2.600996e-03	
381	-2.30000e+00	2.611752e-03	
382	-2.35000e+00	2.622013e-03	
383	-2.40000e+00	2.631830e-03	
384	-2.45000e+00	2.641246e-03	
385	-2.50000e+00	2.650298e-03	
386	-2.55000e+00	2.659019e-03	
387	-2.60000e+00	2.667438e-03	
388	-2.65000e+00	2.675579e-03	
389	-2.70000e+00	2.683464e-03	
390	-2.75000e+00	2.691113e-03	
391	-2.80000e+00	2.698542e-03	
392	-2.85000e+00	2.705769e-03	
393	-2.90000e+00	2.712805e-03	
394	-2.95000e+00	2.719665e-03	
395	-3.00000e+00	2.726359e-03	
396	-3.05000e+00	2.732897e-03	
397	-3.10000e+00	2.739290e-03	
398	-3.15000e+00	2.745545e-03	
399	-3.20000e+00	2.751671e-03	
400	-3.25000e+00	2.757674e-03	
401	-3.30000e+00	2.763562e-03	
Note: No ".plot", ".print", or ".fourier" lines; no simulations run
