
Note: Compatibility modes selected: hs

Warning: m=xx on .subckt line will override multiplier m hierarchy!


Circuit: ***************************

Doing analysis at TEMP = 25.000000 and TNOM = 25.000000


No. of Data Rows : 402
                          ***************************
                          DC transfer characteristic  Mon Jan  9 13:58:23  2023
--------------------------------------------------------------------------------
Index   v-sweep         i(vds)          
--------------------------------------------------------------------------------
0	0.000000e+00	-1.52212e-22	
1	-5.00000e-02	5.142934e-07	
2	-1.00000e-01	6.286613e-07	
3	-1.50000e-01	6.469402e-07	
4	-2.00000e-01	6.526802e-07	
5	-2.50000e-01	6.558329e-07	
6	-3.00000e-01	6.581116e-07	
7	-3.50000e-01	6.599827e-07	
8	-4.00000e-01	6.616188e-07	
9	-4.50000e-01	6.630990e-07	
10	-5.00000e-01	6.644657e-07	
11	-5.50000e-01	6.657446e-07	
12	-6.00000e-01	6.669524e-07	
13	-6.50000e-01	6.681011e-07	
14	-7.00000e-01	6.691992e-07	
15	-7.50000e-01	6.702536e-07	
16	-8.00000e-01	6.712696e-07	
17	-8.50000e-01	6.722515e-07	
18	-9.00000e-01	6.732028e-07	
19	-9.50000e-01	6.741266e-07	
20	-1.00000e+00	6.750255e-07	
21	-1.05000e+00	6.759016e-07	
22	-1.10000e+00	6.767568e-07	
23	-1.15000e+00	6.775928e-07	
24	-1.20000e+00	6.784111e-07	
25	-1.25000e+00	6.792129e-07	
26	-1.30000e+00	6.799994e-07	
27	-1.35000e+00	6.807717e-07	
28	-1.40000e+00	6.815308e-07	
29	-1.45000e+00	6.822773e-07	
30	-1.50000e+00	6.830121e-07	
31	-1.55000e+00	6.837360e-07	
32	-1.60000e+00	6.844494e-07	
33	-1.65000e+00	6.851531e-07	
34	-1.70000e+00	6.858475e-07	
35	-1.75000e+00	6.865332e-07	
36	-1.80000e+00	6.872106e-07	
37	-1.85000e+00	6.878801e-07	
38	-1.90000e+00	6.885422e-07	
39	-1.95000e+00	6.891971e-07	
40	-2.00000e+00	6.898454e-07	
41	-2.05000e+00	6.904873e-07	
42	-2.10000e+00	6.911233e-07	
43	-2.15000e+00	6.917536e-07	
44	-2.20000e+00	6.923787e-07	
45	-2.25000e+00	6.929990e-07	
46	-2.30000e+00	6.936150e-07	
47	-2.35000e+00	6.942272e-07	
48	-2.40000e+00	6.948361e-07	
49	-2.45000e+00	6.954424e-07	
50	-2.50000e+00	6.960469e-07	
51	-2.55000e+00	6.966505e-07	
52	-2.60000e+00	6.972542e-07	
53	-2.65000e+00	6.978592e-07	
54	-2.70000e+00	6.984670e-07	

Index   v-sweep         i(vds)          
--------------------------------------------------------------------------------
55	-2.75000e+00	6.990791e-07	
56	-2.80000e+00	6.996975e-07	
57	-2.85000e+00	7.003243e-07	
58	-2.90000e+00	7.009620e-07	
59	-2.95000e+00	7.016134e-07	
60	-3.00000e+00	7.022817e-07	
61	-3.05000e+00	7.029705e-07	
62	-3.10000e+00	7.036839e-07	
63	-3.15000e+00	7.044264e-07	
64	-3.20000e+00	7.052030e-07	
65	-3.25000e+00	7.060193e-07	
66	-3.30000e+00	7.068815e-07	
67	0.000000e+00	3.783884e-31	
68	-5.00000e-02	8.922110e-06	
69	-1.00000e-01	1.667057e-05	
70	-1.50000e-01	2.325171e-05	
71	-2.00000e-01	2.867422e-05	
72	-2.50000e-01	3.295256e-05	
73	-3.00000e-01	3.611640e-05	
74	-3.50000e-01	3.823618e-05	
75	-4.00000e-01	3.947525e-05	
76	-4.50000e-01	4.011573e-05	
77	-5.00000e-01	4.044721e-05	
78	-5.50000e-01	4.064383e-05	
79	-6.00000e-01	4.078057e-05	
80	-6.50000e-01	4.088723e-05	
81	-7.00000e-01	4.097650e-05	
82	-7.50000e-01	4.105445e-05	
83	-8.00000e-01	4.112433e-05	
84	-8.50000e-01	4.118809e-05	
85	-9.00000e-01	4.124696e-05	
86	-9.50000e-01	4.130182e-05	
87	-1.00000e+00	4.135328e-05	
88	-1.05000e+00	4.140182e-05	
89	-1.10000e+00	4.144781e-05	
90	-1.15000e+00	4.149155e-05	
91	-1.20000e+00	4.153328e-05	
92	-1.25000e+00	4.157321e-05	
93	-1.30000e+00	4.161151e-05	
94	-1.35000e+00	4.164833e-05	
95	-1.40000e+00	4.168379e-05	
96	-1.45000e+00	4.171800e-05	
97	-1.50000e+00	4.175106e-05	
98	-1.55000e+00	4.178306e-05	
99	-1.60000e+00	4.181408e-05	
100	-1.65000e+00	4.184417e-05	
101	-1.70000e+00	4.187341e-05	
102	-1.75000e+00	4.190184e-05	
103	-1.80000e+00	4.192952e-05	
104	-1.85000e+00	4.195649e-05	
105	-1.90000e+00	4.198280e-05	
106	-1.95000e+00	4.200848e-05	
107	-2.00000e+00	4.203356e-05	
108	-2.05000e+00	4.205808e-05	
109	-2.10000e+00	4.208207e-05	
110	-2.15000e+00	4.210556e-05	
111	-2.20000e+00	4.212856e-05	
112	-2.25000e+00	4.215111e-05	

Index   v-sweep         i(vds)          
--------------------------------------------------------------------------------
113	-2.30000e+00	4.217323e-05	
114	-2.35000e+00	4.219494e-05	
115	-2.40000e+00	4.221626e-05	
116	-2.45000e+00	4.223722e-05	
117	-2.50000e+00	4.225784e-05	
118	-2.55000e+00	4.227813e-05	
119	-2.60000e+00	4.229814e-05	
120	-2.65000e+00	4.231788e-05	
121	-2.70000e+00	4.233738e-05	
122	-2.75000e+00	4.235669e-05	
123	-2.80000e+00	4.237585e-05	
124	-2.85000e+00	4.239490e-05	
125	-2.90000e+00	4.241390e-05	
126	-2.95000e+00	4.243291e-05	
127	-3.00000e+00	4.245201e-05	
128	-3.05000e+00	4.247128e-05	
129	-3.10000e+00	4.249084e-05	
130	-3.15000e+00	4.251078e-05	
131	-3.20000e+00	4.253126e-05	
132	-3.25000e+00	4.255241e-05	
133	-3.30000e+00	4.257442e-05	
134	0.000000e+00	-2.24686e-30	
135	-5.00000e-02	1.697573e-05	
136	-1.00000e-01	3.282843e-05	
137	-1.50000e-01	4.756161e-05	
138	-2.00000e-01	6.117884e-05	
139	-2.50000e-01	7.368383e-05	
140	-3.00000e-01	8.508044e-05	
141	-3.50000e-01	9.537289e-05	
142	-4.00000e-01	1.045659e-04	
143	-4.50000e-01	1.126652e-04	
144	-5.00000e-01	1.196781e-04	
145	-5.50000e-01	1.256156e-04	
146	-6.00000e-01	1.304954e-04	
147	-6.50000e-01	1.343494e-04	
148	-7.00000e-01	1.372384e-04	
149	-7.50000e-01	1.392743e-04	
150	-8.00000e-01	1.406337e-04	
151	-8.50000e-01	1.415293e-04	
152	-9.00000e-01	1.421452e-04	
153	-9.50000e-01	1.426015e-04	
154	-1.00000e+00	1.429649e-04	
155	-1.05000e+00	1.432702e-04	
156	-1.10000e+00	1.435363e-04	
157	-1.15000e+00	1.437742e-04	
158	-1.20000e+00	1.439904e-04	
159	-1.25000e+00	1.441894e-04	
160	-1.30000e+00	1.443742e-04	
161	-1.35000e+00	1.445471e-04	
162	-1.40000e+00	1.447096e-04	
163	-1.45000e+00	1.448633e-04	
164	-1.50000e+00	1.450090e-04	
165	-1.55000e+00	1.451477e-04	
166	-1.60000e+00	1.452800e-04	
167	-1.65000e+00	1.454067e-04	
168	-1.70000e+00	1.455282e-04	
169	-1.75000e+00	1.456449e-04	
170	-1.80000e+00	1.457573e-04	

Index   v-sweep         i(vds)          
--------------------------------------------------------------------------------
171	-1.85000e+00	1.458657e-04	
172	-1.90000e+00	1.459704e-04	
173	-1.95000e+00	1.460716e-04	
174	-2.00000e+00	1.461696e-04	
175	-2.05000e+00	1.462647e-04	
176	-2.10000e+00	1.463569e-04	
177	-2.15000e+00	1.464466e-04	
178	-2.20000e+00	1.465337e-04	
179	-2.25000e+00	1.466186e-04	
180	-2.30000e+00	1.467013e-04	
181	-2.35000e+00	1.467819e-04	
182	-2.40000e+00	1.468605e-04	
183	-2.45000e+00	1.469373e-04	
184	-2.50000e+00	1.470123e-04	
185	-2.55000e+00	1.470857e-04	
186	-2.60000e+00	1.471575e-04	
187	-2.65000e+00	1.472278e-04	
188	-2.70000e+00	1.472967e-04	
189	-2.75000e+00	1.473642e-04	
190	-2.80000e+00	1.474304e-04	
191	-2.85000e+00	1.474955e-04	
192	-2.90000e+00	1.475594e-04	
193	-2.95000e+00	1.476223e-04	
194	-3.00000e+00	1.476842e-04	
195	-3.05000e+00	1.477453e-04	
196	-3.10000e+00	1.478057e-04	
197	-3.15000e+00	1.478655e-04	
198	-3.20000e+00	1.479249e-04	
199	-3.25000e+00	1.479840e-04	
200	-3.30000e+00	1.480431e-04	
201	0.000000e+00	-6.56255e-30	
202	-5.00000e-02	2.373693e-05	
203	-1.00000e-01	4.643542e-05	
204	-1.50000e-01	6.809827e-05	
205	-2.00000e-01	8.872831e-05	
206	-2.50000e-01	1.083284e-04	
207	-3.00000e-01	1.269012e-04	
208	-3.50000e-01	1.444499e-04	
209	-4.00000e-01	1.609771e-04	
210	-4.50000e-01	1.764859e-04	
211	-5.00000e-01	1.909793e-04	
212	-5.50000e-01	2.044604e-04	
213	-6.00000e-01	2.169326e-04	
214	-6.50000e-01	2.283993e-04	
215	-7.00000e-01	2.388643e-04	
216	-7.50000e-01	2.483323e-04	
217	-8.00000e-01	2.568087e-04	
218	-8.50000e-01	2.643005e-04	
219	-9.00000e-01	2.708178e-04	
220	-9.50000e-01	2.763759e-04	
221	-1.00000e+00	2.809998e-04	
222	-1.05000e+00	2.847313e-04	
223	-1.10000e+00	2.876409e-04	
224	-1.15000e+00	2.898376e-04	
225	-1.20000e+00	2.914667e-04	
226	-1.25000e+00	2.926847e-04	
227	-1.30000e+00	2.936257e-04	
228	-1.35000e+00	2.943853e-04	

Index   v-sweep         i(vds)          
--------------------------------------------------------------------------------
229	-1.40000e+00	2.950242e-04	
230	-1.45000e+00	2.955792e-04	
231	-1.50000e+00	2.960730e-04	
232	-1.55000e+00	2.965201e-04	
233	-1.60000e+00	2.969300e-04	
234	-1.65000e+00	2.973096e-04	
235	-1.70000e+00	2.976636e-04	
236	-1.75000e+00	2.979957e-04	
237	-1.80000e+00	2.983089e-04	
238	-1.85000e+00	2.986054e-04	
239	-1.90000e+00	2.988871e-04	
240	-1.95000e+00	2.991555e-04	
241	-2.00000e+00	2.994120e-04	
242	-2.05000e+00	2.996576e-04	
243	-2.10000e+00	2.998932e-04	
244	-2.15000e+00	3.001198e-04	
245	-2.20000e+00	3.003381e-04	
246	-2.25000e+00	3.005486e-04	
247	-2.30000e+00	3.007519e-04	
248	-2.35000e+00	3.009486e-04	
249	-2.40000e+00	3.011391e-04	
250	-2.45000e+00	3.013238e-04	
251	-2.50000e+00	3.015030e-04	
252	-2.55000e+00	3.016771e-04	
253	-2.60000e+00	3.018465e-04	
254	-2.65000e+00	3.020113e-04	
255	-2.70000e+00	3.021719e-04	
256	-2.75000e+00	3.023284e-04	
257	-2.80000e+00	3.024811e-04	
258	-2.85000e+00	3.026301e-04	
259	-2.90000e+00	3.027757e-04	
260	-2.95000e+00	3.029181e-04	
261	-3.00000e+00	3.030573e-04	
262	-3.05000e+00	3.031936e-04	
263	-3.10000e+00	3.033271e-04	
264	-3.15000e+00	3.034579e-04	
265	-3.20000e+00	3.035862e-04	
266	-3.25000e+00	3.037122e-04	
267	-3.30000e+00	3.038361e-04	
268	0.000000e+00	1.635112e-30	
269	-5.00000e-02	2.937666e-05	
270	-1.00000e-01	5.780125e-05	
271	-1.50000e-01	8.527611e-05	
272	-2.00000e-01	1.118036e-04	
273	-2.50000e-01	1.373860e-04	
274	-3.00000e-01	1.620257e-04	
275	-3.50000e-01	1.857251e-04	
276	-4.00000e-01	2.084865e-04	
277	-4.50000e-01	2.303122e-04	
278	-5.00000e-01	2.512048e-04	
279	-5.50000e-01	2.711664e-04	
280	-6.00000e-01	2.901997e-04	
281	-6.50000e-01	3.083069e-04	
282	-7.00000e-01	3.254905e-04	
283	-7.50000e-01	3.417531e-04	
284	-8.00000e-01	3.570972e-04	
285	-8.50000e-01	3.715254e-04	
286	-9.00000e-01	3.850403e-04	

Index   v-sweep         i(vds)          
--------------------------------------------------------------------------------
287	-9.50000e-01	3.976450e-04	
288	-1.00000e+00	4.093425e-04	
289	-1.05000e+00	4.201362e-04	
290	-1.10000e+00	4.300299e-04	
291	-1.15000e+00	4.390285e-04	
292	-1.20000e+00	4.471376e-04	
293	-1.25000e+00	4.543653e-04	
294	-1.30000e+00	4.607227e-04	
295	-1.35000e+00	4.662265e-04	
296	-1.40000e+00	4.709030e-04	
297	-1.45000e+00	4.747932e-04	
298	-1.50000e+00	4.779601e-04	
299	-1.55000e+00	4.804936e-04	
300	-1.60000e+00	4.825063e-04	
301	-1.65000e+00	4.841181e-04	
302	-1.70000e+00	4.854366e-04	
303	-1.75000e+00	4.865454e-04	
304	-1.80000e+00	4.875033e-04	
305	-1.85000e+00	4.883497e-04	
306	-1.90000e+00	4.891111e-04	
307	-1.95000e+00	4.898054e-04	
308	-2.00000e+00	4.904452e-04	
309	-2.05000e+00	4.910397e-04	
310	-2.10000e+00	4.915957e-04	
311	-2.15000e+00	4.921185e-04	
312	-2.20000e+00	4.926121e-04	
313	-2.25000e+00	4.930801e-04	
314	-2.30000e+00	4.935252e-04	
315	-2.35000e+00	4.939497e-04	
316	-2.40000e+00	4.943555e-04	
317	-2.45000e+00	4.947444e-04	
318	-2.50000e+00	4.951177e-04	
319	-2.55000e+00	4.954768e-04	
320	-2.60000e+00	4.958228e-04	
321	-2.65000e+00	4.961566e-04	
322	-2.70000e+00	4.964792e-04	
323	-2.75000e+00	4.967912e-04	
324	-2.80000e+00	4.970935e-04	
325	-2.85000e+00	4.973865e-04	
326	-2.90000e+00	4.976710e-04	
327	-2.95000e+00	4.979474e-04	
328	-3.00000e+00	4.982162e-04	
329	-3.05000e+00	4.984778e-04	
330	-3.10000e+00	4.987326e-04	
331	-3.15000e+00	4.989809e-04	
332	-3.20000e+00	4.992232e-04	
333	-3.25000e+00	4.994598e-04	
334	-3.30000e+00	4.996908e-04	
335	0.000000e+00	8.534612e-30	
336	-5.00000e-02	3.406650e-05	
337	-1.00000e-01	6.726260e-05	
338	-1.50000e-01	9.959028e-05	
339	-2.00000e-01	1.310515e-04	
340	-2.50000e-01	1.616483e-04	
341	-3.00000e-01	1.913825e-04	
342	-3.50000e-01	2.202563e-04	
343	-4.00000e-01	2.482715e-04	
344	-4.50000e-01	2.754302e-04	

Index   v-sweep         i(vds)          
--------------------------------------------------------------------------------
345	-5.00000e-01	3.017344e-04	
346	-5.50000e-01	3.271860e-04	
347	-6.00000e-01	3.517871e-04	
348	-6.50000e-01	3.755396e-04	
349	-7.00000e-01	3.984456e-04	
350	-7.50000e-01	4.205071e-04	
351	-8.00000e-01	4.417261e-04	
352	-8.50000e-01	4.621046e-04	
353	-9.00000e-01	4.816447e-04	
354	-9.50000e-01	5.003485e-04	
355	-1.00000e+00	5.182180e-04	
356	-1.05000e+00	5.352553e-04	
357	-1.10000e+00	5.514626e-04	
358	-1.15000e+00	5.668421e-04	
359	-1.20000e+00	5.813960e-04	
360	-1.25000e+00	5.951267e-04	
361	-1.30000e+00	6.080366e-04	
362	-1.35000e+00	6.201283e-04	
363	-1.40000e+00	6.314047e-04	
364	-1.45000e+00	6.418690e-04	
365	-1.50000e+00	6.515248e-04	
366	-1.55000e+00	6.603766e-04	
367	-1.60000e+00	6.684301e-04	
368	-1.65000e+00	6.756927e-04	
369	-1.70000e+00	6.821749e-04	
370	-1.75000e+00	6.878917e-04	
371	-1.80000e+00	6.928656e-04	
372	-1.85000e+00	6.971301e-04	
373	-1.90000e+00	7.007341e-04	
374	-1.95000e+00	7.037454e-04	
375	-2.00000e+00	7.062485e-04	
376	-2.05000e+00	7.083372e-04	
377	-2.10000e+00	7.101018e-04	
378	-2.15000e+00	7.116192e-04	
379	-2.20000e+00	7.129489e-04	
380	-2.25000e+00	7.141343e-04	
381	-2.30000e+00	7.152064e-04	
382	-2.35000e+00	7.161875e-04	
383	-2.40000e+00	7.170938e-04	
384	-2.45000e+00	7.179371e-04	
385	-2.50000e+00	7.187267e-04	
386	-2.55000e+00	7.194697e-04	
387	-2.60000e+00	7.201719e-04	
388	-2.65000e+00	7.208379e-04	
389	-2.70000e+00	7.214715e-04	
390	-2.75000e+00	7.220759e-04	
391	-2.80000e+00	7.226539e-04	
392	-2.85000e+00	7.232079e-04	
393	-2.90000e+00	7.237399e-04	
394	-2.95000e+00	7.242516e-04	
395	-3.00000e+00	7.247447e-04	
396	-3.05000e+00	7.252204e-04	
397	-3.10000e+00	7.256801e-04	
398	-3.15000e+00	7.261248e-04	
399	-3.20000e+00	7.265556e-04	
400	-3.25000e+00	7.269732e-04	
401	-3.30000e+00	7.273786e-04	
Note: No ".plot", ".print", or ".fourier" lines; no simulations run
