
Note: Compatibility modes selected: hs

Warning: m=xx on .subckt line will override multiplier m hierarchy!


Circuit: ***************************

Doing analysis at TEMP = -40.000000 and TNOM = -40.000000


No. of Data Rows : 402
                          ***************************
                          DC transfer characteristic  Mon Jan  9 13:58:24  2023
--------------------------------------------------------------------------------
Index   v-sweep         i(vds)          
--------------------------------------------------------------------------------
0	0.000000e+00	3.181813e-25	
1	-5.00000e-02	1.453104e-09	
2	-1.00000e-01	1.565817e-09	
3	-1.50000e-01	1.583456e-09	
4	-2.00000e-01	1.589618e-09	
5	-2.50000e-01	1.592896e-09	
6	-3.00000e-01	1.595108e-09	
7	-3.50000e-01	1.596822e-09	
8	-4.00000e-01	1.598266e-09	
9	-4.50000e-01	1.599544e-09	
10	-5.00000e-01	1.600712e-09	
11	-5.50000e-01	1.601802e-09	
12	-6.00000e-01	1.602834e-09	
13	-6.50000e-01	1.603821e-09	
14	-7.00000e-01	1.604771e-09	
15	-7.50000e-01	1.605692e-09	
16	-8.00000e-01	1.606589e-09	
17	-8.50000e-01	1.607464e-09	
18	-9.00000e-01	1.608320e-09	
19	-9.50000e-01	1.609161e-09	
20	-1.00000e+00	1.609987e-09	
21	-1.05000e+00	1.610800e-09	
22	-1.10000e+00	1.611603e-09	
23	-1.15000e+00	1.612394e-09	
24	-1.20000e+00	1.613177e-09	
25	-1.25000e+00	1.613951e-09	
26	-1.30000e+00	1.614716e-09	
27	-1.35000e+00	1.615475e-09	
28	-1.40000e+00	1.616227e-09	
29	-1.45000e+00	1.616973e-09	
30	-1.50000e+00	1.617712e-09	
31	-1.55000e+00	1.618447e-09	
32	-1.60000e+00	1.619176e-09	
33	-1.65000e+00	1.619900e-09	
34	-1.70000e+00	1.620620e-09	
35	-1.75000e+00	1.621335e-09	
36	-1.80000e+00	1.622047e-09	
37	-1.85000e+00	1.622755e-09	
38	-1.90000e+00	1.623459e-09	
39	-1.95000e+00	1.624160e-09	
40	-2.00000e+00	1.624858e-09	
41	-2.05000e+00	1.625552e-09	
42	-2.10000e+00	1.626244e-09	
43	-2.15000e+00	1.626934e-09	
44	-2.20000e+00	1.627621e-09	
45	-2.25000e+00	1.628306e-09	
46	-2.30000e+00	1.628990e-09	
47	-2.35000e+00	1.629673e-09	
48	-2.40000e+00	1.630355e-09	
49	-2.45000e+00	1.631037e-09	
50	-2.50000e+00	1.631721e-09	
51	-2.55000e+00	1.632407e-09	
52	-2.60000e+00	1.633096e-09	
53	-2.65000e+00	1.633791e-09	
54	-2.70000e+00	1.634493e-09	

Index   v-sweep         i(vds)          
--------------------------------------------------------------------------------
55	-2.75000e+00	1.635206e-09	
56	-2.80000e+00	1.635932e-09	
57	-2.85000e+00	1.636676e-09	
58	-2.90000e+00	1.637441e-09	
59	-2.95000e+00	1.638235e-09	
60	-3.00000e+00	1.639062e-09	
61	-3.05000e+00	1.639931e-09	
62	-3.10000e+00	1.640850e-09	
63	-3.15000e+00	1.641831e-09	
64	-3.20000e+00	1.642885e-09	
65	-3.25000e+00	1.644026e-09	
66	-3.30000e+00	1.645269e-09	
67	0.000000e+00	5.862127e-23	
68	-5.00000e-02	9.874878e-08	
69	-1.00000e-01	1.809017e-07	
70	-1.50000e-01	2.465505e-07	
71	-2.00000e-01	2.959112e-07	
72	-2.50000e-01	3.295696e-07	
73	-3.00000e-01	3.491745e-07	
74	-3.50000e-01	3.584432e-07	
75	-4.00000e-01	3.622499e-07	
76	-4.50000e-01	3.638856e-07	
77	-5.00000e-01	3.647112e-07	
78	-5.50000e-01	3.652036e-07	
79	-6.00000e-01	3.655386e-07	
80	-6.50000e-01	3.657894e-07	
81	-7.00000e-01	3.659901e-07	
82	-7.50000e-01	3.661586e-07	
83	-8.00000e-01	3.663047e-07	
84	-8.50000e-01	3.664346e-07	
85	-9.00000e-01	3.665521e-07	
86	-9.50000e-01	3.666599e-07	
87	-1.00000e+00	3.667598e-07	
88	-1.05000e+00	3.668531e-07	
89	-1.10000e+00	3.669410e-07	
90	-1.15000e+00	3.670241e-07	
91	-1.20000e+00	3.671030e-07	
92	-1.25000e+00	3.671784e-07	
93	-1.30000e+00	3.672506e-07	
94	-1.35000e+00	3.673199e-07	
95	-1.40000e+00	3.673866e-07	
96	-1.45000e+00	3.674509e-07	
97	-1.50000e+00	3.675131e-07	
98	-1.55000e+00	3.675734e-07	
99	-1.60000e+00	3.676319e-07	
100	-1.65000e+00	3.676887e-07	
101	-1.70000e+00	3.677439e-07	
102	-1.75000e+00	3.677978e-07	
103	-1.80000e+00	3.678502e-07	
104	-1.85000e+00	3.679015e-07	
105	-1.90000e+00	3.679516e-07	
106	-1.95000e+00	3.680005e-07	
107	-2.00000e+00	3.680485e-07	
108	-2.05000e+00	3.680954e-07	
109	-2.10000e+00	3.681415e-07	
110	-2.15000e+00	3.681866e-07	
111	-2.20000e+00	3.682310e-07	
112	-2.25000e+00	3.682746e-07	

Index   v-sweep         i(vds)          
--------------------------------------------------------------------------------
113	-2.30000e+00	3.683174e-07	
114	-2.35000e+00	3.683596e-07	
115	-2.40000e+00	3.684011e-07	
116	-2.45000e+00	3.684421e-07	
117	-2.50000e+00	3.684825e-07	
118	-2.55000e+00	3.685226e-07	
119	-2.60000e+00	3.685622e-07	
120	-2.65000e+00	3.686017e-07	
121	-2.70000e+00	3.686410e-07	
122	-2.75000e+00	3.686803e-07	
123	-2.80000e+00	3.687200e-07	
124	-2.85000e+00	3.687602e-07	
125	-2.90000e+00	3.688013e-07	
126	-2.95000e+00	3.688436e-07	
127	-3.00000e+00	3.688878e-07	
128	-3.05000e+00	3.689343e-07	
129	-3.10000e+00	3.689840e-07	
130	-3.15000e+00	3.690378e-07	
131	-3.20000e+00	3.690967e-07	
132	-3.25000e+00	3.691620e-07	
133	-3.30000e+00	3.692352e-07	
134	0.000000e+00	-3.46690e-23	
135	-5.00000e-02	2.066368e-07	
136	-1.00000e-01	3.970765e-07	
137	-1.50000e-01	5.713326e-07	
138	-2.00000e-01	7.294213e-07	
139	-2.50000e-01	8.713631e-07	
140	-3.00000e-01	9.971865e-07	
141	-3.50000e-01	1.106935e-06	
142	-4.00000e-01	1.200677e-06	
143	-4.50000e-01	1.278541e-06	
144	-5.00000e-01	1.340771e-06	
145	-5.50000e-01	1.387872e-06	
146	-6.00000e-01	1.420901e-06	
147	-6.50000e-01	1.441900e-06	
148	-7.00000e-01	1.454017e-06	
149	-7.50000e-01	1.460677e-06	
150	-8.00000e-01	1.464438e-06	
151	-8.50000e-01	1.466741e-06	
152	-9.00000e-01	1.468288e-06	
153	-9.50000e-01	1.469418e-06	
154	-1.00000e+00	1.470300e-06	
155	-1.05000e+00	1.471023e-06	
156	-1.10000e+00	1.471637e-06	
157	-1.15000e+00	1.472174e-06	
158	-1.20000e+00	1.472653e-06	
159	-1.25000e+00	1.473087e-06	
160	-1.30000e+00	1.473485e-06	
161	-1.35000e+00	1.473853e-06	
162	-1.40000e+00	1.474196e-06	
163	-1.45000e+00	1.474519e-06	
164	-1.50000e+00	1.474823e-06	
165	-1.55000e+00	1.475111e-06	
166	-1.60000e+00	1.475386e-06	
167	-1.65000e+00	1.475648e-06	
168	-1.70000e+00	1.475898e-06	
169	-1.75000e+00	1.476139e-06	
170	-1.80000e+00	1.476370e-06	

Index   v-sweep         i(vds)          
--------------------------------------------------------------------------------
171	-1.85000e+00	1.476593e-06	
172	-1.90000e+00	1.476809e-06	
173	-1.95000e+00	1.477017e-06	
174	-2.00000e+00	1.477219e-06	
175	-2.05000e+00	1.477415e-06	
176	-2.10000e+00	1.477605e-06	
177	-2.15000e+00	1.477790e-06	
178	-2.20000e+00	1.477969e-06	
179	-2.25000e+00	1.478145e-06	
180	-2.30000e+00	1.478316e-06	
181	-2.35000e+00	1.478482e-06	
182	-2.40000e+00	1.478645e-06	
183	-2.45000e+00	1.478805e-06	
184	-2.50000e+00	1.478961e-06	
185	-2.55000e+00	1.479113e-06	
186	-2.60000e+00	1.479263e-06	
187	-2.65000e+00	1.479409e-06	
188	-2.70000e+00	1.479554e-06	
189	-2.75000e+00	1.479695e-06	
190	-2.80000e+00	1.479834e-06	
191	-2.85000e+00	1.479972e-06	
192	-2.90000e+00	1.480107e-06	
193	-2.95000e+00	1.480242e-06	
194	-3.00000e+00	1.480375e-06	
195	-3.05000e+00	1.480508e-06	
196	-3.10000e+00	1.480642e-06	
197	-3.15000e+00	1.480777e-06	
198	-3.20000e+00	1.480914e-06	
199	-3.25000e+00	1.481055e-06	
200	-3.30000e+00	1.481202e-06	
201	0.000000e+00	-1.50090e-22	
202	-5.00000e-02	3.029788e-07	
203	-1.00000e-01	5.907749e-07	
204	-1.50000e-01	8.633968e-07	
205	-2.00000e-01	1.120853e-06	
206	-2.50000e-01	1.363154e-06	
207	-3.00000e-01	1.590309e-06	
208	-3.50000e-01	1.802328e-06	
209	-4.00000e-01	1.999224e-06	
210	-4.50000e-01	2.181012e-06	
211	-5.00000e-01	2.347707e-06	
212	-5.50000e-01	2.499332e-06	
213	-6.00000e-01	2.635917e-06	
214	-6.50000e-01	2.757502e-06	
215	-7.00000e-01	2.864152e-06	
216	-7.50000e-01	2.955969e-06	
217	-8.00000e-01	3.033128e-06	
218	-8.50000e-01	3.095939e-06	
219	-9.00000e-01	3.144967e-06	
220	-9.50000e-01	3.181229e-06	
221	-1.00000e+00	3.206411e-06	
222	-1.05000e+00	3.222897e-06	
223	-1.10000e+00	3.233341e-06	
224	-1.15000e+00	3.240011e-06	
225	-1.20000e+00	3.244463e-06	
226	-1.25000e+00	3.247620e-06	
227	-1.30000e+00	3.249997e-06	
228	-1.35000e+00	3.251883e-06	

Index   v-sweep         i(vds)          
--------------------------------------------------------------------------------
229	-1.40000e+00	3.253442e-06	
230	-1.45000e+00	3.254773e-06	
231	-1.50000e+00	3.255938e-06	
232	-1.55000e+00	3.256977e-06	
233	-1.60000e+00	3.257918e-06	
234	-1.65000e+00	3.258779e-06	
235	-1.70000e+00	3.259576e-06	
236	-1.75000e+00	3.260318e-06	
237	-1.80000e+00	3.261013e-06	
238	-1.85000e+00	3.261668e-06	
239	-1.90000e+00	3.262288e-06	
240	-1.95000e+00	3.262877e-06	
241	-2.00000e+00	3.263438e-06	
242	-2.05000e+00	3.263974e-06	
243	-2.10000e+00	3.264488e-06	
244	-2.15000e+00	3.264982e-06	
245	-2.20000e+00	3.265457e-06	
246	-2.25000e+00	3.265915e-06	
247	-2.30000e+00	3.266358e-06	
248	-2.35000e+00	3.266786e-06	
249	-2.40000e+00	3.267200e-06	
250	-2.45000e+00	3.267602e-06	
251	-2.50000e+00	3.267993e-06	
252	-2.55000e+00	3.268372e-06	
253	-2.60000e+00	3.268741e-06	
254	-2.65000e+00	3.269101e-06	
255	-2.70000e+00	3.269451e-06	
256	-2.75000e+00	3.269793e-06	
257	-2.80000e+00	3.270127e-06	
258	-2.85000e+00	3.270453e-06	
259	-2.90000e+00	3.270772e-06	
260	-2.95000e+00	3.271085e-06	
261	-3.00000e+00	3.271390e-06	
262	-3.05000e+00	3.271690e-06	
263	-3.10000e+00	3.271985e-06	
264	-3.15000e+00	3.272274e-06	
265	-3.20000e+00	3.272559e-06	
266	-3.25000e+00	3.272840e-06	
267	-3.30000e+00	3.273118e-06	
268	0.000000e+00	-2.37511e-22	
269	-5.00000e-02	3.870044e-07	
270	-1.00000e-01	7.599681e-07	
271	-1.50000e-01	1.118898e-06	
272	-2.00000e-01	1.463802e-06	
273	-2.50000e-01	1.794686e-06	
274	-3.00000e-01	2.111558e-06	
275	-3.50000e-01	2.414426e-06	
276	-4.00000e-01	2.703298e-06	
277	-4.50000e-01	2.978181e-06	
278	-5.00000e-01	3.239083e-06	
279	-5.50000e-01	3.486014e-06	
280	-6.00000e-01	3.718982e-06	
281	-6.50000e-01	3.937998e-06	
282	-7.00000e-01	4.143074e-06	
283	-7.50000e-01	4.334221e-06	
284	-8.00000e-01	4.511456e-06	
285	-8.50000e-01	4.674797e-06	
286	-9.00000e-01	4.824268e-06	

Index   v-sweep         i(vds)          
--------------------------------------------------------------------------------
287	-9.50000e-01	4.959902e-06	
288	-1.00000e+00	5.081745e-06	
289	-1.05000e+00	5.189865e-06	
290	-1.10000e+00	5.284363e-06	
291	-1.15000e+00	5.365404e-06	
292	-1.20000e+00	5.433261e-06	
293	-1.25000e+00	5.488385e-06	
294	-1.30000e+00	5.531528e-06	
295	-1.35000e+00	5.563873e-06	
296	-1.40000e+00	5.587105e-06	
297	-1.45000e+00	5.603270e-06	
298	-1.50000e+00	5.614417e-06	
299	-1.55000e+00	5.622235e-06	
300	-1.60000e+00	5.627922e-06	
301	-1.65000e+00	5.632244e-06	
302	-1.70000e+00	5.635674e-06	
303	-1.75000e+00	5.638499e-06	
304	-1.80000e+00	5.640899e-06	
305	-1.85000e+00	5.642989e-06	
306	-1.90000e+00	5.644843e-06	
307	-1.95000e+00	5.646513e-06	
308	-2.00000e+00	5.648037e-06	
309	-2.05000e+00	5.649440e-06	
310	-2.10000e+00	5.650743e-06	
311	-2.15000e+00	5.651960e-06	
312	-2.20000e+00	5.653105e-06	
313	-2.25000e+00	5.654185e-06	
314	-2.30000e+00	5.655209e-06	
315	-2.35000e+00	5.656182e-06	
316	-2.40000e+00	5.657112e-06	
317	-2.45000e+00	5.658000e-06	
318	-2.50000e+00	5.658853e-06	
319	-2.55000e+00	5.659672e-06	
320	-2.60000e+00	5.660460e-06	
321	-2.65000e+00	5.661220e-06	
322	-2.70000e+00	5.661955e-06	
323	-2.75000e+00	5.662666e-06	
324	-2.80000e+00	5.663354e-06	
325	-2.85000e+00	5.664021e-06	
326	-2.90000e+00	5.664669e-06	
327	-2.95000e+00	5.665299e-06	
328	-3.00000e+00	5.665912e-06	
329	-3.05000e+00	5.666508e-06	
330	-3.10000e+00	5.667090e-06	
331	-3.15000e+00	5.667657e-06	
332	-3.20000e+00	5.668211e-06	
333	-3.25000e+00	5.668752e-06	
334	-3.30000e+00	5.669281e-06	
335	0.000000e+00	-1.24233e-22	
336	-5.00000e-02	4.589661e-07	
337	-1.00000e-01	9.050453e-07	
338	-1.50000e-01	1.338244e-06	
339	-2.00000e-01	1.758568e-06	
340	-2.50000e-01	2.166024e-06	
341	-3.00000e-01	2.560619e-06	
342	-3.50000e-01	2.942357e-06	
343	-4.00000e-01	3.311247e-06	
344	-4.50000e-01	3.667294e-06	

Index   v-sweep         i(vds)          
--------------------------------------------------------------------------------
345	-5.00000e-01	4.010505e-06	
346	-5.50000e-01	4.340887e-06	
347	-6.00000e-01	4.658446e-06	
348	-6.50000e-01	4.963188e-06	
349	-7.00000e-01	5.255122e-06	
350	-7.50000e-01	5.534254e-06	
351	-8.00000e-01	5.800591e-06	
352	-8.50000e-01	6.054142e-06	
353	-9.00000e-01	6.294915e-06	
354	-9.50000e-01	6.522918e-06	
355	-1.00000e+00	6.738162e-06	
356	-1.05000e+00	6.940657e-06	
357	-1.10000e+00	7.130416e-06	
358	-1.15000e+00	7.307454e-06	
359	-1.20000e+00	7.471788e-06	
360	-1.25000e+00	7.623441e-06	
361	-1.30000e+00	7.762442e-06	
362	-1.35000e+00	7.888831e-06	
363	-1.40000e+00	8.002664e-06	
364	-1.45000e+00	8.104021e-06	
365	-1.50000e+00	8.193025e-06	
366	-1.55000e+00	8.269864e-06	
367	-1.60000e+00	8.334830e-06	
368	-1.65000e+00	8.388388e-06	
369	-1.70000e+00	8.431252e-06	
370	-1.75000e+00	8.464471e-06	
371	-1.80000e+00	8.489448e-06	
372	-1.85000e+00	8.507834e-06	
373	-1.90000e+00	8.521295e-06	
374	-1.95000e+00	8.531270e-06	
375	-2.00000e+00	8.538857e-06	
376	-2.05000e+00	8.544819e-06	
377	-2.10000e+00	8.549661e-06	
378	-2.15000e+00	8.553715e-06	
379	-2.20000e+00	8.557196e-06	
380	-2.25000e+00	8.560248e-06	
381	-2.30000e+00	8.562970e-06	
382	-2.35000e+00	8.565432e-06	
383	-2.40000e+00	8.567683e-06	
384	-2.45000e+00	8.569759e-06	
385	-2.50000e+00	8.571689e-06	
386	-2.55000e+00	8.573494e-06	
387	-2.60000e+00	8.575192e-06	
388	-2.65000e+00	8.576795e-06	
389	-2.70000e+00	8.578315e-06	
390	-2.75000e+00	8.579761e-06	
391	-2.80000e+00	8.581141e-06	
392	-2.85000e+00	8.582461e-06	
393	-2.90000e+00	8.583727e-06	
394	-2.95000e+00	8.584943e-06	
395	-3.00000e+00	8.586114e-06	
396	-3.05000e+00	8.587243e-06	
397	-3.10000e+00	8.588333e-06	
398	-3.15000e+00	8.589387e-06	
399	-3.20000e+00	8.590408e-06	
400	-3.25000e+00	8.591398e-06	
401	-3.30000e+00	8.592359e-06	
Note: No ".plot", ".print", or ".fourier" lines; no simulations run
