
Note: Compatibility modes selected: hs

Warning: m=xx on .subckt line will override multiplier m hierarchy!


Circuit: ***************************

Doing analysis at TEMP = 25.000000 and TNOM = 25.000000


No. of Data Rows : 402
                          ***************************
                          DC transfer characteristic  Mon Jan  9 13:58:23  2023
--------------------------------------------------------------------------------
Index   v-sweep         i(vds)          
--------------------------------------------------------------------------------
0	0.000000e+00	-1.67068e-23	
1	-5.00000e-02	1.157223e-07	
2	-1.00000e-01	1.401629e-07	
3	-1.50000e-01	1.437189e-07	
4	-2.00000e-01	1.446283e-07	
5	-2.50000e-01	1.450091e-07	
6	-3.00000e-01	1.452246e-07	
7	-3.50000e-01	1.453715e-07	
8	-4.00000e-01	1.454842e-07	
9	-4.50000e-01	1.455774e-07	
10	-5.00000e-01	1.456582e-07	
11	-5.50000e-01	1.457308e-07	
12	-6.00000e-01	1.457973e-07	
13	-6.50000e-01	1.458593e-07	
14	-7.00000e-01	1.459178e-07	
15	-7.50000e-01	1.459734e-07	
16	-8.00000e-01	1.460266e-07	
17	-8.50000e-01	1.460778e-07	
18	-9.00000e-01	1.461273e-07	
19	-9.50000e-01	1.461753e-07	
20	-1.00000e+00	1.462220e-07	
21	-1.05000e+00	1.462675e-07	
22	-1.10000e+00	1.463120e-07	
23	-1.15000e+00	1.463555e-07	
24	-1.20000e+00	1.463982e-07	
25	-1.25000e+00	1.464401e-07	
26	-1.30000e+00	1.464814e-07	
27	-1.35000e+00	1.465219e-07	
28	-1.40000e+00	1.465619e-07	
29	-1.45000e+00	1.466012e-07	
30	-1.50000e+00	1.466401e-07	
31	-1.55000e+00	1.466785e-07	
32	-1.60000e+00	1.467164e-07	
33	-1.65000e+00	1.467539e-07	
34	-1.70000e+00	1.467909e-07	
35	-1.75000e+00	1.468276e-07	
36	-1.80000e+00	1.468640e-07	
37	-1.85000e+00	1.469000e-07	
38	-1.90000e+00	1.469356e-07	
39	-1.95000e+00	1.469710e-07	
40	-2.00000e+00	1.470061e-07	
41	-2.05000e+00	1.470410e-07	
42	-2.10000e+00	1.470755e-07	
43	-2.15000e+00	1.471099e-07	
44	-2.20000e+00	1.471441e-07	
45	-2.25000e+00	1.471780e-07	
46	-2.30000e+00	1.472119e-07	
47	-2.35000e+00	1.472457e-07	
48	-2.40000e+00	1.472794e-07	
49	-2.45000e+00	1.473131e-07	
50	-2.50000e+00	1.473470e-07	
51	-2.55000e+00	1.473811e-07	
52	-2.60000e+00	1.474156e-07	
53	-2.65000e+00	1.474506e-07	
54	-2.70000e+00	1.474864e-07	

Index   v-sweep         i(vds)          
--------------------------------------------------------------------------------
55	-2.75000e+00	1.475231e-07	
56	-2.80000e+00	1.475612e-07	
57	-2.85000e+00	1.476011e-07	
58	-2.90000e+00	1.476431e-07	
59	-2.95000e+00	1.476879e-07	
60	-3.00000e+00	1.477360e-07	
61	-3.05000e+00	1.477883e-07	
62	-3.10000e+00	1.478457e-07	
63	-3.15000e+00	1.479092e-07	
64	-3.20000e+00	1.479799e-07	
65	-3.25000e+00	1.480594e-07	
66	-3.30000e+00	1.481491e-07	
67	0.000000e+00	-8.06514e-22	
68	-5.00000e-02	1.765988e-06	
69	-1.00000e-01	3.279707e-06	
70	-1.50000e-01	4.541980e-06	
71	-2.00000e-01	5.554437e-06	
72	-2.50000e-01	6.320790e-06	
73	-3.00000e-01	6.850555e-06	
74	-3.50000e-01	7.168572e-06	
75	-4.00000e-01	7.327698e-06	
76	-4.50000e-01	7.397641e-06	
77	-5.00000e-01	7.429078e-06	
78	-5.50000e-01	7.445210e-06	
79	-6.00000e-01	7.454833e-06	
80	-6.50000e-01	7.461346e-06	
81	-7.00000e-01	7.466191e-06	
82	-7.50000e-01	7.470049e-06	
83	-8.00000e-01	7.473273e-06	
84	-8.50000e-01	7.476062e-06	
85	-9.00000e-01	7.478536e-06	
86	-9.50000e-01	7.480772e-06	
87	-1.00000e+00	7.482822e-06	
88	-1.05000e+00	7.484720e-06	
89	-1.10000e+00	7.486495e-06	
90	-1.15000e+00	7.488164e-06	
91	-1.20000e+00	7.489743e-06	
92	-1.25000e+00	7.491245e-06	
93	-1.30000e+00	7.492678e-06	
94	-1.35000e+00	7.494050e-06	
95	-1.40000e+00	7.495368e-06	
96	-1.45000e+00	7.496636e-06	
97	-1.50000e+00	7.497861e-06	
98	-1.55000e+00	7.499045e-06	
99	-1.60000e+00	7.500191e-06	
100	-1.65000e+00	7.501304e-06	
101	-1.70000e+00	7.502385e-06	
102	-1.75000e+00	7.503437e-06	
103	-1.80000e+00	7.504461e-06	
104	-1.85000e+00	7.505460e-06	
105	-1.90000e+00	7.506435e-06	
106	-1.95000e+00	7.507388e-06	
107	-2.00000e+00	7.508320e-06	
108	-2.05000e+00	7.509232e-06	
109	-2.10000e+00	7.510125e-06	
110	-2.15000e+00	7.511001e-06	
111	-2.20000e+00	7.511860e-06	
112	-2.25000e+00	7.512704e-06	

Index   v-sweep         i(vds)          
--------------------------------------------------------------------------------
113	-2.30000e+00	7.513533e-06	
114	-2.35000e+00	7.514348e-06	
115	-2.40000e+00	7.515150e-06	
116	-2.45000e+00	7.515940e-06	
117	-2.50000e+00	7.516720e-06	
118	-2.55000e+00	7.517490e-06	
119	-2.60000e+00	7.518253e-06	
120	-2.65000e+00	7.519011e-06	
121	-2.70000e+00	7.519766e-06	
122	-2.75000e+00	7.520521e-06	
123	-2.80000e+00	7.521281e-06	
124	-2.85000e+00	7.522051e-06	
125	-2.90000e+00	7.522837e-06	
126	-2.95000e+00	7.523649e-06	
127	-3.00000e+00	7.524495e-06	
128	-3.05000e+00	7.525390e-06	
129	-3.10000e+00	7.526347e-06	
130	-3.15000e+00	7.527387e-06	
131	-3.20000e+00	7.528530e-06	
132	-3.25000e+00	7.529806e-06	
133	-3.30000e+00	7.531244e-06	
134	0.000000e+00	4.766676e-31	
135	-5.00000e-02	3.391896e-06	
136	-1.00000e-01	6.541350e-06	
137	-1.50000e-01	9.448544e-06	
138	-2.00000e-01	1.211369e-05	
139	-2.50000e-01	1.453703e-05	
140	-3.00000e-01	1.671888e-05	
141	-3.50000e-01	1.865969e-05	
142	-4.00000e-01	2.036011e-05	
143	-4.50000e-01	2.182116e-05	
144	-5.00000e-01	2.304468e-05	
145	-5.50000e-01	2.403409e-05	
146	-6.00000e-01	2.479622e-05	
147	-6.50000e-01	2.534493e-05	
148	-7.00000e-01	2.570679e-05	
149	-7.50000e-01	2.592424e-05	
150	-8.00000e-01	2.604728e-05	
151	-8.50000e-01	2.611727e-05	
152	-9.00000e-01	2.615966e-05	
153	-9.50000e-01	2.618762e-05	
154	-1.00000e+00	2.620768e-05	
155	-1.05000e+00	2.622308e-05	
156	-1.10000e+00	2.623556e-05	
157	-1.15000e+00	2.624607e-05	
158	-1.20000e+00	2.625521e-05	
159	-1.25000e+00	2.626333e-05	
160	-1.30000e+00	2.627066e-05	
161	-1.35000e+00	2.627737e-05	
162	-1.40000e+00	2.628357e-05	
163	-1.45000e+00	2.628936e-05	
164	-1.50000e+00	2.629478e-05	
165	-1.55000e+00	2.629991e-05	
166	-1.60000e+00	2.630477e-05	
167	-1.65000e+00	2.630939e-05	
168	-1.70000e+00	2.631380e-05	
169	-1.75000e+00	2.631803e-05	
170	-1.80000e+00	2.632209e-05	

Index   v-sweep         i(vds)          
--------------------------------------------------------------------------------
171	-1.85000e+00	2.632600e-05	
172	-1.90000e+00	2.632976e-05	
173	-1.95000e+00	2.633340e-05	
174	-2.00000e+00	2.633692e-05	
175	-2.05000e+00	2.634034e-05	
176	-2.10000e+00	2.634365e-05	
177	-2.15000e+00	2.634686e-05	
178	-2.20000e+00	2.634999e-05	
179	-2.25000e+00	2.635304e-05	
180	-2.30000e+00	2.635601e-05	
181	-2.35000e+00	2.635890e-05	
182	-2.40000e+00	2.636173e-05	
183	-2.45000e+00	2.636450e-05	
184	-2.50000e+00	2.636720e-05	
185	-2.55000e+00	2.636984e-05	
186	-2.60000e+00	2.637243e-05	
187	-2.65000e+00	2.637497e-05	
188	-2.70000e+00	2.637747e-05	
189	-2.75000e+00	2.637991e-05	
190	-2.80000e+00	2.638232e-05	
191	-2.85000e+00	2.638469e-05	
192	-2.90000e+00	2.638703e-05	
193	-2.95000e+00	2.638934e-05	
194	-3.00000e+00	2.639163e-05	
195	-3.05000e+00	2.639391e-05	
196	-3.10000e+00	2.639620e-05	
197	-3.15000e+00	2.639850e-05	
198	-3.20000e+00	2.640084e-05	
199	-3.25000e+00	2.640324e-05	
200	-3.30000e+00	2.640573e-05	
201	0.000000e+00	-5.97096e-31	
202	-5.00000e-02	4.808639e-06	
203	-1.00000e-01	9.392381e-06	
204	-1.50000e-01	1.375135e-05	
205	-2.00000e-01	1.788567e-05	
206	-2.50000e-01	2.179547e-05	
207	-3.00000e-01	2.548089e-05	
208	-3.50000e-01	2.894207e-05	
209	-4.00000e-01	3.217918e-05	
210	-4.50000e-01	3.519238e-05	
211	-5.00000e-01	3.798189e-05	
212	-5.50000e-01	4.054795e-05	
213	-6.00000e-01	4.289087e-05	
214	-6.50000e-01	4.501106e-05	
215	-7.00000e-01	4.690909e-05	
216	-7.50000e-01	4.858582e-05	
217	-8.00000e-01	5.004256e-05	
218	-8.50000e-01	5.128152e-05	
219	-9.00000e-01	5.230649e-05	
220	-9.50000e-01	5.312421e-05	
221	-1.00000e+00	5.374666e-05	
222	-1.05000e+00	5.419418e-05	
223	-1.10000e+00	5.449725e-05	
224	-1.15000e+00	5.469344e-05	
225	-1.20000e+00	5.481895e-05	
226	-1.25000e+00	5.490136e-05	
227	-1.30000e+00	5.495832e-05	
228	-1.35000e+00	5.500010e-05	

Index   v-sweep         i(vds)          
--------------------------------------------------------------------------------
229	-1.40000e+00	5.503247e-05	
230	-1.45000e+00	5.505875e-05	
231	-1.50000e+00	5.508088e-05	
232	-1.55000e+00	5.510005e-05	
233	-1.60000e+00	5.511702e-05	
234	-1.65000e+00	5.513231e-05	
235	-1.70000e+00	5.514626e-05	
236	-1.75000e+00	5.515912e-05	
237	-1.80000e+00	5.517108e-05	
238	-1.85000e+00	5.518228e-05	
239	-1.90000e+00	5.519282e-05	
240	-1.95000e+00	5.520280e-05	
241	-2.00000e+00	5.521227e-05	
242	-2.05000e+00	5.522131e-05	
243	-2.10000e+00	5.522994e-05	
244	-2.15000e+00	5.523822e-05	
245	-2.20000e+00	5.524617e-05	
246	-2.25000e+00	5.525382e-05	
247	-2.30000e+00	5.526120e-05	
248	-2.35000e+00	5.526834e-05	
249	-2.40000e+00	5.527524e-05	
250	-2.45000e+00	5.528193e-05	
251	-2.50000e+00	5.528842e-05	
252	-2.55000e+00	5.529472e-05	
253	-2.60000e+00	5.530085e-05	
254	-2.65000e+00	5.530681e-05	
255	-2.70000e+00	5.531263e-05	
256	-2.75000e+00	5.531829e-05	
257	-2.80000e+00	5.532382e-05	
258	-2.85000e+00	5.532923e-05	
259	-2.90000e+00	5.533451e-05	
260	-2.95000e+00	5.533967e-05	
261	-3.00000e+00	5.534473e-05	
262	-3.05000e+00	5.534969e-05	
263	-3.10000e+00	5.535455e-05	
264	-3.15000e+00	5.535932e-05	
265	-3.20000e+00	5.536402e-05	
266	-3.25000e+00	5.536864e-05	
267	-3.30000e+00	5.537321e-05	
268	0.000000e+00	-3.06203e-31	
269	-5.00000e-02	6.027044e-06	
270	-1.00000e-01	1.184768e-05	
271	-1.50000e-01	1.746202e-05	
272	-2.00000e-01	2.287015e-05	
273	-2.50000e-01	2.807218e-05	
274	-3.00000e-01	3.306821e-05	
275	-3.50000e-01	3.785836e-05	
276	-4.00000e-01	4.244271e-05	
277	-4.50000e-01	4.682140e-05	
278	-5.00000e-01	5.099451e-05	
279	-5.50000e-01	5.496219e-05	
280	-6.00000e-01	5.872454e-05	
281	-6.50000e-01	6.228171e-05	
282	-7.00000e-01	6.563383e-05	
283	-7.50000e-01	6.878106e-05	
284	-8.00000e-01	7.172358e-05	
285	-8.50000e-01	7.446160e-05	
286	-9.00000e-01	7.699538e-05	

Index   v-sweep         i(vds)          
--------------------------------------------------------------------------------
287	-9.50000e-01	7.932522e-05	
288	-1.00000e+00	8.145156e-05	
289	-1.05000e+00	8.337496e-05	
290	-1.10000e+00	8.509625e-05	
291	-1.15000e+00	8.661663e-05	
292	-1.20000e+00	8.793799e-05	
293	-1.25000e+00	8.906336e-05	
294	-1.30000e+00	8.999767e-05	
295	-1.35000e+00	9.074907e-05	
296	-1.40000e+00	9.133064e-05	
297	-1.45000e+00	9.176213e-05	
298	-1.50000e+00	9.206996e-05	
299	-1.55000e+00	9.228415e-05	
300	-1.60000e+00	9.243293e-05	
301	-1.65000e+00	9.253857e-05	
302	-1.70000e+00	9.261648e-05	
303	-1.75000e+00	9.267648e-05	
304	-1.80000e+00	9.272465e-05	
305	-1.85000e+00	9.276472e-05	
306	-1.90000e+00	9.279904e-05	
307	-1.95000e+00	9.282913e-05	
308	-2.00000e+00	9.285600e-05	
309	-2.05000e+00	9.288035e-05	
310	-2.10000e+00	9.290266e-05	
311	-2.15000e+00	9.292331e-05	
312	-2.20000e+00	9.294255e-05	
313	-2.25000e+00	9.296061e-05	
314	-2.30000e+00	9.297763e-05	
315	-2.35000e+00	9.299375e-05	
316	-2.40000e+00	9.300907e-05	
317	-2.45000e+00	9.302369e-05	
318	-2.50000e+00	9.303767e-05	
319	-2.55000e+00	9.305108e-05	
320	-2.60000e+00	9.306396e-05	
321	-2.65000e+00	9.307637e-05	
322	-2.70000e+00	9.308833e-05	
323	-2.75000e+00	9.309989e-05	
324	-2.80000e+00	9.311108e-05	
325	-2.85000e+00	9.312192e-05	
326	-2.90000e+00	9.313243e-05	
327	-2.95000e+00	9.314264e-05	
328	-3.00000e+00	9.315257e-05	
329	-3.05000e+00	9.316223e-05	
330	-3.10000e+00	9.317163e-05	
331	-3.15000e+00	9.318081e-05	
332	-3.20000e+00	9.318976e-05	
333	-3.25000e+00	9.319850e-05	
334	-3.30000e+00	9.320704e-05	
335	0.000000e+00	5.042135e-31	
336	-5.00000e-02	7.065587e-06	
337	-1.00000e-01	1.394268e-05	
338	-1.50000e-01	2.063138e-05	
339	-2.00000e-01	2.713176e-05	
340	-2.50000e-01	3.344390e-05	
341	-3.00000e-01	3.956791e-05	
342	-3.50000e-01	4.550386e-05	
343	-4.00000e-01	5.125184e-05	
344	-4.50000e-01	5.681195e-05	

Index   v-sweep         i(vds)          
--------------------------------------------------------------------------------
345	-5.00000e-01	6.218427e-05	
346	-5.50000e-01	6.736889e-05	
347	-6.00000e-01	7.236591e-05	
348	-6.50000e-01	7.717542e-05	
349	-7.00000e-01	8.179751e-05	
350	-7.50000e-01	8.623227e-05	
351	-8.00000e-01	9.047982e-05	
352	-8.50000e-01	9.454026e-05	
353	-9.00000e-01	9.841368e-05	
354	-9.50000e-01	1.021002e-04	
355	-1.00000e+00	1.056000e-04	
356	-1.05000e+00	1.089131e-04	
357	-1.10000e+00	1.120397e-04	
358	-1.15000e+00	1.149800e-04	
359	-1.20000e+00	1.177342e-04	
360	-1.25000e+00	1.203024e-04	
361	-1.30000e+00	1.226850e-04	
362	-1.35000e+00	1.248823e-04	
363	-1.40000e+00	1.268949e-04	
364	-1.45000e+00	1.287232e-04	
365	-1.50000e+00	1.303683e-04	
366	-1.55000e+00	1.318314e-04	
367	-1.60000e+00	1.331145e-04	
368	-1.65000e+00	1.342206e-04	
369	-1.70000e+00	1.351543e-04	
370	-1.75000e+00	1.359228e-04	
371	-1.80000e+00	1.365372e-04	
372	-1.85000e+00	1.370130e-04	
373	-1.90000e+00	1.373710e-04	
374	-1.95000e+00	1.376350e-04	
375	-2.00000e+00	1.378287e-04	
376	-2.05000e+00	1.379725e-04	
377	-2.10000e+00	1.380820e-04	
378	-2.15000e+00	1.381682e-04	
379	-2.20000e+00	1.382382e-04	
380	-2.25000e+00	1.382969e-04	
381	-2.30000e+00	1.383474e-04	
382	-2.35000e+00	1.383917e-04	
383	-2.40000e+00	1.384313e-04	
384	-2.45000e+00	1.384672e-04	
385	-2.50000e+00	1.385001e-04	
386	-2.55000e+00	1.385306e-04	
387	-2.60000e+00	1.385589e-04	
388	-2.65000e+00	1.385855e-04	
389	-2.70000e+00	1.386106e-04	
390	-2.75000e+00	1.386343e-04	
391	-2.80000e+00	1.386568e-04	
392	-2.85000e+00	1.386783e-04	
393	-2.90000e+00	1.386988e-04	
394	-2.95000e+00	1.387185e-04	
395	-3.00000e+00	1.387374e-04	
396	-3.05000e+00	1.387556e-04	
397	-3.10000e+00	1.387732e-04	
398	-3.15000e+00	1.387901e-04	
399	-3.20000e+00	1.388065e-04	
400	-3.25000e+00	1.388224e-04	
401	-3.30000e+00	1.388378e-04	
Note: No ".plot", ".print", or ".fourier" lines; no simulations run
