
Note: Compatibility modes selected: hs

Warning: m=xx on .subckt line will override multiplier m hierarchy!


Circuit: ***************************

Doing analysis at TEMP = 125.000000 and TNOM = 125.000000


No. of Data Rows : 402
                          ***************************
                          DC transfer characteristic  Mon Jan  9 13:58:24  2023
--------------------------------------------------------------------------------
Index   v-sweep         i(vds)          
--------------------------------------------------------------------------------
0	0.000000e+00	-1.65733e-23	
1	-5.00000e-02	3.747844e-08	
2	-1.00000e-01	5.507469e-08	
3	-1.50000e-01	6.121538e-08	
4	-2.00000e-01	6.273244e-08	
5	-2.50000e-01	6.314882e-08	
6	-3.00000e-01	6.330781e-08	
7	-3.50000e-01	6.338856e-08	
8	-4.00000e-01	6.343897e-08	
9	-4.50000e-01	6.347515e-08	
10	-5.00000e-01	6.350364e-08	
11	-5.50000e-01	6.352749e-08	
12	-6.00000e-01	6.354830e-08	
13	-6.50000e-01	6.356699e-08	
14	-7.00000e-01	6.358411e-08	
15	-7.50000e-01	6.360002e-08	
16	-8.00000e-01	6.361498e-08	
17	-8.50000e-01	6.362916e-08	
18	-9.00000e-01	6.364268e-08	
19	-9.50000e-01	6.365565e-08	
20	-1.00000e+00	6.366813e-08	
21	-1.05000e+00	6.368019e-08	
22	-1.10000e+00	6.369188e-08	
23	-1.15000e+00	6.370323e-08	
24	-1.20000e+00	6.371428e-08	
25	-1.25000e+00	6.372505e-08	
26	-1.30000e+00	6.373558e-08	
27	-1.35000e+00	6.374587e-08	
28	-1.40000e+00	6.375595e-08	
29	-1.45000e+00	6.376584e-08	
30	-1.50000e+00	6.377554e-08	
31	-1.55000e+00	6.378507e-08	
32	-1.60000e+00	6.379444e-08	
33	-1.65000e+00	6.380366e-08	
34	-1.70000e+00	6.381275e-08	
35	-1.75000e+00	6.382169e-08	
36	-1.80000e+00	6.383052e-08	
37	-1.85000e+00	6.383922e-08	
38	-1.90000e+00	6.384782e-08	
39	-1.95000e+00	6.385631e-08	
40	-2.00000e+00	6.386470e-08	
41	-2.05000e+00	6.387299e-08	
42	-2.10000e+00	6.388119e-08	
43	-2.15000e+00	6.388932e-08	
44	-2.20000e+00	6.389736e-08	
45	-2.25000e+00	6.390534e-08	
46	-2.30000e+00	6.391325e-08	
47	-2.35000e+00	6.392112e-08	
48	-2.40000e+00	6.392894e-08	
49	-2.45000e+00	6.393675e-08	
50	-2.50000e+00	6.394454e-08	
51	-2.55000e+00	6.395236e-08	
52	-2.60000e+00	6.396024e-08	
53	-2.65000e+00	6.396820e-08	
54	-2.70000e+00	6.397631e-08	

Index   v-sweep         i(vds)          
--------------------------------------------------------------------------------
55	-2.75000e+00	6.398462e-08	
56	-2.80000e+00	6.399321e-08	
57	-2.85000e+00	6.400217e-08	
58	-2.90000e+00	6.401162e-08	
59	-2.95000e+00	6.402168e-08	
60	-3.00000e+00	6.403253e-08	
61	-3.05000e+00	6.404436e-08	
62	-3.10000e+00	6.405738e-08	
63	-3.15000e+00	6.407188e-08	
64	-3.20000e+00	6.408816e-08	
65	-3.25000e+00	6.410658e-08	
66	-3.30000e+00	6.412755e-08	
67	0.000000e+00	-4.86928e-23	
68	-5.00000e-02	1.549797e-07	
69	-1.00000e-01	2.858858e-07	
70	-1.50000e-01	3.982243e-07	
71	-2.00000e-01	4.933202e-07	
72	-2.50000e-01	5.715597e-07	
73	-3.00000e-01	6.331970e-07	
74	-3.50000e-01	6.786765e-07	
75	-4.00000e-01	7.090460e-07	
76	-4.50000e-01	7.266596e-07	
77	-5.00000e-01	7.354731e-07	
78	-5.50000e-01	7.395975e-07	
79	-6.00000e-01	7.416344e-07	
80	-6.50000e-01	7.427694e-07	
81	-7.00000e-01	7.434875e-07	
82	-7.50000e-01	7.439931e-07	
83	-8.00000e-01	7.443794e-07	
84	-8.50000e-01	7.446929e-07	
85	-9.00000e-01	7.449587e-07	
86	-9.50000e-01	7.451914e-07	
87	-1.00000e+00	7.453998e-07	
88	-1.05000e+00	7.455896e-07	
89	-1.10000e+00	7.457649e-07	
90	-1.15000e+00	7.459283e-07	
91	-1.20000e+00	7.460819e-07	
92	-1.25000e+00	7.462271e-07	
93	-1.30000e+00	7.463652e-07	
94	-1.35000e+00	7.464969e-07	
95	-1.40000e+00	7.466232e-07	
96	-1.45000e+00	7.467444e-07	
97	-1.50000e+00	7.468613e-07	
98	-1.55000e+00	7.469741e-07	
99	-1.60000e+00	7.470832e-07	
100	-1.65000e+00	7.471890e-07	
101	-1.70000e+00	7.472917e-07	
102	-1.75000e+00	7.473915e-07	
103	-1.80000e+00	7.474886e-07	
104	-1.85000e+00	7.475833e-07	
105	-1.90000e+00	7.476756e-07	
106	-1.95000e+00	7.477658e-07	
107	-2.00000e+00	7.478540e-07	
108	-2.05000e+00	7.479402e-07	
109	-2.10000e+00	7.480246e-07	
110	-2.15000e+00	7.481073e-07	
111	-2.20000e+00	7.481883e-07	
112	-2.25000e+00	7.482679e-07	

Index   v-sweep         i(vds)          
--------------------------------------------------------------------------------
113	-2.30000e+00	7.483460e-07	
114	-2.35000e+00	7.484227e-07	
115	-2.40000e+00	7.484981e-07	
116	-2.45000e+00	7.485723e-07	
117	-2.50000e+00	7.486454e-07	
118	-2.55000e+00	7.487175e-07	
119	-2.60000e+00	7.487886e-07	
120	-2.65000e+00	7.488589e-07	
121	-2.70000e+00	7.489286e-07	
122	-2.75000e+00	7.489979e-07	
123	-2.80000e+00	7.490670e-07	
124	-2.85000e+00	7.491361e-07	
125	-2.90000e+00	7.492058e-07	
126	-2.95000e+00	7.492766e-07	
127	-3.00000e+00	7.493489e-07	
128	-3.05000e+00	7.494237e-07	
129	-3.10000e+00	7.495019e-07	
130	-3.15000e+00	7.495847e-07	
131	-3.20000e+00	7.496735e-07	
132	-3.25000e+00	7.497701e-07	
133	-3.30000e+00	7.498766e-07	
134	0.000000e+00	2.712399e-22	
135	-5.00000e-02	2.674292e-07	
136	-1.00000e-01	5.112522e-07	
137	-1.50000e-01	7.369439e-07	
138	-2.00000e-01	9.457908e-07	
139	-2.50000e-01	1.138102e-06	
140	-3.00000e-01	1.313960e-06	
141	-3.50000e-01	1.473399e-06	
142	-4.00000e-01	1.616446e-06	
143	-4.50000e-01	1.743138e-06	
144	-5.00000e-01	1.853530e-06	
145	-5.50000e-01	1.947716e-06	
146	-6.00000e-01	2.025865e-06	
147	-6.50000e-01	2.088298e-06	
148	-7.00000e-01	2.135644e-06	
149	-7.50000e-01	2.169121e-06	
150	-8.00000e-01	2.190868e-06	
151	-8.50000e-01	2.203918e-06	
152	-9.00000e-01	2.211448e-06	
153	-9.50000e-01	2.215878e-06	
154	-1.00000e+00	2.218656e-06	
155	-1.05000e+00	2.220543e-06	
156	-1.10000e+00	2.221927e-06	
157	-1.15000e+00	2.223008e-06	
158	-1.20000e+00	2.223895e-06	
159	-1.25000e+00	2.224652e-06	
160	-1.30000e+00	2.225315e-06	
161	-1.35000e+00	2.225909e-06	
162	-1.40000e+00	2.226450e-06	
163	-1.45000e+00	2.226949e-06	
164	-1.50000e+00	2.227413e-06	
165	-1.55000e+00	2.227848e-06	
166	-1.60000e+00	2.228259e-06	
167	-1.65000e+00	2.228649e-06	
168	-1.70000e+00	2.229020e-06	
169	-1.75000e+00	2.229374e-06	
170	-1.80000e+00	2.229715e-06	

Index   v-sweep         i(vds)          
--------------------------------------------------------------------------------
171	-1.85000e+00	2.230042e-06	
172	-1.90000e+00	2.230357e-06	
173	-1.95000e+00	2.230661e-06	
174	-2.00000e+00	2.230955e-06	
175	-2.05000e+00	2.231240e-06	
176	-2.10000e+00	2.231517e-06	
177	-2.15000e+00	2.231785e-06	
178	-2.20000e+00	2.232047e-06	
179	-2.25000e+00	2.232301e-06	
180	-2.30000e+00	2.232549e-06	
181	-2.35000e+00	2.232791e-06	
182	-2.40000e+00	2.233027e-06	
183	-2.45000e+00	2.233257e-06	
184	-2.50000e+00	2.233483e-06	
185	-2.55000e+00	2.233704e-06	
186	-2.60000e+00	2.233920e-06	
187	-2.65000e+00	2.234132e-06	
188	-2.70000e+00	2.234340e-06	
189	-2.75000e+00	2.234544e-06	
190	-2.80000e+00	2.234744e-06	
191	-2.85000e+00	2.234941e-06	
192	-2.90000e+00	2.235135e-06	
193	-2.95000e+00	2.235326e-06	
194	-3.00000e+00	2.235515e-06	
195	-3.05000e+00	2.235702e-06	
196	-3.10000e+00	2.235887e-06	
197	-3.15000e+00	2.236072e-06	
198	-3.20000e+00	2.236258e-06	
199	-3.25000e+00	2.236444e-06	
200	-3.30000e+00	2.236634e-06	
201	0.000000e+00	-7.88067e-23	
202	-5.00000e-02	3.698801e-07	
203	-1.00000e-01	7.170567e-07	
204	-1.50000e-01	1.046992e-06	
205	-2.00000e-01	1.360968e-06	
206	-2.50000e-01	1.659289e-06	
207	-3.00000e-01	1.942032e-06	
208	-3.50000e-01	2.209220e-06	
209	-4.00000e-01	2.460862e-06	
210	-4.50000e-01	2.696970e-06	
211	-5.00000e-01	2.917551e-06	
212	-5.50000e-01	3.122617e-06	
213	-6.00000e-01	3.312180e-06	
214	-6.50000e-01	3.486258e-06	
215	-7.00000e-01	3.644873e-06	
216	-7.50000e-01	3.788057e-06	
217	-8.00000e-01	3.915854e-06	
218	-8.50000e-01	4.028334e-06	
219	-9.00000e-01	4.125611e-06	
220	-9.50000e-01	4.207870e-06	
221	-1.00000e+00	4.275436e-06	
222	-1.05000e+00	4.328875e-06	
223	-1.10000e+00	4.369166e-06	
224	-1.15000e+00	4.397889e-06	
225	-1.20000e+00	4.417270e-06	
226	-1.25000e+00	4.429870e-06	
227	-1.30000e+00	4.438025e-06	
228	-1.35000e+00	4.443460e-06	

Index   v-sweep         i(vds)          
--------------------------------------------------------------------------------
229	-1.40000e+00	4.447271e-06	
230	-1.45000e+00	4.450099e-06	
231	-1.50000e+00	4.452314e-06	
232	-1.55000e+00	4.454127e-06	
233	-1.60000e+00	4.455666e-06	
234	-1.65000e+00	4.457009e-06	
235	-1.70000e+00	4.458206e-06	
236	-1.75000e+00	4.459292e-06	
237	-1.80000e+00	4.460289e-06	
238	-1.85000e+00	4.461213e-06	
239	-1.90000e+00	4.462078e-06	
240	-1.95000e+00	4.462892e-06	
241	-2.00000e+00	4.463662e-06	
242	-2.05000e+00	4.464394e-06	
243	-2.10000e+00	4.465092e-06	
244	-2.15000e+00	4.465761e-06	
245	-2.20000e+00	4.466402e-06	
246	-2.25000e+00	4.467019e-06	
247	-2.30000e+00	4.467614e-06	
248	-2.35000e+00	4.468188e-06	
249	-2.40000e+00	4.468744e-06	
250	-2.45000e+00	4.469283e-06	
251	-2.50000e+00	4.469805e-06	
252	-2.55000e+00	4.470313e-06	
253	-2.60000e+00	4.470806e-06	
254	-2.65000e+00	4.471287e-06	
255	-2.70000e+00	4.471755e-06	
256	-2.75000e+00	4.472211e-06	
257	-2.80000e+00	4.472657e-06	
258	-2.85000e+00	4.473092e-06	
259	-2.90000e+00	4.473518e-06	
260	-2.95000e+00	4.473934e-06	
261	-3.00000e+00	4.474341e-06	
262	-3.05000e+00	4.474741e-06	
263	-3.10000e+00	4.475132e-06	
264	-3.15000e+00	4.475516e-06	
265	-3.20000e+00	4.475893e-06	
266	-3.25000e+00	4.476264e-06	
267	-3.30000e+00	4.476629e-06	
268	0.000000e+00	6.490140e-27	
269	-5.00000e-02	4.632769e-07	
270	-1.00000e-01	9.048211e-07	
271	-1.50000e-01	1.330084e-06	
272	-2.00000e-01	1.740347e-06	
273	-2.50000e-01	2.135914e-06	
274	-3.00000e-01	2.516858e-06	
275	-3.50000e-01	2.883202e-06	
276	-4.00000e-01	3.234954e-06	
277	-4.50000e-01	3.572121e-06	
278	-5.00000e-01	3.894708e-06	
279	-5.50000e-01	4.202721e-06	
280	-6.00000e-01	4.496165e-06	
281	-6.50000e-01	4.775048e-06	
282	-7.00000e-01	5.039375e-06	
283	-7.50000e-01	5.289155e-06	
284	-8.00000e-01	5.524396e-06	
285	-8.50000e-01	5.745107e-06	
286	-9.00000e-01	5.951300e-06	

Index   v-sweep         i(vds)          
--------------------------------------------------------------------------------
287	-9.50000e-01	6.142988e-06	
288	-1.00000e+00	6.320191e-06	
289	-1.05000e+00	6.482929e-06	
290	-1.10000e+00	6.631236e-06	
291	-1.15000e+00	6.765155e-06	
292	-1.20000e+00	6.884752e-06	
293	-1.25000e+00	6.990124e-06	
294	-1.30000e+00	7.081423e-06	
295	-1.35000e+00	7.158896e-06	
296	-1.40000e+00	7.222939e-06	
297	-1.45000e+00	7.274198e-06	
298	-1.50000e+00	7.313686e-06	
299	-1.55000e+00	7.342880e-06	
300	-1.60000e+00	7.363684e-06	
301	-1.65000e+00	7.378189e-06	
302	-1.70000e+00	7.388308e-06	
303	-1.75000e+00	7.395530e-06	
304	-1.80000e+00	7.400882e-06	
305	-1.85000e+00	7.405022e-06	
306	-1.90000e+00	7.408360e-06	
307	-1.95000e+00	7.411149e-06	
308	-2.00000e+00	7.413549e-06	
309	-2.05000e+00	7.415663e-06	
310	-2.10000e+00	7.417561e-06	
311	-2.15000e+00	7.419289e-06	
312	-2.20000e+00	7.420882e-06	
313	-2.25000e+00	7.422362e-06	
314	-2.30000e+00	7.423749e-06	
315	-2.35000e+00	7.425056e-06	
316	-2.40000e+00	7.426294e-06	
317	-2.45000e+00	7.427471e-06	
318	-2.50000e+00	7.428595e-06	
319	-2.55000e+00	7.429671e-06	
320	-2.60000e+00	7.430703e-06	
321	-2.65000e+00	7.431697e-06	
322	-2.70000e+00	7.432655e-06	
323	-2.75000e+00	7.433580e-06	
324	-2.80000e+00	7.434475e-06	
325	-2.85000e+00	7.435342e-06	
326	-2.90000e+00	7.436183e-06	
327	-2.95000e+00	7.437000e-06	
328	-3.00000e+00	7.437794e-06	
329	-3.05000e+00	7.438567e-06	
330	-3.10000e+00	7.439320e-06	
331	-3.15000e+00	7.440055e-06	
332	-3.20000e+00	7.440771e-06	
333	-3.25000e+00	7.441471e-06	
334	-3.30000e+00	7.442155e-06	
335	0.000000e+00	5.016973e-28	
336	-5.00000e-02	5.486660e-07	
337	-1.00000e-01	1.076551e-06	
338	-1.50000e-01	1.589099e-06	
339	-2.00000e-01	2.087587e-06	
340	-2.50000e-01	2.572320e-06	
341	-3.00000e-01	3.043372e-06	
342	-3.50000e-01	3.500763e-06	
343	-4.00000e-01	3.944502e-06	
344	-4.50000e-01	4.374595e-06	

Index   v-sweep         i(vds)          
--------------------------------------------------------------------------------
345	-5.00000e-01	4.791046e-06	
346	-5.50000e-01	5.193859e-06	
347	-6.00000e-01	5.583039e-06	
348	-6.50000e-01	5.958591e-06	
349	-7.00000e-01	6.320520e-06	
350	-7.50000e-01	6.668831e-06	
351	-8.00000e-01	7.003528e-06	
352	-8.50000e-01	7.324617e-06	
353	-9.00000e-01	7.632103e-06	
354	-9.50000e-01	7.925992e-06	
355	-1.00000e+00	8.206291e-06	
356	-1.05000e+00	8.473005e-06	
357	-1.10000e+00	8.726142e-06	
358	-1.15000e+00	8.965710e-06	
359	-1.20000e+00	9.191718e-06	
360	-1.25000e+00	9.404177e-06	
361	-1.30000e+00	9.603100e-06	
362	-1.35000e+00	9.788502e-06	
363	-1.40000e+00	9.960404e-06	
364	-1.45000e+00	1.011883e-05	
365	-1.50000e+00	1.026382e-05	
366	-1.55000e+00	1.039542e-05	
367	-1.60000e+00	1.051370e-05	
368	-1.65000e+00	1.061877e-05	
369	-1.70000e+00	1.071077e-05	
370	-1.75000e+00	1.078994e-05	
371	-1.80000e+00	1.085665e-05	
372	-1.85000e+00	1.091145e-05	
373	-1.90000e+00	1.095517e-05	
374	-1.95000e+00	1.098899e-05	
375	-2.00000e+00	1.101442e-05	
376	-2.05000e+00	1.103317e-05	
377	-2.10000e+00	1.104693e-05	
378	-2.15000e+00	1.105715e-05	
379	-2.20000e+00	1.106494e-05	
380	-2.25000e+00	1.107106e-05	
381	-2.30000e+00	1.107603e-05	
382	-2.35000e+00	1.108021e-05	
383	-2.40000e+00	1.108381e-05	
384	-2.45000e+00	1.108698e-05	
385	-2.50000e+00	1.108982e-05	
386	-2.55000e+00	1.109240e-05	
387	-2.60000e+00	1.109478e-05	
388	-2.65000e+00	1.109699e-05	
389	-2.70000e+00	1.109905e-05	
390	-2.75000e+00	1.110100e-05	
391	-2.80000e+00	1.110284e-05	
392	-2.85000e+00	1.110459e-05	
393	-2.90000e+00	1.110626e-05	
394	-2.95000e+00	1.110785e-05	
395	-3.00000e+00	1.110938e-05	
396	-3.05000e+00	1.111085e-05	
397	-3.10000e+00	1.111227e-05	
398	-3.15000e+00	1.111364e-05	
399	-3.20000e+00	1.111496e-05	
400	-3.25000e+00	1.111624e-05	
401	-3.30000e+00	1.111748e-05	
Note: No ".plot", ".print", or ".fourier" lines; no simulations run
