
Note: Compatibility modes selected: hs

Warning: m=xx on .subckt line will override multiplier m hierarchy!


Circuit: ***************************

Doing analysis at TEMP = 25.000000 and TNOM = 25.000000


No. of Data Rows : 402
                          ***************************
                          DC transfer characteristic  Mon Jan  9 13:58:23  2023
--------------------------------------------------------------------------------
Index   v-sweep         i(vds)          
--------------------------------------------------------------------------------
0	0.000000e+00	2.467375e-22	
1	-5.00000e-02	5.701963e-07	
2	-1.00000e-01	7.257469e-07	
3	-1.50000e-01	7.549025e-07	
4	-2.00000e-01	7.653840e-07	
5	-2.50000e-01	7.720380e-07	
6	-3.00000e-01	7.773612e-07	
7	-3.50000e-01	7.820224e-07	
8	-4.00000e-01	7.862730e-07	
9	-4.50000e-01	7.902332e-07	
10	-5.00000e-01	7.939708e-07	
11	-5.50000e-01	7.975292e-07	
12	-6.00000e-01	8.009384e-07	
13	-6.50000e-01	8.042206e-07	
14	-7.00000e-01	8.073928e-07	
15	-7.50000e-01	8.104688e-07	
16	-8.00000e-01	8.134593e-07	
17	-8.50000e-01	8.163738e-07	
18	-9.00000e-01	8.192197e-07	
19	-9.50000e-01	8.220038e-07	
20	-1.00000e+00	8.247317e-07	
21	-1.05000e+00	8.274082e-07	
22	-1.10000e+00	8.300377e-07	
23	-1.15000e+00	8.326240e-07	
24	-1.20000e+00	8.351703e-07	
25	-1.25000e+00	8.376798e-07	
26	-1.30000e+00	8.401551e-07	
27	-1.35000e+00	8.425985e-07	
28	-1.40000e+00	8.450123e-07	
29	-1.45000e+00	8.473984e-07	
30	-1.50000e+00	8.497586e-07	
31	-1.55000e+00	8.520946e-07	
32	-1.60000e+00	8.544077e-07	
33	-1.65000e+00	8.566994e-07	
34	-1.70000e+00	8.589710e-07	
35	-1.75000e+00	8.612235e-07	
36	-1.80000e+00	8.634582e-07	
37	-1.85000e+00	8.656759e-07	
38	-1.90000e+00	8.678776e-07	
39	-1.95000e+00	8.700644e-07	
40	-2.00000e+00	8.722369e-07	
41	-2.05000e+00	8.743962e-07	
42	-2.10000e+00	8.765429e-07	
43	-2.15000e+00	8.786781e-07	
44	-2.20000e+00	8.808025e-07	
45	-2.25000e+00	8.829171e-07	
46	-2.30000e+00	8.850230e-07	
47	-2.35000e+00	8.871212e-07	
48	-2.40000e+00	8.892129e-07	
49	-2.45000e+00	8.912995e-07	
50	-2.50000e+00	8.933826e-07	
51	-2.55000e+00	8.954638e-07	
52	-2.60000e+00	8.975451e-07	
53	-2.65000e+00	8.996288e-07	
54	-2.70000e+00	9.017175e-07	

Index   v-sweep         i(vds)          
--------------------------------------------------------------------------------
55	-2.75000e+00	9.038139e-07	
56	-2.80000e+00	9.059214e-07	
57	-2.85000e+00	9.080436e-07	
58	-2.90000e+00	9.101847e-07	
59	-2.95000e+00	9.123493e-07	
60	-3.00000e+00	9.145424e-07	
61	-3.05000e+00	9.167697e-07	
62	-3.10000e+00	9.190376e-07	
63	-3.15000e+00	9.213528e-07	
64	-3.20000e+00	9.237230e-07	
65	-3.25000e+00	9.261563e-07	
66	-3.30000e+00	9.286618e-07	
67	0.000000e+00	-1.00767e-29	
68	-5.00000e-02	9.123669e-06	
69	-1.00000e-01	1.716149e-05	
70	-1.50000e-01	2.412320e-05	
71	-2.00000e-01	3.001974e-05	
72	-2.50000e-01	3.486481e-05	
73	-3.00000e-01	3.867890e-05	
74	-3.50000e-01	4.149986e-05	
75	-4.00000e-01	4.340939e-05	
76	-4.50000e-01	4.457637e-05	
77	-5.00000e-01	4.525543e-05	
78	-5.50000e-01	4.567997e-05	
79	-6.00000e-01	4.598405e-05	
80	-6.50000e-01	4.622716e-05	
81	-7.00000e-01	4.643485e-05	
82	-7.50000e-01	4.661916e-05	
83	-8.00000e-01	4.678646e-05	
84	-8.50000e-01	4.694056e-05	
85	-9.00000e-01	4.708397e-05	
86	-9.50000e-01	4.721843e-05	
87	-1.00000e+00	4.734525e-05	
88	-1.05000e+00	4.746544e-05	
89	-1.10000e+00	4.757979e-05	
90	-1.15000e+00	4.768896e-05	
91	-1.20000e+00	4.779349e-05	
92	-1.25000e+00	4.789384e-05	
93	-1.30000e+00	4.799040e-05	
94	-1.35000e+00	4.808350e-05	
95	-1.40000e+00	4.817344e-05	
96	-1.45000e+00	4.826047e-05	
97	-1.50000e+00	4.834481e-05	
98	-1.55000e+00	4.842666e-05	
99	-1.60000e+00	4.850621e-05	
100	-1.65000e+00	4.858360e-05	
101	-1.70000e+00	4.865899e-05	
102	-1.75000e+00	4.873250e-05	
103	-1.80000e+00	4.880425e-05	
104	-1.85000e+00	4.887435e-05	
105	-1.90000e+00	4.894289e-05	
106	-1.95000e+00	4.900995e-05	
107	-2.00000e+00	4.907564e-05	
108	-2.05000e+00	4.914000e-05	
109	-2.10000e+00	4.920313e-05	
110	-2.15000e+00	4.926507e-05	
111	-2.20000e+00	4.932589e-05	
112	-2.25000e+00	4.938566e-05	

Index   v-sweep         i(vds)          
--------------------------------------------------------------------------------
113	-2.30000e+00	4.944441e-05	
114	-2.35000e+00	4.950220e-05	
115	-2.40000e+00	4.955909e-05	
116	-2.45000e+00	4.961511e-05	
117	-2.50000e+00	4.967033e-05	
118	-2.55000e+00	4.972478e-05	
119	-2.60000e+00	4.977853e-05	
120	-2.65000e+00	4.983162e-05	
121	-2.70000e+00	4.988412e-05	
122	-2.75000e+00	4.993610e-05	
123	-2.80000e+00	4.998761e-05	
124	-2.85000e+00	5.003876e-05	
125	-2.90000e+00	5.008962e-05	
126	-2.95000e+00	5.014030e-05	
127	-3.00000e+00	5.019092e-05	
128	-3.05000e+00	5.024162e-05	
129	-3.10000e+00	5.029253e-05	
130	-3.15000e+00	5.034383e-05	
131	-3.20000e+00	5.039570e-05	
132	-3.25000e+00	5.044837e-05	
133	-3.30000e+00	5.050207e-05	
134	0.000000e+00	3.624602e-30	
135	-5.00000e-02	1.678206e-05	
136	-1.00000e-01	3.252872e-05	
137	-1.50000e-01	4.724655e-05	
138	-2.00000e-01	6.094214e-05	
139	-2.50000e-01	7.362214e-05	
140	-3.00000e-01	8.529328e-05	
141	-3.50000e-01	9.596245e-05	
142	-4.00000e-01	1.056368e-04	
143	-4.50000e-01	1.143240e-04	
144	-5.00000e-01	1.220324e-04	
145	-5.50000e-01	1.287720e-04	
146	-6.00000e-01	1.345554e-04	
147	-6.50000e-01	1.394011e-04	
148	-7.00000e-01	1.433389e-04	
149	-7.50000e-01	1.464213e-04	
150	-8.00000e-01	1.487400e-04	
151	-8.50000e-01	1.504379e-04	
152	-9.00000e-01	1.516894e-04	
153	-9.50000e-01	1.526520e-04	
154	-1.00000e+00	1.534347e-04	
155	-1.05000e+00	1.541020e-04	
156	-1.10000e+00	1.546902e-04	
157	-1.15000e+00	1.552203e-04	
158	-1.20000e+00	1.557054e-04	
159	-1.25000e+00	1.561541e-04	
160	-1.30000e+00	1.565727e-04	
161	-1.35000e+00	1.569654e-04	
162	-1.40000e+00	1.573359e-04	
163	-1.45000e+00	1.576869e-04	
164	-1.50000e+00	1.580205e-04	
165	-1.55000e+00	1.583387e-04	
166	-1.60000e+00	1.586429e-04	
167	-1.65000e+00	1.589346e-04	
168	-1.70000e+00	1.592147e-04	
169	-1.75000e+00	1.594844e-04	
170	-1.80000e+00	1.597444e-04	

Index   v-sweep         i(vds)          
--------------------------------------------------------------------------------
171	-1.85000e+00	1.599955e-04	
172	-1.90000e+00	1.602384e-04	
173	-1.95000e+00	1.604737e-04	
174	-2.00000e+00	1.607018e-04	
175	-2.05000e+00	1.609234e-04	
176	-2.10000e+00	1.611387e-04	
177	-2.15000e+00	1.613482e-04	
178	-2.20000e+00	1.615523e-04	
179	-2.25000e+00	1.617512e-04	
180	-2.30000e+00	1.619453e-04	
181	-2.35000e+00	1.621348e-04	
182	-2.40000e+00	1.623200e-04	
183	-2.45000e+00	1.625011e-04	
184	-2.50000e+00	1.626783e-04	
185	-2.55000e+00	1.628518e-04	
186	-2.60000e+00	1.630218e-04	
187	-2.65000e+00	1.631885e-04	
188	-2.70000e+00	1.633521e-04	
189	-2.75000e+00	1.635126e-04	
190	-2.80000e+00	1.636703e-04	
191	-2.85000e+00	1.638252e-04	
192	-2.90000e+00	1.639777e-04	
193	-2.95000e+00	1.641278e-04	
194	-3.00000e+00	1.642756e-04	
195	-3.05000e+00	1.644215e-04	
196	-3.10000e+00	1.645655e-04	
197	-3.15000e+00	1.647079e-04	
198	-3.20000e+00	1.648489e-04	
199	-3.25000e+00	1.649888e-04	
200	-3.30000e+00	1.651279e-04	
201	0.000000e+00	4.619775e-30	
202	-5.00000e-02	2.288287e-05	
203	-1.00000e-01	4.480996e-05	
204	-1.50000e-01	6.578636e-05	
205	-2.00000e-01	8.581718e-05	
206	-2.50000e-01	1.049075e-04	
207	-3.00000e-01	1.230624e-04	
208	-3.50000e-01	1.402870e-04	
209	-4.00000e-01	1.565865e-04	
210	-4.50000e-01	1.719660e-04	
211	-5.00000e-01	1.864307e-04	
212	-5.50000e-01	1.999858e-04	
213	-6.00000e-01	2.126367e-04	
214	-6.50000e-01	2.243888e-04	
215	-7.00000e-01	2.352477e-04	
216	-7.50000e-01	2.452194e-04	
217	-8.00000e-01	2.543102e-04	
218	-8.50000e-01	2.625274e-04	
219	-9.00000e-01	2.698793e-04	
220	-9.50000e-01	2.763768e-04	
221	-1.00000e+00	2.820348e-04	
222	-1.05000e+00	2.868753e-04	
223	-1.10000e+00	2.909337e-04	
224	-1.15000e+00	2.942665e-04	
225	-1.20000e+00	2.969595e-04	
226	-1.25000e+00	2.991270e-04	
227	-1.30000e+00	3.008947e-04	
228	-1.35000e+00	3.023741e-04	

Index   v-sweep         i(vds)          
--------------------------------------------------------------------------------
229	-1.40000e+00	3.036487e-04	
230	-1.45000e+00	3.047747e-04	
231	-1.50000e+00	3.057888e-04	
232	-1.55000e+00	3.067153e-04	
233	-1.60000e+00	3.075707e-04	
234	-1.65000e+00	3.083668e-04	
235	-1.70000e+00	3.091124e-04	
236	-1.75000e+00	3.098145e-04	
237	-1.80000e+00	3.104784e-04	
238	-1.85000e+00	3.111084e-04	
239	-1.90000e+00	3.117083e-04	
240	-1.95000e+00	3.122809e-04	
241	-2.00000e+00	3.128290e-04	
242	-2.05000e+00	3.133547e-04	
243	-2.10000e+00	3.138600e-04	
244	-2.15000e+00	3.143465e-04	
245	-2.20000e+00	3.148156e-04	
246	-2.25000e+00	3.152688e-04	
247	-2.30000e+00	3.157071e-04	
248	-2.35000e+00	3.161316e-04	
249	-2.40000e+00	3.165432e-04	
250	-2.45000e+00	3.169428e-04	
251	-2.50000e+00	3.173310e-04	
252	-2.55000e+00	3.177087e-04	
253	-2.60000e+00	3.180764e-04	
254	-2.65000e+00	3.184347e-04	
255	-2.70000e+00	3.187842e-04	
256	-2.75000e+00	3.191252e-04	
257	-2.80000e+00	3.194583e-04	
258	-2.85000e+00	3.197839e-04	
259	-2.90000e+00	3.201023e-04	
260	-2.95000e+00	3.204139e-04	
261	-3.00000e+00	3.207190e-04	
262	-3.05000e+00	3.210180e-04	
263	-3.10000e+00	3.213111e-04	
264	-3.15000e+00	3.215987e-04	
265	-3.20000e+00	3.218811e-04	
266	-3.25000e+00	3.221584e-04	
267	-3.30000e+00	3.224311e-04	
268	0.000000e+00	-8.08322e-30	
269	-5.00000e-02	2.776979e-05	
270	-1.00000e-01	5.466293e-05	
271	-1.50000e-01	8.068350e-05	
272	-2.00000e-01	1.058356e-04	
273	-2.50000e-01	1.301232e-04	
274	-3.00000e-01	1.535504e-04	
275	-3.50000e-01	1.761213e-04	
276	-4.00000e-01	1.978400e-04	
277	-4.50000e-01	2.187105e-04	
278	-5.00000e-01	2.387370e-04	
279	-5.50000e-01	2.579235e-04	
280	-6.00000e-01	2.762741e-04	
281	-6.50000e-01	2.937929e-04	
282	-7.00000e-01	3.104841e-04	
283	-7.50000e-01	3.263518e-04	
284	-8.00000e-01	3.414002e-04	
285	-8.50000e-01	3.556335e-04	
286	-9.00000e-01	3.690559e-04	

Index   v-sweep         i(vds)          
--------------------------------------------------------------------------------
287	-9.50000e-01	3.816719e-04	
288	-1.00000e+00	3.934859e-04	
289	-1.05000e+00	4.045026e-04	
290	-1.10000e+00	4.147268e-04	
291	-1.15000e+00	4.241640e-04	
292	-1.20000e+00	4.328201e-04	
293	-1.25000e+00	4.407021e-04	
294	-1.30000e+00	4.478188e-04	
295	-1.35000e+00	4.541817e-04	
296	-1.40000e+00	4.598070e-04	
297	-1.45000e+00	4.647190e-04	
298	-1.50000e+00	4.689541e-04	
299	-1.55000e+00	4.725663e-04	
300	-1.60000e+00	4.756297e-04	
301	-1.65000e+00	4.782344e-04	
302	-1.70000e+00	4.804736e-04	
303	-1.75000e+00	4.824303e-04	
304	-1.80000e+00	4.841700e-04	
305	-1.85000e+00	4.857403e-04	
306	-1.90000e+00	4.871754e-04	
307	-1.95000e+00	4.885000e-04	
308	-2.00000e+00	4.897320e-04	
309	-2.05000e+00	4.908851e-04	
310	-2.10000e+00	4.919698e-04	
311	-2.15000e+00	4.929946e-04	
312	-2.20000e+00	4.939664e-04	
313	-2.25000e+00	4.948909e-04	
314	-2.30000e+00	4.957727e-04	
315	-2.35000e+00	4.966160e-04	
316	-2.40000e+00	4.974242e-04	
317	-2.45000e+00	4.982004e-04	
318	-2.50000e+00	4.989471e-04	
319	-2.55000e+00	4.996667e-04	
320	-2.60000e+00	5.003612e-04	
321	-2.65000e+00	5.010325e-04	
322	-2.70000e+00	5.016821e-04	
323	-2.75000e+00	5.023116e-04	
324	-2.80000e+00	5.029222e-04	
325	-2.85000e+00	5.035151e-04	
326	-2.90000e+00	5.040915e-04	
327	-2.95000e+00	5.046522e-04	
328	-3.00000e+00	5.051982e-04	
329	-3.05000e+00	5.057304e-04	
330	-3.10000e+00	5.062493e-04	
331	-3.15000e+00	5.067559e-04	
332	-3.20000e+00	5.072506e-04	
333	-3.25000e+00	5.077342e-04	
334	-3.30000e+00	5.082071e-04	
335	0.000000e+00	1.058133e-29	
336	-5.00000e-02	3.170997e-05	
337	-1.00000e-01	6.261644e-05	
338	-1.50000e-01	9.272271e-05	
339	-2.00000e-01	1.220321e-04	
340	-2.50000e-01	1.505478e-04	
341	-3.00000e-01	1.782733e-04	
342	-3.50000e-01	2.052118e-04	
343	-4.00000e-01	2.313666e-04	
344	-4.50000e-01	2.567411e-04	

Index   v-sweep         i(vds)          
--------------------------------------------------------------------------------
345	-5.00000e-01	2.813386e-04	
346	-5.50000e-01	3.051623e-04	
347	-6.00000e-01	3.282157e-04	
348	-6.50000e-01	3.505020e-04	
349	-7.00000e-01	3.720246e-04	
350	-7.50000e-01	3.927869e-04	
351	-8.00000e-01	4.127921e-04	
352	-8.50000e-01	4.320435e-04	
353	-9.00000e-01	4.505447e-04	
354	-9.50000e-01	4.682989e-04	
355	-1.00000e+00	4.853095e-04	
356	-1.05000e+00	5.015798e-04	
357	-1.10000e+00	5.171134e-04	
358	-1.15000e+00	5.319136e-04	
359	-1.20000e+00	5.459840e-04	
360	-1.25000e+00	5.593280e-04	
361	-1.30000e+00	5.719493e-04	
362	-1.35000e+00	5.838515e-04	
363	-1.40000e+00	5.950387e-04	
364	-1.45000e+00	6.055148e-04	
365	-1.50000e+00	6.152843e-04	
366	-1.55000e+00	6.243521e-04	
367	-1.60000e+00	6.327239e-04	
368	-1.65000e+00	6.404065e-04	
369	-1.70000e+00	6.474088e-04	
370	-1.75000e+00	6.537426e-04	
371	-1.80000e+00	6.594244e-04	
372	-1.85000e+00	6.644781e-04	
373	-1.90000e+00	6.689382e-04	
374	-1.95000e+00	6.728527e-04	
375	-2.00000e+00	6.762828e-04	
376	-2.05000e+00	6.792994e-04	
377	-2.10000e+00	6.819738e-04	
378	-2.15000e+00	6.843706e-04	
379	-2.20000e+00	6.865425e-04	
380	-2.25000e+00	6.885308e-04	
381	-2.30000e+00	6.903669e-04	
382	-2.35000e+00	6.920746e-04	
383	-2.40000e+00	6.936724e-04	
384	-2.45000e+00	6.951750e-04	
385	-2.50000e+00	6.965938e-04	
386	-2.55000e+00	6.979386e-04	
387	-2.60000e+00	6.992172e-04	
388	-2.65000e+00	7.004362e-04	
389	-2.70000e+00	7.016013e-04	
390	-2.75000e+00	7.027174e-04	
391	-2.80000e+00	7.037886e-04	
392	-2.85000e+00	7.048187e-04	
393	-2.90000e+00	7.058109e-04	
394	-2.95000e+00	7.067681e-04	
395	-3.00000e+00	7.076927e-04	
396	-3.05000e+00	7.085871e-04	
397	-3.10000e+00	7.094533e-04	
398	-3.15000e+00	7.102931e-04	
399	-3.20000e+00	7.111083e-04	
400	-3.25000e+00	7.119003e-04	
401	-3.30000e+00	7.126704e-04	
Note: No ".plot", ".print", or ".fourier" lines; no simulations run
