
Note: Compatibility modes selected: hs

Warning: m=xx on .subckt line will override multiplier m hierarchy!


Circuit: ***************************

Doing analysis at TEMP = 125.000000 and TNOM = 125.000000


No. of Data Rows : 402
                          ***************************
                          DC transfer characteristic  Mon Jan  9 13:58:24  2023
--------------------------------------------------------------------------------
Index   v-sweep         i(vds)          
--------------------------------------------------------------------------------
0	0.000000e+00	-6.77971e-23	
1	-5.00000e-02	9.817188e-08	
2	-1.00000e-01	1.657576e-07	
3	-1.50000e-01	2.056281e-07	
4	-2.00000e-01	2.235482e-07	
5	-2.50000e-01	2.299861e-07	
6	-3.00000e-01	2.327315e-07	
7	-3.50000e-01	2.344172e-07	
8	-4.00000e-01	2.357262e-07	
9	-4.50000e-01	2.368603e-07	
10	-5.00000e-01	2.378934e-07	
11	-5.50000e-01	2.388579e-07	
12	-6.00000e-01	2.397708e-07	
13	-6.50000e-01	2.406421e-07	
14	-7.00000e-01	2.414781e-07	
15	-7.50000e-01	2.422836e-07	
16	-8.00000e-01	2.430621e-07	
17	-8.50000e-01	2.438162e-07	
18	-9.00000e-01	2.445482e-07	
19	-9.50000e-01	2.452601e-07	
20	-1.00000e+00	2.459535e-07	
21	-1.05000e+00	2.466296e-07	
22	-1.10000e+00	2.472899e-07	
23	-1.15000e+00	2.479353e-07	
24	-1.20000e+00	2.485668e-07	
25	-1.25000e+00	2.491854e-07	
26	-1.30000e+00	2.497918e-07	
27	-1.35000e+00	2.503867e-07	
28	-1.40000e+00	2.509707e-07	
29	-1.45000e+00	2.515446e-07	
30	-1.50000e+00	2.521088e-07	
31	-1.55000e+00	2.526638e-07	
32	-1.60000e+00	2.532101e-07	
33	-1.65000e+00	2.537481e-07	
34	-1.70000e+00	2.542783e-07	
35	-1.75000e+00	2.548010e-07	
36	-1.80000e+00	2.553166e-07	
37	-1.85000e+00	2.558253e-07	
38	-1.90000e+00	2.563275e-07	
39	-1.95000e+00	2.568236e-07	
40	-2.00000e+00	2.573136e-07	
41	-2.05000e+00	2.577980e-07	
42	-2.10000e+00	2.582769e-07	
43	-2.15000e+00	2.587507e-07	
44	-2.20000e+00	2.592195e-07	
45	-2.25000e+00	2.596836e-07	
46	-2.30000e+00	2.601432e-07	
47	-2.35000e+00	2.605987e-07	
48	-2.40000e+00	2.610503e-07	
49	-2.45000e+00	2.614982e-07	
50	-2.50000e+00	2.619429e-07	
51	-2.55000e+00	2.623847e-07	
52	-2.60000e+00	2.628239e-07	
53	-2.65000e+00	2.632611e-07	
54	-2.70000e+00	2.636967e-07	

Index   v-sweep         i(vds)          
--------------------------------------------------------------------------------
55	-2.75000e+00	2.641314e-07	
56	-2.80000e+00	2.645658e-07	
57	-2.85000e+00	2.650005e-07	
58	-2.90000e+00	2.654366e-07	
59	-2.95000e+00	2.658748e-07	
60	-3.00000e+00	2.663163e-07	
61	-3.05000e+00	2.667622e-07	
62	-3.10000e+00	2.672138e-07	
63	-3.15000e+00	2.676727e-07	
64	-3.20000e+00	2.681403e-07	
65	-3.25000e+00	2.686184e-07	
66	-3.30000e+00	2.691091e-07	
67	0.000000e+00	-4.66751e-26	
68	-5.00000e-02	3.986377e-07	
69	-1.00000e-01	7.601915e-07	
70	-1.50000e-01	1.085967e-06	
71	-2.00000e-01	1.376401e-06	
72	-2.50000e-01	1.631742e-06	
73	-3.00000e-01	1.852225e-06	
74	-3.50000e-01	2.038150e-06	
75	-4.00000e-01	2.189987e-06	
76	-4.50000e-01	2.308597e-06	
77	-5.00000e-01	2.395742e-06	
78	-5.50000e-01	2.455050e-06	
79	-6.00000e-01	2.492865e-06	
80	-6.50000e-01	2.517035e-06	
81	-7.00000e-01	2.533911e-06	
82	-7.50000e-01	2.547103e-06	
83	-8.00000e-01	2.558317e-06	
84	-8.50000e-01	2.568340e-06	
85	-9.00000e-01	2.577555e-06	
86	-9.50000e-01	2.586169e-06	
87	-1.00000e+00	2.594304e-06	
88	-1.05000e+00	2.602038e-06	
89	-1.10000e+00	2.609427e-06	
90	-1.15000e+00	2.616511e-06	
91	-1.20000e+00	2.623324e-06	
92	-1.25000e+00	2.629890e-06	
93	-1.30000e+00	2.636231e-06	
94	-1.35000e+00	2.642366e-06	
95	-1.40000e+00	2.648310e-06	
96	-1.45000e+00	2.654077e-06	
97	-1.50000e+00	2.659679e-06	
98	-1.55000e+00	2.665127e-06	
99	-1.60000e+00	2.670430e-06	
100	-1.65000e+00	2.675599e-06	
101	-1.70000e+00	2.680639e-06	
102	-1.75000e+00	2.685560e-06	
103	-1.80000e+00	2.690367e-06	
104	-1.85000e+00	2.695066e-06	
105	-1.90000e+00	2.699663e-06	
106	-1.95000e+00	2.704164e-06	
107	-2.00000e+00	2.708573e-06	
108	-2.05000e+00	2.712894e-06	
109	-2.10000e+00	2.717131e-06	
110	-2.15000e+00	2.721289e-06	
111	-2.20000e+00	2.725371e-06	
112	-2.25000e+00	2.729380e-06	

Index   v-sweep         i(vds)          
--------------------------------------------------------------------------------
113	-2.30000e+00	2.733319e-06	
114	-2.35000e+00	2.737192e-06	
115	-2.40000e+00	2.741001e-06	
116	-2.45000e+00	2.744749e-06	
117	-2.50000e+00	2.748439e-06	
118	-2.55000e+00	2.752073e-06	
119	-2.60000e+00	2.755653e-06	
120	-2.65000e+00	2.759183e-06	
121	-2.70000e+00	2.762665e-06	
122	-2.75000e+00	2.766102e-06	
123	-2.80000e+00	2.769497e-06	
124	-2.85000e+00	2.772852e-06	
125	-2.90000e+00	2.776173e-06	
126	-2.95000e+00	2.779461e-06	
127	-3.00000e+00	2.782723e-06	
128	-3.05000e+00	2.785962e-06	
129	-3.10000e+00	2.789185e-06	
130	-3.15000e+00	2.792397e-06	
131	-3.20000e+00	2.795606e-06	
132	-3.25000e+00	2.798819e-06	
133	-3.30000e+00	2.802046e-06	
134	0.000000e+00	-9.59957e-23	
135	-5.00000e-02	6.717867e-07	
136	-1.00000e-01	1.307047e-06	
137	-1.50000e-01	1.907008e-06	
138	-2.00000e-01	2.472053e-06	
139	-2.50000e-01	3.002358e-06	
140	-3.00000e-01	3.498052e-06	
141	-3.50000e-01	3.959252e-06	
142	-4.00000e-01	4.386078e-06	
143	-4.50000e-01	4.778655e-06	
144	-5.00000e-01	5.137117e-06	
145	-5.50000e-01	5.461614e-06	
146	-6.00000e-01	5.752322e-06	
147	-6.50000e-01	6.009465e-06	
148	-7.00000e-01	6.233348e-06	
149	-7.50000e-01	6.424435e-06	
150	-8.00000e-01	6.583492e-06	
151	-8.50000e-01	6.711864e-06	
152	-9.00000e-01	6.811932e-06	
153	-9.50000e-01	6.887618e-06	
154	-1.00000e+00	6.944364e-06	
155	-1.05000e+00	6.988025e-06	
156	-1.10000e+00	7.023393e-06	
157	-1.15000e+00	7.053612e-06	
158	-1.20000e+00	7.080506e-06	
159	-1.25000e+00	7.105094e-06	
160	-1.30000e+00	7.127962e-06	
161	-1.35000e+00	7.149467e-06	
162	-1.40000e+00	7.169843e-06	
163	-1.45000e+00	7.189251e-06	
164	-1.50000e+00	7.207811e-06	
165	-1.55000e+00	7.225613e-06	
166	-1.60000e+00	7.242733e-06	
167	-1.65000e+00	7.259232e-06	
168	-1.70000e+00	7.275160e-06	
169	-1.75000e+00	7.290563e-06	
170	-1.80000e+00	7.305478e-06	

Index   v-sweep         i(vds)          
--------------------------------------------------------------------------------
171	-1.85000e+00	7.319940e-06	
172	-1.90000e+00	7.333978e-06	
173	-1.95000e+00	7.347621e-06	
174	-2.00000e+00	7.360892e-06	
175	-2.05000e+00	7.373814e-06	
176	-2.10000e+00	7.386406e-06	
177	-2.15000e+00	7.398686e-06	
178	-2.20000e+00	7.410672e-06	
179	-2.25000e+00	7.422379e-06	
180	-2.30000e+00	7.433821e-06	
181	-2.35000e+00	7.445011e-06	
182	-2.40000e+00	7.455962e-06	
183	-2.45000e+00	7.466684e-06	
184	-2.50000e+00	7.477189e-06	
185	-2.55000e+00	7.487485e-06	
186	-2.60000e+00	7.497582e-06	
187	-2.65000e+00	7.507490e-06	
188	-2.70000e+00	7.517215e-06	
189	-2.75000e+00	7.526766e-06	
190	-2.80000e+00	7.536149e-06	
191	-2.85000e+00	7.545373e-06	
192	-2.90000e+00	7.554444e-06	
193	-2.95000e+00	7.563368e-06	
194	-3.00000e+00	7.572153e-06	
195	-3.05000e+00	7.580806e-06	
196	-3.10000e+00	7.589333e-06	
197	-3.15000e+00	7.597742e-06	
198	-3.20000e+00	7.606042e-06	
199	-3.25000e+00	7.614241e-06	
200	-3.30000e+00	7.622348e-06	
201	0.000000e+00	-3.12737e-22	
202	-5.00000e-02	9.158712e-07	
203	-1.00000e-01	1.796504e-06	
204	-1.50000e-01	2.643074e-06	
205	-2.00000e-01	3.455942e-06	
206	-2.50000e-01	4.235263e-06	
207	-3.00000e-01	4.981142e-06	
208	-3.50000e-01	5.693673e-06	
209	-4.00000e-01	6.372948e-06	
210	-4.50000e-01	7.019057e-06	
211	-5.00000e-01	7.632094e-06	
212	-5.50000e-01	8.212152e-06	
213	-6.00000e-01	8.759326e-06	
214	-6.50000e-01	9.273714e-06	
215	-7.00000e-01	9.755418e-06	
216	-7.50000e-01	1.020455e-05	
217	-8.00000e-01	1.062121e-05	
218	-8.50000e-01	1.100554e-05	
219	-9.00000e-01	1.135767e-05	
220	-9.50000e-01	1.167778e-05	
221	-1.00000e+00	1.196608e-05	
222	-1.05000e+00	1.222288e-05	
223	-1.10000e+00	1.244858e-05	
224	-1.15000e+00	1.264387e-05	
225	-1.20000e+00	1.280980e-05	
226	-1.25000e+00	1.294811e-05	
227	-1.30000e+00	1.306151e-05	
228	-1.35000e+00	1.315383e-05	

Index   v-sweep         i(vds)          
--------------------------------------------------------------------------------
229	-1.40000e+00	1.322966e-05	
230	-1.45000e+00	1.329349e-05	
231	-1.50000e+00	1.334893e-05	
232	-1.55000e+00	1.339851e-05	
233	-1.60000e+00	1.344385e-05	
234	-1.65000e+00	1.348597e-05	
235	-1.70000e+00	1.352551e-05	
236	-1.75000e+00	1.356291e-05	
237	-1.80000e+00	1.359849e-05	
238	-1.85000e+00	1.363247e-05	
239	-1.90000e+00	1.366502e-05	
240	-1.95000e+00	1.369629e-05	
241	-2.00000e+00	1.372640e-05	
242	-2.05000e+00	1.375543e-05	
243	-2.10000e+00	1.378349e-05	
244	-2.15000e+00	1.381062e-05	
245	-2.20000e+00	1.383691e-05	
246	-2.25000e+00	1.386241e-05	
247	-2.30000e+00	1.388717e-05	
248	-2.35000e+00	1.391123e-05	
249	-2.40000e+00	1.393464e-05	
250	-2.45000e+00	1.395744e-05	
251	-2.50000e+00	1.397965e-05	
252	-2.55000e+00	1.400131e-05	
253	-2.60000e+00	1.402246e-05	
254	-2.65000e+00	1.404310e-05	
255	-2.70000e+00	1.406328e-05	
256	-2.75000e+00	1.408301e-05	
257	-2.80000e+00	1.410232e-05	
258	-2.85000e+00	1.412122e-05	
259	-2.90000e+00	1.413973e-05	
260	-2.95000e+00	1.415787e-05	
261	-3.00000e+00	1.417565e-05	
262	-3.05000e+00	1.419310e-05	
263	-3.10000e+00	1.421022e-05	
264	-3.15000e+00	1.422703e-05	
265	-3.20000e+00	1.424354e-05	
266	-3.25000e+00	1.425976e-05	
267	-3.30000e+00	1.427572e-05	
268	0.000000e+00	-6.70495e-22	
269	-5.00000e-02	1.136855e-06	
270	-1.00000e-01	2.239835e-06	
271	-1.50000e-01	3.310076e-06	
272	-2.00000e-01	4.347921e-06	
273	-2.50000e-01	5.353512e-06	
274	-3.00000e-01	6.326943e-06	
275	-3.50000e-01	7.268292e-06	
276	-4.00000e-01	8.177637e-06	
277	-4.50000e-01	9.055055e-06	
278	-5.00000e-01	9.900622e-06	
279	-5.50000e-01	1.071442e-05	
280	-6.00000e-01	1.149652e-05	
281	-6.50000e-01	1.224700e-05	
282	-7.00000e-01	1.296595e-05	
283	-7.50000e-01	1.365344e-05	
284	-8.00000e-01	1.430955e-05	
285	-8.50000e-01	1.493437e-05	
286	-9.00000e-01	1.552798e-05	

Index   v-sweep         i(vds)          
--------------------------------------------------------------------------------
287	-9.50000e-01	1.609047e-05	
288	-1.00000e+00	1.662193e-05	
289	-1.05000e+00	1.712244e-05	
290	-1.10000e+00	1.759212e-05	
291	-1.15000e+00	1.803106e-05	
292	-1.20000e+00	1.843938e-05	
293	-1.25000e+00	1.881722e-05	
294	-1.30000e+00	1.916475e-05	
295	-1.35000e+00	1.948218e-05	
296	-1.40000e+00	1.976977e-05	
297	-1.45000e+00	2.002793e-05	
298	-1.50000e+00	2.025721e-05	
299	-1.55000e+00	2.045851e-05	
300	-1.60000e+00	2.063316e-05	
301	-1.65000e+00	2.078320e-05	
302	-1.70000e+00	2.091144e-05	
303	-1.75000e+00	2.102142e-05	
304	-1.80000e+00	2.111694e-05	
305	-1.85000e+00	2.120145e-05	
306	-1.90000e+00	2.127771e-05	
307	-1.95000e+00	2.134771e-05	
308	-2.00000e+00	2.141281e-05	
309	-2.05000e+00	2.147394e-05	
310	-2.10000e+00	2.153175e-05	
311	-2.15000e+00	2.158671e-05	
312	-2.20000e+00	2.163917e-05	
313	-2.25000e+00	2.168941e-05	
314	-2.30000e+00	2.173764e-05	
315	-2.35000e+00	2.178405e-05	
316	-2.40000e+00	2.182878e-05	
317	-2.45000e+00	2.187198e-05	
318	-2.50000e+00	2.191375e-05	
319	-2.55000e+00	2.195419e-05	
320	-2.60000e+00	2.199340e-05	
321	-2.65000e+00	2.203145e-05	
322	-2.70000e+00	2.206842e-05	
323	-2.75000e+00	2.210436e-05	
324	-2.80000e+00	2.213935e-05	
325	-2.85000e+00	2.217342e-05	
326	-2.90000e+00	2.220664e-05	
327	-2.95000e+00	2.223905e-05	
328	-3.00000e+00	2.227068e-05	
329	-3.05000e+00	2.230158e-05	
330	-3.10000e+00	2.233178e-05	
331	-3.15000e+00	2.236132e-05	
332	-3.20000e+00	2.239022e-05	
333	-3.25000e+00	2.241852e-05	
334	-3.30000e+00	2.244623e-05	
335	0.000000e+00	-1.12824e-21	
336	-5.00000e-02	1.339605e-06	
337	-1.00000e-01	2.646623e-06	
338	-1.50000e-01	3.922157e-06	
339	-2.00000e-01	5.166537e-06	
340	-2.50000e-01	6.379896e-06	
341	-3.00000e-01	7.562317e-06	
342	-3.50000e-01	8.713869e-06	
343	-4.00000e-01	9.834620e-06	
344	-4.50000e-01	1.092464e-05	

Index   v-sweep         i(vds)          
--------------------------------------------------------------------------------
345	-5.00000e-01	1.198399e-05	
346	-5.50000e-01	1.301274e-05	
347	-6.00000e-01	1.401096e-05	
348	-6.50000e-01	1.497871e-05	
349	-7.00000e-01	1.591607e-05	
350	-7.50000e-01	1.682310e-05	
351	-8.00000e-01	1.769987e-05	
352	-8.50000e-01	1.854645e-05	
353	-9.00000e-01	1.936291e-05	
354	-9.50000e-01	2.014933e-05	
355	-1.00000e+00	2.090576e-05	
356	-1.05000e+00	2.163229e-05	
357	-1.10000e+00	2.232899e-05	
358	-1.15000e+00	2.299593e-05	
359	-1.20000e+00	2.363319e-05	
360	-1.25000e+00	2.424085e-05	
361	-1.30000e+00	2.481897e-05	
362	-1.35000e+00	2.536765e-05	
363	-1.40000e+00	2.588698e-05	
364	-1.45000e+00	2.637704e-05	
365	-1.50000e+00	2.683795e-05	
366	-1.55000e+00	2.726980e-05	
367	-1.60000e+00	2.767273e-05	
368	-1.65000e+00	2.804691e-05	
369	-1.70000e+00	2.839252e-05	
370	-1.75000e+00	2.870982e-05	
371	-1.80000e+00	2.899917e-05	
372	-1.85000e+00	2.926108e-05	
373	-1.90000e+00	2.949627e-05	
374	-1.95000e+00	2.970585e-05	
375	-2.00000e+00	2.989139e-05	
376	-2.05000e+00	3.005509e-05	
377	-2.10000e+00	3.019969e-05	
378	-2.15000e+00	3.032831e-05	
379	-2.20000e+00	3.044403e-05	
380	-2.25000e+00	3.054950e-05	
381	-2.30000e+00	3.064685e-05	
382	-2.35000e+00	3.073765e-05	
383	-2.40000e+00	3.082302e-05	
384	-2.45000e+00	3.090382e-05	
385	-2.50000e+00	3.098065e-05	
386	-2.55000e+00	3.105398e-05	
387	-2.60000e+00	3.112420e-05	
388	-2.65000e+00	3.119161e-05	
389	-2.70000e+00	3.125645e-05	
390	-2.75000e+00	3.131895e-05	
391	-2.80000e+00	3.137927e-05	
392	-2.85000e+00	3.143759e-05	
393	-2.90000e+00	3.149405e-05	
394	-2.95000e+00	3.154876e-05	
395	-3.00000e+00	3.160185e-05	
396	-3.05000e+00	3.165340e-05	
397	-3.10000e+00	3.170353e-05	
398	-3.15000e+00	3.175229e-05	
399	-3.20000e+00	3.179978e-05	
400	-3.25000e+00	3.184606e-05	
401	-3.30000e+00	3.189119e-05	
Note: No ".plot", ".print", or ".fourier" lines; no simulations run
