
Note: Compatibility modes selected: hs

Warning: m=xx on .subckt line will override multiplier m hierarchy!


Circuit: ***************************

Doing analysis at TEMP = 25.000000 and TNOM = 25.000000


No. of Data Rows : 402
                          ***************************
                          DC transfer characteristic  Mon Jan  9 13:58:23  2023
--------------------------------------------------------------------------------
Index   v-sweep         i(vds)          
--------------------------------------------------------------------------------
0	0.000000e+00	2.614475e-23	
1	-5.00000e-02	2.791165e-07	
2	-1.00000e-01	4.390896e-07	
3	-1.50000e-01	5.061490e-07	
4	-2.00000e-01	5.307541e-07	
5	-2.50000e-01	5.445480e-07	
6	-3.00000e-01	5.556372e-07	
7	-3.50000e-01	5.657745e-07	
8	-4.00000e-01	5.754508e-07	
9	-4.50000e-01	5.848486e-07	
10	-5.00000e-01	5.940539e-07	
11	-5.50000e-01	6.031148e-07	
12	-6.00000e-01	6.120626e-07	
13	-6.50000e-01	6.209192e-07	
14	-7.00000e-01	6.297013e-07	
15	-7.50000e-01	6.384223e-07	
16	-8.00000e-01	6.470928e-07	
17	-8.50000e-01	6.557222e-07	
18	-9.00000e-01	6.643180e-07	
19	-9.50000e-01	6.728871e-07	
20	-1.00000e+00	6.814352e-07	
21	-1.05000e+00	6.899676e-07	
22	-1.10000e+00	6.984889e-07	
23	-1.15000e+00	7.070032e-07	
24	-1.20000e+00	7.155140e-07	
25	-1.25000e+00	7.240248e-07	
26	-1.30000e+00	7.325385e-07	
27	-1.35000e+00	7.410579e-07	
28	-1.40000e+00	7.495854e-07	
29	-1.45000e+00	7.581233e-07	
30	-1.50000e+00	7.666738e-07	
31	-1.55000e+00	7.752386e-07	
32	-1.60000e+00	7.838196e-07	
33	-1.65000e+00	7.924185e-07	
34	-1.70000e+00	8.010367e-07	
35	-1.75000e+00	8.096756e-07	
36	-1.80000e+00	8.183366e-07	
37	-1.85000e+00	8.270210e-07	
38	-1.90000e+00	8.357298e-07	
39	-1.95000e+00	8.444644e-07	
40	-2.00000e+00	8.532256e-07	
41	-2.05000e+00	8.620148e-07	
42	-2.10000e+00	8.708328e-07	
43	-2.15000e+00	8.796810e-07	
44	-2.20000e+00	8.885603e-07	
45	-2.25000e+00	8.974721e-07	
46	-2.30000e+00	9.064178e-07	
47	-2.35000e+00	9.153987e-07	
48	-2.40000e+00	9.244166e-07	
49	-2.45000e+00	9.334734e-07	
50	-2.50000e+00	9.425712e-07	
51	-2.55000e+00	9.517125e-07	
52	-2.60000e+00	9.609002e-07	
53	-2.65000e+00	9.701376e-07	
54	-2.70000e+00	9.794283e-07	

Index   v-sweep         i(vds)          
--------------------------------------------------------------------------------
55	-2.75000e+00	9.887769e-07	
56	-2.80000e+00	9.981882e-07	
57	-2.85000e+00	1.007668e-06	
58	-2.90000e+00	1.017223e-06	
59	-2.95000e+00	1.026859e-06	
60	-3.00000e+00	1.036586e-06	
61	-3.05000e+00	1.046413e-06	
62	-3.10000e+00	1.056349e-06	
63	-3.15000e+00	1.066406e-06	
64	-3.20000e+00	1.076598e-06	
65	-3.25000e+00	1.086937e-06	
66	-3.30000e+00	1.097440e-06	
67	0.000000e+00	-4.38628e-22	
68	-5.00000e-02	1.717635e-06	
69	-1.00000e-01	3.274778e-06	
70	-1.50000e-01	4.673264e-06	
71	-2.00000e-01	5.914980e-06	
72	-2.50000e-01	7.001915e-06	
73	-3.00000e-01	7.936270e-06	
74	-3.50000e-01	8.720712e-06	
75	-4.00000e-01	9.358961e-06	
76	-4.50000e-01	9.857207e-06	
77	-5.00000e-01	1.022721e-05	
78	-5.50000e-01	1.049080e-05	
79	-6.00000e-01	1.067987e-05	
80	-6.50000e-01	1.082557e-05	
81	-7.00000e-01	1.094820e-05	
82	-7.50000e-01	1.105796e-05	
83	-8.00000e-01	1.115961e-05	
84	-8.50000e-01	1.125549e-05	
85	-9.00000e-01	1.134691e-05	
86	-9.50000e-01	1.143465e-05	
87	-1.00000e+00	1.151926e-05	
88	-1.05000e+00	1.160114e-05	
89	-1.10000e+00	1.168060e-05	
90	-1.15000e+00	1.175789e-05	
91	-1.20000e+00	1.183321e-05	
92	-1.25000e+00	1.190676e-05	
93	-1.30000e+00	1.197866e-05	
94	-1.35000e+00	1.204907e-05	
95	-1.40000e+00	1.211809e-05	
96	-1.45000e+00	1.218582e-05	
97	-1.50000e+00	1.225237e-05	
98	-1.55000e+00	1.231781e-05	
99	-1.60000e+00	1.238221e-05	
100	-1.65000e+00	1.244565e-05	
101	-1.70000e+00	1.250819e-05	
102	-1.75000e+00	1.256987e-05	
103	-1.80000e+00	1.263076e-05	
104	-1.85000e+00	1.269090e-05	
105	-1.90000e+00	1.275033e-05	
106	-1.95000e+00	1.280909e-05	
107	-2.00000e+00	1.286722e-05	
108	-2.05000e+00	1.292475e-05	
109	-2.10000e+00	1.298171e-05	
110	-2.15000e+00	1.303814e-05	
111	-2.20000e+00	1.309405e-05	
112	-2.25000e+00	1.314949e-05	

Index   v-sweep         i(vds)          
--------------------------------------------------------------------------------
113	-2.30000e+00	1.320446e-05	
114	-2.35000e+00	1.325900e-05	
115	-2.40000e+00	1.331312e-05	
116	-2.45000e+00	1.336685e-05	
117	-2.50000e+00	1.342021e-05	
118	-2.55000e+00	1.347322e-05	
119	-2.60000e+00	1.352589e-05	
120	-2.65000e+00	1.357826e-05	
121	-2.70000e+00	1.363035e-05	
122	-2.75000e+00	1.368217e-05	
123	-2.80000e+00	1.373377e-05	
124	-2.85000e+00	1.378515e-05	
125	-2.90000e+00	1.383636e-05	
126	-2.95000e+00	1.388744e-05	
127	-3.00000e+00	1.393841e-05	
128	-3.05000e+00	1.398934e-05	
129	-3.10000e+00	1.404026e-05	
130	-3.15000e+00	1.409123e-05	
131	-3.20000e+00	1.414233e-05	
132	-3.25000e+00	1.419361e-05	
133	-3.30000e+00	1.424517e-05	
134	0.000000e+00	-1.26189e-21	
135	-5.00000e-02	2.842649e-06	
136	-1.00000e-01	5.534244e-06	
137	-1.50000e-01	8.076056e-06	
138	-2.00000e-01	1.046936e-05	
139	-2.50000e-01	1.271544e-05	
140	-3.00000e-01	1.481558e-05	
141	-3.50000e-01	1.677109e-05	
142	-4.00000e-01	1.858327e-05	
143	-4.50000e-01	2.025347e-05	
144	-5.00000e-01	2.178307e-05	
145	-5.50000e-01	2.317353e-05	
146	-6.00000e-01	2.442641e-05	
147	-6.50000e-01	2.554350e-05	
148	-7.00000e-01	2.652697e-05	
149	-7.50000e-01	2.737971e-05	
150	-8.00000e-01	2.810606e-05	
151	-8.50000e-01	2.871300e-05	
152	-9.00000e-01	2.921204e-05	
153	-9.50000e-01	2.962065e-05	
154	-1.00000e+00	2.996070e-05	
155	-1.05000e+00	3.025331e-05	
156	-1.10000e+00	3.051434e-05	
157	-1.15000e+00	3.075378e-05	
158	-1.20000e+00	3.097749e-05	
159	-1.25000e+00	3.118898e-05	
160	-1.30000e+00	3.139047e-05	
161	-1.35000e+00	3.158346e-05	
162	-1.40000e+00	3.176904e-05	
163	-1.45000e+00	3.194805e-05	
164	-1.50000e+00	3.212118e-05	
165	-1.55000e+00	3.228896e-05	
166	-1.60000e+00	3.245188e-05	
167	-1.65000e+00	3.261033e-05	
168	-1.70000e+00	3.276467e-05	
169	-1.75000e+00	3.291521e-05	
170	-1.80000e+00	3.306222e-05	

Index   v-sweep         i(vds)          
--------------------------------------------------------------------------------
171	-1.85000e+00	3.320594e-05	
172	-1.90000e+00	3.334659e-05	
173	-1.95000e+00	3.348437e-05	
174	-2.00000e+00	3.361947e-05	
175	-2.05000e+00	3.375203e-05	
176	-2.10000e+00	3.388222e-05	
177	-2.15000e+00	3.401016e-05	
178	-2.20000e+00	3.413599e-05	
179	-2.25000e+00	3.425981e-05	
180	-2.30000e+00	3.438173e-05	
181	-2.35000e+00	3.450186e-05	
182	-2.40000e+00	3.462027e-05	
183	-2.45000e+00	3.473706e-05	
184	-2.50000e+00	3.485230e-05	
185	-2.55000e+00	3.496608e-05	
186	-2.60000e+00	3.507844e-05	
187	-2.65000e+00	3.518947e-05	
188	-2.70000e+00	3.529922e-05	
189	-2.75000e+00	3.540775e-05	
190	-2.80000e+00	3.551511e-05	
191	-2.85000e+00	3.562137e-05	
192	-2.90000e+00	3.572657e-05	
193	-2.95000e+00	3.583078e-05	
194	-3.00000e+00	3.593403e-05	
195	-3.05000e+00	3.603640e-05	
196	-3.10000e+00	3.613794e-05	
197	-3.15000e+00	3.623872e-05	
198	-3.20000e+00	3.633879e-05	
199	-3.25000e+00	3.643825e-05	
200	-3.30000e+00	3.653717e-05	
201	0.000000e+00	-1.04980e-21	
202	-5.00000e-02	3.711067e-06	
203	-1.00000e-01	7.283054e-06	
204	-1.50000e-01	1.071690e-05	
205	-2.00000e-01	1.401355e-05	
206	-2.50000e-01	1.717394e-05	
207	-3.00000e-01	2.019903e-05	
208	-3.50000e-01	2.308977e-05	
209	-4.00000e-01	2.584712e-05	
210	-4.50000e-01	2.847203e-05	
211	-5.00000e-01	3.096547e-05	
212	-5.50000e-01	3.332842e-05	
213	-6.00000e-01	3.556185e-05	
214	-6.50000e-01	3.766676e-05	
215	-7.00000e-01	3.964414e-05	
216	-7.50000e-01	4.149503e-05	
217	-8.00000e-01	4.322047e-05	
218	-8.50000e-01	4.482157e-05	
219	-9.00000e-01	4.629951e-05	
220	-9.50000e-01	4.765557e-05	
221	-1.00000e+00	4.889125e-05	
222	-1.05000e+00	5.000837e-05	
223	-1.10000e+00	5.100932e-05	
224	-1.15000e+00	5.189750e-05	
225	-1.20000e+00	5.267801e-05	
226	-1.25000e+00	5.335864e-05	
227	-1.30000e+00	5.395076e-05	
228	-1.35000e+00	5.446910e-05	

Index   v-sweep         i(vds)          
--------------------------------------------------------------------------------
229	-1.40000e+00	5.492973e-05	
230	-1.45000e+00	5.534705e-05	
231	-1.50000e+00	5.573203e-05	
232	-1.55000e+00	5.609217e-05	
233	-1.60000e+00	5.643249e-05	
234	-1.65000e+00	5.675634e-05	
235	-1.70000e+00	5.706609e-05	
236	-1.75000e+00	5.736350e-05	
237	-1.80000e+00	5.764993e-05	
238	-1.85000e+00	5.792647e-05	
239	-1.90000e+00	5.819402e-05	
240	-1.95000e+00	5.845336e-05	
241	-2.00000e+00	5.870514e-05	
242	-2.05000e+00	5.894995e-05	
243	-2.10000e+00	5.918829e-05	
244	-2.15000e+00	5.942061e-05	
245	-2.20000e+00	5.964731e-05	
246	-2.25000e+00	5.986877e-05	
247	-2.30000e+00	6.008531e-05	
248	-2.35000e+00	6.029722e-05	
249	-2.40000e+00	6.050478e-05	
250	-2.45000e+00	6.070824e-05	
251	-2.50000e+00	6.090782e-05	
252	-2.55000e+00	6.110373e-05	
253	-2.60000e+00	6.129617e-05	
254	-2.65000e+00	6.148532e-05	
255	-2.70000e+00	6.167133e-05	
256	-2.75000e+00	6.185437e-05	
257	-2.80000e+00	6.203457e-05	
258	-2.85000e+00	6.221207e-05	
259	-2.90000e+00	6.238699e-05	
260	-2.95000e+00	6.255944e-05	
261	-3.00000e+00	6.272955e-05	
262	-3.05000e+00	6.289740e-05	
263	-3.10000e+00	6.306311e-05	
264	-3.15000e+00	6.322676e-05	
265	-3.20000e+00	6.338845e-05	
266	-3.25000e+00	6.354827e-05	
267	-3.30000e+00	6.370630e-05	
268	0.000000e+00	-2.44683e-22	
269	-5.00000e-02	4.398558e-06	
270	-1.00000e-01	8.669308e-06	
271	-1.50000e-01	1.281297e-05	
272	-2.00000e-01	1.683026e-05	
273	-2.50000e-01	2.072191e-05	
274	-3.00000e-01	2.448864e-05	
275	-3.50000e-01	2.813118e-05	
276	-4.00000e-01	3.165027e-05	
277	-4.50000e-01	3.504664e-05	
278	-5.00000e-01	3.832104e-05	
279	-5.50000e-01	4.147421e-05	
280	-6.00000e-01	4.450689e-05	
281	-6.50000e-01	4.741983e-05	
282	-7.00000e-01	5.021378e-05	
283	-7.50000e-01	5.288951e-05	
284	-8.00000e-01	5.544776e-05	
285	-8.50000e-01	5.788931e-05	
286	-9.00000e-01	6.021494e-05	

Index   v-sweep         i(vds)          
--------------------------------------------------------------------------------
287	-9.50000e-01	6.242541e-05	
288	-1.00000e+00	6.452153e-05	
289	-1.05000e+00	6.650410e-05	
290	-1.10000e+00	6.837396e-05	
291	-1.15000e+00	7.013198e-05	
292	-1.20000e+00	7.177906e-05	
293	-1.25000e+00	7.331619e-05	
294	-1.30000e+00	7.474448e-05	
295	-1.35000e+00	7.606522e-05	
296	-1.40000e+00	7.727999e-05	
297	-1.45000e+00	7.839085e-05	
298	-1.50000e+00	7.940065e-05	
299	-1.55000e+00	8.031349e-05	
300	-1.60000e+00	8.113531e-05	
301	-1.65000e+00	8.187444e-05	
302	-1.70000e+00	8.254157e-05	
303	-1.75000e+00	8.314871e-05	
304	-1.80000e+00	8.370754e-05	
305	-1.85000e+00	8.422785e-05	
306	-1.90000e+00	8.471712e-05	
307	-1.95000e+00	8.518077e-05	
308	-2.00000e+00	8.562269e-05	
309	-2.05000e+00	8.604578e-05	
310	-2.10000e+00	8.645221e-05	
311	-2.15000e+00	8.684373e-05	
312	-2.20000e+00	8.722174e-05	
313	-2.25000e+00	8.758744e-05	
314	-2.30000e+00	8.794183e-05	
315	-2.35000e+00	8.828579e-05	
316	-2.40000e+00	8.862008e-05	
317	-2.45000e+00	8.894538e-05	
318	-2.50000e+00	8.926229e-05	
319	-2.55000e+00	8.957137e-05	
320	-2.60000e+00	8.987311e-05	
321	-2.65000e+00	9.016793e-05	
322	-2.70000e+00	9.045627e-05	
323	-2.75000e+00	9.073847e-05	
324	-2.80000e+00	9.101488e-05	
325	-2.85000e+00	9.128582e-05	
326	-2.90000e+00	9.155157e-05	
327	-2.95000e+00	9.181239e-05	
328	-3.00000e+00	9.206853e-05	
329	-3.05000e+00	9.232022e-05	
330	-3.10000e+00	9.256767e-05	
331	-3.15000e+00	9.281108e-05	
332	-3.20000e+00	9.305062e-05	
333	-3.25000e+00	9.328648e-05	
334	-3.30000e+00	9.351881e-05	
335	0.000000e+00	1.026399e-30	
336	-5.00000e-02	4.954705e-06	
337	-1.00000e-01	9.791650e-06	
338	-1.50000e-01	1.451140e-05	
339	-2.00000e-01	1.911452e-05	
340	-2.50000e-01	2.360158e-05	
341	-3.00000e-01	2.797315e-05	
342	-3.50000e-01	3.222982e-05	
343	-4.00000e-01	3.637215e-05	
344	-4.50000e-01	4.040073e-05	

Index   v-sweep         i(vds)          
--------------------------------------------------------------------------------
345	-5.00000e-01	4.431615e-05	
346	-5.50000e-01	4.811899e-05	
347	-6.00000e-01	5.180983e-05	
348	-6.50000e-01	5.538928e-05	
349	-7.00000e-01	5.885792e-05	
350	-7.50000e-01	6.221636e-05	
351	-8.00000e-01	6.546518e-05	
352	-8.50000e-01	6.860500e-05	
353	-9.00000e-01	7.163641e-05	
354	-9.50000e-01	7.456002e-05	
355	-1.00000e+00	7.737645e-05	
356	-1.05000e+00	8.008630e-05	
357	-1.10000e+00	8.269019e-05	
358	-1.15000e+00	8.518873e-05	
359	-1.20000e+00	8.758257e-05	
360	-1.25000e+00	8.987233e-05	
361	-1.30000e+00	9.205866e-05	
362	-1.35000e+00	9.414221e-05	
363	-1.40000e+00	9.612365e-05	
364	-1.45000e+00	9.800369e-05	
365	-1.50000e+00	9.978305e-05	
366	-1.55000e+00	1.014625e-04	
367	-1.60000e+00	1.030430e-04	
368	-1.65000e+00	1.045254e-04	
369	-1.70000e+00	1.059108e-04	
370	-1.75000e+00	1.072008e-04	
371	-1.80000e+00	1.083970e-04	
372	-1.85000e+00	1.095021e-04	
373	-1.90000e+00	1.105195e-04	
374	-1.95000e+00	1.114539e-04	
375	-2.00000e+00	1.123120e-04	
376	-2.05000e+00	1.131019e-04	
377	-2.10000e+00	1.138329e-04	
378	-2.15000e+00	1.145143e-04	
379	-2.20000e+00	1.151544e-04	
380	-2.25000e+00	1.157597e-04	
381	-2.30000e+00	1.163356e-04	
382	-2.35000e+00	1.168860e-04	
383	-2.40000e+00	1.174140e-04	
384	-2.45000e+00	1.179219e-04	
385	-2.50000e+00	1.184117e-04	
386	-2.55000e+00	1.188850e-04	
387	-2.60000e+00	1.193432e-04	
388	-2.65000e+00	1.197874e-04	
389	-2.70000e+00	1.202188e-04	
390	-2.75000e+00	1.206381e-04	
391	-2.80000e+00	1.210462e-04	
392	-2.85000e+00	1.214439e-04	
393	-2.90000e+00	1.218317e-04	
394	-2.95000e+00	1.222103e-04	
395	-3.00000e+00	1.225803e-04	
396	-3.05000e+00	1.229420e-04	
397	-3.10000e+00	1.232960e-04	
398	-3.15000e+00	1.236426e-04	
399	-3.20000e+00	1.239824e-04	
400	-3.25000e+00	1.243155e-04	
401	-3.30000e+00	1.246423e-04	
Note: No ".plot", ".print", or ".fourier" lines; no simulations run
