
Note: Compatibility modes selected: hs

Warning: m=xx on .subckt line will override multiplier m hierarchy!


Circuit: ***************************

Doing analysis at TEMP = 25.000000 and TNOM = 25.000000


No. of Data Rows : 402
                          ***************************
                          DC transfer characteristic  Mon Jan  9 13:58:23  2023
--------------------------------------------------------------------------------
Index   v-sweep         i(vds)          
--------------------------------------------------------------------------------
0	0.000000e+00	2.672514e-24	
1	-5.00000e-02	1.718312e-08	
2	-1.00000e-01	2.207188e-08	
3	-1.50000e-01	2.292872e-08	
4	-2.00000e-01	2.317214e-08	
5	-2.50000e-01	2.329805e-08	
6	-3.00000e-01	2.338760e-08	
7	-3.50000e-01	2.346128e-08	
8	-4.00000e-01	2.352619e-08	
9	-4.50000e-01	2.358540e-08	
10	-5.00000e-01	2.364049e-08	
11	-5.50000e-01	2.369236e-08	
12	-6.00000e-01	2.374161e-08	
13	-6.50000e-01	2.378863e-08	
14	-7.00000e-01	2.383374e-08	
15	-7.50000e-01	2.387715e-08	
16	-8.00000e-01	2.391905e-08	
17	-8.50000e-01	2.395960e-08	
18	-9.00000e-01	2.399891e-08	
19	-9.50000e-01	2.403710e-08	
20	-1.00000e+00	2.407425e-08	
21	-1.05000e+00	2.411046e-08	
22	-1.10000e+00	2.414578e-08	
23	-1.15000e+00	2.418028e-08	
24	-1.20000e+00	2.421402e-08	
25	-1.25000e+00	2.424704e-08	
26	-1.30000e+00	2.427940e-08	
27	-1.35000e+00	2.431112e-08	
28	-1.40000e+00	2.434226e-08	
29	-1.45000e+00	2.437284e-08	
30	-1.50000e+00	2.440289e-08	
31	-1.55000e+00	2.443245e-08	
32	-1.60000e+00	2.446153e-08	
33	-1.65000e+00	2.449017e-08	
34	-1.70000e+00	2.451838e-08	
35	-1.75000e+00	2.454619e-08	
36	-1.80000e+00	2.457361e-08	
37	-1.85000e+00	2.460066e-08	
38	-1.90000e+00	2.462737e-08	
39	-1.95000e+00	2.465374e-08	
40	-2.00000e+00	2.467979e-08	
41	-2.05000e+00	2.470554e-08	
42	-2.10000e+00	2.473100e-08	
43	-2.15000e+00	2.475618e-08	
44	-2.20000e+00	2.478111e-08	
45	-2.25000e+00	2.480580e-08	
46	-2.30000e+00	2.483025e-08	
47	-2.35000e+00	2.485450e-08	
48	-2.40000e+00	2.487856e-08	
49	-2.45000e+00	2.490246e-08	
50	-2.50000e+00	2.492621e-08	
51	-2.55000e+00	2.494985e-08	
52	-2.60000e+00	2.497341e-08	
53	-2.65000e+00	2.499692e-08	
54	-2.70000e+00	2.502043e-08	

Index   v-sweep         i(vds)          
--------------------------------------------------------------------------------
55	-2.75000e+00	2.504398e-08	
56	-2.80000e+00	2.506764e-08	
57	-2.85000e+00	2.509146e-08	
58	-2.90000e+00	2.511552e-08	
59	-2.95000e+00	2.513990e-08	
60	-3.00000e+00	2.516469e-08	
61	-3.05000e+00	2.519000e-08	
62	-3.10000e+00	2.521595e-08	
63	-3.15000e+00	2.524266e-08	
64	-3.20000e+00	2.527028e-08	
65	-3.25000e+00	2.529898e-08	
66	-3.30000e+00	2.532893e-08	
67	0.000000e+00	1.334697e-32	
68	-5.00000e-02	2.140990e-07	
69	-1.00000e-01	4.008307e-07	
70	-1.50000e-01	5.603022e-07	
71	-2.00000e-01	6.926699e-07	
72	-2.50000e-01	7.982078e-07	
73	-3.00000e-01	8.774933e-07	
74	-3.50000e-01	9.319150e-07	
75	-4.00000e-01	9.647859e-07	
76	-4.50000e-01	9.822629e-07	
77	-5.00000e-01	9.913716e-07	
78	-5.50000e-01	9.967600e-07	
79	-6.00000e-01	1.000527e-06	
80	-6.50000e-01	1.003508e-06	
81	-7.00000e-01	1.006046e-06	
82	-7.50000e-01	1.008302e-06	
83	-8.00000e-01	1.010358e-06	
84	-8.50000e-01	1.012260e-06	
85	-9.00000e-01	1.014039e-06	
86	-9.50000e-01	1.015715e-06	
87	-1.00000e+00	1.017303e-06	
88	-1.05000e+00	1.018814e-06	
89	-1.10000e+00	1.020257e-06	
90	-1.15000e+00	1.021638e-06	
91	-1.20000e+00	1.022963e-06	
92	-1.25000e+00	1.024239e-06	
93	-1.30000e+00	1.025468e-06	
94	-1.35000e+00	1.026654e-06	
95	-1.40000e+00	1.027801e-06	
96	-1.45000e+00	1.028912e-06	
97	-1.50000e+00	1.029989e-06	
98	-1.55000e+00	1.031034e-06	
99	-1.60000e+00	1.032049e-06	
100	-1.65000e+00	1.033037e-06	
101	-1.70000e+00	1.033998e-06	
102	-1.75000e+00	1.034935e-06	
103	-1.80000e+00	1.035849e-06	
104	-1.85000e+00	1.036740e-06	
105	-1.90000e+00	1.037611e-06	
106	-1.95000e+00	1.038462e-06	
107	-2.00000e+00	1.039294e-06	
108	-2.05000e+00	1.040108e-06	
109	-2.10000e+00	1.040906e-06	
110	-2.15000e+00	1.041687e-06	
111	-2.20000e+00	1.042452e-06	
112	-2.25000e+00	1.043203e-06	

Index   v-sweep         i(vds)          
--------------------------------------------------------------------------------
113	-2.30000e+00	1.043940e-06	
114	-2.35000e+00	1.044664e-06	
115	-2.40000e+00	1.045375e-06	
116	-2.45000e+00	1.046073e-06	
117	-2.50000e+00	1.046760e-06	
118	-2.55000e+00	1.047436e-06	
119	-2.60000e+00	1.048102e-06	
120	-2.65000e+00	1.048759e-06	
121	-2.70000e+00	1.049406e-06	
122	-2.75000e+00	1.050046e-06	
123	-2.80000e+00	1.050679e-06	
124	-2.85000e+00	1.051306e-06	
125	-2.90000e+00	1.051928e-06	
126	-2.95000e+00	1.052547e-06	
127	-3.00000e+00	1.053164e-06	
128	-3.05000e+00	1.053782e-06	
129	-3.10000e+00	1.054401e-06	
130	-3.15000e+00	1.055025e-06	
131	-3.20000e+00	1.055657e-06	
132	-3.25000e+00	1.056299e-06	
133	-3.30000e+00	1.056955e-06	
134	0.000000e+00	-2.96671e-31	
135	-5.00000e-02	4.125344e-07	
136	-1.00000e-01	7.980716e-07	
137	-1.50000e-01	1.156664e-06	
138	-2.00000e-01	1.488366e-06	
139	-2.50000e-01	1.793235e-06	
140	-3.00000e-01	2.071333e-06	
141	-3.50000e-01	2.322730e-06	
142	-4.00000e-01	2.547507e-06	
143	-4.50000e-01	2.745772e-06	
144	-5.00000e-01	2.917672e-06	
145	-5.50000e-01	3.063439e-06	
146	-6.00000e-01	3.183472e-06	
147	-6.50000e-01	3.278513e-06	
148	-7.00000e-01	3.350006e-06	
149	-7.50000e-01	3.400641e-06	
150	-8.00000e-01	3.434716e-06	
151	-8.50000e-01	3.457446e-06	
152	-9.00000e-01	3.473375e-06	
153	-9.50000e-01	3.485468e-06	
154	-1.00000e+00	3.495348e-06	
155	-1.05000e+00	3.503858e-06	
156	-1.10000e+00	3.511444e-06	
157	-1.15000e+00	3.518357e-06	
158	-1.20000e+00	3.524748e-06	
159	-1.25000e+00	3.530717e-06	
160	-1.30000e+00	3.536332e-06	
161	-1.35000e+00	3.541643e-06	
162	-1.40000e+00	3.546688e-06	
163	-1.45000e+00	3.551498e-06	
164	-1.50000e+00	3.556096e-06	
165	-1.55000e+00	3.560503e-06	
166	-1.60000e+00	3.564737e-06	
167	-1.65000e+00	3.568811e-06	
168	-1.70000e+00	3.572739e-06	
169	-1.75000e+00	3.576531e-06	
170	-1.80000e+00	3.580198e-06	

Index   v-sweep         i(vds)          
--------------------------------------------------------------------------------
171	-1.85000e+00	3.583748e-06	
172	-1.90000e+00	3.587189e-06	
173	-1.95000e+00	3.590529e-06	
174	-2.00000e+00	3.593772e-06	
175	-2.05000e+00	3.596925e-06	
176	-2.10000e+00	3.599994e-06	
177	-2.15000e+00	3.602983e-06	
178	-2.20000e+00	3.605896e-06	
179	-2.25000e+00	3.608737e-06	
180	-2.30000e+00	3.611510e-06	
181	-2.35000e+00	3.614219e-06	
182	-2.40000e+00	3.616867e-06	
183	-2.45000e+00	3.619456e-06	
184	-2.50000e+00	3.621990e-06	
185	-2.55000e+00	3.624470e-06	
186	-2.60000e+00	3.626900e-06	
187	-2.65000e+00	3.629282e-06	
188	-2.70000e+00	3.631617e-06	
189	-2.75000e+00	3.633909e-06	
190	-2.80000e+00	3.636158e-06	
191	-2.85000e+00	3.638368e-06	
192	-2.90000e+00	3.640540e-06	
193	-2.95000e+00	3.642677e-06	
194	-3.00000e+00	3.644781e-06	
195	-3.05000e+00	3.646854e-06	
196	-3.10000e+00	3.648900e-06	
197	-3.15000e+00	3.650921e-06	
198	-3.20000e+00	3.652921e-06	
199	-3.25000e+00	3.654905e-06	
200	-3.30000e+00	3.656875e-06	
201	0.000000e+00	5.206878e-32	
202	-5.00000e-02	5.921276e-07	
203	-1.00000e-01	1.158468e-06	
204	-1.50000e-01	1.699064e-06	
205	-2.00000e-01	2.213959e-06	
206	-2.50000e-01	2.703197e-06	
207	-3.00000e-01	3.166823e-06	
208	-3.50000e-01	3.604881e-06	
209	-4.00000e-01	4.017417e-06	
210	-4.50000e-01	4.404479e-06	
211	-5.00000e-01	4.766117e-06	
212	-5.50000e-01	5.102382e-06	
213	-6.00000e-01	5.413331e-06	
214	-6.50000e-01	5.699029e-06	
215	-7.00000e-01	5.959548e-06	
216	-7.50000e-01	6.194979e-06	
217	-8.00000e-01	6.405439e-06	
218	-8.50000e-01	6.591096e-06	
219	-9.00000e-01	6.752198e-06	
220	-9.50000e-01	6.889148e-06	
221	-1.00000e+00	7.002628e-06	
222	-1.05000e+00	7.093814e-06	
223	-1.10000e+00	7.164681e-06	
224	-1.15000e+00	7.218240e-06	
225	-1.20000e+00	7.258359e-06	
226	-1.25000e+00	7.288999e-06	
227	-1.30000e+00	7.313388e-06	
228	-1.35000e+00	7.333725e-06	

Index   v-sweep         i(vds)          
--------------------------------------------------------------------------------
229	-1.40000e+00	7.351362e-06	
230	-1.45000e+00	7.367103e-06	
231	-1.50000e+00	7.381438e-06	
232	-1.55000e+00	7.394676e-06	
233	-1.60000e+00	7.407021e-06	
234	-1.65000e+00	7.418620e-06	
235	-1.70000e+00	7.429577e-06	
236	-1.75000e+00	7.439974e-06	
237	-1.80000e+00	7.449875e-06	
238	-1.85000e+00	7.459331e-06	
239	-1.90000e+00	7.468387e-06	
240	-1.95000e+00	7.477077e-06	
241	-2.00000e+00	7.485434e-06	
242	-2.05000e+00	7.493483e-06	
243	-2.10000e+00	7.501249e-06	
244	-2.15000e+00	7.508753e-06	
245	-2.20000e+00	7.516012e-06	
246	-2.25000e+00	7.523043e-06	
247	-2.30000e+00	7.529860e-06	
248	-2.35000e+00	7.536478e-06	
249	-2.40000e+00	7.542908e-06	
250	-2.45000e+00	7.549161e-06	
251	-2.50000e+00	7.555247e-06	
252	-2.55000e+00	7.561175e-06	
253	-2.60000e+00	7.566954e-06	
254	-2.65000e+00	7.572592e-06	
255	-2.70000e+00	7.578095e-06	
256	-2.75000e+00	7.583470e-06	
257	-2.80000e+00	7.588723e-06	
258	-2.85000e+00	7.593861e-06	
259	-2.90000e+00	7.598888e-06	
260	-2.95000e+00	7.603809e-06	
261	-3.00000e+00	7.608630e-06	
262	-3.05000e+00	7.613355e-06	
263	-3.10000e+00	7.617988e-06	
264	-3.15000e+00	7.622533e-06	
265	-3.20000e+00	7.626995e-06	
266	-3.25000e+00	7.631379e-06	
267	-3.30000e+00	7.635688e-06	
268	0.000000e+00	-8.70307e-32	
269	-5.00000e-02	7.536746e-07	
270	-1.00000e-01	1.482932e-06	
271	-1.50000e-01	2.187809e-06	
272	-2.00000e-01	2.868344e-06	
273	-2.50000e-01	3.524577e-06	
274	-3.00000e-01	4.156544e-06	
275	-3.50000e-01	4.764285e-06	
276	-4.00000e-01	5.347839e-06	
277	-4.50000e-01	5.907245e-06	
278	-5.00000e-01	6.442542e-06	
279	-5.50000e-01	6.953770e-06	
280	-6.00000e-01	7.440970e-06	
281	-6.50000e-01	7.904183e-06	
282	-7.00000e-01	8.343452e-06	
283	-7.50000e-01	8.758819e-06	
284	-8.00000e-01	9.150330e-06	
285	-8.50000e-01	9.518032e-06	
286	-9.00000e-01	9.861976e-06	

Index   v-sweep         i(vds)          
--------------------------------------------------------------------------------
287	-9.50000e-01	1.018222e-05	
288	-1.00000e+00	1.047882e-05	
289	-1.05000e+00	1.075185e-05	
290	-1.10000e+00	1.100141e-05	
291	-1.15000e+00	1.122761e-05	
292	-1.20000e+00	1.143060e-05	
293	-1.25000e+00	1.161061e-05	
294	-1.30000e+00	1.176799e-05	
295	-1.35000e+00	1.190326e-05	
296	-1.40000e+00	1.201731e-05	
297	-1.45000e+00	1.211148e-05	
298	-1.50000e+00	1.218784e-05	
299	-1.55000e+00	1.224915e-05	
300	-1.60000e+00	1.229860e-05	
301	-1.65000e+00	1.233928e-05	
302	-1.70000e+00	1.237370e-05	
303	-1.75000e+00	1.240368e-05	
304	-1.80000e+00	1.243042e-05	
305	-1.85000e+00	1.245473e-05	
306	-1.90000e+00	1.247713e-05	
307	-1.95000e+00	1.249797e-05	
308	-2.00000e+00	1.251752e-05	
309	-2.05000e+00	1.253596e-05	
310	-2.10000e+00	1.255343e-05	
311	-2.15000e+00	1.257004e-05	
312	-2.20000e+00	1.258589e-05	
313	-2.25000e+00	1.260105e-05	
314	-2.30000e+00	1.261559e-05	
315	-2.35000e+00	1.262955e-05	
316	-2.40000e+00	1.264300e-05	
317	-2.45000e+00	1.265596e-05	
318	-2.50000e+00	1.266847e-05	
319	-2.55000e+00	1.268056e-05	
320	-2.60000e+00	1.269227e-05	
321	-2.65000e+00	1.270362e-05	
322	-2.70000e+00	1.271462e-05	
323	-2.75000e+00	1.272531e-05	
324	-2.80000e+00	1.273570e-05	
325	-2.85000e+00	1.274580e-05	
326	-2.90000e+00	1.275564e-05	
327	-2.95000e+00	1.276523e-05	
328	-3.00000e+00	1.277457e-05	
329	-3.05000e+00	1.278369e-05	
330	-3.10000e+00	1.279259e-05	
331	-3.15000e+00	1.280129e-05	
332	-3.20000e+00	1.280979e-05	
333	-3.25000e+00	1.281810e-05	
334	-3.30000e+00	1.282624e-05	
335	0.000000e+00	4.307009e-31	
336	-5.00000e-02	8.985954e-07	
337	-1.00000e-01	1.774149e-06	
338	-1.50000e-01	2.626694e-06	
339	-2.00000e-01	3.456265e-06	
340	-2.50000e-01	4.262897e-06	
341	-3.00000e-01	5.046624e-06	
342	-3.50000e-01	5.807480e-06	
343	-4.00000e-01	6.545501e-06	
344	-4.50000e-01	7.260722e-06	

Index   v-sweep         i(vds)          
--------------------------------------------------------------------------------
345	-5.00000e-01	7.953176e-06	
346	-5.50000e-01	8.622901e-06	
347	-6.00000e-01	9.269930e-06	
348	-6.50000e-01	9.894300e-06	
349	-7.00000e-01	1.049605e-05	
350	-7.50000e-01	1.107521e-05	
351	-8.00000e-01	1.163181e-05	
352	-8.50000e-01	1.216591e-05	
353	-9.00000e-01	1.267753e-05	
354	-9.50000e-01	1.316670e-05	
355	-1.00000e+00	1.363348e-05	
356	-1.05000e+00	1.407790e-05	
357	-1.10000e+00	1.450000e-05	
358	-1.15000e+00	1.489982e-05	
359	-1.20000e+00	1.527741e-05	
360	-1.25000e+00	1.563282e-05	
361	-1.30000e+00	1.596610e-05	
362	-1.35000e+00	1.627730e-05	
363	-1.40000e+00	1.656650e-05	
364	-1.45000e+00	1.683378e-05	
365	-1.50000e+00	1.707923e-05	
366	-1.55000e+00	1.730300e-05	
367	-1.60000e+00	1.750527e-05	
368	-1.65000e+00	1.768629e-05	
369	-1.70000e+00	1.784647e-05	
370	-1.75000e+00	1.798638e-05	
371	-1.80000e+00	1.810693e-05	
372	-1.85000e+00	1.820944e-05	
373	-1.90000e+00	1.829578e-05	
374	-1.95000e+00	1.836828e-05	
375	-2.00000e+00	1.842956e-05	
376	-2.05000e+00	1.848212e-05	
377	-2.10000e+00	1.852807e-05	
378	-2.15000e+00	1.856902e-05	
379	-2.20000e+00	1.860613e-05	
380	-2.25000e+00	1.864021e-05	
381	-2.30000e+00	1.867183e-05	
382	-2.35000e+00	1.870140e-05	
383	-2.40000e+00	1.872922e-05	
384	-2.45000e+00	1.875554e-05	
385	-2.50000e+00	1.878052e-05	
386	-2.55000e+00	1.880431e-05	
387	-2.60000e+00	1.882704e-05	
388	-2.65000e+00	1.884881e-05	
389	-2.70000e+00	1.886970e-05	
390	-2.75000e+00	1.888979e-05	
391	-2.80000e+00	1.890914e-05	
392	-2.85000e+00	1.892780e-05	
393	-2.90000e+00	1.894582e-05	
394	-2.95000e+00	1.896326e-05	
395	-3.00000e+00	1.898014e-05	
396	-3.05000e+00	1.899651e-05	
397	-3.10000e+00	1.901239e-05	
398	-3.15000e+00	1.902782e-05	
399	-3.20000e+00	1.904282e-05	
400	-3.25000e+00	1.905741e-05	
401	-3.30000e+00	1.907163e-05	
Note: No ".plot", ".print", or ".fourier" lines; no simulations run
