
Note: Compatibility modes selected: hs

Warning: m=xx on .subckt line will override multiplier m hierarchy!


Circuit: ***************************

Doing analysis at TEMP = 25.000000 and TNOM = 25.000000


No. of Data Rows : 402
                          ***************************
                          DC transfer characteristic  Mon Jan  9 13:58:23  2023
--------------------------------------------------------------------------------
Index   v-sweep         i(vds)          
--------------------------------------------------------------------------------
0	0.000000e+00	1.060977e-24	
1	-5.00000e-02	3.500191e-08	
2	-1.00000e-01	4.474189e-08	
3	-1.50000e-01	4.642411e-08	
4	-2.00000e-01	4.690037e-08	
5	-2.50000e-01	4.714378e-08	
6	-3.00000e-01	4.731434e-08	
7	-3.50000e-01	4.745286e-08	
8	-4.00000e-01	4.757365e-08	
9	-4.50000e-01	4.768295e-08	
10	-5.00000e-01	4.778400e-08	
11	-5.50000e-01	4.787869e-08	
12	-6.00000e-01	4.796821e-08	
13	-6.50000e-01	4.805343e-08	
14	-7.00000e-01	4.813495e-08	
15	-7.50000e-01	4.821325e-08	
16	-8.00000e-01	4.828870e-08	
17	-8.50000e-01	4.836161e-08	
18	-9.00000e-01	4.843222e-08	
19	-9.50000e-01	4.850076e-08	
20	-1.00000e+00	4.856741e-08	
21	-1.05000e+00	4.863232e-08	
22	-1.10000e+00	4.869563e-08	
23	-1.15000e+00	4.875746e-08	
24	-1.20000e+00	4.881792e-08	
25	-1.25000e+00	4.887710e-08	
26	-1.30000e+00	4.893509e-08	
27	-1.35000e+00	4.899197e-08	
28	-1.40000e+00	4.904780e-08	
29	-1.45000e+00	4.910265e-08	
30	-1.50000e+00	4.915658e-08	
31	-1.55000e+00	4.920964e-08	
32	-1.60000e+00	4.926187e-08	
33	-1.65000e+00	4.931332e-08	
34	-1.70000e+00	4.936404e-08	
35	-1.75000e+00	4.941405e-08	
36	-1.80000e+00	4.946340e-08	
37	-1.85000e+00	4.951211e-08	
38	-1.90000e+00	4.956023e-08	
39	-1.95000e+00	4.960777e-08	
40	-2.00000e+00	4.965477e-08	
41	-2.05000e+00	4.970125e-08	
42	-2.10000e+00	4.974724e-08	
43	-2.15000e+00	4.979277e-08	
44	-2.20000e+00	4.983786e-08	
45	-2.25000e+00	4.988255e-08	
46	-2.30000e+00	4.992687e-08	
47	-2.35000e+00	4.997085e-08	
48	-2.40000e+00	5.001453e-08	
49	-2.45000e+00	5.005796e-08	
50	-2.50000e+00	5.010118e-08	
51	-2.55000e+00	5.014426e-08	
52	-2.60000e+00	5.018726e-08	
53	-2.65000e+00	5.023025e-08	
54	-2.70000e+00	5.027333e-08	

Index   v-sweep         i(vds)          
--------------------------------------------------------------------------------
55	-2.75000e+00	5.031659e-08	
56	-2.80000e+00	5.036016e-08	
57	-2.85000e+00	5.040416e-08	
58	-2.90000e+00	5.044875e-08	
59	-2.95000e+00	5.049410e-08	
60	-3.00000e+00	5.054041e-08	
61	-3.05000e+00	5.058789e-08	
62	-3.10000e+00	5.063680e-08	
63	-3.15000e+00	5.068740e-08	
64	-3.20000e+00	5.074001e-08	
65	-3.25000e+00	5.079496e-08	
66	-3.30000e+00	5.085262e-08	
67	0.000000e+00	3.690389e-34	
68	-5.00000e-02	4.427737e-07	
69	-1.00000e-01	8.289924e-07	
70	-1.50000e-01	1.158911e-06	
71	-2.00000e-01	1.432884e-06	
72	-2.50000e-01	1.651503e-06	
73	-3.00000e-01	1.815969e-06	
74	-3.50000e-01	1.929107e-06	
75	-4.00000e-01	1.997611e-06	
76	-4.50000e-01	2.033995e-06	
77	-5.00000e-01	2.052746e-06	
78	-5.50000e-01	2.063600e-06	
79	-6.00000e-01	2.071005e-06	
80	-6.50000e-01	2.076738e-06	
81	-7.00000e-01	2.081537e-06	
82	-7.50000e-01	2.085745e-06	
83	-8.00000e-01	2.089538e-06	
84	-8.50000e-01	2.093017e-06	
85	-9.00000e-01	2.096248e-06	
86	-9.50000e-01	2.099273e-06	
87	-1.00000e+00	2.102124e-06	
88	-1.05000e+00	2.104824e-06	
89	-1.10000e+00	2.107391e-06	
90	-1.15000e+00	2.109842e-06	
91	-1.20000e+00	2.112186e-06	
92	-1.25000e+00	2.114436e-06	
93	-1.30000e+00	2.116598e-06	
94	-1.35000e+00	2.118681e-06	
95	-1.40000e+00	2.120692e-06	
96	-1.45000e+00	2.122635e-06	
97	-1.50000e+00	2.124515e-06	
98	-1.55000e+00	2.126338e-06	
99	-1.60000e+00	2.128107e-06	
100	-1.65000e+00	2.129825e-06	
101	-1.70000e+00	2.131496e-06	
102	-1.75000e+00	2.133123e-06	
103	-1.80000e+00	2.134708e-06	
104	-1.85000e+00	2.136253e-06	
105	-1.90000e+00	2.137761e-06	
106	-1.95000e+00	2.139235e-06	
107	-2.00000e+00	2.140675e-06	
108	-2.05000e+00	2.142083e-06	
109	-2.10000e+00	2.143461e-06	
110	-2.15000e+00	2.144811e-06	
111	-2.20000e+00	2.146134e-06	
112	-2.25000e+00	2.147431e-06	

Index   v-sweep         i(vds)          
--------------------------------------------------------------------------------
113	-2.30000e+00	2.148703e-06	
114	-2.35000e+00	2.149952e-06	
115	-2.40000e+00	2.151178e-06	
116	-2.45000e+00	2.152384e-06	
117	-2.50000e+00	2.153570e-06	
118	-2.55000e+00	2.154737e-06	
119	-2.60000e+00	2.155886e-06	
120	-2.65000e+00	2.157020e-06	
121	-2.70000e+00	2.158139e-06	
122	-2.75000e+00	2.159246e-06	
123	-2.80000e+00	2.160341e-06	
124	-2.85000e+00	2.161428e-06	
125	-2.90000e+00	2.162509e-06	
126	-2.95000e+00	2.163587e-06	
127	-3.00000e+00	2.164665e-06	
128	-3.05000e+00	2.165747e-06	
129	-3.10000e+00	2.166838e-06	
130	-3.15000e+00	2.167942e-06	
131	-3.20000e+00	2.169065e-06	
132	-3.25000e+00	2.170215e-06	
133	-3.30000e+00	2.171398e-06	
134	0.000000e+00	6.139649e-32	
135	-5.00000e-02	8.376003e-07	
136	-1.00000e-01	1.620635e-06	
137	-1.50000e-01	2.349241e-06	
138	-2.00000e-01	3.023560e-06	
139	-2.50000e-01	3.643738e-06	
140	-3.00000e-01	4.209931e-06	
141	-3.50000e-01	4.722309e-06	
142	-4.00000e-01	5.181067e-06	
143	-4.50000e-01	5.586441e-06	
144	-5.00000e-01	5.938748e-06	
145	-5.50000e-01	6.238454e-06	
146	-6.00000e-01	6.486325e-06	
147	-6.50000e-01	6.683747e-06	
148	-7.00000e-01	6.833359e-06	
149	-7.50000e-01	6.940098e-06	
150	-8.00000e-01	7.012058e-06	
151	-8.50000e-01	7.059536e-06	
152	-9.00000e-01	7.092005e-06	
153	-9.50000e-01	7.115932e-06	
154	-1.00000e+00	7.134959e-06	
155	-1.05000e+00	7.150994e-06	
156	-1.10000e+00	7.165048e-06	
157	-1.15000e+00	7.177686e-06	
158	-1.20000e+00	7.189250e-06	
159	-1.25000e+00	7.199958e-06	
160	-1.30000e+00	7.209960e-06	
161	-1.35000e+00	7.219364e-06	
162	-1.40000e+00	7.228251e-06	
163	-1.45000e+00	7.236686e-06	
164	-1.50000e+00	7.244717e-06	
165	-1.55000e+00	7.252389e-06	
166	-1.60000e+00	7.259734e-06	
167	-1.65000e+00	7.266784e-06	
168	-1.70000e+00	7.273563e-06	
169	-1.75000e+00	7.280093e-06	
170	-1.80000e+00	7.286394e-06	

Index   v-sweep         i(vds)          
--------------------------------------------------------------------------------
171	-1.85000e+00	7.292483e-06	
172	-1.90000e+00	7.298374e-06	
173	-1.95000e+00	7.304082e-06	
174	-2.00000e+00	7.309618e-06	
175	-2.05000e+00	7.314993e-06	
176	-2.10000e+00	7.320217e-06	
177	-2.15000e+00	7.325299e-06	
178	-2.20000e+00	7.330247e-06	
179	-2.25000e+00	7.335069e-06	
180	-2.30000e+00	7.339771e-06	
181	-2.35000e+00	7.344360e-06	
182	-2.40000e+00	7.348842e-06	
183	-2.45000e+00	7.353221e-06	
184	-2.50000e+00	7.357504e-06	
185	-2.55000e+00	7.361695e-06	
186	-2.60000e+00	7.365797e-06	
187	-2.65000e+00	7.369816e-06	
188	-2.70000e+00	7.373755e-06	
189	-2.75000e+00	7.377619e-06	
190	-2.80000e+00	7.381410e-06	
191	-2.85000e+00	7.385134e-06	
192	-2.90000e+00	7.388794e-06	
193	-2.95000e+00	7.392394e-06	
194	-3.00000e+00	7.395939e-06	
195	-3.05000e+00	7.399433e-06	
196	-3.10000e+00	7.402883e-06	
197	-3.15000e+00	7.406293e-06	
198	-3.20000e+00	7.409672e-06	
199	-3.25000e+00	7.413028e-06	
200	-3.30000e+00	7.416369e-06	
201	0.000000e+00	-5.23107e-31	
202	-5.00000e-02	1.179772e-06	
203	-1.00000e-01	2.308532e-06	
204	-1.50000e-01	3.386393e-06	
205	-2.00000e-01	4.413467e-06	
206	-2.50000e-01	5.389868e-06	
207	-3.00000e-01	6.315709e-06	
208	-3.50000e-01	7.191106e-06	
209	-4.00000e-01	8.016176e-06	
210	-4.50000e-01	8.791040e-06	
211	-5.00000e-01	9.515819e-06	
212	-5.50000e-01	1.019064e-05	
213	-6.00000e-01	1.081565e-05	
214	-6.50000e-01	1.139098e-05	
215	-7.00000e-01	1.191680e-05	
216	-7.50000e-01	1.239331e-05	
217	-8.00000e-01	1.282074e-05	
218	-8.50000e-01	1.319941e-05	
219	-9.00000e-01	1.352977e-05	
220	-9.50000e-01	1.381250e-05	
221	-1.00000e+00	1.404875e-05	
222	-1.05000e+00	1.424043e-05	
223	-1.10000e+00	1.439077e-05	
224	-1.15000e+00	1.450488e-05	
225	-1.20000e+00	1.458979e-05	
226	-1.25000e+00	1.465331e-05	
227	-1.30000e+00	1.470238e-05	
228	-1.35000e+00	1.474205e-05	

Index   v-sweep         i(vds)          
--------------------------------------------------------------------------------
229	-1.40000e+00	1.477554e-05	
230	-1.45000e+00	1.480480e-05	
231	-1.50000e+00	1.483100e-05	
232	-1.55000e+00	1.485488e-05	
233	-1.60000e+00	1.487692e-05	
234	-1.65000e+00	1.489745e-05	
235	-1.70000e+00	1.491671e-05	
236	-1.75000e+00	1.493487e-05	
237	-1.80000e+00	1.495208e-05	
238	-1.85000e+00	1.496844e-05	
239	-1.90000e+00	1.498404e-05	
240	-1.95000e+00	1.499896e-05	
241	-2.00000e+00	1.501326e-05	
242	-2.05000e+00	1.502700e-05	
243	-2.10000e+00	1.504022e-05	
244	-2.15000e+00	1.505295e-05	
245	-2.20000e+00	1.506525e-05	
246	-2.25000e+00	1.507714e-05	
247	-2.30000e+00	1.508865e-05	
248	-2.35000e+00	1.509980e-05	
249	-2.40000e+00	1.511061e-05	
250	-2.45000e+00	1.512112e-05	
251	-2.50000e+00	1.513133e-05	
252	-2.55000e+00	1.514126e-05	
253	-2.60000e+00	1.515093e-05	
254	-2.65000e+00	1.516035e-05	
255	-2.70000e+00	1.516954e-05	
256	-2.75000e+00	1.517851e-05	
257	-2.80000e+00	1.518727e-05	
258	-2.85000e+00	1.519582e-05	
259	-2.90000e+00	1.520419e-05	
260	-2.95000e+00	1.521237e-05	
261	-3.00000e+00	1.522039e-05	
262	-3.05000e+00	1.522823e-05	
263	-3.10000e+00	1.523592e-05	
264	-3.15000e+00	1.524346e-05	
265	-3.20000e+00	1.525086e-05	
266	-3.25000e+00	1.525813e-05	
267	-3.30000e+00	1.526527e-05	
268	0.000000e+00	-4.00008e-31	
269	-5.00000e-02	1.475069e-06	
270	-1.00000e-01	2.902824e-06	
271	-1.50000e-01	4.283362e-06	
272	-2.00000e-01	5.616778e-06	
273	-2.50000e-01	6.903168e-06	
274	-3.00000e-01	8.142630e-06	
275	-3.50000e-01	9.335259e-06	
276	-4.00000e-01	1.048115e-05	
277	-4.50000e-01	1.158041e-05	
278	-5.00000e-01	1.263313e-05	
279	-5.50000e-01	1.363941e-05	
280	-6.00000e-01	1.459935e-05	
281	-6.50000e-01	1.551305e-05	
282	-7.00000e-01	1.638062e-05	
283	-7.50000e-01	1.720215e-05	
284	-8.00000e-01	1.797776e-05	
285	-8.50000e-01	1.870755e-05	
286	-9.00000e-01	1.939165e-05	

Index   v-sweep         i(vds)          
--------------------------------------------------------------------------------
287	-9.50000e-01	2.003017e-05	
288	-1.00000e+00	2.062326e-05	
289	-1.05000e+00	2.117105e-05	
290	-1.10000e+00	2.167373e-05	
291	-1.15000e+00	2.213150e-05	
292	-1.20000e+00	2.254464e-05	
293	-1.25000e+00	2.291351e-05	
294	-1.30000e+00	2.323863e-05	
295	-1.35000e+00	2.352080e-05	
296	-1.40000e+00	2.376125e-05	
297	-1.45000e+00	2.396194e-05	
298	-1.50000e+00	2.412590e-05	
299	-1.55000e+00	2.425751e-05	
300	-1.60000e+00	2.436234e-05	
301	-1.65000e+00	2.444649e-05	
302	-1.70000e+00	2.451552e-05	
303	-1.75000e+00	2.457382e-05	
304	-1.80000e+00	2.462445e-05	
305	-1.85000e+00	2.466948e-05	
306	-1.90000e+00	2.471026e-05	
307	-1.95000e+00	2.474769e-05	
308	-2.00000e+00	2.478241e-05	
309	-2.05000e+00	2.481486e-05	
310	-2.10000e+00	2.484537e-05	
311	-2.15000e+00	2.487421e-05	
312	-2.20000e+00	2.490156e-05	
313	-2.25000e+00	2.492761e-05	
314	-2.30000e+00	2.495247e-05	
315	-2.35000e+00	2.497627e-05	
316	-2.40000e+00	2.499909e-05	
317	-2.45000e+00	2.502103e-05	
318	-2.50000e+00	2.504215e-05	
319	-2.55000e+00	2.506251e-05	
320	-2.60000e+00	2.508218e-05	
321	-2.65000e+00	2.510120e-05	
322	-2.70000e+00	2.511961e-05	
323	-2.75000e+00	2.513745e-05	
324	-2.80000e+00	2.515477e-05	
325	-2.85000e+00	2.517158e-05	
326	-2.90000e+00	2.518793e-05	
327	-2.95000e+00	2.520384e-05	
328	-3.00000e+00	2.521933e-05	
329	-3.05000e+00	2.523442e-05	
330	-3.10000e+00	2.524914e-05	
331	-3.15000e+00	2.526350e-05	
332	-3.20000e+00	2.527753e-05	
333	-3.25000e+00	2.529123e-05	
334	-3.30000e+00	2.530463e-05	
335	0.000000e+00	-9.65451e-31	
336	-5.00000e-02	1.729651e-06	
337	-1.00000e-01	3.415533e-06	
338	-1.50000e-01	5.057731e-06	
339	-2.00000e-01	6.656326e-06	
340	-2.50000e-01	8.211404e-06	
341	-3.00000e-01	9.723047e-06	
342	-3.50000e-01	1.119134e-05	
343	-4.00000e-01	1.261636e-05	
344	-4.50000e-01	1.399821e-05	

Index   v-sweep         i(vds)          
--------------------------------------------------------------------------------
345	-5.00000e-01	1.533695e-05	
346	-5.50000e-01	1.663269e-05	
347	-6.00000e-01	1.788549e-05	
348	-6.50000e-01	1.909545e-05	
349	-7.00000e-01	2.026266e-05	
350	-7.50000e-01	2.138719e-05	
351	-8.00000e-01	2.246914e-05	
352	-8.50000e-01	2.350859e-05	
353	-9.00000e-01	2.450563e-05	
354	-9.50000e-01	2.546035e-05	
355	-1.00000e+00	2.637285e-05	
356	-1.05000e+00	2.724320e-05	
357	-1.10000e+00	2.807150e-05	
358	-1.15000e+00	2.885786e-05	
359	-1.20000e+00	2.960236e-05	
360	-1.25000e+00	3.030511e-05	
361	-1.30000e+00	3.096623e-05	
362	-1.35000e+00	3.158582e-05	
363	-1.40000e+00	3.216402e-05	
364	-1.45000e+00	3.270097e-05	
365	-1.50000e+00	3.319684e-05	
366	-1.55000e+00	3.365185e-05	
367	-1.60000e+00	3.406627e-05	
368	-1.65000e+00	3.444045e-05	
369	-1.70000e+00	3.477491e-05	
370	-1.75000e+00	3.507038e-05	
371	-1.80000e+00	3.532797e-05	
372	-1.85000e+00	3.554932e-05	
373	-1.90000e+00	3.573688e-05	
374	-1.95000e+00	3.589404e-05	
375	-2.00000e+00	3.602507e-05	
376	-2.05000e+00	3.613478e-05	
377	-2.10000e+00	3.622786e-05	
378	-2.15000e+00	3.630831e-05	
379	-2.20000e+00	3.637923e-05	
380	-2.25000e+00	3.644287e-05	
381	-2.30000e+00	3.650082e-05	
382	-2.35000e+00	3.655419e-05	
383	-2.40000e+00	3.660381e-05	
384	-2.45000e+00	3.665025e-05	
385	-2.50000e+00	3.669397e-05	
386	-2.55000e+00	3.673532e-05	
387	-2.60000e+00	3.677457e-05	
388	-2.65000e+00	3.681196e-05	
389	-2.70000e+00	3.684767e-05	
390	-2.75000e+00	3.688186e-05	
391	-2.80000e+00	3.691466e-05	
392	-2.85000e+00	3.694619e-05	
393	-2.90000e+00	3.697655e-05	
394	-2.95000e+00	3.700583e-05	
395	-3.00000e+00	3.703411e-05	
396	-3.05000e+00	3.706146e-05	
397	-3.10000e+00	3.708794e-05	
398	-3.15000e+00	3.711361e-05	
399	-3.20000e+00	3.713851e-05	
400	-3.25000e+00	3.716270e-05	
401	-3.30000e+00	3.718622e-05	
Note: No ".plot", ".print", or ".fourier" lines; no simulations run
