
Note: Compatibility modes selected: hs

Warning: m=xx on .subckt line will override multiplier m hierarchy!


Circuit: ***************************

Doing analysis at TEMP = 125.000000 and TNOM = 125.000000


No. of Data Rows : 402
                          ***************************
                          DC transfer characteristic  Mon Jan  9 13:58:24  2023
--------------------------------------------------------------------------------
Index   v-sweep         i(vds)          
--------------------------------------------------------------------------------
0	0.000000e+00	7.904426e-24	
1	-5.00000e-02	4.179564e-08	
2	-1.00000e-01	6.705404e-08	
3	-1.50000e-01	7.886032e-08	
4	-2.00000e-01	8.265831e-08	
5	-2.50000e-01	8.380641e-08	
6	-3.00000e-01	8.430051e-08	
7	-3.50000e-01	8.460312e-08	
8	-4.00000e-01	8.483183e-08	
9	-4.50000e-01	8.502450e-08	
10	-5.00000e-01	8.519613e-08	
11	-5.50000e-01	8.535371e-08	
12	-6.00000e-01	8.550096e-08	
13	-6.50000e-01	8.564009e-08	
14	-7.00000e-01	8.577252e-08	
15	-7.50000e-01	8.589925e-08	
16	-8.00000e-01	8.602098e-08	
17	-8.50000e-01	8.613829e-08	
18	-9.00000e-01	8.625162e-08	
19	-9.50000e-01	8.636133e-08	
20	-1.00000e+00	8.646773e-08	
21	-1.05000e+00	8.657109e-08	
22	-1.10000e+00	8.667163e-08	
23	-1.15000e+00	8.676954e-08	
24	-1.20000e+00	8.686501e-08	
25	-1.25000e+00	8.695819e-08	
26	-1.30000e+00	8.704922e-08	
27	-1.35000e+00	8.713824e-08	
28	-1.40000e+00	8.722535e-08	
29	-1.45000e+00	8.731066e-08	
30	-1.50000e+00	8.739427e-08	
31	-1.55000e+00	8.747627e-08	
32	-1.60000e+00	8.755673e-08	
33	-1.65000e+00	8.763574e-08	
34	-1.70000e+00	8.771336e-08	
35	-1.75000e+00	8.778965e-08	
36	-1.80000e+00	8.786469e-08	
37	-1.85000e+00	8.793852e-08	
38	-1.90000e+00	8.801120e-08	
39	-1.95000e+00	8.808278e-08	
40	-2.00000e+00	8.815331e-08	
41	-2.05000e+00	8.822283e-08	
42	-2.10000e+00	8.829138e-08	
43	-2.15000e+00	8.835902e-08	
44	-2.20000e+00	8.842578e-08	
45	-2.25000e+00	8.849171e-08	
46	-2.30000e+00	8.855686e-08	
47	-2.35000e+00	8.862127e-08	
48	-2.40000e+00	8.868501e-08	
49	-2.45000e+00	8.874813e-08	
50	-2.50000e+00	8.881069e-08	
51	-2.55000e+00	8.887278e-08	
52	-2.60000e+00	8.893447e-08	
53	-2.65000e+00	8.899587e-08	
54	-2.70000e+00	8.905710e-08	

Index   v-sweep         i(vds)          
--------------------------------------------------------------------------------
55	-2.75000e+00	8.911827e-08	
56	-2.80000e+00	8.917955e-08	
57	-2.85000e+00	8.924111e-08	
58	-2.90000e+00	8.930315e-08	
59	-2.95000e+00	8.936590e-08	
60	-3.00000e+00	8.942961e-08	
61	-3.05000e+00	8.949459e-08	
62	-3.10000e+00	8.956117e-08	
63	-3.15000e+00	8.962972e-08	
64	-3.20000e+00	8.970066e-08	
65	-3.25000e+00	8.977447e-08	
66	-3.30000e+00	8.985166e-08	
67	0.000000e+00	-1.54045e-27	
68	-5.00000e-02	1.878728e-07	
69	-1.00000e-01	3.550418e-07	
70	-1.50000e-01	5.027344e-07	
71	-2.00000e-01	6.312862e-07	
72	-2.50000e-01	7.408427e-07	
73	-3.00000e-01	8.315497e-07	
74	-3.50000e-01	9.036570e-07	
75	-4.00000e-01	9.576925e-07	
76	-4.50000e-01	9.948583e-07	
77	-5.00000e-01	1.017720e-06	
78	-5.50000e-01	1.030481e-06	
79	-6.00000e-01	1.037585e-06	
80	-6.50000e-01	1.041995e-06	
81	-7.00000e-01	1.045151e-06	
82	-7.50000e-01	1.047675e-06	
83	-8.00000e-01	1.049841e-06	
84	-8.50000e-01	1.051779e-06	
85	-9.00000e-01	1.053557e-06	
86	-9.50000e-01	1.055213e-06	
87	-1.00000e+00	1.056773e-06	
88	-1.05000e+00	1.058252e-06	
89	-1.10000e+00	1.059662e-06	
90	-1.15000e+00	1.061011e-06	
91	-1.20000e+00	1.062305e-06	
92	-1.25000e+00	1.063551e-06	
93	-1.30000e+00	1.064753e-06	
94	-1.35000e+00	1.065913e-06	
95	-1.40000e+00	1.067037e-06	
96	-1.45000e+00	1.068125e-06	
97	-1.50000e+00	1.069181e-06	
98	-1.55000e+00	1.070207e-06	
99	-1.60000e+00	1.071204e-06	
100	-1.65000e+00	1.072175e-06	
101	-1.70000e+00	1.073121e-06	
102	-1.75000e+00	1.074044e-06	
103	-1.80000e+00	1.074944e-06	
104	-1.85000e+00	1.075823e-06	
105	-1.90000e+00	1.076682e-06	
106	-1.95000e+00	1.077521e-06	
107	-2.00000e+00	1.078343e-06	
108	-2.05000e+00	1.079148e-06	
109	-2.10000e+00	1.079936e-06	
110	-2.15000e+00	1.080708e-06	
111	-2.20000e+00	1.081465e-06	
112	-2.25000e+00	1.082208e-06	

Index   v-sweep         i(vds)          
--------------------------------------------------------------------------------
113	-2.30000e+00	1.082937e-06	
114	-2.35000e+00	1.083653e-06	
115	-2.40000e+00	1.084357e-06	
116	-2.45000e+00	1.085048e-06	
117	-2.50000e+00	1.085728e-06	
118	-2.55000e+00	1.086397e-06	
119	-2.60000e+00	1.087056e-06	
120	-2.65000e+00	1.087705e-06	
121	-2.70000e+00	1.088345e-06	
122	-2.75000e+00	1.088976e-06	
123	-2.80000e+00	1.089599e-06	
124	-2.85000e+00	1.090216e-06	
125	-2.90000e+00	1.090826e-06	
126	-2.95000e+00	1.091432e-06	
127	-3.00000e+00	1.092034e-06	
128	-3.05000e+00	1.092633e-06	
129	-3.10000e+00	1.093232e-06	
130	-3.15000e+00	1.093832e-06	
131	-3.20000e+00	1.094435e-06	
132	-3.25000e+00	1.095044e-06	
133	-3.30000e+00	1.095662e-06	
134	0.000000e+00	-7.49763e-26	
135	-5.00000e-02	3.290673e-07	
136	-1.00000e-01	6.376890e-07	
137	-1.50000e-01	9.270561e-07	
138	-2.00000e-01	1.197473e-06	
139	-2.50000e-01	1.449034e-06	
140	-3.00000e-01	1.681784e-06	
141	-3.50000e-01	1.895759e-06	
142	-4.00000e-01	2.090995e-06	
143	-4.50000e-01	2.267535e-06	
144	-5.00000e-01	2.425433e-06	
145	-5.50000e-01	2.564761e-06	
146	-6.00000e-01	2.685629e-06	
147	-6.50000e-01	2.788209e-06	
148	-7.00000e-01	2.872809e-06	
149	-7.50000e-01	2.939990e-06	
150	-8.00000e-01	2.990813e-06	
151	-8.50000e-01	3.027174e-06	
152	-9.00000e-01	3.051992e-06	
153	-9.50000e-01	3.068758e-06	
154	-1.00000e+00	3.080568e-06	
155	-1.05000e+00	3.089523e-06	
156	-1.10000e+00	3.096824e-06	
157	-1.15000e+00	3.103114e-06	
158	-1.20000e+00	3.108735e-06	
159	-1.25000e+00	3.113879e-06	
160	-1.30000e+00	3.118662e-06	
161	-1.35000e+00	3.123155e-06	
162	-1.40000e+00	3.127407e-06	
163	-1.45000e+00	3.131453e-06	
164	-1.50000e+00	3.135318e-06	
165	-1.55000e+00	3.139023e-06	
166	-1.60000e+00	3.142583e-06	
167	-1.65000e+00	3.146013e-06	
168	-1.70000e+00	3.149322e-06	
169	-1.75000e+00	3.152520e-06	
170	-1.80000e+00	3.155616e-06	

Index   v-sweep         i(vds)          
--------------------------------------------------------------------------------
171	-1.85000e+00	3.158617e-06	
172	-1.90000e+00	3.161529e-06	
173	-1.95000e+00	3.164357e-06	
174	-2.00000e+00	3.167107e-06	
175	-2.05000e+00	3.169784e-06	
176	-2.10000e+00	3.172392e-06	
177	-2.15000e+00	3.174933e-06	
178	-2.20000e+00	3.177413e-06	
179	-2.25000e+00	3.179834e-06	
180	-2.30000e+00	3.182199e-06	
181	-2.35000e+00	3.184511e-06	
182	-2.40000e+00	3.186772e-06	
183	-2.45000e+00	3.188985e-06	
184	-2.50000e+00	3.191152e-06	
185	-2.55000e+00	3.193275e-06	
186	-2.60000e+00	3.195355e-06	
187	-2.65000e+00	3.197395e-06	
188	-2.70000e+00	3.199397e-06	
189	-2.75000e+00	3.201362e-06	
190	-2.80000e+00	3.203291e-06	
191	-2.85000e+00	3.205187e-06	
192	-2.90000e+00	3.207050e-06	
193	-2.95000e+00	3.208883e-06	
194	-3.00000e+00	3.210687e-06	
195	-3.05000e+00	3.212463e-06	
196	-3.10000e+00	3.214214e-06	
197	-3.15000e+00	3.215942e-06	
198	-3.20000e+00	3.217649e-06	
199	-3.25000e+00	3.219337e-06	
200	-3.30000e+00	3.221010e-06	
201	0.000000e+00	-3.92527e-26	
202	-5.00000e-02	4.603837e-07	
203	-1.00000e-01	9.010165e-07	
204	-1.50000e-01	1.323069e-06	
205	-2.00000e-01	1.726839e-06	
206	-2.50000e-01	2.112417e-06	
207	-3.00000e-01	2.479840e-06	
208	-3.50000e-01	2.829136e-06	
209	-4.00000e-01	3.160327e-06	
210	-4.50000e-01	3.473440e-06	
211	-5.00000e-01	3.768497e-06	
212	-5.50000e-01	4.045526e-06	
213	-6.00000e-01	4.304552e-06	
214	-6.50000e-01	4.545606e-06	
215	-7.00000e-01	4.768720e-06	
216	-7.50000e-01	4.973932e-06	
217	-8.00000e-01	5.161288e-06	
218	-8.50000e-01	5.330846e-06	
219	-9.00000e-01	5.482685e-06	
220	-9.50000e-01	5.616917e-06	
221	-1.00000e+00	5.733716e-06	
222	-1.05000e+00	5.833360e-06	
223	-1.10000e+00	5.916316e-06	
224	-1.15000e+00	5.983375e-06	
225	-1.20000e+00	6.035848e-06	
226	-1.25000e+00	6.075727e-06	
227	-1.30000e+00	6.105615e-06	
228	-1.35000e+00	6.128292e-06	

Index   v-sweep         i(vds)          
--------------------------------------------------------------------------------
229	-1.40000e+00	6.146140e-06	
230	-1.45000e+00	6.160864e-06	
231	-1.50000e+00	6.173546e-06	
232	-1.55000e+00	6.184836e-06	
233	-1.60000e+00	6.195124e-06	
234	-1.65000e+00	6.204653e-06	
235	-1.70000e+00	6.213578e-06	
236	-1.75000e+00	6.222002e-06	
237	-1.80000e+00	6.230002e-06	
238	-1.85000e+00	6.237632e-06	
239	-1.90000e+00	6.244934e-06	
240	-1.95000e+00	6.251943e-06	
241	-2.00000e+00	6.258685e-06	
242	-2.05000e+00	6.265185e-06	
243	-2.10000e+00	6.271461e-06	
244	-2.15000e+00	6.277531e-06	
245	-2.20000e+00	6.283409e-06	
246	-2.25000e+00	6.289108e-06	
247	-2.30000e+00	6.294640e-06	
248	-2.35000e+00	6.300016e-06	
249	-2.40000e+00	6.305244e-06	
250	-2.45000e+00	6.310333e-06	
251	-2.50000e+00	6.315290e-06	
252	-2.55000e+00	6.320124e-06	
253	-2.60000e+00	6.324840e-06	
254	-2.65000e+00	6.329444e-06	
255	-2.70000e+00	6.333942e-06	
256	-2.75000e+00	6.338339e-06	
257	-2.80000e+00	6.342640e-06	
258	-2.85000e+00	6.346848e-06	
259	-2.90000e+00	6.350969e-06	
260	-2.95000e+00	6.355006e-06	
261	-3.00000e+00	6.358962e-06	
262	-3.05000e+00	6.362841e-06	
263	-3.10000e+00	6.366647e-06	
264	-3.15000e+00	6.370382e-06	
265	-3.20000e+00	6.374049e-06	
266	-3.25000e+00	6.377653e-06	
267	-3.30000e+00	6.381194e-06	
268	0.000000e+00	-9.14443e-26	
269	-5.00000e-02	5.836070e-07	
270	-1.00000e-01	1.148212e-06	
271	-1.50000e-01	1.694969e-06	
272	-2.00000e-01	2.224172e-06	
273	-2.50000e-01	2.735909e-06	
274	-3.00000e-01	3.230217e-06	
275	-3.50000e-01	3.707119e-06	
276	-4.00000e-01	4.166638e-06	
277	-4.50000e-01	4.608795e-06	
278	-5.00000e-01	5.033611e-06	
279	-5.50000e-01	5.441107e-06	
280	-6.00000e-01	5.831303e-06	
281	-6.50000e-01	6.204223e-06	
282	-7.00000e-01	6.559887e-06	
283	-7.50000e-01	6.898318e-06	
284	-8.00000e-01	7.219539e-06	
285	-8.50000e-01	7.523575e-06	
286	-9.00000e-01	7.810450e-06	

Index   v-sweep         i(vds)          
--------------------------------------------------------------------------------
287	-9.50000e-01	8.080192e-06	
288	-1.00000e+00	8.332830e-06	
289	-1.05000e+00	8.568395e-06	
290	-1.10000e+00	8.786927e-06	
291	-1.15000e+00	8.988470e-06	
292	-1.20000e+00	9.173081e-06	
293	-1.25000e+00	9.340832e-06	
294	-1.30000e+00	9.491827e-06	
295	-1.35000e+00	9.626211e-06	
296	-1.40000e+00	9.744205e-06	
297	-1.45000e+00	9.846152e-06	
298	-1.50000e+00	9.932599e-06	
299	-1.55000e+00	1.000440e-05	
300	-1.60000e+00	1.006286e-05	
301	-1.65000e+00	1.010978e-05	
302	-1.70000e+00	1.014735e-05	
303	-1.75000e+00	1.017786e-05	
304	-1.80000e+00	1.020329e-05	
305	-1.85000e+00	1.022517e-05	
306	-1.90000e+00	1.024453e-05	
307	-1.95000e+00	1.026206e-05	
308	-2.00000e+00	1.027820e-05	
309	-2.05000e+00	1.029325e-05	
310	-2.10000e+00	1.030740e-05	
311	-2.15000e+00	1.032080e-05	
312	-2.20000e+00	1.033355e-05	
313	-2.25000e+00	1.034572e-05	
314	-2.30000e+00	1.035739e-05	
315	-2.35000e+00	1.036860e-05	
316	-2.40000e+00	1.037938e-05	
317	-2.45000e+00	1.038979e-05	
318	-2.50000e+00	1.039984e-05	
319	-2.55000e+00	1.040956e-05	
320	-2.60000e+00	1.041898e-05	
321	-2.65000e+00	1.042812e-05	
322	-2.70000e+00	1.043699e-05	
323	-2.75000e+00	1.044561e-05	
324	-2.80000e+00	1.045399e-05	
325	-2.85000e+00	1.046216e-05	
326	-2.90000e+00	1.047011e-05	
327	-2.95000e+00	1.047786e-05	
328	-3.00000e+00	1.048543e-05	
329	-3.05000e+00	1.049282e-05	
330	-3.10000e+00	1.050004e-05	
331	-3.15000e+00	1.050709e-05	
332	-3.20000e+00	1.051399e-05	
333	-3.25000e+00	1.052075e-05	
334	-3.30000e+00	1.052736e-05	
335	0.000000e+00	6.386902e-26	
336	-5.00000e-02	7.004370e-07	
337	-1.00000e-01	1.382588e-06	
338	-1.50000e-01	2.047591e-06	
339	-2.00000e-01	2.695738e-06	
340	-2.50000e-01	3.327115e-06	
341	-3.00000e-01	3.941759e-06	
342	-3.50000e-01	4.539693e-06	
343	-4.00000e-01	5.120937e-06	
344	-4.50000e-01	5.685511e-06	

Index   v-sweep         i(vds)          
--------------------------------------------------------------------------------
345	-5.00000e-01	6.233435e-06	
346	-5.50000e-01	6.764728e-06	
347	-6.00000e-01	7.279411e-06	
348	-6.50000e-01	7.777502e-06	
349	-7.00000e-01	8.259023e-06	
350	-7.50000e-01	8.723992e-06	
351	-8.00000e-01	9.172431e-06	
352	-8.50000e-01	9.604358e-06	
353	-9.00000e-01	1.001980e-05	
354	-9.50000e-01	1.041876e-05	
355	-1.00000e+00	1.080128e-05	
356	-1.05000e+00	1.116738e-05	
357	-1.10000e+00	1.151706e-05	
358	-1.15000e+00	1.185037e-05	
359	-1.20000e+00	1.216731e-05	
360	-1.25000e+00	1.246793e-05	
361	-1.30000e+00	1.275223e-05	
362	-1.35000e+00	1.302025e-05	
363	-1.40000e+00	1.327203e-05	
364	-1.45000e+00	1.350759e-05	
365	-1.50000e+00	1.372698e-05	
366	-1.55000e+00	1.393025e-05	
367	-1.60000e+00	1.411747e-05	
368	-1.65000e+00	1.428871e-05	
369	-1.70000e+00	1.444408e-05	
370	-1.75000e+00	1.458377e-05	
371	-1.80000e+00	1.470799e-05	
372	-1.85000e+00	1.481710e-05	
373	-1.90000e+00	1.491164e-05	
374	-1.95000e+00	1.499241e-05	
375	-2.00000e+00	1.506055e-05	
376	-2.05000e+00	1.511759e-05	
377	-2.10000e+00	1.516536e-05	
378	-2.15000e+00	1.520578e-05	
379	-2.20000e+00	1.524061e-05	
380	-2.25000e+00	1.527126e-05	
381	-2.30000e+00	1.529879e-05	
382	-2.35000e+00	1.532394e-05	
383	-2.40000e+00	1.534724e-05	
384	-2.45000e+00	1.536903e-05	
385	-2.50000e+00	1.538957e-05	
386	-2.55000e+00	1.540904e-05	
387	-2.60000e+00	1.542758e-05	
388	-2.65000e+00	1.544531e-05	
389	-2.70000e+00	1.546230e-05	
390	-2.75000e+00	1.547863e-05	
391	-2.80000e+00	1.549435e-05	
392	-2.85000e+00	1.550952e-05	
393	-2.90000e+00	1.552418e-05	
394	-2.95000e+00	1.553835e-05	
395	-3.00000e+00	1.555209e-05	
396	-3.05000e+00	1.556541e-05	
397	-3.10000e+00	1.557835e-05	
398	-3.15000e+00	1.559092e-05	
399	-3.20000e+00	1.560315e-05	
400	-3.25000e+00	1.561505e-05	
401	-3.30000e+00	1.562665e-05	
Note: No ".plot", ".print", or ".fourier" lines; no simulations run
