
Note: Compatibility modes selected: hs

Warning: m=xx on .subckt line will override multiplier m hierarchy!


Circuit: ***************************

Doing analysis at TEMP = -40.000000 and TNOM = -40.000000


No. of Data Rows : 402
                          ***************************
                          DC transfer characteristic  Mon Jan  9 13:58:24  2023
--------------------------------------------------------------------------------
Index   v-sweep         i(vds)          
--------------------------------------------------------------------------------
0	0.000000e+00	-1.56705e-34	
1	-5.00000e-02	1.046063e-09	
2	-1.00000e-01	1.138958e-09	
3	-1.50000e-01	1.153048e-09	
4	-2.00000e-01	1.157844e-09	
5	-2.50000e-01	1.160365e-09	
6	-3.00000e-01	1.162056e-09	
7	-3.50000e-01	1.163364e-09	
8	-4.00000e-01	1.164463e-09	
9	-4.50000e-01	1.165435e-09	
10	-5.00000e-01	1.166321e-09	
11	-5.50000e-01	1.167148e-09	
12	-6.00000e-01	1.167929e-09	
13	-6.50000e-01	1.168675e-09	
14	-7.00000e-01	1.169393e-09	
15	-7.50000e-01	1.170087e-09	
16	-8.00000e-01	1.170762e-09	
17	-8.50000e-01	1.171420e-09	
18	-9.00000e-01	1.172064e-09	
19	-9.50000e-01	1.172695e-09	
20	-1.00000e+00	1.173314e-09	
21	-1.05000e+00	1.173923e-09	
22	-1.10000e+00	1.174524e-09	
23	-1.15000e+00	1.175115e-09	
24	-1.20000e+00	1.175700e-09	
25	-1.25000e+00	1.176277e-09	
26	-1.30000e+00	1.176848e-09	
27	-1.35000e+00	1.177413e-09	
28	-1.40000e+00	1.177973e-09	
29	-1.45000e+00	1.178528e-09	
30	-1.50000e+00	1.179078e-09	
31	-1.55000e+00	1.179623e-09	
32	-1.60000e+00	1.180165e-09	
33	-1.65000e+00	1.180702e-09	
34	-1.70000e+00	1.181236e-09	
35	-1.75000e+00	1.181767e-09	
36	-1.80000e+00	1.182294e-09	
37	-1.85000e+00	1.182818e-09	
38	-1.90000e+00	1.183339e-09	
39	-1.95000e+00	1.183858e-09	
40	-2.00000e+00	1.184374e-09	
41	-2.05000e+00	1.184887e-09	
42	-2.10000e+00	1.185398e-09	
43	-2.15000e+00	1.185907e-09	
44	-2.20000e+00	1.186414e-09	
45	-2.25000e+00	1.186920e-09	
46	-2.30000e+00	1.187424e-09	
47	-2.35000e+00	1.187927e-09	
48	-2.40000e+00	1.188428e-09	
49	-2.45000e+00	1.188930e-09	
50	-2.50000e+00	1.189432e-09	
51	-2.55000e+00	1.189934e-09	
52	-2.60000e+00	1.190438e-09	
53	-2.65000e+00	1.190945e-09	
54	-2.70000e+00	1.191456e-09	

Index   v-sweep         i(vds)          
--------------------------------------------------------------------------------
55	-2.75000e+00	1.191972e-09	
56	-2.80000e+00	1.192496e-09	
57	-2.85000e+00	1.193029e-09	
58	-2.90000e+00	1.193575e-09	
59	-2.95000e+00	1.194137e-09	
60	-3.00000e+00	1.194718e-09	
61	-3.05000e+00	1.195323e-09	
62	-3.10000e+00	1.195958e-09	
63	-3.15000e+00	1.196629e-09	
64	-3.20000e+00	1.197343e-09	
65	-3.25000e+00	1.198108e-09	
66	-3.30000e+00	1.198934e-09	
67	0.000000e+00	-1.14507e-23	
68	-5.00000e-02	5.169103e-08	
69	-1.00000e-01	9.497388e-08	
70	-1.50000e-01	1.298890e-07	
71	-2.00000e-01	1.565299e-07	
72	-2.50000e-01	1.751445e-07	
73	-3.00000e-01	1.864285e-07	
74	-3.50000e-01	1.920384e-07	
75	-4.00000e-01	1.944141e-07	
76	-4.50000e-01	1.954315e-07	
77	-5.00000e-01	1.959365e-07	
78	-5.50000e-01	1.962333e-07	
79	-6.00000e-01	1.964335e-07	
80	-6.50000e-01	1.965826e-07	
81	-7.00000e-01	1.967017e-07	
82	-7.50000e-01	1.968015e-07	
83	-8.00000e-01	1.968880e-07	
84	-8.50000e-01	1.969649e-07	
85	-9.00000e-01	1.970344e-07	
86	-9.50000e-01	1.970982e-07	
87	-1.00000e+00	1.971572e-07	
88	-1.05000e+00	1.972124e-07	
89	-1.10000e+00	1.972643e-07	
90	-1.15000e+00	1.973133e-07	
91	-1.20000e+00	1.973599e-07	
92	-1.25000e+00	1.974044e-07	
93	-1.30000e+00	1.974469e-07	
94	-1.35000e+00	1.974877e-07	
95	-1.40000e+00	1.975270e-07	
96	-1.45000e+00	1.975648e-07	
97	-1.50000e+00	1.976014e-07	
98	-1.55000e+00	1.976367e-07	
99	-1.60000e+00	1.976711e-07	
100	-1.65000e+00	1.977044e-07	
101	-1.70000e+00	1.977367e-07	
102	-1.75000e+00	1.977682e-07	
103	-1.80000e+00	1.977990e-07	
104	-1.85000e+00	1.978289e-07	
105	-1.90000e+00	1.978582e-07	
106	-1.95000e+00	1.978867e-07	
107	-2.00000e+00	1.979147e-07	
108	-2.05000e+00	1.979421e-07	
109	-2.10000e+00	1.979689e-07	
110	-2.15000e+00	1.979952e-07	
111	-2.20000e+00	1.980210e-07	
112	-2.25000e+00	1.980463e-07	

Index   v-sweep         i(vds)          
--------------------------------------------------------------------------------
113	-2.30000e+00	1.980712e-07	
114	-2.35000e+00	1.980957e-07	
115	-2.40000e+00	1.981198e-07	
116	-2.45000e+00	1.981435e-07	
117	-2.50000e+00	1.981669e-07	
118	-2.55000e+00	1.981900e-07	
119	-2.60000e+00	1.982128e-07	
120	-2.65000e+00	1.982355e-07	
121	-2.70000e+00	1.982580e-07	
122	-2.75000e+00	1.982804e-07	
123	-2.80000e+00	1.983028e-07	
124	-2.85000e+00	1.983254e-07	
125	-2.90000e+00	1.983482e-07	
126	-2.95000e+00	1.983715e-07	
127	-3.00000e+00	1.983955e-07	
128	-3.05000e+00	1.984204e-07	
129	-3.10000e+00	1.984465e-07	
130	-3.15000e+00	1.984742e-07	
131	-3.20000e+00	1.985040e-07	
132	-3.25000e+00	1.985365e-07	
133	-3.30000e+00	1.985723e-07	
134	0.000000e+00	5.961234e-23	
135	-5.00000e-02	1.080420e-07	
136	-1.00000e-01	2.077445e-07	
137	-1.50000e-01	2.991131e-07	
138	-2.00000e-01	3.821547e-07	
139	-2.50000e-01	4.568784e-07	
140	-3.00000e-01	5.232969e-07	
141	-3.50000e-01	5.814297e-07	
142	-4.00000e-01	6.313090e-07	
143	-4.50000e-01	6.729928e-07	
144	-5.00000e-01	7.065928e-07	
145	-5.50000e-01	7.323383e-07	
146	-6.00000e-01	7.507101e-07	
147	-6.50000e-01	7.626539e-07	
148	-7.00000e-01	7.696991e-07	
149	-7.50000e-01	7.736238e-07	
150	-8.00000e-01	7.758474e-07	
151	-8.50000e-01	7.772052e-07	
152	-9.00000e-01	7.781154e-07	
153	-9.50000e-01	7.787794e-07	
154	-1.00000e+00	7.792973e-07	
155	-1.05000e+00	7.797220e-07	
156	-1.10000e+00	7.800835e-07	
157	-1.15000e+00	7.803995e-07	
158	-1.20000e+00	7.806815e-07	
159	-1.25000e+00	7.809371e-07	
160	-1.30000e+00	7.811714e-07	
161	-1.35000e+00	7.813884e-07	
162	-1.40000e+00	7.815908e-07	
163	-1.45000e+00	7.817807e-07	
164	-1.50000e+00	7.819599e-07	
165	-1.55000e+00	7.821297e-07	
166	-1.60000e+00	7.822913e-07	
167	-1.65000e+00	7.824454e-07	
168	-1.70000e+00	7.825929e-07	
169	-1.75000e+00	7.827344e-07	
170	-1.80000e+00	7.828705e-07	

Index   v-sweep         i(vds)          
--------------------------------------------------------------------------------
171	-1.85000e+00	7.830016e-07	
172	-1.90000e+00	7.831281e-07	
173	-1.95000e+00	7.832505e-07	
174	-2.00000e+00	7.833689e-07	
175	-2.05000e+00	7.834837e-07	
176	-2.10000e+00	7.835951e-07	
177	-2.15000e+00	7.837034e-07	
178	-2.20000e+00	7.838088e-07	
179	-2.25000e+00	7.839114e-07	
180	-2.30000e+00	7.840114e-07	
181	-2.35000e+00	7.841090e-07	
182	-2.40000e+00	7.842043e-07	
183	-2.45000e+00	7.842974e-07	
184	-2.50000e+00	7.843884e-07	
185	-2.55000e+00	7.844776e-07	
186	-2.60000e+00	7.845648e-07	
187	-2.65000e+00	7.846504e-07	
188	-2.70000e+00	7.847343e-07	
189	-2.75000e+00	7.848167e-07	
190	-2.80000e+00	7.848977e-07	
191	-2.85000e+00	7.849774e-07	
192	-2.90000e+00	7.850560e-07	
193	-2.95000e+00	7.851336e-07	
194	-3.00000e+00	7.852105e-07	
195	-3.05000e+00	7.852868e-07	
196	-3.10000e+00	7.853630e-07	
197	-3.15000e+00	7.854393e-07	
198	-3.20000e+00	7.855162e-07	
199	-3.25000e+00	7.855944e-07	
200	-3.30000e+00	7.856745e-07	
201	0.000000e+00	-5.20474e-22	
202	-5.00000e-02	1.603790e-07	
203	-1.00000e-01	3.127970e-07	
204	-1.50000e-01	4.572573e-07	
205	-2.00000e-01	5.937638e-07	
206	-2.50000e-01	7.223202e-07	
207	-3.00000e-01	8.429308e-07	
208	-3.50000e-01	9.556001e-07	
209	-4.00000e-01	1.060333e-06	
210	-4.50000e-01	1.157137e-06	
211	-5.00000e-01	1.246019e-06	
212	-5.50000e-01	1.326988e-06	
213	-6.00000e-01	1.400059e-06	
214	-6.50000e-01	1.465252e-06	
215	-7.00000e-01	1.522597e-06	
216	-7.50000e-01	1.572143e-06	
217	-8.00000e-01	1.613974e-06	
218	-8.50000e-01	1.648239e-06	
219	-9.00000e-01	1.675211e-06	
220	-9.50000e-01	1.695379e-06	
221	-1.00000e+00	1.709571e-06	
222	-1.05000e+00	1.718990e-06	
223	-1.10000e+00	1.725023e-06	
224	-1.15000e+00	1.728905e-06	
225	-1.20000e+00	1.731509e-06	
226	-1.25000e+00	1.733362e-06	
227	-1.30000e+00	1.734761e-06	
228	-1.35000e+00	1.735875e-06	

Index   v-sweep         i(vds)          
--------------------------------------------------------------------------------
229	-1.40000e+00	1.736798e-06	
230	-1.45000e+00	1.737588e-06	
231	-1.50000e+00	1.738280e-06	
232	-1.55000e+00	1.738899e-06	
233	-1.60000e+00	1.739459e-06	
234	-1.65000e+00	1.739972e-06	
235	-1.70000e+00	1.740447e-06	
236	-1.75000e+00	1.740889e-06	
237	-1.80000e+00	1.741304e-06	
238	-1.85000e+00	1.741695e-06	
239	-1.90000e+00	1.742064e-06	
240	-1.95000e+00	1.742416e-06	
241	-2.00000e+00	1.742750e-06	
242	-2.05000e+00	1.743070e-06	
243	-2.10000e+00	1.743376e-06	
244	-2.15000e+00	1.743670e-06	
245	-2.20000e+00	1.743953e-06	
246	-2.25000e+00	1.744226e-06	
247	-2.30000e+00	1.744489e-06	
248	-2.35000e+00	1.744743e-06	
249	-2.40000e+00	1.744990e-06	
250	-2.45000e+00	1.745229e-06	
251	-2.50000e+00	1.745461e-06	
252	-2.55000e+00	1.745686e-06	
253	-2.60000e+00	1.745905e-06	
254	-2.65000e+00	1.746118e-06	
255	-2.70000e+00	1.746326e-06	
256	-2.75000e+00	1.746529e-06	
257	-2.80000e+00	1.746727e-06	
258	-2.85000e+00	1.746920e-06	
259	-2.90000e+00	1.747109e-06	
260	-2.95000e+00	1.747294e-06	
261	-3.00000e+00	1.747475e-06	
262	-3.05000e+00	1.747652e-06	
263	-3.10000e+00	1.747826e-06	
264	-3.15000e+00	1.747996e-06	
265	-3.20000e+00	1.748164e-06	
266	-3.25000e+00	1.748330e-06	
267	-3.30000e+00	1.748493e-06	
268	0.000000e+00	-4.32970e-22	
269	-5.00000e-02	2.079470e-07	
270	-1.00000e-01	4.083956e-07	
271	-1.50000e-01	6.013488e-07	
272	-2.00000e-01	7.868096e-07	
273	-2.50000e-01	9.647813e-07	
274	-3.00000e-01	1.135267e-06	
275	-3.50000e-01	1.298270e-06	
276	-4.00000e-01	1.453793e-06	
277	-4.50000e-01	1.601840e-06	
278	-5.00000e-01	1.742415e-06	
279	-5.50000e-01	1.875521e-06	
280	-6.00000e-01	2.001163e-06	
281	-6.50000e-01	2.119345e-06	
282	-7.00000e-01	2.230072e-06	
283	-7.50000e-01	2.333351e-06	
284	-8.00000e-01	2.429188e-06	
285	-8.50000e-01	2.517592e-06	
286	-9.00000e-01	2.598576e-06	

Index   v-sweep         i(vds)          
--------------------------------------------------------------------------------
287	-9.50000e-01	2.672155e-06	
288	-1.00000e+00	2.738353e-06	
289	-1.05000e+00	2.797202e-06	
290	-1.10000e+00	2.848755e-06	
291	-1.15000e+00	2.893095e-06	
292	-1.20000e+00	2.930360e-06	
293	-1.25000e+00	2.960779e-06	
294	-1.30000e+00	2.984735e-06	
295	-1.35000e+00	3.002834e-06	
296	-1.40000e+00	3.015952e-06	
297	-1.45000e+00	3.025168e-06	
298	-1.50000e+00	3.031584e-06	
299	-1.55000e+00	3.036124e-06	
300	-1.60000e+00	3.039453e-06	
301	-1.65000e+00	3.042002e-06	
302	-1.70000e+00	3.044037e-06	
303	-1.75000e+00	3.045722e-06	
304	-1.80000e+00	3.047159e-06	
305	-1.85000e+00	3.048414e-06	
306	-1.90000e+00	3.049530e-06	
307	-1.95000e+00	3.050538e-06	
308	-2.00000e+00	3.051458e-06	
309	-2.05000e+00	3.052306e-06	
310	-2.10000e+00	3.053094e-06	
311	-2.15000e+00	3.053831e-06	
312	-2.20000e+00	3.054523e-06	
313	-2.25000e+00	3.055177e-06	
314	-2.30000e+00	3.055797e-06	
315	-2.35000e+00	3.056386e-06	
316	-2.40000e+00	3.056948e-06	
317	-2.45000e+00	3.057486e-06	
318	-2.50000e+00	3.058001e-06	
319	-2.55000e+00	3.058496e-06	
320	-2.60000e+00	3.058973e-06	
321	-2.65000e+00	3.059432e-06	
322	-2.70000e+00	3.059876e-06	
323	-2.75000e+00	3.060305e-06	
324	-2.80000e+00	3.060720e-06	
325	-2.85000e+00	3.061123e-06	
326	-2.90000e+00	3.061513e-06	
327	-2.95000e+00	3.061893e-06	
328	-3.00000e+00	3.062262e-06	
329	-3.05000e+00	3.062622e-06	
330	-3.10000e+00	3.062972e-06	
331	-3.15000e+00	3.063313e-06	
332	-3.20000e+00	3.063646e-06	
333	-3.25000e+00	3.063972e-06	
334	-3.30000e+00	3.064290e-06	
335	0.000000e+00	-5.39378e-22	
336	-5.00000e-02	2.504558e-07	
337	-1.00000e-01	4.939047e-07	
338	-1.50000e-01	7.303494e-07	
339	-2.00000e-01	9.597929e-07	
340	-2.50000e-01	1.182238e-06	
341	-3.00000e-01	1.397687e-06	
342	-3.50000e-01	1.606144e-06	
343	-4.00000e-01	1.807611e-06	
344	-4.50000e-01	2.002091e-06	

Index   v-sweep         i(vds)          
--------------------------------------------------------------------------------
345	-5.00000e-01	2.189587e-06	
346	-5.50000e-01	2.370102e-06	
347	-6.00000e-01	2.543640e-06	
348	-6.50000e-01	2.710202e-06	
349	-7.00000e-01	2.869793e-06	
350	-7.50000e-01	3.022416e-06	
351	-8.00000e-01	3.168073e-06	
352	-8.50000e-01	3.306770e-06	
353	-9.00000e-01	3.438509e-06	
354	-9.50000e-01	3.563295e-06	
355	-1.00000e+00	3.681133e-06	
356	-1.05000e+00	3.792028e-06	
357	-1.10000e+00	3.895985e-06	
358	-1.15000e+00	3.993013e-06	
359	-1.20000e+00	4.083120e-06	
360	-1.25000e+00	4.166317e-06	
361	-1.30000e+00	4.242620e-06	
362	-1.35000e+00	4.312050e-06	
363	-1.40000e+00	4.374636e-06	
364	-1.45000e+00	4.430421e-06	
365	-1.50000e+00	4.479469e-06	
366	-1.55000e+00	4.521881e-06	
367	-1.60000e+00	4.557814e-06	
368	-1.65000e+00	4.587517e-06	
369	-1.70000e+00	4.611376e-06	
370	-1.75000e+00	4.629955e-06	
371	-1.80000e+00	4.644014e-06	
372	-1.85000e+00	4.654448e-06	
373	-1.90000e+00	4.662161e-06	
374	-1.95000e+00	4.667939e-06	
375	-2.00000e+00	4.672381e-06	
376	-2.05000e+00	4.675906e-06	
377	-2.10000e+00	4.678795e-06	
378	-2.15000e+00	4.681230e-06	
379	-2.20000e+00	4.683334e-06	
380	-2.25000e+00	4.685187e-06	
381	-2.30000e+00	4.686845e-06	
382	-2.35000e+00	4.688347e-06	
383	-2.40000e+00	4.689724e-06	
384	-2.45000e+00	4.690996e-06	
385	-2.50000e+00	4.692179e-06	
386	-2.55000e+00	4.693287e-06	
387	-2.60000e+00	4.694329e-06	
388	-2.65000e+00	4.695313e-06	
389	-2.70000e+00	4.696246e-06	
390	-2.75000e+00	4.697134e-06	
391	-2.80000e+00	4.697981e-06	
392	-2.85000e+00	4.698791e-06	
393	-2.90000e+00	4.699567e-06	
394	-2.95000e+00	4.700313e-06	
395	-3.00000e+00	4.701031e-06	
396	-3.05000e+00	4.701723e-06	
397	-3.10000e+00	4.702392e-06	
398	-3.15000e+00	4.703038e-06	
399	-3.20000e+00	4.703663e-06	
400	-3.25000e+00	4.704269e-06	
401	-3.30000e+00	4.704858e-06	
Note: No ".plot", ".print", or ".fourier" lines; no simulations run
