
*****
***** Welcome to the Xyce(TM) Parallel Electronic Simulator
*****
***** This is version Xyce Release 7.6-opensource
***** Date: Thu Jan 19 17:20:42 EET 2023


***** Executing netlist mos_cv_regr/nfet_03v3/nfet_03v3_netlists_Cgd/netlist_w0.22_l0.28.spice

***** Reading and parsing netlist...
Netlist warning in file ../../../sm141064.xyce at or near line 770
 Device model NFET_03V3.0: Given pbswgd is less than 0.1. Pbswgd is set to 0.1
***** Setting up topology...

***** Device Count Summary ...
       M level 14 (BSIM4)                     1
       V level 1 (Independent Voltage Source) 2
       ----------------------------------------
       Total Devices                          3
***** Setting up matrix structure...
***** Number of Unknowns = 4
***** Initializing...

Netlist warning: Linear DC or STEP parameters for sweep over TEMP would result
 in no steps taken.  Check sign of step value to assure stop value can be
 reached from start value.  Start=25 Stop=-60 step=200.  Only a single
 computation will be done at the start value.

***** Solution Summary *****
	Number Successful Steps Taken:		136
	Number Failed Steps Attempted:		0
	Number Jacobians Evaluated:		316
	Number Linear Solves:			316
	Number Failed Linear Solves:		0
	Number Residual Evaluations:		453
	Number Nonlinear Convergence Failures:	0
	Total Residual Load Time:		0.00128388 seconds
	Total Jacobian Load Time:		0.00028801 seconds
	Total Linear Solution Time:		0.000889301 seconds


***** Total Simulation Solvers Run Time: 0.00684404 seconds
***** Total Elapsed Run Time:            0.207943 seconds
*****
***** End of Xyce(TM) Simulation
*****

Timing summary of 1 processor
                 Stats                   Count       CPU Time              Wall Time
---------------------------------------- ----- --------------------- ---------------------
Xyce                                         1        0.214 (100.0%)        1.194 (100.0%)
  Analysis                                   1        0.004 ( 1.74%)        0.007 ( 0.57%)
    Step                                     1        0.004 ( 1.74%)        0.007 ( 0.57%)
      DC Sweep                               1        0.004 ( 1.71%)        0.007 ( 0.56%)
        Solve                              136        0.003 ( 1.35%)        0.005 ( 0.45%)
          Residual                         453        0.001 ( 0.35%)        0.001 ( 0.12%)
          Jacobian                         316        0.000 ( 0.10%)        0.000 ( 0.03%)
          Linear Solve                     316        0.001 ( 0.24%)        0.001 ( 0.08%)
        Successful Step                    136        0.000 ( 0.22%)        0.001 ( 0.07%)
  Netlist Import                             1        0.190 (88.84%)        0.199 (16.67%)
    Parse Context                            1        0.149 (69.67%)        0.154 (12.87%)
    Distribute Devices                       1        0.040 (18.80%)        0.044 ( 3.72%)
    Verify Devices                           1        0.000 (<0.01%)        0.000 (<0.01%)
    Instantiate                              1        0.000 ( 0.05%)        0.000 ( 0.01%)
  Late Initialization                        1        0.001 ( 0.33%)        0.001 ( 0.06%)
    Global Indices                           1        0.000 ( 0.01%)        0.000 (<0.01%)
  Setup Matrix Structure                     1        0.000 ( 0.06%)        0.000 ( 0.01%)

