
Note: Compatibility modes selected: hs

Warning: m=xx on .subckt line will override multiplier m hierarchy!


Circuit: ***************************

Doing analysis at TEMP = 125.000000 and TNOM = 125.000000


No. of Data Rows : 67
                          ***************************
                          DC transfer characteristic  Mon Jan  9 13:58:26  2023
--------------------------------------------------------------------------------
Index   v-sweep         rds             
--------------------------------------------------------------------------------
0	0.000000e+00	2.746150e+06	
1	-5.00000e-02	4.396602e+06	
2	-1.00000e-01	9.593302e+06	
3	-1.50000e-01	3.444804e+07	
4	-2.00000e-01	1.392674e+08	
5	-2.50000e-01	4.120250e+08	
6	-3.00000e-01	8.913215e+08	
7	-3.50000e-01	1.535871e+09	
8	-4.00000e-01	2.260596e+09	
9	-4.50000e-01	2.988022e+09	
10	-5.00000e-01	3.671747e+09	
11	-5.50000e-01	4.293426e+09	
12	-6.00000e-01	4.851455e+09	
13	-6.50000e-01	5.351734e+09	
14	-7.00000e-01	5.802407e+09	
15	-7.50000e-01	6.211450e+09	
16	-8.00000e-01	6.585801e+09	
17	-8.50000e-01	6.931184e+09	
18	-9.00000e-01	7.252212e+09	
19	-9.50000e-01	7.552574e+09	
20	-1.00000e+00	7.835212e+09	
21	-1.05000e+00	8.102490e+09	
22	-1.10000e+00	8.356312e+09	
23	-1.15000e+00	8.598233e+09	
24	-1.20000e+00	8.829529e+09	
25	-1.25000e+00	9.051258e+09	
26	-1.30000e+00	9.264307e+09	
27	-1.35000e+00	9.469428e+09	
28	-1.40000e+00	9.667261e+09	
29	-1.45000e+00	9.858358e+09	
30	-1.50000e+00	1.004320e+10	
31	-1.55000e+00	1.022220e+10	
32	-1.60000e+00	1.039573e+10	
33	-1.65000e+00	1.056411e+10	
34	-1.70000e+00	1.072762e+10	
35	-1.75000e+00	1.088652e+10	
36	-1.80000e+00	1.104100e+10	
37	-1.85000e+00	1.119125e+10	
38	-1.90000e+00	1.133740e+10	
39	-1.95000e+00	1.147953e+10	
40	-2.00000e+00	1.161767e+10	
41	-2.05000e+00	1.175181e+10	
42	-2.10000e+00	1.188182e+10	
43	-2.15000e+00	1.200753e+10	
44	-2.20000e+00	1.212863e+10	
45	-2.25000e+00	1.224470e+10	
46	-2.30000e+00	1.235520e+10	
47	-2.35000e+00	1.245942e+10	
48	-2.40000e+00	1.255647e+10	
49	-2.45000e+00	1.264529e+10	
50	-2.50000e+00	1.272463e+10	
51	-2.55000e+00	1.279302e+10	
52	-2.60000e+00	1.284881e+10	
53	-2.65000e+00	1.289015e+10	
54	-2.70000e+00	1.291502e+10	

Index   v-sweep         rds             
--------------------------------------------------------------------------------
55	-2.75000e+00	1.292129e+10	
56	-2.80000e+00	1.290673e+10	
57	-2.85000e+00	1.286912e+10	
58	-2.90000e+00	1.280627e+10	
59	-2.95000e+00	1.271618e+10	
60	-3.00000e+00	1.259711e+10	
61	-3.05000e+00	1.244768e+10	
62	-3.10000e+00	1.226700e+10	
63	-3.15000e+00	1.205471e+10	
64	-3.20000e+00	1.181113e+10	
65	-3.25000e+00	1.153722e+10	
66	-3.30000e+00	1.123467e+10	
Reset re-loads circuit ***************************

Circuit: ***************************

Doing analysis at TEMP = 125.000000 and TNOM = 125.000000


No. of Data Rows : 67
                          ***************************
                          DC transfer characteristic  Mon Jan  9 13:58:26  2023
--------------------------------------------------------------------------------
Index   v-sweep         rds             
--------------------------------------------------------------------------------
0	0.000000e+00	6.382346e+05	
1	-5.00000e-02	7.181156e+05	
2	-1.00000e-01	8.206681e+05	
3	-1.50000e-01	9.570117e+05	
4	-2.00000e-01	1.146753e+06	
5	-2.50000e-01	1.427527e+06	
6	-3.00000e-01	1.879643e+06	
7	-3.50000e-01	2.697115e+06	
8	-4.00000e-01	4.405046e+06	
9	-4.50000e-01	8.448393e+06	
10	-5.00000e-01	1.808159e+07	
11	-5.50000e-01	3.800699e+07	
12	-6.00000e-01	7.159562e+07	
13	-6.50000e-01	1.183575e+08	
14	-7.00000e-01	1.743486e+08	
15	-7.50000e-01	2.345692e+08	
16	-8.00000e-01	2.949769e+08	
17	-8.50000e-01	3.531379e+08	
18	-9.00000e-01	4.079665e+08	
19	-9.50000e-01	4.592209e+08	
20	-1.00000e+00	5.070889e+08	
21	-1.05000e+00	5.519315e+08	
22	-1.10000e+00	5.941470e+08	
23	-1.15000e+00	6.341096e+08	
24	-1.20000e+00	6.721463e+08	
25	-1.25000e+00	7.085331e+08	
26	-1.30000e+00	7.434984e+08	
27	-1.35000e+00	7.772301e+08	
28	-1.40000e+00	8.098824e+08	
29	-1.45000e+00	8.415817e+08	
30	-1.50000e+00	8.724324e+08	
31	-1.55000e+00	9.025208e+08	
32	-1.60000e+00	9.319189e+08	
33	-1.65000e+00	9.606870e+08	
34	-1.70000e+00	9.888761e+08	
35	-1.75000e+00	1.016529e+09	
36	-1.80000e+00	1.043684e+09	
37	-1.85000e+00	1.070371e+09	
38	-1.90000e+00	1.096618e+09	
39	-1.95000e+00	1.122449e+09	
40	-2.00000e+00	1.147883e+09	
41	-2.05000e+00	1.172936e+09	
42	-2.10000e+00	1.197621e+09	
43	-2.15000e+00	1.221947e+09	
44	-2.20000e+00	1.245916e+09	
45	-2.25000e+00	1.269526e+09	
46	-2.30000e+00	1.292766e+09	
47	-2.35000e+00	1.315617e+09	
48	-2.40000e+00	1.338046e+09	
49	-2.45000e+00	1.360005e+09	
50	-2.50000e+00	1.381429e+09	
51	-2.55000e+00	1.402230e+09	
52	-2.60000e+00	1.422294e+09	
53	-2.65000e+00	1.441477e+09	
54	-2.70000e+00	1.459601e+09	

Index   v-sweep         rds             
--------------------------------------------------------------------------------
55	-2.75000e+00	1.476453e+09	
56	-2.80000e+00	1.491776e+09	
57	-2.85000e+00	1.505274e+09	
58	-2.90000e+00	1.516613e+09	
59	-2.95000e+00	1.525417e+09	
60	-3.00000e+00	1.531284e+09	
61	-3.05000e+00	1.533790e+09	
62	-3.10000e+00	1.532505e+09	
63	-3.15000e+00	1.527013e+09	
64	-3.20000e+00	1.516935e+09	
65	-3.25000e+00	1.501948e+09	
66	-3.30000e+00	1.481820e+09	
Reset re-loads circuit ***************************

Circuit: ***************************

Doing analysis at TEMP = 125.000000 and TNOM = 125.000000


No. of Data Rows : 67
                          ***************************
                          DC transfer characteristic  Mon Jan  9 13:58:26  2023
--------------------------------------------------------------------------------
Index   v-sweep         rds             
--------------------------------------------------------------------------------
0	0.000000e+00	3.653765e+05	
1	-5.00000e-02	3.897645e+05	
2	-1.00000e-01	4.176199e+05	
3	-1.50000e-01	4.497369e+05	
4	-2.00000e-01	4.871712e+05	
5	-2.50000e-01	5.313563e+05	
6	-3.00000e-01	5.842873e+05	
7	-3.50000e-01	6.488227e+05	
8	-4.00000e-01	7.291974e+05	
9	-4.50000e-01	8.319418e+05	
10	-5.00000e-01	9.676134e+05	
11	-5.50000e-01	1.154260e+06	
12	-6.00000e-01	1.424796e+06	
13	-6.50000e-01	1.843611e+06	
14	-7.00000e-01	2.545045e+06	
15	-7.50000e-01	3.817845e+06	
16	-8.00000e-01	6.249743e+06	
17	-8.50000e-01	1.082901e+07	
18	-9.00000e-01	1.871518e+07	
19	-9.50000e-01	3.061016e+07	
20	-1.00000e+00	4.626279e+07	
21	-1.05000e+00	6.459809e+07	
22	-1.10000e+00	8.427530e+07	
23	-1.15000e+00	1.041725e+08	
24	-1.20000e+00	1.235690e+08	
25	-1.25000e+00	1.421042e+08	
26	-1.30000e+00	1.596605e+08	
27	-1.35000e+00	1.762561e+08	
28	-1.40000e+00	1.919722e+08	
29	-1.45000e+00	2.069113e+08	
30	-1.50000e+00	2.211761e+08	
31	-1.55000e+00	2.348600e+08	
32	-1.60000e+00	2.480440e+08	
33	-1.65000e+00	2.607968e+08	
34	-1.70000e+00	2.731756e+08	
35	-1.75000e+00	2.852279e+08	
36	-1.80000e+00	2.969931e+08	
37	-1.85000e+00	3.085040e+08	
38	-1.90000e+00	3.197876e+08	
39	-1.95000e+00	3.308667e+08	
40	-2.00000e+00	3.417604e+08	
41	-2.05000e+00	3.524847e+08	
42	-2.10000e+00	3.630532e+08	
43	-2.15000e+00	3.734774e+08	
44	-2.20000e+00	3.837673e+08	
45	-2.25000e+00	3.939312e+08	
46	-2.30000e+00	4.039762e+08	
47	-2.35000e+00	4.139082e+08	
48	-2.40000e+00	4.237318e+08	
49	-2.45000e+00	4.334504e+08	
50	-2.50000e+00	4.430656e+08	
51	-2.55000e+00	4.525772e+08	
52	-2.60000e+00	4.619826e+08	
53	-2.65000e+00	4.712759e+08	
54	-2.70000e+00	4.804473e+08	

Index   v-sweep         rds             
--------------------------------------------------------------------------------
55	-2.75000e+00	4.894820e+08	
56	-2.80000e+00	4.983588e+08	
57	-2.85000e+00	5.070485e+08	
58	-2.90000e+00	5.155127e+08	
59	-2.95000e+00	5.237019e+08	
60	-3.00000e+00	5.315534e+08	
61	-3.05000e+00	5.389899e+08	
62	-3.10000e+00	5.459179e+08	
63	-3.15000e+00	5.522266e+08	
64	-3.20000e+00	5.577875e+08	
65	-3.25000e+00	5.624545e+08	
66	-3.30000e+00	5.660662e+08	
Reset re-loads circuit ***************************

Circuit: ***************************

Doing analysis at TEMP = 125.000000 and TNOM = 125.000000


No. of Data Rows : 67
                          ***************************
                          DC transfer characteristic  Mon Jan  9 13:58:26  2023
--------------------------------------------------------------------------------
Index   v-sweep         rds             
--------------------------------------------------------------------------------
0	0.000000e+00	2.613892e+05	
1	-5.00000e-02	2.730740e+05	
2	-1.00000e-01	2.858445e+05	
3	-1.50000e-01	2.998592e+05	
4	-2.00000e-01	3.153091e+05	
5	-2.50000e-01	3.324263e+05	
6	-3.00000e-01	3.514955e+05	
7	-3.50000e-01	3.728700e+05	
8	-4.00000e-01	3.969936e+05	
9	-4.50000e-01	4.244313e+05	
10	-5.00000e-01	4.559133e+05	
11	-5.50000e-01	4.923994e+05	
12	-6.00000e-01	5.351764e+05	
13	-6.50000e-01	5.860075e+05	
14	-7.00000e-01	6.473707e+05	
15	-7.50000e-01	7.228504e+05	
16	-8.00000e-01	8.178077e+05	
17	-8.50000e-01	9.405721e+05	
18	-9.00000e-01	1.104652e+06	
19	-9.50000e-01	1.332994e+06	
20	-1.00000e+00	1.666425e+06	
21	-1.05000e+00	2.180264e+06	
22	-1.10000e+00	3.014615e+06	
23	-1.15000e+00	4.417564e+06	
24	-1.20000e+00	6.770510e+06	
25	-1.25000e+00	1.052149e+07	
26	-1.30000e+00	1.599059e+07	
27	-1.35000e+00	2.317036e+07	
28	-1.40000e+00	3.170437e+07	
29	-1.45000e+00	4.105510e+07	
30	-1.50000e+00	5.070772e+07	
31	-1.55000e+00	6.028573e+07	
32	-1.60000e+00	6.956803e+07	
33	-1.65000e+00	7.845447e+07	
34	-1.70000e+00	8.692166e+07	
35	-1.75000e+00	9.498773e+07	
36	-1.80000e+00	1.026895e+08	
37	-1.85000e+00	1.100694e+08	
38	-1.90000e+00	1.171691e+08	
39	-1.95000e+00	1.240261e+08	
40	-2.00000e+00	1.306731e+08	
41	-2.05000e+00	1.371381e+08	
42	-2.10000e+00	1.434446e+08	
43	-2.15000e+00	1.496123e+08	
44	-2.20000e+00	1.556575e+08	
45	-2.25000e+00	1.615940e+08	
46	-2.30000e+00	1.674333e+08	
47	-2.35000e+00	1.731851e+08	
48	-2.40000e+00	1.788576e+08	
49	-2.45000e+00	1.844577e+08	
50	-2.50000e+00	1.899912e+08	
51	-2.55000e+00	1.954632e+08	
52	-2.60000e+00	2.008779e+08	
53	-2.65000e+00	2.062389e+08	
54	-2.70000e+00	2.115491e+08	

Index   v-sweep         rds             
--------------------------------------------------------------------------------
55	-2.75000e+00	2.168110e+08	
56	-2.80000e+00	2.220262e+08	
57	-2.85000e+00	2.271957e+08	
58	-2.90000e+00	2.323194e+08	
59	-2.95000e+00	2.373961e+08	
60	-3.00000e+00	2.424231e+08	
61	-3.05000e+00	2.473955e+08	
62	-3.10000e+00	2.523061e+08	
63	-3.15000e+00	2.571443e+08	
64	-3.20000e+00	2.618954e+08	
65	-3.25000e+00	2.665401e+08	
66	-3.30000e+00	2.710529e+08	
Reset re-loads circuit ***************************

Circuit: ***************************

Doing analysis at TEMP = 125.000000 and TNOM = 125.000000


No. of Data Rows : 67
                          ***************************
                          DC transfer characteristic  Mon Jan  9 13:58:26  2023
--------------------------------------------------------------------------------
Index   v-sweep         rds             
--------------------------------------------------------------------------------
0	0.000000e+00	2.065736e+05	
1	-5.00000e-02	2.134215e+05	
2	-1.00000e-01	2.207348e+05	
3	-1.50000e-01	2.285626e+05	
4	-2.00000e-01	2.369612e+05	
5	-2.50000e-01	2.459953e+05	
6	-3.00000e-01	2.557398e+05	
7	-3.50000e-01	2.662819e+05	
8	-4.00000e-01	2.777235e+05	
9	-4.50000e-01	2.901847e+05	
10	-5.00000e-01	3.038081e+05	
11	-5.50000e-01	3.187639e+05	
12	-6.00000e-01	3.352571e+05	
13	-6.50000e-01	3.535371e+05	
14	-7.00000e-01	3.739099e+05	
15	-7.50000e-01	3.967553e+05	
16	-8.00000e-01	4.225504e+05	
17	-8.50000e-01	4.519023e+05	
18	-9.00000e-01	4.855955e+05	
19	-9.50000e-01	5.246601e+05	
20	-1.00000e+00	5.704751e+05	
21	-1.05000e+00	6.249246e+05	
22	-1.10000e+00	6.906458e+05	
23	-1.15000e+00	7.714282e+05	
24	-1.20000e+00	8.728814e+05	
25	-1.25000e+00	1.003583e+06	
26	-1.30000e+00	1.177105e+06	
27	-1.35000e+00	1.415642e+06	
28	-1.40000e+00	1.756472e+06	
29	-1.45000e+00	2.262799e+06	
30	-1.50000e+00	3.039215e+06	
31	-1.55000e+00	4.245277e+06	
32	-1.60000e+00	6.087117e+06	
33	-1.65000e+00	8.762355e+06	
34	-1.70000e+00	1.236823e+07	
35	-1.75000e+00	1.683701e+07	
36	-1.80000e+00	2.195545e+07	
37	-1.85000e+00	2.745007e+07	
38	-1.90000e+00	3.307268e+07	
39	-1.95000e+00	3.864448e+07	
40	-2.00000e+00	4.405977e+07	
41	-2.05000e+00	4.926956e+07	
42	-2.10000e+00	5.426143e+07	
43	-2.15000e+00	5.904343e+07	
44	-2.20000e+00	6.363327e+07	
45	-2.25000e+00	6.805200e+07	
46	-2.30000e+00	7.232062e+07	
47	-2.35000e+00	7.645845e+07	
48	-2.40000e+00	8.048257e+07	
49	-2.45000e+00	8.440771e+07	
50	-2.50000e+00	8.824638e+07	
51	-2.55000e+00	9.200917e+07	
52	-2.60000e+00	9.570500e+07	
53	-2.65000e+00	9.934135e+07	
54	-2.70000e+00	1.029246e+08	

Index   v-sweep         rds             
--------------------------------------------------------------------------------
55	-2.75000e+00	1.064600e+08	
56	-2.80000e+00	1.099521e+08	
57	-2.85000e+00	1.134049e+08	
58	-2.90000e+00	1.168214e+08	
59	-2.95000e+00	1.202047e+08	
60	-3.00000e+00	1.235569e+08	
61	-3.05000e+00	1.268801e+08	
62	-3.10000e+00	1.301760e+08	
63	-3.15000e+00	1.334457e+08	
64	-3.20000e+00	1.366902e+08	
65	-3.25000e+00	1.399098e+08	
66	-3.30000e+00	1.431042e+08	
Reset re-loads circuit ***************************

Circuit: ***************************

Doing analysis at TEMP = 125.000000 and TNOM = 125.000000


No. of Data Rows : 67
                          ***************************
                          DC transfer characteristic  Mon Jan  9 13:58:26  2023
--------------------------------------------------------------------------------
Index   v-sweep         rds             
--------------------------------------------------------------------------------
0	0.000000e+00	1.728309e+05	
1	-5.00000e-02	1.773368e+05	
2	-1.00000e-01	1.820812e+05	
3	-1.50000e-01	1.870838e+05	
4	-2.00000e-01	1.923661e+05	
5	-2.50000e-01	1.979523e+05	
6	-3.00000e-01	2.038694e+05	
7	-3.50000e-01	2.101475e+05	
8	-4.00000e-01	2.168209e+05	
9	-4.50000e-01	2.239280e+05	
10	-5.00000e-01	2.315126e+05	
11	-5.50000e-01	2.396243e+05	
12	-6.00000e-01	2.483200e+05	
13	-6.50000e-01	2.576650e+05	
14	-7.00000e-01	2.677350e+05	
15	-7.50000e-01	2.786175e+05	
16	-8.00000e-01	2.904148e+05	
17	-8.50000e-01	3.032471e+05	
18	-9.00000e-01	3.172566e+05	
19	-9.50000e-01	3.326126e+05	
20	-1.00000e+00	3.495184e+05	
21	-1.05000e+00	3.682203e+05	
22	-1.10000e+00	3.890192e+05	
23	-1.15000e+00	4.122867e+05	
24	-1.20000e+00	4.384872e+05	
25	-1.25000e+00	4.682076e+05	
26	-1.30000e+00	5.022006e+05	
27	-1.35000e+00	5.414464e+05	
28	-1.40000e+00	5.872426e+05	
29	-1.45000e+00	6.413404e+05	
30	-1.50000e+00	7.061524e+05	
31	-1.55000e+00	7.850797e+05	
32	-1.60000e+00	8.830365e+05	
33	-1.65000e+00	1.007311e+06	
34	-1.70000e+00	1.168994e+06	
35	-1.75000e+00	1.385355e+06	
36	-1.80000e+00	1.683688e+06	
37	-1.85000e+00	2.107037e+06	
38	-1.90000e+00	2.721166e+06	
39	-1.95000e+00	3.618852e+06	
40	-2.00000e+00	4.912550e+06	
41	-2.05000e+00	6.706188e+06	
42	-2.10000e+00	9.051367e+06	
43	-2.15000e+00	1.191509e+07	
44	-2.20000e+00	1.518537e+07	
45	-2.25000e+00	1.871087e+07	
46	-2.30000e+00	2.234612e+07	
47	-2.35000e+00	2.597922e+07	
48	-2.40000e+00	2.953850e+07	
49	-2.45000e+00	3.298621e+07	
50	-2.50000e+00	3.630826e+07	
51	-2.55000e+00	3.950487e+07	
52	-2.60000e+00	4.258385e+07	
53	-2.65000e+00	4.555629e+07	
54	-2.70000e+00	4.843411e+07	

Index   v-sweep         rds             
--------------------------------------------------------------------------------
55	-2.75000e+00	5.122878e+07	
56	-2.80000e+00	5.395071e+07	
57	-2.85000e+00	5.660906e+07	
58	-2.90000e+00	5.921173e+07	
59	-2.95000e+00	6.176550e+07	
60	-3.00000e+00	6.427610e+07	
61	-3.05000e+00	6.674841e+07	
62	-3.10000e+00	6.918656e+07	
63	-3.15000e+00	7.159405e+07	
64	-3.20000e+00	7.397387e+07	
65	-3.25000e+00	7.632856e+07	
66	-3.30000e+00	7.866027e+07	
Reset re-loads circuit ***************************

Circuit: ***************************

Note: No ".plot", ".print", or ".fourier" lines; no simulations run
