
Note: Compatibility modes selected: hs

Warning: m=xx on .subckt line will override multiplier m hierarchy!


Circuit: ***************************

Doing analysis at TEMP = 25.000000 and TNOM = 25.000000


No. of Data Rows : 67
                          ***************************
                          DC transfer characteristic  Mon Jan  9 13:58:25  2023
--------------------------------------------------------------------------------
Index   v-sweep         rds             
--------------------------------------------------------------------------------
0	0.000000e+00	2.681022e+05	
1	-5.00000e-02	8.875364e+05	
2	-1.00000e-01	6.479972e+06	
3	-1.50000e-01	3.222313e+07	
4	-2.00000e-01	9.123281e+07	
5	-2.50000e-01	1.804302e+08	
6	-3.00000e-01	2.848483e+08	
7	-3.50000e-01	3.896878e+08	
8	-4.00000e-01	4.864543e+08	
9	-4.50000e-01	5.722834e+08	
10	-5.00000e-01	6.473593e+08	
11	-5.50000e-01	7.130212e+08	
12	-6.00000e-01	7.708219e+08	
13	-6.50000e-01	8.221649e+08	
14	-7.00000e-01	8.682098e+08	
15	-7.50000e-01	9.098807e+08	
16	-8.00000e-01	9.479043e+08	
17	-8.50000e-01	9.828521e+08	
18	-9.00000e-01	1.015176e+09	
19	-9.50000e-01	1.045235e+09	
20	-1.00000e+00	1.073322e+09	
21	-1.05000e+00	1.099672e+09	
22	-1.10000e+00	1.124480e+09	
23	-1.15000e+00	1.147910e+09	
24	-1.20000e+00	1.170097e+09	
25	-1.25000e+00	1.191160e+09	
26	-1.30000e+00	1.211197e+09	
27	-1.35000e+00	1.230295e+09	
28	-1.40000e+00	1.248530e+09	
29	-1.45000e+00	1.265968e+09	
30	-1.50000e+00	1.282666e+09	
31	-1.55000e+00	1.298678e+09	
32	-1.60000e+00	1.314048e+09	
33	-1.65000e+00	1.328818e+09	
34	-1.70000e+00	1.343024e+09	
35	-1.75000e+00	1.356697e+09	
36	-1.80000e+00	1.369865e+09	
37	-1.85000e+00	1.382550e+09	
38	-1.90000e+00	1.394769e+09	
39	-1.95000e+00	1.406536e+09	
40	-2.00000e+00	1.417856e+09	
41	-2.05000e+00	1.428729e+09	
42	-2.10000e+00	1.439147e+09	
43	-2.15000e+00	1.449094e+09	
44	-2.20000e+00	1.458544e+09	
45	-2.25000e+00	1.467458e+09	
46	-2.30000e+00	1.475790e+09	
47	-2.35000e+00	1.483475e+09	
48	-2.40000e+00	1.490439e+09	
49	-2.45000e+00	1.496592e+09	
50	-2.50000e+00	1.501827e+09	
51	-2.55000e+00	1.506025e+09	
52	-2.60000e+00	1.509050e+09	
53	-2.65000e+00	1.510756e+09	
54	-2.70000e+00	1.510981e+09	

Index   v-sweep         rds             
--------------------------------------------------------------------------------
55	-2.75000e+00	1.509559e+09	
56	-2.80000e+00	1.506314e+09	
57	-2.85000e+00	1.501073e+09	
58	-2.90000e+00	1.493663e+09	
59	-2.95000e+00	1.483925e+09	
60	-3.00000e+00	1.471714e+09	
61	-3.05000e+00	1.456909e+09	
62	-3.10000e+00	1.439418e+09	
63	-3.15000e+00	1.419186e+09	
64	-3.20000e+00	1.396199e+09	
65	-3.25000e+00	1.370489e+09	
66	-3.30000e+00	1.342134e+09	
Reset re-loads circuit ***************************

Circuit: ***************************

Doing analysis at TEMP = 25.000000 and TNOM = 25.000000


No. of Data Rows : 67
                          ***************************
                          DC transfer characteristic  Mon Jan  9 13:58:25  2023
--------------------------------------------------------------------------------
Index   v-sweep         rds             
--------------------------------------------------------------------------------
0	0.000000e+00	2.638606e+04	
1	-5.00000e-02	3.045577e+04	
2	-1.00000e-01	3.599182e+04	
3	-1.50000e-01	4.394142e+04	
4	-2.00000e-01	5.624446e+04	
5	-2.50000e-01	7.742155e+04	
6	-3.00000e-01	1.197048e+05	
7	-3.50000e-01	2.201516e+05	
8	-4.00000e-01	4.835784e+05	
9	-4.50000e-01	1.114452e+06	
10	-5.00000e-01	2.322021e+06	
11	-5.50000e-01	4.155843e+06	
12	-6.00000e-01	6.474808e+06	
13	-6.50000e-01	9.055522e+06	
14	-7.00000e-01	1.170360e+07	
15	-7.50000e-01	1.429613e+07	
16	-8.00000e-01	1.677352e+07	
17	-8.50000e-01	1.911658e+07	
18	-9.00000e-01	2.132725e+07	
19	-9.50000e-01	2.341656e+07	
20	-1.00000e+00	2.539832e+07	
21	-1.05000e+00	2.728612e+07	
22	-1.10000e+00	2.909212e+07	
23	-1.15000e+00	3.082677e+07	
24	-1.20000e+00	3.249884e+07	
25	-1.25000e+00	3.411561e+07	
26	-1.30000e+00	3.568314e+07	
27	-1.35000e+00	3.720646e+07	
28	-1.40000e+00	3.868974e+07	
29	-1.45000e+00	4.013652e+07	
30	-1.50000e+00	4.154974e+07	
31	-1.55000e+00	4.293193e+07	
32	-1.60000e+00	4.428524e+07	
33	-1.65000e+00	4.561153e+07	
34	-1.70000e+00	4.691240e+07	
35	-1.75000e+00	4.818927e+07	
36	-1.80000e+00	4.944334e+07	
37	-1.85000e+00	5.067571e+07	
38	-1.90000e+00	5.188730e+07	
39	-1.95000e+00	5.307891e+07	
40	-2.00000e+00	5.425121e+07	
41	-2.05000e+00	5.540467e+07	
42	-2.10000e+00	5.653962e+07	
43	-2.15000e+00	5.765614e+07	
44	-2.20000e+00	5.875400e+07	
45	-2.25000e+00	5.983262e+07	
46	-2.30000e+00	6.089095e+07	
47	-2.35000e+00	6.192735e+07	
48	-2.40000e+00	6.293949e+07	
49	-2.45000e+00	6.392413e+07	
50	-2.50000e+00	6.487703e+07	
51	-2.55000e+00	6.579273e+07	
52	-2.60000e+00	6.666440e+07	
53	-2.65000e+00	6.748366e+07	
54	-2.70000e+00	6.824046e+07	

Index   v-sweep         rds             
--------------------------------------------------------------------------------
55	-2.75000e+00	6.892298e+07	
56	-2.80000e+00	6.951760e+07	
57	-2.85000e+00	7.000898e+07	
58	-2.90000e+00	7.038024e+07	
59	-2.95000e+00	7.061330e+07	
60	-3.00000e+00	7.068937e+07	
61	-3.05000e+00	7.058965e+07	
62	-3.10000e+00	7.029616e+07	
63	-3.15000e+00	6.979274e+07	
64	-3.20000e+00	6.906613e+07	
65	-3.25000e+00	6.810708e+07	
66	-3.30000e+00	6.691134e+07	
Reset re-loads circuit ***************************

Circuit: ***************************

Doing analysis at TEMP = 25.000000 and TNOM = 25.000000


No. of Data Rows : 67
                          ***************************
                          DC transfer characteristic  Mon Jan  9 13:58:25  2023
--------------------------------------------------------------------------------
Index   v-sweep         rds             
--------------------------------------------------------------------------------
0	0.000000e+00	1.417136e+04	
1	-5.00000e-02	1.522331e+04	
2	-1.00000e-01	1.644259e+04	
3	-1.50000e-01	1.787247e+04	
4	-2.00000e-01	1.957240e+04	
5	-2.50000e-01	2.162638e+04	
6	-3.00000e-01	2.415681e+04	
7	-3.50000e-01	2.734893e+04	
8	-4.00000e-01	3.149571e+04	
9	-4.50000e-01	3.708586e+04	
10	-5.00000e-01	4.498767e+04	
11	-5.50000e-01	5.686032e+04	
12	-6.00000e-01	7.612680e+04	
13	-6.50000e-01	1.102946e+05	
14	-7.00000e-01	1.758556e+05	
15	-7.50000e-01	3.048295e+05	
16	-8.00000e-01	5.432572e+05	
17	-8.50000e-01	9.299712e+05	
18	-9.00000e-01	1.469782e+06	
19	-9.50000e-01	2.130015e+06	
20	-1.00000e+00	2.860917e+06	
21	-1.05000e+00	3.617422e+06	
22	-1.10000e+00	4.368851e+06	
23	-1.15000e+00	5.098494e+06	
24	-1.20000e+00	5.799398e+06	
25	-1.25000e+00	6.470265e+06	
26	-1.30000e+00	7.112605e+06	
27	-1.35000e+00	7.729073e+06	
28	-1.40000e+00	8.322596e+06	
29	-1.45000e+00	8.895967e+06	
30	-1.50000e+00	9.451674e+06	
31	-1.55000e+00	9.991867e+06	
32	-1.60000e+00	1.051837e+07	
33	-1.65000e+00	1.103271e+07	
34	-1.70000e+00	1.153617e+07	
35	-1.75000e+00	1.202983e+07	
36	-1.80000e+00	1.251460e+07	
37	-1.85000e+00	1.299123e+07	
38	-1.90000e+00	1.346038e+07	
39	-1.95000e+00	1.392259e+07	
40	-2.00000e+00	1.437833e+07	
41	-2.05000e+00	1.482801e+07	
42	-2.10000e+00	1.527199e+07	
43	-2.15000e+00	1.571056e+07	
44	-2.20000e+00	1.614397e+07	
45	-2.25000e+00	1.657246e+07	
46	-2.30000e+00	1.699620e+07	
47	-2.35000e+00	1.741532e+07	
48	-2.40000e+00	1.782990e+07	
49	-2.45000e+00	1.823997e+07	
50	-2.50000e+00	1.864547e+07	
51	-2.55000e+00	1.904621e+07	
52	-2.60000e+00	1.944189e+07	
53	-2.65000e+00	1.983203e+07	
54	-2.70000e+00	2.021590e+07	

Index   v-sweep         rds             
--------------------------------------------------------------------------------
55	-2.75000e+00	2.059253e+07	
56	-2.80000e+00	2.096056e+07	
57	-2.85000e+00	2.131826e+07	
58	-2.90000e+00	2.166340e+07	
59	-2.95000e+00	2.199317e+07	
60	-3.00000e+00	2.230417e+07	
61	-3.05000e+00	2.259229e+07	
62	-3.10000e+00	2.285272e+07	
63	-3.15000e+00	2.307991e+07	
64	-3.20000e+00	2.326763e+07	
65	-3.25000e+00	2.340905e+07	
66	-3.30000e+00	2.349691e+07	
Reset re-loads circuit ***************************

Circuit: ***************************

Doing analysis at TEMP = 25.000000 and TNOM = 25.000000


No. of Data Rows : 67
                          ***************************
                          DC transfer characteristic  Mon Jan  9 13:58:25  2023
--------------------------------------------------------------------------------
Index   v-sweep         rds             
--------------------------------------------------------------------------------
0	0.000000e+00	1.011184e+04	
1	-5.00000e-02	1.059751e+04	
2	-1.00000e-01	1.113172e+04	
3	-1.50000e-01	1.172213e+04	
4	-2.00000e-01	1.237807e+04	
5	-2.50000e-01	1.311109e+04	
6	-3.00000e-01	1.393558e+04	
7	-3.50000e-01	1.486975e+04	
8	-4.00000e-01	1.593698e+04	
9	-4.50000e-01	1.716773e+04	
10	-5.00000e-01	1.860248e+04	
11	-5.50000e-01	2.029612e+04	
12	-6.00000e-01	2.232486e+04	
13	-6.50000e-01	2.479752e+04	
14	-7.00000e-01	2.787445e+04	
15	-7.50000e-01	3.180069e+04	
16	-8.00000e-01	3.696674e+04	
17	-8.50000e-01	4.402469e+04	
18	-9.00000e-01	5.411873e+04	
19	-9.50000e-01	6.935088e+04	
20	-1.00000e+00	9.369194e+04	
21	-1.05000e+00	1.345169e+05	
22	-1.10000e+00	2.042261e+05	
23	-1.15000e+00	3.195180e+05	
24	-1.20000e+00	4.953939e+05	
25	-1.25000e+00	7.364227e+05	
26	-1.30000e+00	1.033323e+06	
27	-1.35000e+00	1.367950e+06	
28	-1.40000e+00	1.721283e+06	
29	-1.45000e+00	2.078586e+06	
30	-1.50000e+00	2.430622e+06	
31	-1.55000e+00	2.772648e+06	
32	-1.60000e+00	3.102876e+06	
33	-1.65000e+00	3.421193e+06	
34	-1.70000e+00	3.728316e+06	
35	-1.75000e+00	4.025294e+06	
36	-1.80000e+00	4.313246e+06	
37	-1.85000e+00	4.593233e+06	
38	-1.90000e+00	4.866205e+06	
39	-1.95000e+00	5.132990e+06	
40	-2.00000e+00	5.394295e+06	
41	-2.05000e+00	5.650720e+06	
42	-2.10000e+00	5.902773e+06	
43	-2.15000e+00	6.150882e+06	
44	-2.20000e+00	6.395411e+06	
45	-2.25000e+00	6.636667e+06	
46	-2.30000e+00	6.874912e+06	
47	-2.35000e+00	7.110370e+06	
48	-2.40000e+00	7.343233e+06	
49	-2.45000e+00	7.573666e+06	
50	-2.50000e+00	7.801811e+06	
51	-2.55000e+00	8.027789e+06	
52	-2.60000e+00	8.251702e+06	
53	-2.65000e+00	8.473634e+06	
54	-2.70000e+00	8.693645e+06	

Index   v-sweep         rds             
--------------------------------------------------------------------------------
55	-2.75000e+00	8.911773e+06	
56	-2.80000e+00	9.128024e+06	
57	-2.85000e+00	9.342366e+06	
58	-2.90000e+00	9.554711e+06	
59	-2.95000e+00	9.764908e+06	
60	-3.00000e+00	9.972714e+06	
61	-3.05000e+00	1.017777e+07	
62	-3.10000e+00	1.037959e+07	
63	-3.15000e+00	1.057749e+07	
64	-3.20000e+00	1.077059e+07	
65	-3.25000e+00	1.095774e+07	
66	-3.30000e+00	1.113752e+07	
Reset re-loads circuit ***************************

Circuit: ***************************

Doing analysis at TEMP = 25.000000 and TNOM = 25.000000


No. of Data Rows : 67
                          ***************************
                          DC transfer characteristic  Mon Jan  9 13:58:25  2023
--------------------------------------------------------------------------------
Index   v-sweep         rds             
--------------------------------------------------------------------------------
0	0.000000e+00	8.110516e+03	
1	-5.00000e-02	8.394214e+03	
2	-1.00000e-01	8.698239e+03	
3	-1.50000e-01	9.024857e+03	
4	-2.00000e-01	9.376681e+03	
5	-2.50000e-01	9.756744e+03	
6	-3.00000e-01	1.016858e+04	
7	-3.50000e-01	1.061636e+04	
8	-4.00000e-01	1.110498e+04	
9	-4.50000e-01	1.164028e+04	
10	-5.00000e-01	1.222930e+04	
11	-5.50000e-01	1.288051e+04	
12	-6.00000e-01	1.360430e+04	
13	-6.50000e-01	1.441346e+04	
14	-7.00000e-01	1.532401e+04	
15	-7.50000e-01	1.635615e+04	
16	-8.00000e-01	1.753585e+04	
17	-8.50000e-01	1.889690e+04	
18	-9.00000e-01	2.048418e+04	
19	-9.50000e-01	2.235839e+04	
20	-1.00000e+00	2.460356e+04	
21	-1.05000e+00	2.733906e+04	
22	-1.10000e+00	3.073927e+04	
23	-1.15000e+00	3.506734e+04	
24	-1.20000e+00	4.073409e+04	
25	-1.25000e+00	4.840406e+04	
26	-1.30000e+00	5.918696e+04	
27	-1.35000e+00	7.497395e+04	
28	-1.40000e+00	9.896808e+04	
29	-1.45000e+00	1.363037e+05	
30	-1.50000e+00	1.941891e+05	
31	-1.55000e+00	2.805182e+05	
32	-1.60000e+00	4.006349e+05	
33	-1.65000e+00	5.542205e+05	
34	-1.70000e+00	7.350567e+05	
35	-1.75000e+00	9.337831e+05	
36	-1.80000e+00	1.141239e+06	
37	-1.85000e+00	1.350431e+06	
38	-1.90000e+00	1.556925e+06	
39	-1.95000e+00	1.758370e+06	
40	-2.00000e+00	1.953819e+06	
41	-2.05000e+00	2.143149e+06	
42	-2.10000e+00	2.326666e+06	
43	-2.15000e+00	2.504866e+06	
44	-2.20000e+00	2.678297e+06	
45	-2.25000e+00	2.847494e+06	
46	-2.30000e+00	3.012944e+06	
47	-2.35000e+00	3.175078e+06	
48	-2.40000e+00	3.334269e+06	
49	-2.45000e+00	3.490836e+06	
50	-2.50000e+00	3.645053e+06	
51	-2.55000e+00	3.797151e+06	
52	-2.60000e+00	3.947329e+06	
53	-2.65000e+00	4.095754e+06	
54	-2.70000e+00	4.242571e+06	

Index   v-sweep         rds             
--------------------------------------------------------------------------------
55	-2.75000e+00	4.387903e+06	
56	-2.80000e+00	4.531857e+06	
57	-2.85000e+00	4.674522e+06	
58	-2.90000e+00	4.815978e+06	
59	-2.95000e+00	4.956290e+06	
60	-3.00000e+00	5.095514e+06	
61	-3.05000e+00	5.233693e+06	
62	-3.10000e+00	5.370858e+06	
63	-3.15000e+00	5.507022e+06	
64	-3.20000e+00	5.642180e+06	
65	-3.25000e+00	5.776299e+06	
66	-3.30000e+00	5.909311e+06	
Reset re-loads circuit ***************************

Circuit: ***************************

Doing analysis at TEMP = 25.000000 and TNOM = 25.000000


No. of Data Rows : 67
                          ***************************
                          DC transfer characteristic  Mon Jan  9 13:58:25  2023
--------------------------------------------------------------------------------
Index   v-sweep         rds             
--------------------------------------------------------------------------------
0	0.000000e+00	6.937441e+03	
1	-5.00000e-02	7.125856e+03	
2	-1.00000e-01	7.324647e+03	
3	-1.50000e-01	7.534695e+03	
4	-2.00000e-01	7.756982e+03	
5	-2.50000e-01	7.992611e+03	
6	-3.00000e-01	8.242819e+03	
7	-3.50000e-01	8.509001e+03	
8	-4.00000e-01	8.792737e+03	
9	-4.50000e-01	9.095821e+03	
10	-5.00000e-01	9.420301e+03	
11	-5.50000e-01	9.768523e+03	
12	-6.00000e-01	1.014319e+04	
13	-6.50000e-01	1.054743e+04	
14	-7.00000e-01	1.098487e+04	
15	-7.50000e-01	1.145979e+04	
16	-8.00000e-01	1.197721e+04	
17	-8.50000e-01	1.254307e+04	
18	-9.00000e-01	1.316451e+04	
19	-9.50000e-01	1.385010e+04	
20	-1.00000e+00	1.461028e+04	
21	-1.05000e+00	1.545788e+04	
22	-1.10000e+00	1.640879e+04	
23	-1.15000e+00	1.748299e+04	
24	-1.20000e+00	1.870592e+04	
25	-1.25000e+00	2.011040e+04	
26	-1.30000e+00	2.173952e+04	
27	-1.35000e+00	2.365081e+04	
28	-1.40000e+00	2.592270e+04	
29	-1.45000e+00	2.866443e+04	
30	-1.50000e+00	3.203187e+04	
31	-1.55000e+00	3.625324e+04	
32	-1.60000e+00	4.167175e+04	
33	-1.65000e+00	4.881671e+04	
34	-1.70000e+00	5.852130e+04	
35	-1.75000e+00	7.210751e+04	
36	-1.80000e+00	9.164069e+04	
37	-1.85000e+00	1.201724e+05	
38	-1.90000e+00	1.617078e+05	
39	-1.95000e+00	2.204853e+05	
40	-2.00000e+00	2.994648e+05	
41	-2.05000e+00	3.987928e+05	
42	-2.10000e+00	5.154504e+05	
43	-2.15000e+00	6.443885e+05	
44	-2.20000e+00	7.802372e+05	
45	-2.25000e+00	9.185506e+05	
46	-2.30000e+00	1.056254e+06	
47	-2.35000e+00	1.191534e+06	
48	-2.40000e+00	1.323502e+06	
49	-2.45000e+00	1.451868e+06	
50	-2.50000e+00	1.576683e+06	
51	-2.55000e+00	1.698170e+06	
52	-2.60000e+00	1.816625e+06	
53	-2.65000e+00	1.932359e+06	
54	-2.70000e+00	2.045669e+06	

Index   v-sweep         rds             
--------------------------------------------------------------------------------
55	-2.75000e+00	2.156826e+06	
56	-2.80000e+00	2.266068e+06	
57	-2.85000e+00	2.373603e+06	
58	-2.90000e+00	2.479611e+06	
59	-2.95000e+00	2.584246e+06	
60	-3.00000e+00	2.687640e+06	
61	-3.05000e+00	2.789906e+06	
62	-3.10000e+00	2.891140e+06	
63	-3.15000e+00	2.991426e+06	
64	-3.20000e+00	3.090836e+06	
65	-3.25000e+00	3.189431e+06	
66	-3.30000e+00	3.287264e+06	
Reset re-loads circuit ***************************

Circuit: ***************************

Note: No ".plot", ".print", or ".fourier" lines; no simulations run
