
Note: Compatibility modes selected: hs

Warning: m=xx on .subckt line will override multiplier m hierarchy!


Circuit: ***************************

Doing analysis at TEMP = 125.000000 and TNOM = 125.000000


No. of Data Rows : 67
                          ***************************
                          DC transfer characteristic  Mon Jan  9 13:58:26  2023
--------------------------------------------------------------------------------
Index   v-sweep         rds             
--------------------------------------------------------------------------------
0	0.000000e+00	2.150668e+05	
1	-5.00000e-02	2.929555e+05	
2	-1.00000e-01	4.510643e+05	
3	-1.50000e-01	8.728745e+05	
4	-2.00000e-01	2.317589e+06	
5	-2.50000e-01	6.302914e+06	
6	-3.00000e-01	1.212816e+07	
7	-3.50000e-01	1.719995e+07	
8	-4.00000e-01	2.082492e+07	
9	-4.50000e-01	2.343686e+07	
10	-5.00000e-01	2.546064e+07	
11	-5.50000e-01	2.714457e+07	
12	-6.00000e-01	2.862175e+07	
13	-6.50000e-01	2.996439e+07	
14	-7.00000e-01	3.121326e+07	
15	-7.50000e-01	3.239251e+07	
16	-8.00000e-01	3.351712e+07	
17	-8.50000e-01	3.459681e+07	
18	-9.00000e-01	3.563817e+07	
19	-9.50000e-01	3.664587e+07	
20	-1.00000e+00	3.762331e+07	
21	-1.05000e+00	3.857309e+07	
22	-1.10000e+00	3.949723e+07	
23	-1.15000e+00	4.039739e+07	
24	-1.20000e+00	4.127492e+07	
25	-1.25000e+00	4.213097e+07	
26	-1.30000e+00	4.296657e+07	
27	-1.35000e+00	4.378258e+07	
28	-1.40000e+00	4.457981e+07	
29	-1.45000e+00	4.535897e+07	
30	-1.50000e+00	4.612072e+07	
31	-1.55000e+00	4.686565e+07	
32	-1.60000e+00	4.759434e+07	
33	-1.65000e+00	4.830729e+07	
34	-1.70000e+00	4.900498e+07	
35	-1.75000e+00	4.968783e+07	
36	-1.80000e+00	5.035623e+07	
37	-1.85000e+00	5.101048e+07	
38	-1.90000e+00	5.165081e+07	
39	-1.95000e+00	5.227736e+07	
40	-2.00000e+00	5.289011e+07	
41	-2.05000e+00	5.348888e+07	
42	-2.10000e+00	5.407329e+07	
43	-2.15000e+00	5.464267e+07	
44	-2.20000e+00	5.519604e+07	
45	-2.25000e+00	5.573200e+07	
46	-2.30000e+00	5.624871e+07	
47	-2.35000e+00	5.674376e+07	
48	-2.40000e+00	5.721411e+07	
49	-2.45000e+00	5.765605e+07	
50	-2.50000e+00	5.806506e+07	
51	-2.55000e+00	5.843583e+07	
52	-2.60000e+00	5.876215e+07	
53	-2.65000e+00	5.903695e+07	
54	-2.70000e+00	5.925231e+07	

Index   v-sweep         rds             
--------------------------------------------------------------------------------
55	-2.75000e+00	5.939950e+07	
56	-2.80000e+00	5.946916e+07	
57	-2.85000e+00	5.945141e+07	
58	-2.90000e+00	5.933615e+07	
59	-2.95000e+00	5.911336e+07	
60	-3.00000e+00	5.877346e+07	
61	-3.05000e+00	5.830776e+07	
62	-3.10000e+00	5.770892e+07	
63	-3.15000e+00	5.697139e+07	
64	-3.20000e+00	5.609191e+07	
65	-3.25000e+00	5.506982e+07	
66	-3.30000e+00	5.390739e+07	
Reset re-loads circuit ***************************

Circuit: ***************************

Doing analysis at TEMP = 125.000000 and TNOM = 125.000000


No. of Data Rows : 67
                          ***************************
                          DC transfer characteristic  Mon Jan  9 13:58:26  2023
--------------------------------------------------------------------------------
Index   v-sweep         rds             
--------------------------------------------------------------------------------
0	0.000000e+00	5.955671e+04	
1	-5.00000e-02	6.535254e+04	
2	-1.00000e-01	7.234170e+04	
3	-1.50000e-01	8.093241e+04	
4	-2.00000e-01	9.174064e+04	
5	-2.50000e-01	1.057381e+05	
6	-3.00000e-01	1.245421e+05	
7	-3.50000e-01	1.510226e+05	
8	-4.00000e-01	1.906596e+05	
9	-4.50000e-01	2.547112e+05	
10	-5.00000e-01	3.671561e+05	
11	-5.50000e-01	5.738893e+05	
12	-6.00000e-01	9.263904e+05	
13	-6.50000e-01	1.402409e+06	
14	-7.00000e-01	1.887735e+06	
15	-7.50000e-01	2.298828e+06	
16	-8.00000e-01	2.627740e+06	
17	-8.50000e-01	2.896330e+06	
18	-9.00000e-01	3.125735e+06	
19	-9.50000e-01	3.330183e+06	
20	-1.00000e+00	3.518385e+06	
21	-1.05000e+00	3.695597e+06	
22	-1.10000e+00	3.865034e+06	
23	-1.15000e+00	4.028715e+06	
24	-1.20000e+00	4.187944e+06	
25	-1.25000e+00	4.343587e+06	
26	-1.30000e+00	4.496236e+06	
27	-1.35000e+00	4.646309e+06	
28	-1.40000e+00	4.794106e+06	
29	-1.45000e+00	4.939846e+06	
30	-1.50000e+00	5.083698e+06	
31	-1.55000e+00	5.225791e+06	
32	-1.60000e+00	5.366226e+06	
33	-1.65000e+00	5.505085e+06	
34	-1.70000e+00	5.642434e+06	
35	-1.75000e+00	5.778329e+06	
36	-1.80000e+00	5.912818e+06	
37	-1.85000e+00	6.045942e+06	
38	-1.90000e+00	6.177735e+06	
39	-1.95000e+00	6.308230e+06	
40	-2.00000e+00	6.437451e+06	
41	-2.05000e+00	6.565423e+06	
42	-2.10000e+00	6.692164e+06	
43	-2.15000e+00	6.817684e+06	
44	-2.20000e+00	6.941990e+06	
45	-2.25000e+00	7.065072e+06	
46	-2.30000e+00	7.186910e+06	
47	-2.35000e+00	7.307460e+06	
48	-2.40000e+00	7.426650e+06	
49	-2.45000e+00	7.544371e+06	
50	-2.50000e+00	7.660465e+06	
51	-2.55000e+00	7.774712e+06	
52	-2.60000e+00	7.886817e+06	
53	-2.65000e+00	7.996388e+06	
54	-2.70000e+00	8.102924e+06	

Index   v-sweep         rds             
--------------------------------------------------------------------------------
55	-2.75000e+00	8.205788e+06	
56	-2.80000e+00	8.304197e+06	
57	-2.85000e+00	8.397192e+06	
58	-2.90000e+00	8.483631e+06	
59	-2.95000e+00	8.562173e+06	
60	-3.00000e+00	8.631272e+06	
61	-3.05000e+00	8.689184e+06	
62	-3.10000e+00	8.733979e+06	
63	-3.15000e+00	8.763576e+06	
64	-3.20000e+00	8.775791e+06	
65	-3.25000e+00	8.768402e+06	
66	-3.30000e+00	8.739243e+06	
Reset re-loads circuit ***************************

Circuit: ***************************

Doing analysis at TEMP = 125.000000 and TNOM = 125.000000


No. of Data Rows : 67
                          ***************************
                          DC transfer characteristic  Mon Jan  9 13:58:26  2023
--------------------------------------------------------------------------------
Index   v-sweep         rds             
--------------------------------------------------------------------------------
0	0.000000e+00	3.659139e+04	
1	-5.00000e-02	3.865748e+04	
2	-1.00000e-01	4.095578e+04	
3	-1.50000e-01	4.352763e+04	
4	-2.00000e-01	4.642482e+04	
5	-2.50000e-01	4.971302e+04	
6	-3.00000e-01	5.347676e+04	
7	-3.50000e-01	5.782666e+04	
8	-4.00000e-01	6.291024e+04	
9	-4.50000e-01	6.892845e+04	
10	-5.00000e-01	7.616171e+04	
11	-5.50000e-01	8.501240e+04	
12	-6.00000e-01	9.607623e+04	
13	-6.50000e-01	1.102666e+05	
14	-7.00000e-01	1.290368e+05	
15	-7.50000e-01	1.547821e+05	
16	-8.00000e-01	1.915334e+05	
17	-8.50000e-01	2.459222e+05	
18	-9.00000e-01	3.274501e+05	
19	-9.50000e-01	4.445685e+05	
20	-1.00000e+00	5.938845e+05	
21	-1.05000e+00	7.548654e+05	
22	-1.10000e+00	9.047813e+05	
23	-1.15000e+00	1.033949e+06	
24	-1.20000e+00	1.143769e+06	
25	-1.25000e+00	1.239166e+06	
26	-1.30000e+00	1.324645e+06	
27	-1.35000e+00	1.403427e+06	
28	-1.40000e+00	1.477629e+06	
29	-1.45000e+00	1.548615e+06	
30	-1.50000e+00	1.617268e+06	
31	-1.55000e+00	1.684167e+06	
32	-1.60000e+00	1.749701e+06	
33	-1.65000e+00	1.814136e+06	
34	-1.70000e+00	1.877656e+06	
35	-1.75000e+00	1.940396e+06	
36	-1.80000e+00	2.002452e+06	
37	-1.85000e+00	2.063895e+06	
38	-1.90000e+00	2.124779e+06	
39	-1.95000e+00	2.185148e+06	
40	-2.00000e+00	2.245033e+06	
41	-2.05000e+00	2.304459e+06	
42	-2.10000e+00	2.363450e+06	
43	-2.15000e+00	2.422020e+06	
44	-2.20000e+00	2.480185e+06	
45	-2.25000e+00	2.537956e+06	
46	-2.30000e+00	2.595344e+06	
47	-2.35000e+00	2.652356e+06	
48	-2.40000e+00	2.709000e+06	
49	-2.45000e+00	2.765280e+06	
50	-2.50000e+00	2.821199e+06	
51	-2.55000e+00	2.876757e+06	
52	-2.60000e+00	2.931950e+06	
53	-2.65000e+00	2.986768e+06	
54	-2.70000e+00	3.041191e+06	

Index   v-sweep         rds             
--------------------------------------------------------------------------------
55	-2.75000e+00	3.095192e+06	
56	-2.80000e+00	3.148725e+06	
57	-2.85000e+00	3.201725e+06	
58	-2.90000e+00	3.254104e+06	
59	-2.95000e+00	3.305737e+06	
60	-3.00000e+00	3.356462e+06	
61	-3.05000e+00	3.406067e+06	
62	-3.10000e+00	3.454281e+06	
63	-3.15000e+00	3.500763e+06	
64	-3.20000e+00	3.545098e+06	
65	-3.25000e+00	3.586780e+06	
66	-3.30000e+00	3.625210e+06	
Reset re-loads circuit ***************************

Circuit: ***************************

Doing analysis at TEMP = 125.000000 and TNOM = 125.000000


No. of Data Rows : 67
                          ***************************
                          DC transfer characteristic  Mon Jan  9 13:58:26  2023
--------------------------------------------------------------------------------
Index   v-sweep         rds             
--------------------------------------------------------------------------------
0	0.000000e+00	2.643184e+04	
1	-5.00000e-02	2.745716e+04	
2	-1.00000e-01	2.855879e+04	
3	-1.50000e-01	2.974555e+04	
4	-2.00000e-01	3.102767e+04	
5	-2.50000e-01	3.241708e+04	
6	-3.00000e-01	3.392782e+04	
7	-3.50000e-01	3.557644e+04	
8	-4.00000e-01	3.738266e+04	
9	-4.50000e-01	3.937015e+04	
10	-5.00000e-01	4.156750e+04	
11	-5.50000e-01	4.400970e+04	
12	-6.00000e-01	4.673985e+04	
13	-6.50000e-01	4.981177e+04	
14	-7.00000e-01	5.329346e+04	
15	-7.50000e-01	5.727201e+04	
16	-8.00000e-01	6.186068e+04	
17	-8.50000e-01	6.720926e+04	
18	-9.00000e-01	7.351957e+04	
19	-9.50000e-01	8.106891e+04	
20	-1.00000e+00	9.024653e+04	
21	-1.05000e+00	1.016102e+05	
22	-1.10000e+00	1.159735e+05	
23	-1.15000e+00	1.345331e+05	
24	-1.20000e+00	1.590230e+05	
25	-1.25000e+00	1.917905e+05	
26	-1.30000e+00	2.354448e+05	
27	-1.35000e+00	2.914742e+05	
28	-1.40000e+00	3.579646e+05	
29	-1.45000e+00	4.289328e+05	
30	-1.50000e+00	4.974971e+05	
31	-1.55000e+00	5.596706e+05	
32	-1.60000e+00	6.148549e+05	
33	-1.65000e+00	6.641933e+05	
34	-1.70000e+00	7.091710e+05	
35	-1.75000e+00	7.510372e+05	
36	-1.80000e+00	7.907011e+05	
37	-1.85000e+00	8.287890e+05	
38	-1.90000e+00	8.657248e+05	
39	-1.95000e+00	9.017958e+05	
40	-2.00000e+00	9.371989e+05	
41	-2.05000e+00	9.720709e+05	
42	-2.10000e+00	1.006508e+06	
43	-2.15000e+00	1.040581e+06	
44	-2.20000e+00	1.074339e+06	
45	-2.25000e+00	1.107820e+06	
46	-2.30000e+00	1.141052e+06	
47	-2.35000e+00	1.174058e+06	
48	-2.40000e+00	1.206854e+06	
49	-2.45000e+00	1.239454e+06	
50	-2.50000e+00	1.271867e+06	
51	-2.55000e+00	1.304103e+06	
52	-2.60000e+00	1.336168e+06	
53	-2.65000e+00	1.368069e+06	
54	-2.70000e+00	1.399809e+06	

Index   v-sweep         rds             
--------------------------------------------------------------------------------
55	-2.75000e+00	1.431394e+06	
56	-2.80000e+00	1.462825e+06	
57	-2.85000e+00	1.494105e+06	
58	-2.90000e+00	1.525235e+06	
59	-2.95000e+00	1.556215e+06	
60	-3.00000e+00	1.587041e+06	
61	-3.05000e+00	1.617710e+06	
62	-3.10000e+00	1.648210e+06	
63	-3.15000e+00	1.678526e+06	
64	-3.20000e+00	1.708635e+06	
65	-3.25000e+00	1.738503e+06	
66	-3.30000e+00	1.768081e+06	
Reset re-loads circuit ***************************

Circuit: ***************************

Doing analysis at TEMP = 125.000000 and TNOM = 125.000000


No. of Data Rows : 67
                          ***************************
                          DC transfer characteristic  Mon Jan  9 13:58:26  2023
--------------------------------------------------------------------------------
Index   v-sweep         rds             
--------------------------------------------------------------------------------
0	0.000000e+00	2.156567e+04	
1	-5.00000e-02	2.221391e+04	
2	-1.00000e-01	2.289864e+04	
3	-1.50000e-01	2.362303e+04	
4	-2.00000e-01	2.439060e+04	
5	-2.50000e-01	2.520531e+04	
6	-3.00000e-01	2.607165e+04	
7	-3.50000e-01	2.699465e+04	
8	-4.00000e-01	2.798005e+04	
9	-4.50000e-01	2.903437e+04	
10	-5.00000e-01	3.016508e+04	
11	-5.50000e-01	3.138077e+04	
12	-6.00000e-01	3.269135e+04	
13	-6.50000e-01	3.410836e+04	
14	-7.00000e-01	3.564526e+04	
15	-7.50000e-01	3.731786e+04	
16	-8.00000e-01	3.914491e+04	
17	-8.50000e-01	4.114872e+04	
18	-9.00000e-01	4.335611e+04	
19	-9.50000e-01	4.579956e+04	
20	-1.00000e+00	4.851879e+04	
21	-1.05000e+00	5.156285e+04	
22	-1.10000e+00	5.499297e+04	
23	-1.15000e+00	5.888650e+04	
24	-1.20000e+00	6.334236e+04	
25	-1.25000e+00	6.848880e+04	
26	-1.30000e+00	7.449442e+04	
27	-1.35000e+00	8.158388e+04	
28	-1.40000e+00	9.006030e+04	
29	-1.45000e+00	1.003360e+05	
30	-1.50000e+00	1.129716e+05	
31	-1.55000e+00	1.287140e+05	
32	-1.60000e+00	1.485008e+05	
33	-1.65000e+00	1.733462e+05	
34	-1.70000e+00	2.039680e+05	
35	-1.75000e+00	2.401180e+05	
36	-1.80000e+00	2.800460e+05	
37	-1.85000e+00	3.209114e+05	
38	-1.90000e+00	3.601192e+05	
39	-1.95000e+00	3.963223e+05	
40	-2.00000e+00	4.293693e+05	
41	-2.05000e+00	4.597269e+05	
42	-2.10000e+00	4.880070e+05	
43	-2.15000e+00	5.147492e+05	
44	-2.20000e+00	5.403666e+05	
45	-2.25000e+00	5.651567e+05	
46	-2.30000e+00	5.893287e+05	
47	-2.35000e+00	6.130292e+05	
48	-2.40000e+00	6.363613e+05	
49	-2.45000e+00	6.593981e+05	
50	-2.50000e+00	6.821922e+05	
51	-2.55000e+00	7.047822e+05	
52	-2.60000e+00	7.271963e+05	
53	-2.65000e+00	7.494559e+05	
54	-2.70000e+00	7.715770e+05	

Index   v-sweep         rds             
--------------------------------------------------------------------------------
55	-2.75000e+00	7.935722e+05	
56	-2.80000e+00	8.154511e+05	
57	-2.85000e+00	8.372213e+05	
58	-2.90000e+00	8.588891e+05	
59	-2.95000e+00	8.804593e+05	
60	-3.00000e+00	9.019358e+05	
61	-3.05000e+00	9.233221e+05	
62	-3.10000e+00	9.446206e+05	
63	-3.15000e+00	9.658337e+05	
64	-3.20000e+00	9.869629e+05	
65	-3.25000e+00	1.008009e+06	
66	-3.30000e+00	1.028973e+06	
Reset re-loads circuit ***************************

Circuit: ***************************

Doing analysis at TEMP = 125.000000 and TNOM = 125.000000


No. of Data Rows : 67
                          ***************************
                          DC transfer characteristic  Mon Jan  9 13:58:27  2023
--------------------------------------------------------------------------------
Index   v-sweep         rds             
--------------------------------------------------------------------------------
0	0.000000e+00	1.850719e+04	
1	-5.00000e-02	1.896222e+04	
2	-1.00000e-01	1.943780e+04	
3	-1.50000e-01	1.993535e+04	
4	-2.00000e-01	2.045642e+04	
5	-2.50000e-01	2.100271e+04	
6	-3.00000e-01	2.157609e+04	
7	-3.50000e-01	2.217861e+04	
8	-4.00000e-01	2.281254e+04	
9	-4.50000e-01	2.348041e+04	
10	-5.00000e-01	2.418499e+04	
11	-5.50000e-01	2.492938e+04	
12	-6.00000e-01	2.571705e+04	
13	-6.50000e-01	2.655187e+04	
14	-7.00000e-01	2.743818e+04	
15	-7.50000e-01	2.838089e+04	
16	-8.00000e-01	2.938554e+04	
17	-8.50000e-01	3.045841e+04	
18	-9.00000e-01	3.160668e+04	
19	-9.50000e-01	3.283854e+04	
20	-1.00000e+00	3.416344e+04	
21	-1.05000e+00	3.559228e+04	
22	-1.10000e+00	3.713774e+04	
23	-1.15000e+00	3.881463e+04	
24	-1.20000e+00	4.064036e+04	
25	-1.25000e+00	4.263554e+04	
26	-1.30000e+00	4.482472e+04	
27	-1.35000e+00	4.723740e+04	
28	-1.40000e+00	4.990927e+04	
29	-1.45000e+00	5.288389e+04	
30	-1.50000e+00	5.621494e+04	
31	-1.55000e+00	5.996919e+04	
32	-1.60000e+00	6.423049e+04	
33	-1.65000e+00	6.910520e+04	
34	-1.70000e+00	7.472942e+04	
35	-1.75000e+00	8.127857e+04	
36	-1.80000e+00	8.897938e+04	
37	-1.85000e+00	9.812341e+04	
38	-1.90000e+00	1.090779e+05	
39	-1.95000e+00	1.222825e+05	
40	-2.00000e+00	1.382059e+05	
41	-2.05000e+00	1.572233e+05	
42	-2.10000e+00	1.793883e+05	
43	-2.15000e+00	2.041787e+05	
44	-2.20000e+00	2.304541e+05	
45	-2.25000e+00	2.568146e+05	
46	-2.30000e+00	2.821462e+05	
47	-2.35000e+00	3.059129e+05	
48	-2.40000e+00	3.280736e+05	
49	-2.45000e+00	3.488455e+05	
50	-2.50000e+00	3.685148e+05	
51	-2.55000e+00	3.873437e+05	
52	-2.60000e+00	4.055404e+05	
53	-2.65000e+00	4.232609e+05	
54	-2.70000e+00	4.406184e+05	

Index   v-sweep         rds             
--------------------------------------------------------------------------------
55	-2.75000e+00	4.576944e+05	
56	-2.80000e+00	4.745475e+05	
57	-2.85000e+00	4.912202e+05	
58	-2.90000e+00	5.077438e+05	
59	-2.95000e+00	5.241411e+05	
60	-3.00000e+00	5.404294e+05	
61	-3.05000e+00	5.566216e+05	
62	-3.10000e+00	5.727279e+05	
63	-3.15000e+00	5.887558e+05	
64	-3.20000e+00	6.047115e+05	
65	-3.25000e+00	6.205996e+05	
66	-3.30000e+00	6.364242e+05	
Reset re-loads circuit ***************************

Circuit: ***************************

Note: No ".plot", ".print", or ".fourier" lines; no simulations run
