
Note: Compatibility modes selected: hs

Warning: m=xx on .subckt line will override multiplier m hierarchy!


Circuit: ***************************

Doing analysis at TEMP = 125.000000 and TNOM = 125.000000


No. of Data Rows : 67
                          ***************************
                          DC transfer characteristic  Mon Jan  9 13:58:26  2023
--------------------------------------------------------------------------------
Index   v-sweep         rds             
--------------------------------------------------------------------------------
0	0.000000e+00	2.910649e+05	
1	-5.00000e-02	4.533220e+05	
2	-1.00000e-01	9.256422e+05	
3	-1.50000e-01	2.982491e+06	
4	-2.00000e-01	1.098029e+07	
5	-2.50000e-01	2.783353e+07	
6	-3.00000e-01	4.826710e+07	
7	-3.50000e-01	6.641579e+07	
8	-4.00000e-01	8.087398e+07	
9	-4.50000e-01	9.238080e+07	
10	-5.00000e-01	1.018854e+08	
11	-5.50000e-01	1.100721e+08	
12	-6.00000e-01	1.173756e+08	
13	-6.50000e-01	1.240656e+08	
14	-7.00000e-01	1.303113e+08	
15	-7.50000e-01	1.362216e+08	
16	-8.00000e-01	1.418684e+08	
17	-8.50000e-01	1.473008e+08	
18	-9.00000e-01	1.525530e+08	
19	-9.50000e-01	1.576499e+08	
20	-1.00000e+00	1.626097e+08	
21	-1.05000e+00	1.674465e+08	
22	-1.10000e+00	1.721709e+08	
23	-1.15000e+00	1.767917e+08	
24	-1.20000e+00	1.813156e+08	
25	-1.25000e+00	1.857486e+08	
26	-1.30000e+00	1.900955e+08	
27	-1.35000e+00	1.943605e+08	
28	-1.40000e+00	1.985471e+08	
29	-1.45000e+00	2.026586e+08	
30	-1.50000e+00	2.066977e+08	
31	-1.55000e+00	2.106671e+08	
32	-1.60000e+00	2.145690e+08	
33	-1.65000e+00	2.184054e+08	
34	-1.70000e+00	2.221781e+08	
35	-1.75000e+00	2.258886e+08	
36	-1.80000e+00	2.295379e+08	
37	-1.85000e+00	2.331267e+08	
38	-1.90000e+00	2.366552e+08	
39	-1.95000e+00	2.401226e+08	
40	-2.00000e+00	2.435274e+08	
41	-2.05000e+00	2.468668e+08	
42	-2.10000e+00	2.501363e+08	
43	-2.15000e+00	2.533297e+08	
44	-2.20000e+00	2.564384e+08	
45	-2.25000e+00	2.594511e+08	
46	-2.30000e+00	2.623531e+08	
47	-2.35000e+00	2.651262e+08	
48	-2.40000e+00	2.677479e+08	
49	-2.45000e+00	2.701913e+08	
50	-2.50000e+00	2.724243e+08	
51	-2.55000e+00	2.744098e+08	
52	-2.60000e+00	2.761056e+08	
53	-2.65000e+00	2.774646e+08	
54	-2.70000e+00	2.784350e+08	

Index   v-sweep         rds             
--------------------------------------------------------------------------------
55	-2.75000e+00	2.789619e+08	
56	-2.80000e+00	2.789879e+08	
57	-2.85000e+00	2.784555e+08	
58	-2.90000e+00	2.773085e+08	
59	-2.95000e+00	2.754955e+08	
60	-3.00000e+00	2.729718e+08	
61	-3.05000e+00	2.697031e+08	
62	-3.10000e+00	2.656678e+08	
63	-3.15000e+00	2.608596e+08	
64	-3.20000e+00	2.552896e+08	
65	-3.25000e+00	2.489868e+08	
66	-3.30000e+00	2.419984e+08	
Reset re-loads circuit ***************************

Circuit: ***************************

Doing analysis at TEMP = 125.000000 and TNOM = 125.000000


No. of Data Rows : 67
                          ***************************
                          DC transfer characteristic  Mon Jan  9 13:58:26  2023
--------------------------------------------------------------------------------
Index   v-sweep         rds             
--------------------------------------------------------------------------------
0	0.000000e+00	6.274876e+04	
1	-5.00000e-02	6.978268e+04	
2	-1.00000e-01	7.855228e+04	
3	-1.50000e-01	8.978416e+04	
4	-2.00000e-01	1.046681e+05	
5	-2.50000e-01	1.252815e+05	
6	-3.00000e-01	1.555510e+05	
7	-3.50000e-01	2.036356e+05	
8	-4.00000e-01	2.882963e+05	
9	-4.50000e-01	4.556176e+05	
10	-5.00000e-01	8.098097e+05	
11	-5.50000e-01	1.502589e+06	
12	-6.00000e-01	2.567266e+06	
13	-6.50000e-01	3.802444e+06	
14	-7.00000e-01	4.973908e+06	
15	-7.50000e-01	5.986022e+06	
16	-8.00000e-01	6.845322e+06	
17	-8.50000e-01	7.588279e+06	
18	-9.00000e-01	8.249065e+06	
19	-9.50000e-01	8.852685e+06	
20	-1.00000e+00	9.416102e+06	
21	-1.05000e+00	9.950605e+06	
22	-1.10000e+00	1.046374e+07	
23	-1.15000e+00	1.096063e+07	
24	-1.20000e+00	1.144481e+07	
25	-1.25000e+00	1.191876e+07	
26	-1.30000e+00	1.238427e+07	
27	-1.35000e+00	1.284264e+07	
28	-1.40000e+00	1.329484e+07	
29	-1.45000e+00	1.374161e+07	
30	-1.50000e+00	1.418352e+07	
31	-1.55000e+00	1.462100e+07	
32	-1.60000e+00	1.505440e+07	
33	-1.65000e+00	1.548401e+07	
34	-1.70000e+00	1.591005e+07	
35	-1.75000e+00	1.633271e+07	
36	-1.80000e+00	1.675214e+07	
37	-1.85000e+00	1.716847e+07	
38	-1.90000e+00	1.758182e+07	
39	-1.95000e+00	1.799227e+07	
40	-2.00000e+00	1.839988e+07	
41	-2.05000e+00	1.880472e+07	
42	-2.10000e+00	1.920681e+07	
43	-2.15000e+00	1.960613e+07	
44	-2.20000e+00	2.000264e+07	
45	-2.25000e+00	2.039622e+07	
46	-2.30000e+00	2.078668e+07	
47	-2.35000e+00	2.117373e+07	
48	-2.40000e+00	2.155691e+07	
49	-2.45000e+00	2.193560e+07	
50	-2.50000e+00	2.230893e+07	
51	-2.55000e+00	2.267576e+07	
52	-2.60000e+00	2.303460e+07	
53	-2.65000e+00	2.338351e+07	
54	-2.70000e+00	2.372010e+07	

Index   v-sweep         rds             
--------------------------------------------------------------------------------
55	-2.75000e+00	2.404140e+07	
56	-2.80000e+00	2.434384e+07	
57	-2.85000e+00	2.462315e+07	
58	-2.90000e+00	2.487440e+07	
59	-2.95000e+00	2.509192e+07	
60	-3.00000e+00	2.526940e+07	
61	-3.05000e+00	2.539998e+07	
62	-3.10000e+00	2.547636e+07	
63	-3.15000e+00	2.549110e+07	
64	-3.20000e+00	2.543685e+07	
65	-3.25000e+00	2.530676e+07	
66	-3.30000e+00	2.509490e+07	
Reset re-loads circuit ***************************

Circuit: ***************************

Doing analysis at TEMP = 125.000000 and TNOM = 125.000000


No. of Data Rows : 67
                          ***************************
                          DC transfer characteristic  Mon Jan  9 13:58:26  2023
--------------------------------------------------------------------------------
Index   v-sweep         rds             
--------------------------------------------------------------------------------
0	0.000000e+00	3.656893e+04	
1	-5.00000e-02	3.878610e+04	
2	-1.00000e-01	4.128094e+04	
3	-1.50000e-01	4.410901e+04	
4	-2.00000e-01	4.734163e+04	
5	-2.50000e-01	5.107200e+04	
6	-3.00000e-01	5.542412e+04	
7	-3.50000e-01	6.056657e+04	
8	-4.00000e-01	6.673421e+04	
9	-4.50000e-01	7.426372e+04	
10	-5.00000e-01	8.365385e+04	
11	-5.50000e-01	9.567234e+04	
12	-6.00000e-01	1.115543e+05	
13	-6.50000e-01	1.333876e+05	
14	-7.00000e-01	1.648874e+05	
15	-7.50000e-01	2.129550e+05	
16	-8.00000e-01	2.905030e+05	
17	-8.50000e-01	4.196618e+05	
18	-9.00000e-01	6.283267e+05	
19	-9.50000e-01	9.282991e+05	
20	-1.00000e+00	1.290905e+06	
21	-1.05000e+00	1.663301e+06	
22	-1.10000e+00	2.007477e+06	
23	-1.15000e+00	2.311866e+06	
24	-1.20000e+00	2.580210e+06	
25	-1.25000e+00	2.820553e+06	
26	-1.30000e+00	3.040372e+06	
27	-1.35000e+00	3.245379e+06	
28	-1.40000e+00	3.439642e+06	
29	-1.45000e+00	3.625991e+06	
30	-1.50000e+00	3.806397e+06	
31	-1.55000e+00	3.982238e+06	
32	-1.60000e+00	4.154492e+06	
33	-1.65000e+00	4.323865e+06	
34	-1.70000e+00	4.490872e+06	
35	-1.75000e+00	4.655896e+06	
36	-1.80000e+00	4.819224e+06	
37	-1.85000e+00	4.981077e+06	
38	-1.90000e+00	5.141626e+06	
39	-1.95000e+00	5.301003e+06	
40	-2.00000e+00	5.459314e+06	
41	-2.05000e+00	5.616645e+06	
42	-2.10000e+00	5.773065e+06	
43	-2.15000e+00	5.928628e+06	
44	-2.20000e+00	6.083382e+06	
45	-2.25000e+00	6.237364e+06	
46	-2.30000e+00	6.390605e+06	
47	-2.35000e+00	6.543130e+06	
48	-2.40000e+00	6.694956e+06	
49	-2.45000e+00	6.846091e+06	
50	-2.50000e+00	6.996536e+06	
51	-2.55000e+00	7.146274e+06	
52	-2.60000e+00	7.295272e+06	
53	-2.65000e+00	7.443469e+06	
54	-2.70000e+00	7.590769e+06	

Index   v-sweep         rds             
--------------------------------------------------------------------------------
55	-2.75000e+00	7.737030e+06	
56	-2.80000e+00	7.882044e+06	
57	-2.85000e+00	8.025527e+06	
58	-2.90000e+00	8.167091e+06	
59	-2.95000e+00	8.306225e+06	
60	-3.00000e+00	8.442268e+06	
61	-3.05000e+00	8.574379e+06	
62	-3.10000e+00	8.701510e+06	
63	-3.15000e+00	8.822377e+06	
64	-3.20000e+00	8.935440e+06	
65	-3.25000e+00	9.038879e+06	
66	-3.30000e+00	9.130592e+06	
Reset re-loads circuit ***************************

Circuit: ***************************

Doing analysis at TEMP = 125.000000 and TNOM = 125.000000


No. of Data Rows : 67
                          ***************************
                          DC transfer characteristic  Mon Jan  9 13:58:26  2023
--------------------------------------------------------------------------------
Index   v-sweep         rds             
--------------------------------------------------------------------------------
0	0.000000e+00	2.696243e+04	
1	-5.00000e-02	2.808177e+04	
2	-1.00000e-01	2.929437e+04	
3	-1.50000e-01	3.061236e+04	
4	-2.00000e-01	3.205010e+04	
5	-2.50000e-01	3.362465e+04	
6	-3.00000e-01	3.535648e+04	
7	-3.50000e-01	3.727035e+04	
8	-4.00000e-01	3.939648e+04	
9	-4.50000e-01	4.177215e+04	
10	-5.00000e-01	4.444387e+04	
11	-5.50000e-01	4.747043e+04	
12	-6.00000e-01	5.092713e+04	
13	-6.50000e-01	5.491202e+04	
14	-7.00000e-01	5.955503e+04	
15	-7.50000e-01	6.503177e+04	
16	-8.00000e-01	7.158504e+04	
17	-8.50000e-01	7.955907e+04	
18	-9.00000e-01	8.945585e+04	
19	-9.50000e-01	1.020302e+05	
20	-1.00000e+00	1.184542e+05	
21	-1.05000e+00	1.406020e+05	
22	-1.10000e+00	1.715280e+05	
23	-1.15000e+00	2.161631e+05	
24	-1.20000e+00	2.818958e+05	
25	-1.25000e+00	3.776318e+05	
26	-1.30000e+00	5.089939e+05	
27	-1.35000e+00	6.710660e+05	
28	-1.40000e+00	8.477915e+05	
29	-1.45000e+00	1.021648e+06	
30	-1.50000e+00	1.182404e+06	
31	-1.55000e+00	1.327594e+06	
32	-1.60000e+00	1.458902e+06	
33	-1.65000e+00	1.579201e+06	
34	-1.70000e+00	1.691189e+06	
35	-1.75000e+00	1.797003e+06	
36	-1.80000e+00	1.898224e+06	
37	-1.85000e+00	1.995993e+06	
38	-1.90000e+00	2.091126e+06	
39	-1.95000e+00	2.184211e+06	
40	-2.00000e+00	2.275676e+06	
41	-2.05000e+00	2.365833e+06	
42	-2.10000e+00	2.454916e+06	
43	-2.15000e+00	2.543098e+06	
44	-2.20000e+00	2.630514e+06	
45	-2.25000e+00	2.717267e+06	
46	-2.30000e+00	2.803436e+06	
47	-2.35000e+00	2.889085e+06	
48	-2.40000e+00	2.974265e+06	
49	-2.45000e+00	3.059016e+06	
50	-2.50000e+00	3.143370e+06	
51	-2.55000e+00	3.227355e+06	
52	-2.60000e+00	3.310993e+06	
53	-2.65000e+00	3.394302e+06	
54	-2.70000e+00	3.477296e+06	

Index   v-sweep         rds             
--------------------------------------------------------------------------------
55	-2.75000e+00	3.559986e+06	
56	-2.80000e+00	3.642379e+06	
57	-2.85000e+00	3.724478e+06	
58	-2.90000e+00	3.806277e+06	
59	-2.95000e+00	3.887765e+06	
60	-3.00000e+00	3.968917e+06	
61	-3.05000e+00	4.049693e+06	
62	-3.10000e+00	4.130031e+06	
63	-3.15000e+00	4.209837e+06	
64	-3.20000e+00	4.288983e+06	
65	-3.25000e+00	4.367291e+06	
66	-3.30000e+00	4.444519e+06	
Reset re-loads circuit ***************************

Circuit: ***************************

Doing analysis at TEMP = 125.000000 and TNOM = 125.000000


No. of Data Rows : 67
                          ***************************
                          DC transfer characteristic  Mon Jan  9 13:58:26  2023
--------------------------------------------------------------------------------
Index   v-sweep         rds             
--------------------------------------------------------------------------------
0	0.000000e+00	2.161057e+04	
1	-5.00000e-02	2.228080e+04	
2	-1.00000e-01	2.299192e+04	
3	-1.50000e-01	2.374776e+04	
4	-2.00000e-01	2.455270e+04	
5	-2.50000e-01	2.541166e+04	
6	-3.00000e-01	2.633025e+04	
7	-3.50000e-01	2.731492e+04	
8	-4.00000e-01	2.837304e+04	
9	-4.50000e-01	2.951313e+04	
10	-5.00000e-01	3.074510e+04	
11	-5.50000e-01	3.208049e+04	
12	-6.00000e-01	3.353287e+04	
13	-6.50000e-01	3.511828e+04	
14	-7.00000e-01	3.685582e+04	
15	-7.50000e-01	3.876844e+04	
16	-8.00000e-01	4.088389e+04	
17	-8.50000e-01	4.323610e+04	
18	-9.00000e-01	4.586697e+04	
19	-9.50000e-01	4.882880e+04	
20	-1.00000e+00	5.218770e+04	
21	-1.05000e+00	5.602840e+04	
22	-1.10000e+00	6.046114e+04	
23	-1.15000e+00	6.563175e+04	
24	-1.20000e+00	7.173668e+04	
25	-1.25000e+00	7.904587e+04	
26	-1.30000e+00	8.793813e+04	
27	-1.35000e+00	9.895641e+04	
28	-1.40000e+00	1.128942e+05	
29	-1.45000e+00	1.309270e+05	
30	-1.50000e+00	1.547945e+05	
31	-1.55000e+00	1.869924e+05	
32	-1.60000e+00	2.307790e+05	
33	-1.65000e+00	2.895296e+05	
34	-1.70000e+00	3.649417e+05	
35	-1.75000e+00	4.547796e+05	
36	-1.80000e+00	5.526521e+05	
37	-1.85000e+00	6.510042e+05	
38	-1.90000e+00	7.445096e+05	
39	-1.95000e+00	8.310323e+05	
40	-2.00000e+00	9.106487e+05	
41	-2.05000e+00	9.843950e+05	
42	-2.10000e+00	1.053492e+06	
43	-2.15000e+00	1.119017e+06	
44	-2.20000e+00	1.181827e+06	
45	-2.25000e+00	1.242565e+06	
46	-2.30000e+00	1.301708e+06	
47	-2.35000e+00	1.359609e+06	
48	-2.40000e+00	1.416525e+06	
49	-2.45000e+00	1.472651e+06	
50	-2.50000e+00	1.528130e+06	
51	-2.55000e+00	1.583072e+06	
52	-2.60000e+00	1.637561e+06	
53	-2.65000e+00	1.691661e+06	
54	-2.70000e+00	1.745423e+06	

Index   v-sweep         rds             
--------------------------------------------------------------------------------
55	-2.75000e+00	1.798888e+06	
56	-2.80000e+00	1.852086e+06	
57	-2.85000e+00	1.905043e+06	
58	-2.90000e+00	1.957781e+06	
59	-2.95000e+00	2.010317e+06	
60	-3.00000e+00	2.062663e+06	
61	-3.05000e+00	2.114832e+06	
62	-3.10000e+00	2.166833e+06	
63	-3.15000e+00	2.218672e+06	
64	-3.20000e+00	2.270354e+06	
65	-3.25000e+00	2.321882e+06	
66	-3.30000e+00	2.373253e+06	
Reset re-loads circuit ***************************

Circuit: ***************************

Doing analysis at TEMP = 125.000000 and TNOM = 125.000000


No. of Data Rows : 67
                          ***************************
                          DC transfer characteristic  Mon Jan  9 13:58:27  2023
--------------------------------------------------------------------------------
Index   v-sweep         rds             
--------------------------------------------------------------------------------
0	0.000000e+00	1.842507e+04	
1	-5.00000e-02	1.887981e+04	
2	-1.00000e-01	1.935629e+04	
3	-1.50000e-01	1.985610e+04	
4	-2.00000e-01	2.038100e+04	
5	-2.50000e-01	2.093291e+04	
6	-3.00000e-01	2.151399e+04	
7	-3.50000e-01	2.212659e+04	
8	-4.00000e-01	2.277335e+04	
9	-4.50000e-01	2.345720e+04	
10	-5.00000e-01	2.418144e+04	
11	-5.50000e-01	2.494973e+04	
12	-6.00000e-01	2.576622e+04	
13	-6.50000e-01	2.663558e+04	
14	-7.00000e-01	2.756311e+04	
15	-7.50000e-01	2.855485e+04	
16	-8.00000e-01	2.961768e+04	
17	-8.50000e-01	3.075952e+04	
18	-9.00000e-01	3.198950e+04	
19	-9.50000e-01	3.331821e+04	
20	-1.00000e+00	3.475800e+04	
21	-1.05000e+00	3.632337e+04	
22	-1.10000e+00	3.803144e+04	
23	-1.15000e+00	3.990256e+04	
24	-1.20000e+00	4.196115e+04	
25	-1.25000e+00	4.423669e+04	
26	-1.30000e+00	4.676514e+04	
27	-1.35000e+00	4.959078e+04	
28	-1.40000e+00	5.276871e+04	
29	-1.45000e+00	5.636829e+04	
30	-1.50000e+00	6.047793e+04	
31	-1.55000e+00	6.521186e+04	
32	-1.60000e+00	7.071980e+04	
33	-1.65000e+00	7.720096e+04	
34	-1.70000e+00	8.492444e+04	
35	-1.75000e+00	9.425894e+04	
36	-1.80000e+00	1.057152e+05	
37	-1.85000e+00	1.200036e+05	
38	-1.90000e+00	1.381022e+05	
39	-1.95000e+00	1.613084e+05	
40	-2.00000e+00	1.911928e+05	
41	-2.05000e+00	2.293029e+05	
42	-2.10000e+00	2.764710e+05	
43	-2.15000e+00	3.319275e+05	
44	-2.20000e+00	3.929863e+05	
45	-2.25000e+00	4.559356e+05	
46	-2.30000e+00	5.175419e+05	
47	-2.35000e+00	5.759457e+05	
48	-2.40000e+00	6.305934e+05	
49	-2.45000e+00	6.817183e+05	
50	-2.50000e+00	7.298690e+05	
51	-2.55000e+00	7.756364e+05	
52	-2.60000e+00	8.195391e+05	
53	-2.65000e+00	8.619941e+05	
54	-2.70000e+00	9.033231e+05	

Index   v-sweep         rds             
--------------------------------------------------------------------------------
55	-2.75000e+00	9.437696e+05	
56	-2.80000e+00	9.835168e+05	
57	-2.85000e+00	1.022703e+06	
58	-2.90000e+00	1.061433e+06	
59	-2.95000e+00	1.099785e+06	
60	-3.00000e+00	1.137822e+06	
61	-3.05000e+00	1.175592e+06	
62	-3.10000e+00	1.213130e+06	
63	-3.15000e+00	1.250467e+06	
64	-3.20000e+00	1.287625e+06	
65	-3.25000e+00	1.324625e+06	
66	-3.30000e+00	1.361481e+06	
Reset re-loads circuit ***************************

Circuit: ***************************

Note: No ".plot", ".print", or ".fourier" lines; no simulations run
