
Note: Compatibility modes selected: hs

Warning: m=xx on .subckt line will override multiplier m hierarchy!


Circuit: ***************************

Doing analysis at TEMP = 125.000000 and TNOM = 125.000000


No. of Data Rows : 67
                          ***************************
                          DC transfer characteristic  Mon Jan  9 13:58:27  2023
--------------------------------------------------------------------------------
Index   v-sweep         rds             
--------------------------------------------------------------------------------
0	0.000000e+00	5.190625e+06	
1	-5.00000e-02	8.064036e+06	
2	-1.00000e-01	1.642689e+07	
3	-1.50000e-01	5.353435e+07	
4	-2.00000e-01	2.136138e+08	
5	-2.50000e-01	6.522112e+08	
6	-3.00000e-01	1.451056e+09	
7	-3.50000e-01	2.546962e+09	
8	-4.00000e-01	3.790297e+09	
9	-4.50000e-01	5.041419e+09	
10	-5.00000e-01	6.216873e+09	
11	-5.50000e-01	7.284465e+09	
12	-6.00000e-01	8.242159e+09	
13	-6.50000e-01	9.101027e+09	
14	-7.00000e-01	9.875757e+09	
15	-7.50000e-01	1.058046e+10	
16	-8.00000e-01	1.122722e+10	
17	-8.50000e-01	1.182590e+10	
18	-9.00000e-01	1.238435e+10	
19	-9.50000e-01	1.290881e+10	
20	-1.00000e+00	1.340421e+10	
21	-1.05000e+00	1.387447e+10	
22	-1.10000e+00	1.432274e+10	
23	-1.15000e+00	1.475157e+10	
24	-1.20000e+00	1.516304e+10	
25	-1.25000e+00	1.555888e+10	
26	-1.30000e+00	1.594051e+10	
27	-1.35000e+00	1.630915e+10	
28	-1.40000e+00	1.666582e+10	
29	-1.45000e+00	1.701140e+10	
30	-1.50000e+00	1.734667e+10	
31	-1.55000e+00	1.767228e+10	
32	-1.60000e+00	1.798882e+10	
33	-1.65000e+00	1.829680e+10	
34	-1.70000e+00	1.859667e+10	
35	-1.75000e+00	1.888882e+10	
36	-1.80000e+00	1.917358e+10	
37	-1.85000e+00	1.945124e+10	
38	-1.90000e+00	1.972199e+10	
39	-1.95000e+00	1.998597e+10	
40	-2.00000e+00	2.024323e+10	
41	-2.05000e+00	2.049371e+10	
42	-2.10000e+00	2.073723e+10	
43	-2.15000e+00	2.097347e+10	
44	-2.20000e+00	2.120193e+10	
45	-2.25000e+00	2.142190e+10	
46	-2.30000e+00	2.163245e+10	
47	-2.35000e+00	2.183237e+10	
48	-2.40000e+00	2.202017e+10	
49	-2.45000e+00	2.219404e+10	
50	-2.50000e+00	2.235181e+10	
51	-2.55000e+00	2.249097e+10	
52	-2.60000e+00	2.260864e+10	
53	-2.65000e+00	2.270161e+10	
54	-2.70000e+00	2.276636e+10	

Index   v-sweep         rds             
--------------------------------------------------------------------------------
55	-2.75000e+00	2.279910e+10	
56	-2.80000e+00	2.279588e+10	
57	-2.85000e+00	2.275269e+10	
58	-2.90000e+00	2.266558e+10	
59	-2.95000e+00	2.253084e+10	
60	-3.00000e+00	2.234518e+10	
61	-3.05000e+00	2.210589e+10	
62	-3.10000e+00	2.181107e+10	
63	-3.15000e+00	2.145977e+10	
64	-3.20000e+00	2.105215e+10	
65	-3.25000e+00	2.058956e+10	
66	-3.30000e+00	2.007457e+10	
Reset re-loads circuit ***************************

Circuit: ***************************

Doing analysis at TEMP = 125.000000 and TNOM = 125.000000


No. of Data Rows : 67
                          ***************************
                          DC transfer characteristic  Mon Jan  9 13:58:27  2023
--------------------------------------------------------------------------------
Index   v-sweep         rds             
--------------------------------------------------------------------------------
0	0.000000e+00	1.253561e+06	
1	-5.00000e-02	1.405929e+06	
2	-1.00000e-01	1.600133e+06	
3	-1.50000e-01	1.855935e+06	
4	-2.00000e-01	2.207549e+06	
5	-2.50000e-01	2.719123e+06	
6	-3.00000e-01	3.523517e+06	
7	-3.50000e-01	4.930497e+06	
8	-4.00000e-01	7.751898e+06	
9	-4.50000e-01	1.421344e+07	
10	-5.00000e-01	2.958961e+07	
11	-5.50000e-01	6.229513e+07	
12	-6.00000e-01	1.193257e+08	
13	-6.50000e-01	2.007940e+08	
14	-7.00000e-01	2.997984e+08	
15	-7.50000e-01	4.069112e+08	
16	-8.00000e-01	5.143777e+08	
17	-8.50000e-01	6.175739e+08	
18	-9.00000e-01	7.145170e+08	
19	-9.50000e-01	8.048461e+08	
20	-1.00000e+00	8.889963e+08	
21	-1.05000e+00	9.677003e+08	
22	-1.10000e+00	1.041734e+09	
23	-1.15000e+00	1.111810e+09	
24	-1.20000e+00	1.178537e+09	
25	-1.25000e+00	1.242423e+09	
26	-1.30000e+00	1.303881e+09	
27	-1.35000e+00	1.363250e+09	
28	-1.40000e+00	1.420802e+09	
29	-1.45000e+00	1.476760e+09	
30	-1.50000e+00	1.531305e+09	
31	-1.55000e+00	1.584588e+09	
32	-1.60000e+00	1.636732e+09	
33	-1.65000e+00	1.687840e+09	
34	-1.70000e+00	1.737998e+09	
35	-1.75000e+00	1.787279e+09	
36	-1.80000e+00	1.835746e+09	
37	-1.85000e+00	1.883450e+09	
38	-1.90000e+00	1.930437e+09	
39	-1.95000e+00	1.976745e+09	
40	-2.00000e+00	2.022409e+09	
41	-2.05000e+00	2.067453e+09	
42	-2.10000e+00	2.111900e+09	
43	-2.15000e+00	2.155763e+09	
44	-2.20000e+00	2.199050e+09	
45	-2.25000e+00	2.241758e+09	
46	-2.30000e+00	2.283870e+09	
47	-2.35000e+00	2.325358e+09	
48	-2.40000e+00	2.366171e+09	
49	-2.45000e+00	2.406238e+09	
50	-2.50000e+00	2.445455e+09	
51	-2.55000e+00	2.483684e+09	
52	-2.60000e+00	2.520748e+09	
53	-2.65000e+00	2.556417e+09	
54	-2.70000e+00	2.590408e+09	

Index   v-sweep         rds             
--------------------------------------------------------------------------------
55	-2.75000e+00	2.622376e+09	
56	-2.80000e+00	2.651908e+09	
57	-2.85000e+00	2.678521e+09	
58	-2.90000e+00	2.701661e+09	
59	-2.95000e+00	2.720707e+09	
60	-3.00000e+00	2.734978e+09	
61	-3.05000e+00	2.743748e+09	
62	-3.10000e+00	2.746267e+09	
63	-3.15000e+00	2.741790e+09	
64	-3.20000e+00	2.729609e+09	
65	-3.25000e+00	2.709098e+09	
66	-3.30000e+00	2.679750e+09	
Reset re-loads circuit ***************************

Circuit: ***************************

Doing analysis at TEMP = 125.000000 and TNOM = 125.000000


No. of Data Rows : 67
                          ***************************
                          DC transfer characteristic  Mon Jan  9 13:58:27  2023
--------------------------------------------------------------------------------
Index   v-sweep         rds             
--------------------------------------------------------------------------------
0	0.000000e+00	7.236402e+05	
1	-5.00000e-02	7.715364e+05	
2	-1.00000e-01	8.261813e+05	
3	-1.50000e-01	8.891057e+05	
4	-2.00000e-01	9.623393e+05	
5	-2.50000e-01	1.048630e+06	
6	-3.00000e-01	1.151790e+06	
7	-3.50000e-01	1.277259e+06	
8	-4.00000e-01	1.433055e+06	
9	-4.50000e-01	1.631478e+06	
10	-5.00000e-01	1.892270e+06	
11	-5.50000e-01	2.248912e+06	
12	-6.00000e-01	2.761867e+06	
13	-6.50000e-01	3.548164e+06	
14	-7.00000e-01	4.849490e+06	
15	-7.50000e-01	7.182344e+06	
16	-8.00000e-01	1.160249e+07	
17	-8.50000e-01	1.991489e+07	
18	-9.00000e-01	3.428701e+07	
19	-9.50000e-01	5.605307e+07	
20	-1.00000e+00	8.471164e+07	
21	-1.05000e+00	1.181685e+08	
22	-1.10000e+00	1.538591e+08	
23	-1.15000e+00	1.897010e+08	
24	-1.20000e+00	2.244167e+08	
25	-1.25000e+00	2.574164e+08	
26	-1.30000e+00	2.885527e+08	
27	-1.35000e+00	3.179107e+08	
28	-1.40000e+00	3.456736e+08	
29	-1.45000e+00	3.720501e+08	
30	-1.50000e+00	3.972394e+08	
31	-1.55000e+00	4.214170e+08	
32	-1.60000e+00	4.447325e+08	
33	-1.65000e+00	4.673100e+08	
34	-1.70000e+00	4.892522e+08	
35	-1.75000e+00	5.106431e+08	
36	-1.80000e+00	5.315518e+08	
37	-1.85000e+00	5.520353e+08	
38	-1.90000e+00	5.721404e+08	
39	-1.95000e+00	5.919063e+08	
40	-2.00000e+00	6.113652e+08	
41	-2.05000e+00	6.305447e+08	
42	-2.10000e+00	6.494675e+08	
43	-2.15000e+00	6.681533e+08	
44	-2.20000e+00	6.866184e+08	
45	-2.25000e+00	7.048771e+08	
46	-2.30000e+00	7.229411e+08	
47	-2.35000e+00	7.408201e+08	
48	-2.40000e+00	7.585221e+08	
49	-2.45000e+00	7.760526e+08	
50	-2.50000e+00	7.934145e+08	
51	-2.55000e+00	8.106079e+08	
52	-2.60000e+00	8.276288e+08	
53	-2.65000e+00	8.444681e+08	
54	-2.70000e+00	8.611105e+08	

Index   v-sweep         rds             
--------------------------------------------------------------------------------
55	-2.75000e+00	8.775325e+08	
56	-2.80000e+00	8.937003e+08	
57	-2.85000e+00	9.095676e+08	
58	-2.90000e+00	9.250727e+08	
59	-2.95000e+00	9.401360e+08	
60	-3.00000e+00	9.546563e+08	
61	-3.05000e+00	9.685083e+08	
62	-3.10000e+00	9.815398e+08	
63	-3.15000e+00	9.935692e+08	
64	-3.20000e+00	1.004385e+09	
65	-3.25000e+00	1.013744e+09	
66	-3.30000e+00	1.021375e+09	
Reset re-loads circuit ***************************

Circuit: ***************************

Doing analysis at TEMP = 125.000000 and TNOM = 125.000000


No. of Data Rows : 67
                          ***************************
                          DC transfer characteristic  Mon Jan  9 13:58:27  2023
--------------------------------------------------------------------------------
Index   v-sweep         rds             
--------------------------------------------------------------------------------
0	0.000000e+00	5.148775e+05	
1	-5.00000e-02	5.378659e+05	
2	-1.00000e-01	5.629873e+05	
3	-1.50000e-01	5.905528e+05	
4	-2.00000e-01	6.209370e+05	
5	-2.50000e-01	6.545948e+05	
6	-3.00000e-01	6.920845e+05	
7	-3.50000e-01	7.340986e+05	
8	-4.00000e-01	7.815064e+05	
9	-4.50000e-01	8.354141e+05	
10	-5.00000e-01	8.972507e+05	
11	-5.50000e-01	9.688942e+05	
12	-6.00000e-01	1.052860e+06	
13	-6.50000e-01	1.152593e+06	
14	-7.00000e-01	1.272929e+06	
15	-7.50000e-01	1.420859e+06	
16	-8.00000e-01	1.606825e+06	
17	-8.50000e-01	1.847030e+06	
18	-9.00000e-01	2.167703e+06	
19	-9.50000e-01	2.613317e+06	
20	-1.00000e+00	3.262788e+06	
21	-1.05000e+00	4.261256e+06	
22	-1.10000e+00	5.877572e+06	
23	-1.15000e+00	8.584789e+06	
24	-1.20000e+00	1.310174e+07	
25	-1.25000e+00	2.025095e+07	
26	-1.30000e+00	3.057303e+07	
27	-1.35000e+00	4.395850e+07	
28	-1.40000e+00	5.965390e+07	
29	-1.45000e+00	7.662326e+07	
30	-1.50000e+00	9.393553e+07	
31	-1.55000e+00	1.109528e+08	
32	-1.60000e+00	1.273311e+08	
33	-1.65000e+00	1.429387e+08	
34	-1.70000e+00	1.577697e+08	
35	-1.75000e+00	1.718801e+08	
36	-1.80000e+00	1.853502e+08	
37	-1.85000e+00	1.982639e+08	
38	-1.90000e+00	2.106989e+08	
39	-1.95000e+00	2.227238e+08	
40	-2.00000e+00	2.343967e+08	
41	-2.05000e+00	2.457666e+08	
42	-2.10000e+00	2.568740e+08	
43	-2.15000e+00	2.677526e+08	
44	-2.20000e+00	2.784302e+08	
45	-2.25000e+00	2.889299e+08	
46	-2.30000e+00	2.992712e+08	
47	-2.35000e+00	3.094700e+08	
48	-2.40000e+00	3.195399e+08	
49	-2.45000e+00	3.294923e+08	
50	-2.50000e+00	3.393368e+08	
51	-2.55000e+00	3.490817e+08	
52	-2.60000e+00	3.587340e+08	
53	-2.65000e+00	3.682994e+08	
54	-2.70000e+00	3.777828e+08	

Index   v-sweep         rds             
--------------------------------------------------------------------------------
55	-2.75000e+00	3.871880e+08	
56	-2.80000e+00	3.965178e+08	
57	-2.85000e+00	4.057738e+08	
58	-2.90000e+00	4.149558e+08	
59	-2.95000e+00	4.240618e+08	
60	-3.00000e+00	4.330874e+08	
61	-3.05000e+00	4.420249e+08	
62	-3.10000e+00	4.508623e+08	
63	-3.15000e+00	4.595825e+08	
64	-3.20000e+00	4.681619e+08	
65	-3.25000e+00	4.765688e+08	
66	-3.30000e+00	4.847620e+08	
Reset re-loads circuit ***************************

Circuit: ***************************

Doing analysis at TEMP = 125.000000 and TNOM = 125.000000


No. of Data Rows : 67
                          ***************************
                          DC transfer characteristic  Mon Jan  9 13:58:27  2023
--------------------------------------------------------------------------------
Index   v-sweep         rds             
--------------------------------------------------------------------------------
0	0.000000e+00	4.014670e+05	
1	-5.00000e-02	4.147509e+05	
2	-1.00000e-01	4.289357e+05	
3	-1.50000e-01	4.441162e+05	
4	-2.00000e-01	4.604008e+05	
5	-2.50000e-01	4.779148e+05	
6	-3.00000e-01	4.968024e+05	
7	-3.50000e-01	5.172319e+05	
8	-4.00000e-01	5.394000e+05	
9	-4.50000e-01	5.635380e+05	
10	-5.00000e-01	5.899204e+05	
11	-5.50000e-01	6.188750e+05	
12	-6.00000e-01	6.507965e+05	
13	-6.50000e-01	6.861642e+05	
14	-7.00000e-01	7.255665e+05	
15	-7.50000e-01	7.697328e+05	
16	-8.00000e-01	8.195783e+05	
17	-8.50000e-01	8.762673e+05	
18	-9.00000e-01	9.413020e+05	
19	-9.50000e-01	1.016653e+06	
20	-1.00000e+00	1.104956e+06	
21	-1.05000e+00	1.209803e+06	
22	-1.10000e+00	1.336218e+06	
23	-1.15000e+00	1.491402e+06	
24	-1.20000e+00	1.685992e+06	
25	-1.25000e+00	1.936206e+06	
26	-1.30000e+00	2.267626e+06	
27	-1.35000e+00	2.721934e+06	
28	-1.40000e+00	3.368836e+06	
29	-1.45000e+00	4.325936e+06	
30	-1.50000e+00	5.786654e+06	
31	-1.55000e+00	8.043470e+06	
32	-1.60000e+00	1.146826e+07	
33	-1.65000e+00	1.640441e+07	
34	-1.70000e+00	2.299472e+07	
35	-1.75000e+00	3.107246e+07	
36	-1.80000e+00	4.021745e+07	
37	-1.85000e+00	4.992661e+07	
38	-1.90000e+00	5.976806e+07	
39	-1.95000e+00	6.944847e+07	
40	-2.00000e+00	7.880753e+07	
41	-2.05000e+00	8.778141e+07	
42	-2.10000e+00	9.636475e+07	
43	-2.15000e+00	1.045825e+08	
44	-2.20000e+00	1.124721e+08	
45	-2.25000e+00	1.200739e+08	
46	-2.30000e+00	1.274263e+08	
47	-2.35000e+00	1.345633e+08	
48	-2.40000e+00	1.415145e+08	
49	-2.45000e+00	1.483050e+08	
50	-2.50000e+00	1.549559e+08	
51	-2.55000e+00	1.614847e+08	
52	-2.60000e+00	1.679062e+08	
53	-2.65000e+00	1.742327e+08	
54	-2.70000e+00	1.804746e+08	

Index   v-sweep         rds             
--------------------------------------------------------------------------------
55	-2.75000e+00	1.866404e+08	
56	-2.80000e+00	1.927375e+08	
57	-2.85000e+00	1.987721e+08	
58	-2.90000e+00	2.047495e+08	
59	-2.95000e+00	2.106740e+08	
60	-3.00000e+00	2.165496e+08	
61	-3.05000e+00	2.223793e+08	
62	-3.10000e+00	2.281658e+08	
63	-3.15000e+00	2.339110e+08	
64	-3.20000e+00	2.396164e+08	
65	-3.25000e+00	2.452824e+08	
66	-3.30000e+00	2.509087e+08	
Reset re-loads circuit ***************************

Circuit: ***************************

Doing analysis at TEMP = 125.000000 and TNOM = 125.000000


No. of Data Rows : 67
                          ***************************
                          DC transfer characteristic  Mon Jan  9 13:58:27  2023
--------------------------------------------------------------------------------
Index   v-sweep         rds             
--------------------------------------------------------------------------------
0	0.000000e+00	3.319392e+05	
1	-5.00000e-02	3.405896e+05	
2	-1.00000e-01	3.496977e+05	
3	-1.50000e-01	3.593009e+05	
4	-2.00000e-01	3.694405e+05	
5	-2.50000e-01	3.801627e+05	
6	-3.00000e-01	3.915194e+05	
7	-3.50000e-01	4.035685e+05	
8	-4.00000e-01	4.163753e+05	
9	-4.50000e-01	4.300135e+05	
10	-5.00000e-01	4.445667e+05	
11	-5.50000e-01	4.601303e+05	
12	-6.00000e-01	4.768130e+05	
13	-6.50000e-01	4.947401e+05	
14	-7.00000e-01	5.140559e+05	
15	-7.50000e-01	5.349280e+05	
16	-8.00000e-01	5.575523e+05	
17	-8.50000e-01	5.821587e+05	
18	-9.00000e-01	6.090188e+05	
19	-9.50000e-01	6.384565e+05	
20	-1.00000e+00	6.708602e+05	
21	-1.05000e+00	7.067005e+05	
22	-1.10000e+00	7.465520e+05	
23	-1.15000e+00	7.911245e+05	
24	-1.20000e+00	8.413037e+05	
25	-1.25000e+00	8.982094e+05	
26	-1.30000e+00	9.632768e+05	
27	-1.35000e+00	1.038373e+06	
28	-1.40000e+00	1.125969e+06	
29	-1.45000e+00	1.229397e+06	
30	-1.50000e+00	1.353242e+06	
31	-1.55000e+00	1.503960e+06	
32	-1.60000e+00	1.690869e+06	
33	-1.65000e+00	1.927758e+06	
34	-1.70000e+00	2.235569e+06	
35	-1.75000e+00	2.646800e+06	
36	-1.80000e+00	3.212582e+06	
37	-1.85000e+00	4.013015e+06	
38	-1.90000e+00	5.169205e+06	
39	-1.95000e+00	6.849105e+06	
40	-2.00000e+00	9.250197e+06	
41	-2.05000e+00	1.254363e+07	
42	-2.10000e+00	1.679447e+07	
43	-2.15000e+00	2.191198e+07	
44	-2.20000e+00	2.767387e+07	
45	-2.25000e+00	3.380633e+07	
46	-2.30000e+00	4.006322e+07	
47	-2.35000e+00	4.626692e+07	
48	-2.40000e+00	5.231182e+07	
49	-2.45000e+00	5.814855e+07	
50	-2.50000e+00	6.376434e+07	
51	-2.55000e+00	6.916711e+07	
52	-2.60000e+00	7.437470e+07	
53	-2.65000e+00	7.940847e+07	
54	-2.70000e+00	8.428981e+07	

Index   v-sweep         rds             
--------------------------------------------------------------------------------
55	-2.75000e+00	8.903847e+07	
56	-2.80000e+00	9.367195e+07	
57	-2.85000e+00	9.820535e+07	
58	-2.90000e+00	1.026515e+08	
59	-2.95000e+00	1.070214e+08	
60	-3.00000e+00	1.113241e+08	
61	-3.05000e+00	1.155674e+08	
62	-3.10000e+00	1.197577e+08	
63	-3.15000e+00	1.239006e+08	
64	-3.20000e+00	1.280008e+08	
65	-3.25000e+00	1.320621e+08	
66	-3.30000e+00	1.360879e+08	
Reset re-loads circuit ***************************

Circuit: ***************************

Note: No ".plot", ".print", or ".fourier" lines; no simulations run
