
Note: Compatibility modes selected: hs

Warning: m=xx on .subckt line will override multiplier m hierarchy!


Circuit: ***************************

Doing analysis at TEMP = -40.000000 and TNOM = -40.000000


No. of Data Rows : 67
                          ***************************
                          DC transfer characteristic  Mon Jan  9 13:58:26  2023
--------------------------------------------------------------------------------
Index   v-sweep         rds             
--------------------------------------------------------------------------------
0	0.000000e+00	1.794475e+07	
1	-5.00000e-02	2.198225e+08	
2	-1.00000e-01	2.056862e+09	
3	-1.50000e-01	7.722815e+09	
4	-2.00000e-01	1.791685e+10	
5	-2.50000e-01	3.133929e+10	
6	-3.00000e-01	4.579862e+10	
7	-3.50000e-01	5.952890e+10	
8	-4.00000e-01	7.164764e+10	
9	-4.50000e-01	8.195131e+10	
10	-5.00000e-01	9.058087e+10	
11	-5.50000e-01	9.779396e+10	
12	-6.00000e-01	1.038541e+11	
13	-6.50000e-01	1.089898e+11	
14	-7.00000e-01	1.133862e+11	
15	-7.50000e-01	1.171886e+11	
16	-8.00000e-01	1.205102e+11	
17	-8.50000e-01	1.234389e+11	
18	-9.00000e-01	1.260431e+11	
19	-9.50000e-01	1.283766e+11	
20	-1.00000e+00	1.304821e+11	
21	-1.05000e+00	1.323937e+11	
22	-1.10000e+00	1.341390e+11	
23	-1.15000e+00	1.357403e+11	
24	-1.20000e+00	1.372162e+11	
25	-1.25000e+00	1.385819e+11	
26	-1.30000e+00	1.398505e+11	
27	-1.35000e+00	1.410326e+11	
28	-1.40000e+00	1.421376e+11	
29	-1.45000e+00	1.431732e+11	
30	-1.50000e+00	1.441464e+11	
31	-1.55000e+00	1.450628e+11	
32	-1.60000e+00	1.459277e+11	
33	-1.65000e+00	1.467455e+11	
34	-1.70000e+00	1.475199e+11	
35	-1.75000e+00	1.482544e+11	
36	-1.80000e+00	1.489518e+11	
37	-1.85000e+00	1.496146e+11	
38	-1.90000e+00	1.502447e+11	
39	-1.95000e+00	1.508437e+11	
40	-2.00000e+00	1.514129e+11	
41	-2.05000e+00	1.519528e+11	
42	-2.10000e+00	1.524638e+11	
43	-2.15000e+00	1.529456e+11	
44	-2.20000e+00	1.533974e+11	
45	-2.25000e+00	1.538180e+11	
46	-2.30000e+00	1.542052e+11	
47	-2.35000e+00	1.545567e+11	
48	-2.40000e+00	1.548692e+11	
49	-2.45000e+00	1.551387e+11	
50	-2.50000e+00	1.553606e+11	
51	-2.55000e+00	1.555296e+11	
52	-2.60000e+00	1.556397e+11	
53	-2.65000e+00	1.556842e+11	
54	-2.70000e+00	1.556558e+11	

Index   v-sweep         rds             
--------------------------------------------------------------------------------
55	-2.75000e+00	1.555465e+11	
56	-2.80000e+00	1.553480e+11	
57	-2.85000e+00	1.550515e+11	
58	-2.90000e+00	1.546481e+11	
59	-2.95000e+00	1.541285e+11	
60	-3.00000e+00	1.534839e+11	
61	-3.05000e+00	1.527056e+11	
62	-3.10000e+00	1.517852e+11	
63	-3.15000e+00	1.507155e+11	
64	-3.20000e+00	1.494899e+11	
65	-3.25000e+00	1.481031e+11	
66	-3.30000e+00	1.465511e+11	
Reset re-loads circuit ***************************

Circuit: ***************************

Doing analysis at TEMP = -40.000000 and TNOM = -40.000000


No. of Data Rows : 67
                          ***************************
                          DC transfer characteristic  Mon Jan  9 13:58:26  2023
--------------------------------------------------------------------------------
Index   v-sweep         rds             
--------------------------------------------------------------------------------
0	0.000000e+00	4.886483e+05	
1	-5.00000e-02	5.809612e+05	
2	-1.00000e-01	7.156170e+05	
3	-1.50000e-01	9.290657e+05	
4	-2.00000e-01	1.311169e+06	
5	-2.50000e-01	2.126571e+06	
6	-3.00000e-01	4.267307e+06	
7	-3.50000e-01	1.047200e+07	
8	-4.00000e-01	2.627778e+07	
9	-4.50000e-01	5.791902e+07	
10	-5.00000e-01	1.087622e+08	
11	-5.50000e-01	1.778659e+08	
12	-6.00000e-01	2.610431e+08	
13	-6.50000e-01	3.529362e+08	
14	-7.00000e-01	4.486825e+08	
15	-7.50000e-01	5.446665e+08	
16	-8.00000e-01	6.385715e+08	
17	-8.50000e-01	7.291114e+08	
18	-9.00000e-01	8.157046e+08	
19	-9.50000e-01	8.982046e+08	
20	-1.00000e+00	9.767101e+08	
21	-1.05000e+00	1.051444e+09	
22	-1.10000e+00	1.122681e+09	
23	-1.15000e+00	1.190706e+09	
24	-1.20000e+00	1.255795e+09	
25	-1.25000e+00	1.318203e+09	
26	-1.30000e+00	1.378159e+09	
27	-1.35000e+00	1.435869e+09	
28	-1.40000e+00	1.491516e+09	
29	-1.45000e+00	1.545260e+09	
30	-1.50000e+00	1.597245e+09	
31	-1.55000e+00	1.647595e+09	
32	-1.60000e+00	1.696424e+09	
33	-1.65000e+00	1.743829e+09	
34	-1.70000e+00	1.789900e+09	
35	-1.75000e+00	1.834715e+09	
36	-1.80000e+00	1.878346e+09	
37	-1.85000e+00	1.920853e+09	
38	-1.90000e+00	1.962295e+09	
39	-1.95000e+00	2.002718e+09	
40	-2.00000e+00	2.042163e+09	
41	-2.05000e+00	2.080665e+09	
42	-2.10000e+00	2.118246e+09	
43	-2.15000e+00	2.154918e+09	
44	-2.20000e+00	2.190683e+09	
45	-2.25000e+00	2.225525e+09	
46	-2.30000e+00	2.259407e+09	
47	-2.35000e+00	2.292274e+09	
48	-2.40000e+00	2.324040e+09	
49	-2.45000e+00	2.354591e+09	
50	-2.50000e+00	2.383774e+09	
51	-2.55000e+00	2.411398e+09	
52	-2.60000e+00	2.437224e+09	
53	-2.65000e+00	2.460966e+09	
54	-2.70000e+00	2.482288e+09	

Index   v-sweep         rds             
--------------------------------------------------------------------------------
55	-2.75000e+00	2.500801e+09	
56	-2.80000e+00	2.516065e+09	
57	-2.85000e+00	2.527597e+09	
58	-2.90000e+00	2.534876e+09	
59	-2.95000e+00	2.537355e+09	
60	-3.00000e+00	2.534481e+09	
61	-3.05000e+00	2.525715e+09	
62	-3.10000e+00	2.510556e+09	
63	-3.15000e+00	2.488572e+09	
64	-3.20000e+00	2.459428e+09	
65	-3.25000e+00	2.422914e+09	
66	-3.30000e+00	2.378971e+09	
Reset re-loads circuit ***************************

Circuit: ***************************

Doing analysis at TEMP = -40.000000 and TNOM = -40.000000


No. of Data Rows : 67
                          ***************************
                          DC transfer characteristic  Mon Jan  9 13:58:26  2023
--------------------------------------------------------------------------------
Index   v-sweep         rds             
--------------------------------------------------------------------------------
0	0.000000e+00	2.409586e+05	
1	-5.00000e-02	2.608269e+05	
2	-1.00000e-01	2.842469e+05	
3	-1.50000e-01	3.122603e+05	
4	-2.00000e-01	3.463569e+05	
5	-2.50000e-01	3.887414e+05	
6	-3.00000e-01	4.428117e+05	
7	-3.50000e-01	5.140669e+05	
8	-4.00000e-01	6.119490e+05	
9	-4.50000e-01	7.538637e+05	
10	-5.00000e-01	9.746585e+05	
11	-5.50000e-01	1.350408e+06	
12	-6.00000e-01	2.058315e+06	
13	-6.50000e-01	3.506320e+06	
14	-7.00000e-01	6.500768e+06	
15	-7.50000e-01	1.221401e+07	
16	-8.00000e-01	2.175093e+07	
17	-8.50000e-01	3.561764e+07	
18	-9.00000e-01	5.353594e+07	
19	-9.50000e-01	7.465309e+07	
20	-1.00000e+00	9.790529e+07	
21	-1.05000e+00	1.223083e+08	
22	-1.10000e+00	1.470974e+08	
23	-1.15000e+00	1.717485e+08	
24	-1.20000e+00	1.959387e+08	
25	-1.25000e+00	2.194920e+08	
26	-1.30000e+00	2.423296e+08	
27	-1.35000e+00	2.644329e+08	
28	-1.40000e+00	2.858182e+08	
29	-1.45000e+00	3.065199e+08	
30	-1.50000e+00	3.265808e+08	
31	-1.55000e+00	3.460460e+08	
32	-1.60000e+00	3.649598e+08	
33	-1.65000e+00	3.833638e+08	
34	-1.70000e+00	4.012959e+08	
35	-1.75000e+00	4.187908e+08	
36	-1.80000e+00	4.358795e+08	
37	-1.85000e+00	4.525897e+08	
38	-1.90000e+00	4.689460e+08	
39	-1.95000e+00	4.849706e+08	
40	-2.00000e+00	5.006829e+08	
41	-2.05000e+00	5.161006e+08	
42	-2.10000e+00	5.312391e+08	
43	-2.15000e+00	5.461124e+08	
44	-2.20000e+00	5.607324e+08	
45	-2.25000e+00	5.751098e+08	
46	-2.30000e+00	5.892530e+08	
47	-2.35000e+00	6.031686e+08	
48	-2.40000e+00	6.168608e+08	
49	-2.45000e+00	6.303308e+08	
50	-2.50000e+00	6.435757e+08	
51	-2.55000e+00	6.565883e+08	
52	-2.60000e+00	6.693551e+08	
53	-2.65000e+00	6.818554e+08	
54	-2.70000e+00	6.940594e+08	

Index   v-sweep         rds             
--------------------------------------------------------------------------------
55	-2.75000e+00	7.059262e+08	
56	-2.80000e+00	7.174021e+08	
57	-2.85000e+00	7.284184e+08	
58	-2.90000e+00	7.388891e+08	
59	-2.95000e+00	7.487092e+08	
60	-3.00000e+00	7.577534e+08	
61	-3.05000e+00	7.658748e+08	
62	-3.10000e+00	7.729051e+08	
63	-3.15000e+00	7.786561e+08	
64	-3.20000e+00	7.829222e+08	
65	-3.25000e+00	7.854857e+08	
66	-3.30000e+00	7.861233e+08	
Reset re-loads circuit ***************************

Circuit: ***************************

Doing analysis at TEMP = -40.000000 and TNOM = -40.000000


No. of Data Rows : 67
                          ***************************
                          DC transfer characteristic  Mon Jan  9 13:58:26  2023
--------------------------------------------------------------------------------
Index   v-sweep         rds             
--------------------------------------------------------------------------------
0	0.000000e+00	1.674263e+05	
1	-5.00000e-02	1.761145e+05	
2	-1.00000e-01	1.857485e+05	
3	-1.50000e-01	1.964915e+05	
4	-2.00000e-01	2.085461e+05	
5	-2.50000e-01	2.221678e+05	
6	-3.00000e-01	2.376824e+05	
7	-3.50000e-01	2.555126e+05	
8	-4.00000e-01	2.762160e+05	
9	-4.50000e-01	3.005437e+05	
10	-5.00000e-01	3.295301e+05	
11	-5.50000e-01	3.646392e+05	
12	-6.00000e-01	4.080068e+05	
13	-6.50000e-01	4.628620e+05	
14	-7.00000e-01	5.342952e+05	
15	-7.50000e-01	6.307215e+05	
16	-8.00000e-01	7.668180e+05	
17	-8.50000e-01	9.696484e+05	
18	-9.00000e-01	1.291609e+06	
19	-9.50000e-01	1.836370e+06	
20	-1.00000e+00	2.801548e+06	
21	-1.05000e+00	4.518098e+06	
22	-1.10000e+00	7.423584e+06	
23	-1.15000e+00	1.192528e+07	
24	-1.20000e+00	1.822752e+07	
25	-1.25000e+00	2.625349e+07	
26	-1.30000e+00	3.569985e+07	
27	-1.35000e+00	4.615970e+07	
28	-1.40000e+00	5.723437e+07	
29	-1.45000e+00	6.859664e+07	
30	-1.50000e+00	8.000883e+07	
31	-1.55000e+00	9.131440e+07	
32	-1.60000e+00	1.024196e+08	
33	-1.65000e+00	1.132747e+08	
34	-1.70000e+00	1.238590e+08	
35	-1.75000e+00	1.341696e+08	
36	-1.80000e+00	1.442139e+08	
37	-1.85000e+00	1.540047e+08	
38	-1.90000e+00	1.635575e+08	
39	-1.95000e+00	1.728884e+08	
40	-2.00000e+00	1.820129e+08	
41	-2.05000e+00	1.909459e+08	
42	-2.10000e+00	1.997011e+08	
43	-2.15000e+00	2.082909e+08	
44	-2.20000e+00	2.167264e+08	
45	-2.25000e+00	2.250176e+08	
46	-2.30000e+00	2.331736e+08	
47	-2.35000e+00	2.412025e+08	
48	-2.40000e+00	2.491112e+08	
49	-2.45000e+00	2.569063e+08	
50	-2.50000e+00	2.645933e+08	
51	-2.55000e+00	2.721771e+08	
52	-2.60000e+00	2.796619e+08	
53	-2.65000e+00	2.870510e+08	
54	-2.70000e+00	2.943467e+08	

Index   v-sweep         rds             
--------------------------------------------------------------------------------
55	-2.75000e+00	3.015502e+08	
56	-2.80000e+00	3.086611e+08	
57	-2.85000e+00	3.156772e+08	
58	-2.90000e+00	3.225938e+08	
59	-2.95000e+00	3.294031e+08	
60	-3.00000e+00	3.360933e+08	
61	-3.05000e+00	3.426478e+08	
62	-3.10000e+00	3.490440e+08	
63	-3.15000e+00	3.552524e+08	
64	-3.20000e+00	3.612350e+08	
65	-3.25000e+00	3.669444e+08	
66	-3.30000e+00	3.723227e+08	
Reset re-loads circuit ***************************

Circuit: ***************************

Doing analysis at TEMP = -40.000000 and TNOM = -40.000000


No. of Data Rows : 67
                          ***************************
                          DC transfer characteristic  Mon Jan  9 13:58:26  2023
--------------------------------------------------------------------------------
Index   v-sweep         rds             
--------------------------------------------------------------------------------
0	0.000000e+00	1.326521e+05	
1	-5.00000e-02	1.375939e+05	
2	-1.00000e-01	1.429157e+05	
3	-1.50000e-01	1.486630e+05	
4	-2.00000e-01	1.548889e+05	
5	-2.50000e-01	1.616557e+05	
6	-3.00000e-01	1.690371e+05	
7	-3.50000e-01	1.771207e+05	
8	-4.00000e-01	1.860114e+05	
9	-4.50000e-01	1.958363e+05	
10	-5.00000e-01	2.067505e+05	
11	-5.50000e-01	2.189453e+05	
12	-6.00000e-01	2.326592e+05	
13	-6.50000e-01	2.481939e+05	
14	-7.00000e-01	2.659357e+05	
15	-7.50000e-01	2.863877e+05	
16	-8.00000e-01	3.102164e+05	
17	-8.50000e-01	3.383232e+05	
18	-9.00000e-01	3.719553e+05	
19	-9.50000e-01	4.128828e+05	
20	-1.00000e+00	4.636943e+05	
21	-1.05000e+00	5.283018e+05	
22	-1.10000e+00	6.128406e+05	
23	-1.15000e+00	7.273190e+05	
24	-1.20000e+00	8.887183e+05	
25	-1.25000e+00	1.126805e+06	
26	-1.30000e+00	1.494492e+06	
27	-1.35000e+00	2.083658e+06	
28	-1.40000e+00	3.041140e+06	
29	-1.45000e+00	4.566834e+06	
30	-1.50000e+00	6.872403e+06	
31	-1.55000e+00	1.010821e+07	
32	-1.60000e+00	1.430408e+07	
33	-1.65000e+00	1.936291e+07	
34	-1.70000e+00	2.510274e+07	
35	-1.75000e+00	3.131418e+07	
36	-1.80000e+00	3.780473e+07	
37	-1.85000e+00	4.442088e+07	
38	-1.90000e+00	5.105226e+07	
39	-1.95000e+00	5.762610e+07	
40	-2.00000e+00	6.409846e+07	
41	-2.05000e+00	7.044570e+07	
42	-2.10000e+00	7.665765e+07	
43	-2.15000e+00	8.273260e+07	
44	-2.20000e+00	8.867382e+07	
45	-2.25000e+00	9.448735e+07	
46	-2.30000e+00	1.001805e+08	
47	-2.35000e+00	1.057612e+08	
48	-2.40000e+00	1.112369e+08	
49	-2.45000e+00	1.166150e+08	
50	-2.50000e+00	1.219023e+08	
51	-2.55000e+00	1.271051e+08	
52	-2.60000e+00	1.322289e+08	
53	-2.65000e+00	1.372788e+08	
54	-2.70000e+00	1.422593e+08	

Index   v-sweep         rds             
--------------------------------------------------------------------------------
55	-2.75000e+00	1.471747e+08	
56	-2.80000e+00	1.520284e+08	
57	-2.85000e+00	1.568237e+08	
58	-2.90000e+00	1.615635e+08	
59	-2.95000e+00	1.662501e+08	
60	-3.00000e+00	1.708855e+08	
61	-3.05000e+00	1.754711e+08	
62	-3.10000e+00	1.800077e+08	
63	-3.15000e+00	1.844954e+08	
64	-3.20000e+00	1.889330e+08	
65	-3.25000e+00	1.933183e+08	
66	-3.30000e+00	1.976469e+08	
Reset re-loads circuit ***************************

Circuit: ***************************

Doing analysis at TEMP = -40.000000 and TNOM = -40.000000


No. of Data Rows : 67
                          ***************************
                          DC transfer characteristic  Mon Jan  9 13:58:26  2023
--------------------------------------------------------------------------------
Index   v-sweep         rds             
--------------------------------------------------------------------------------
0	0.000000e+00	1.130920e+05	
1	-5.00000e-02	1.163384e+05	
2	-1.00000e-01	1.197751e+05	
3	-1.50000e-01	1.234196e+05	
4	-2.00000e-01	1.272910e+05	
5	-2.50000e-01	1.314115e+05	
6	-3.00000e-01	1.358056e+05	
7	-3.50000e-01	1.405018e+05	
8	-4.00000e-01	1.455320e+05	
9	-4.50000e-01	1.509334e+05	
10	-5.00000e-01	1.567485e+05	
11	-5.50000e-01	1.630266e+05	
12	-6.00000e-01	1.698254e+05	
13	-6.50000e-01	1.772122e+05	
14	-7.00000e-01	1.852668e+05	
15	-7.50000e-01	1.940836e+05	
16	-8.00000e-01	2.037761e+05	
17	-8.50000e-01	2.144812e+05	
18	-9.00000e-01	2.263656e+05	
19	-9.50000e-01	2.396348e+05	
20	-1.00000e+00	2.545446e+05	
21	-1.05000e+00	2.714172e+05	
22	-1.10000e+00	2.906642e+05	
23	-1.15000e+00	3.128196e+05	
24	-1.20000e+00	3.385875e+05	
25	-1.25000e+00	3.689142e+05	
26	-1.30000e+00	4.050983e+05	
27	-1.35000e+00	4.489646e+05	
28	-1.40000e+00	5.031447e+05	
29	-1.45000e+00	5.715423e+05	
30	-1.50000e+00	6.601259e+05	
31	-1.55000e+00	7.782986e+05	
32	-1.60000e+00	9.412759e+05	
33	-1.65000e+00	1.174097e+06	
34	-1.70000e+00	1.517840e+06	
35	-1.75000e+00	2.037441e+06	
36	-1.80000e+00	2.826994e+06	
37	-1.85000e+00	4.003721e+06	
38	-1.90000e+00	5.683195e+06	
39	-1.95000e+00	7.942256e+06	
40	-2.00000e+00	1.079080e+07	
41	-2.05000e+00	1.416971e+07	
42	-2.10000e+00	1.797281e+07	
43	-2.15000e+00	2.207733e+07	
44	-2.20000e+00	2.636839e+07	
45	-2.25000e+00	3.075222e+07	
46	-2.30000e+00	3.515953e+07	
47	-2.35000e+00	3.954314e+07	
48	-2.40000e+00	4.387339e+07	
49	-2.45000e+00	4.813334e+07	
50	-2.50000e+00	5.231475e+07	
51	-2.55000e+00	5.641500e+07	
52	-2.60000e+00	6.043500e+07	
53	-2.65000e+00	6.437765e+07	
54	-2.70000e+00	6.824692e+07	

Index   v-sweep         rds             
--------------------------------------------------------------------------------
55	-2.75000e+00	7.204721e+07	
56	-2.80000e+00	7.578304e+07	
57	-2.85000e+00	7.945877e+07	
58	-2.90000e+00	8.307851e+07	
59	-2.95000e+00	8.664608e+07	
60	-3.00000e+00	9.016495e+07	
61	-3.05000e+00	9.363827e+07	
62	-3.10000e+00	9.706889e+07	
63	-3.15000e+00	1.004594e+08	
64	-3.20000e+00	1.038120e+08	
65	-3.25000e+00	1.071287e+08	
66	-3.30000e+00	1.104114e+08	
Reset re-loads circuit ***************************

Circuit: ***************************

Note: No ".plot", ".print", or ".fourier" lines; no simulations run
