
Note: Compatibility modes selected: hs

Warning: m=xx on .subckt line will override multiplier m hierarchy!


Circuit: ***************************

Doing analysis at TEMP = 25.000000 and TNOM = 25.000000


No. of Data Rows : 67
                          ***************************
                          DC transfer characteristic  Mon Jan  9 13:58:25  2023
--------------------------------------------------------------------------------
Index   v-sweep         rds             
--------------------------------------------------------------------------------
0	0.000000e+00	5.452550e+05	
1	-5.00000e-02	1.550099e+06	
2	-1.00000e-01	9.509612e+06	
3	-1.50000e-01	4.288658e+07	
4	-2.00000e-01	9.914234e+07	
5	-2.50000e-01	1.541049e+08	
6	-3.00000e-01	1.976901e+08	
7	-3.50000e-01	2.314282e+08	
8	-4.00000e-01	2.586014e+08	
9	-4.50000e-01	2.815654e+08	
10	-5.00000e-01	3.017529e+08	
11	-5.50000e-01	3.200160e+08	
12	-6.00000e-01	3.368726e+08	
13	-6.50000e-01	3.526487e+08	
14	-7.00000e-01	3.675576e+08	
15	-7.50000e-01	3.817448e+08	
16	-8.00000e-01	3.953131e+08	
17	-8.50000e-01	4.083380e+08	
18	-9.00000e-01	4.208768e+08	
19	-9.50000e-01	4.329744e+08	
20	-1.00000e+00	4.446666e+08	
21	-1.05000e+00	4.559833e+08	
22	-1.10000e+00	4.669493e+08	
23	-1.15000e+00	4.775862e+08	
24	-1.20000e+00	4.879127e+08	
25	-1.25000e+00	4.979452e+08	
26	-1.30000e+00	5.076986e+08	
27	-1.35000e+00	5.171863e+08	
28	-1.40000e+00	5.264203e+08	
29	-1.45000e+00	5.354119e+08	
30	-1.50000e+00	5.441712e+08	
31	-1.55000e+00	5.527077e+08	
32	-1.60000e+00	5.610299e+08	
33	-1.65000e+00	5.691457e+08	
34	-1.70000e+00	5.770620e+08	
35	-1.75000e+00	5.847849e+08	
36	-1.80000e+00	5.923190e+08	
37	-1.85000e+00	5.996681e+08	
38	-1.90000e+00	6.068337e+08	
39	-1.95000e+00	6.138155e+08	
40	-2.00000e+00	6.206107e+08	
41	-2.05000e+00	6.272131e+08	
42	-2.10000e+00	6.336130e+08	
43	-2.15000e+00	6.397960e+08	
44	-2.20000e+00	6.457425e+08	
45	-2.25000e+00	6.514268e+08	
46	-2.30000e+00	6.568166e+08	
47	-2.35000e+00	6.618719e+08	
48	-2.40000e+00	6.665443e+08	
49	-2.45000e+00	6.707768e+08	
50	-2.50000e+00	6.745033e+08	
51	-2.55000e+00	6.776483e+08	
52	-2.60000e+00	6.801278e+08	
53	-2.65000e+00	6.818495e+08	
54	-2.70000e+00	6.827145e+08	

Index   v-sweep         rds             
--------------------------------------------------------------------------------
55	-2.75000e+00	6.826189e+08	
56	-2.80000e+00	6.814565e+08	
57	-2.85000e+00	6.791223e+08	
58	-2.90000e+00	6.755155e+08	
59	-2.95000e+00	6.705447e+08	
60	-3.00000e+00	6.641321e+08	
61	-3.05000e+00	6.562179e+08	
62	-3.10000e+00	6.467654e+08	
63	-3.15000e+00	6.357642e+08	
64	-3.20000e+00	6.232335e+08	
65	-3.25000e+00	6.092237e+08	
66	-3.30000e+00	5.938161e+08	
Reset re-loads circuit ***************************

Circuit: ***************************

Doing analysis at TEMP = 25.000000 and TNOM = 25.000000


No. of Data Rows : 67
                          ***************************
                          DC transfer characteristic  Mon Jan  9 13:58:25  2023
--------------------------------------------------------------------------------
Index   v-sweep         rds             
--------------------------------------------------------------------------------
0	0.000000e+00	5.519235e+04	
1	-5.00000e-02	6.303205e+04	
2	-1.00000e-01	7.339675e+04	
3	-1.50000e-01	8.771721e+04	
4	-2.00000e-01	1.087099e+05	
5	-2.50000e-01	1.421006e+05	
6	-3.00000e-01	2.015391e+05	
7	-3.50000e-01	3.233128e+05	
8	-4.00000e-01	6.016056e+05	
9	-4.50000e-01	1.200240e+06	
10	-5.00000e-01	2.179056e+06	
11	-5.50000e-01	3.334411e+06	
12	-6.00000e-01	4.429643e+06	
13	-6.50000e-01	5.380121e+06	
14	-7.00000e-01	6.198389e+06	
15	-7.50000e-01	6.919303e+06	
16	-8.00000e-01	7.572673e+06	
17	-8.50000e-01	8.179288e+06	
18	-9.00000e-01	8.752859e+06	
19	-9.50000e-01	9.302355e+06	
20	-1.00000e+00	9.833715e+06	
21	-1.05000e+00	1.035095e+07	
22	-1.10000e+00	1.085682e+07	
23	-1.15000e+00	1.135327e+07	
24	-1.20000e+00	1.184171e+07	
25	-1.25000e+00	1.232318e+07	
26	-1.30000e+00	1.279844e+07	
27	-1.35000e+00	1.326809e+07	
28	-1.40000e+00	1.373259e+07	
29	-1.45000e+00	1.419230e+07	
30	-1.50000e+00	1.464752e+07	
31	-1.55000e+00	1.509847e+07	
32	-1.60000e+00	1.554537e+07	
33	-1.65000e+00	1.598837e+07	
34	-1.70000e+00	1.642761e+07	
35	-1.75000e+00	1.686321e+07	
36	-1.80000e+00	1.729528e+07	
37	-1.85000e+00	1.772390e+07	
38	-1.90000e+00	1.814914e+07	
39	-1.95000e+00	1.857106e+07	
40	-2.00000e+00	1.898968e+07	
41	-2.05000e+00	1.940501e+07	
42	-2.10000e+00	1.981701e+07	
43	-2.15000e+00	2.022560e+07	
44	-2.20000e+00	2.063062e+07	
45	-2.25000e+00	2.103179e+07	
46	-2.30000e+00	2.142874e+07	
47	-2.35000e+00	2.182090e+07	
48	-2.40000e+00	2.220750e+07	
49	-2.45000e+00	2.258751e+07	
50	-2.50000e+00	2.295956e+07	
51	-2.55000e+00	2.332191e+07	
52	-2.60000e+00	2.367235e+07	
53	-2.65000e+00	2.400816e+07	
54	-2.70000e+00	2.432602e+07	

Index   v-sweep         rds             
--------------------------------------------------------------------------------
55	-2.75000e+00	2.462201e+07	
56	-2.80000e+00	2.489149e+07	
57	-2.85000e+00	2.512917e+07	
58	-2.90000e+00	2.532910e+07	
59	-2.95000e+00	2.548474e+07	
60	-3.00000e+00	2.558911e+07	
61	-3.05000e+00	2.563495e+07	
62	-3.10000e+00	2.561504e+07	
63	-3.15000e+00	2.552248e+07	
64	-3.20000e+00	2.535108e+07	
65	-3.25000e+00	2.509582e+07	
66	-3.30000e+00	2.475322e+07	
Reset re-loads circuit ***************************

Circuit: ***************************

Doing analysis at TEMP = 25.000000 and TNOM = 25.000000


No. of Data Rows : 67
                          ***************************
                          DC transfer characteristic  Mon Jan  9 13:58:25  2023
--------------------------------------------------------------------------------
Index   v-sweep         rds             
--------------------------------------------------------------------------------
0	0.000000e+00	2.956390e+04	
1	-5.00000e-02	3.161099e+04	
2	-1.00000e-01	3.395214e+04	
3	-1.50000e-01	3.665543e+04	
4	-2.00000e-01	3.981158e+04	
5	-2.50000e-01	4.354418e+04	
6	-3.00000e-01	4.802586e+04	
7	-3.50000e-01	5.350488e+04	
8	-4.00000e-01	6.035066e+04	
9	-4.50000e-01	6.913534e+04	
10	-5.00000e-01	8.078732e+04	
11	-5.50000e-01	9.689564e+04	
12	-6.00000e-01	1.203400e+05	
13	-6.50000e-01	1.566097e+05	
14	-7.00000e-01	2.163215e+05	
15	-7.50000e-01	3.182441e+05	
16	-8.00000e-01	4.859567e+05	
17	-8.50000e-01	7.269964e+05	
18	-9.00000e-01	1.013591e+06	
19	-9.50000e-01	1.303309e+06	
20	-1.00000e+00	1.570665e+06	
21	-1.05000e+00	1.810368e+06	
22	-1.10000e+00	2.026450e+06	
23	-1.15000e+00	2.224716e+06	
24	-1.20000e+00	2.410075e+06	
25	-1.25000e+00	2.586117e+06	
26	-1.30000e+00	2.755344e+06	
27	-1.35000e+00	2.919480e+06	
28	-1.40000e+00	3.079716e+06	
29	-1.45000e+00	3.236890e+06	
30	-1.50000e+00	3.391594e+06	
31	-1.55000e+00	3.544259e+06	
32	-1.60000e+00	3.695202e+06	
33	-1.65000e+00	3.844658e+06	
34	-1.70000e+00	3.992807e+06	
35	-1.75000e+00	4.139788e+06	
36	-1.80000e+00	4.285707e+06	
37	-1.85000e+00	4.430650e+06	
38	-1.90000e+00	4.574686e+06	
39	-1.95000e+00	4.717870e+06	
40	-2.00000e+00	4.860246e+06	
41	-2.05000e+00	5.001853e+06	
42	-2.10000e+00	5.142721e+06	
43	-2.15000e+00	5.282876e+06	
44	-2.20000e+00	5.422339e+06	
45	-2.25000e+00	5.561127e+06	
46	-2.30000e+00	5.699252e+06	
47	-2.35000e+00	5.836718e+06	
48	-2.40000e+00	5.973524e+06	
49	-2.45000e+00	6.109655e+06	
50	-2.50000e+00	6.245081e+06	
51	-2.55000e+00	6.379753e+06	
52	-2.60000e+00	6.513588e+06	
53	-2.65000e+00	6.646466e+06	
54	-2.70000e+00	6.778215e+06	

Index   v-sweep         rds             
--------------------------------------------------------------------------------
55	-2.75000e+00	6.908594e+06	
56	-2.80000e+00	7.037278e+06	
57	-2.85000e+00	7.163836e+06	
58	-2.90000e+00	7.287712e+06	
59	-2.95000e+00	7.408195e+06	
60	-3.00000e+00	7.524400e+06	
61	-3.05000e+00	7.635240e+06	
62	-3.10000e+00	7.739409e+06	
63	-3.15000e+00	7.835361e+06	
64	-3.20000e+00	7.921307e+06	
65	-3.25000e+00	7.995217e+06	
66	-3.30000e+00	8.054841e+06	
Reset re-loads circuit ***************************

Circuit: ***************************

Doing analysis at TEMP = 25.000000 and TNOM = 25.000000


No. of Data Rows : 67
                          ***************************
                          DC transfer characteristic  Mon Jan  9 13:58:25  2023
--------------------------------------------------------------------------------
Index   v-sweep         rds             
--------------------------------------------------------------------------------
0	0.000000e+00	2.117060e+04	
1	-5.00000e-02	2.213333e+04	
2	-1.00000e-01	2.318364e+04	
3	-1.50000e-01	2.433405e+04	
4	-2.00000e-01	2.559955e+04	
5	-2.50000e-01	2.699829e+04	
6	-3.00000e-01	2.855242e+04	
7	-3.50000e-01	3.028930e+04	
8	-4.00000e-01	3.224306e+04	
9	-4.50000e-01	3.445686e+04	
10	-5.00000e-01	3.698606e+04	
11	-5.50000e-01	3.990279e+04	
12	-6.00000e-01	4.330274e+04	
13	-6.50000e-01	4.731547e+04	
14	-7.00000e-01	5.212043e+04	
15	-7.50000e-01	5.797272e+04	
16	-8.00000e-01	6.524564e+04	
17	-8.50000e-01	7.450314e+04	
18	-9.00000e-01	8.662619e+04	
19	-9.50000e-01	1.030347e+05	
20	-1.00000e+00	1.260642e+05	
21	-1.05000e+00	1.595151e+05	
22	-1.10000e+00	2.090752e+05	
23	-1.15000e+00	2.813785e+05	
24	-1.20000e+00	3.798718e+05	
25	-1.25000e+00	4.995224e+05	
26	-1.30000e+00	6.280298e+05	
27	-1.35000e+00	7.538476e+05	
28	-1.40000e+00	8.712443e+05	
29	-1.45000e+00	9.793513e+05	
30	-1.50000e+00	1.079477e+06	
31	-1.55000e+00	1.173384e+06	
32	-1.60000e+00	1.262620e+06	
33	-1.65000e+00	1.348374e+06	
34	-1.70000e+00	1.431512e+06	
35	-1.75000e+00	1.512655e+06	
36	-1.80000e+00	1.592247e+06	
37	-1.85000e+00	1.670608e+06	
38	-1.90000e+00	1.747972e+06	
39	-1.95000e+00	1.824511e+06	
40	-2.00000e+00	1.900353e+06	
41	-2.05000e+00	1.975597e+06	
42	-2.10000e+00	2.050318e+06	
43	-2.15000e+00	2.124573e+06	
44	-2.20000e+00	2.198407e+06	
45	-2.25000e+00	2.271859e+06	
46	-2.30000e+00	2.344955e+06	
47	-2.35000e+00	2.417722e+06	
48	-2.40000e+00	2.490176e+06	
49	-2.45000e+00	2.562336e+06	
50	-2.50000e+00	2.634213e+06	
51	-2.55000e+00	2.705819e+06	
52	-2.60000e+00	2.777162e+06	
53	-2.65000e+00	2.848248e+06	
54	-2.70000e+00	2.919082e+06	

Index   v-sweep         rds             
--------------------------------------------------------------------------------
55	-2.75000e+00	2.989662e+06	
56	-2.80000e+00	3.059985e+06	
57	-2.85000e+00	3.130039e+06	
58	-2.90000e+00	3.199805e+06	
59	-2.95000e+00	3.269248e+06	
60	-3.00000e+00	3.338318e+06	
61	-3.05000e+00	3.406940e+06	
62	-3.10000e+00	3.475010e+06	
63	-3.15000e+00	3.542385e+06	
64	-3.20000e+00	3.608870e+06	
65	-3.25000e+00	3.674212e+06	
66	-3.30000e+00	3.738084e+06	
Reset re-loads circuit ***************************

Circuit: ***************************

Doing analysis at TEMP = 25.000000 and TNOM = 25.000000


No. of Data Rows : 67
                          ***************************
                          DC transfer characteristic  Mon Jan  9 13:58:25  2023
--------------------------------------------------------------------------------
Index   v-sweep         rds             
--------------------------------------------------------------------------------
0	0.000000e+00	1.707144e+04	
1	-5.00000e-02	1.764590e+04	
2	-1.00000e-01	1.825816e+04	
3	-1.50000e-01	1.891208e+04	
4	-2.00000e-01	1.961204e+04	
5	-2.50000e-01	2.036310e+04	
6	-3.00000e-01	2.117103e+04	
7	-3.50000e-01	2.204255e+04	
8	-4.00000e-01	2.298545e+04	
9	-4.50000e-01	2.400885e+04	
10	-5.00000e-01	2.512352e+04	
11	-5.50000e-01	2.634218e+04	
12	-6.00000e-01	2.768008e+04	
13	-6.50000e-01	2.915554e+04	
14	-7.00000e-01	3.079087e+04	
15	-7.50000e-01	3.261341e+04	
16	-8.00000e-01	3.465709e+04	
17	-8.50000e-01	3.696449e+04	
18	-9.00000e-01	3.958975e+04	
19	-9.50000e-01	4.260269e+04	
20	-1.00000e+00	4.609485e+04	
21	-1.05000e+00	5.018828e+04	
22	-1.10000e+00	5.504896e+04	
23	-1.15000e+00	6.090731e+04	
24	-1.20000e+00	6.809028e+04	
25	-1.25000e+00	7.707197e+04	
26	-1.30000e+00	8.855256e+04	
27	-1.35000e+00	1.035758e+05	
28	-1.40000e+00	1.236794e+05	
29	-1.45000e+00	1.510029e+05	
30	-1.50000e+00	1.881034e+05	
31	-1.55000e+00	2.370359e+05	
32	-1.60000e+00	2.976636e+05	
33	-1.65000e+00	3.666186e+05	
34	-1.70000e+00	4.386590e+05	
35	-1.75000e+00	5.093471e+05	
36	-1.80000e+00	5.764163e+05	
37	-1.85000e+00	6.393971e+05	
38	-1.90000e+00	6.987190e+05	
39	-1.95000e+00	7.550739e+05	
40	-2.00000e+00	8.091220e+05	
41	-2.05000e+00	8.614015e+05	
42	-2.10000e+00	9.123234e+05	
43	-2.15000e+00	9.621931e+05	
44	-2.20000e+00	1.011235e+06	
45	-2.25000e+00	1.059617e+06	
46	-2.30000e+00	1.107460e+06	
47	-2.35000e+00	1.154858e+06	
48	-2.40000e+00	1.201881e+06	
49	-2.45000e+00	1.248581e+06	
50	-2.50000e+00	1.295002e+06	
51	-2.55000e+00	1.341174e+06	
52	-2.60000e+00	1.387124e+06	
53	-2.65000e+00	1.432872e+06	
54	-2.70000e+00	1.478434e+06	

Index   v-sweep         rds             
--------------------------------------------------------------------------------
55	-2.75000e+00	1.523825e+06	
56	-2.80000e+00	1.569054e+06	
57	-2.85000e+00	1.614131e+06	
58	-2.90000e+00	1.659064e+06	
59	-2.95000e+00	1.703858e+06	
60	-3.00000e+00	1.748517e+06	
61	-3.05000e+00	1.793047e+06	
62	-3.10000e+00	1.837447e+06	
63	-3.15000e+00	1.881717e+06	
64	-3.20000e+00	1.925854e+06	
65	-3.25000e+00	1.969849e+06	
66	-3.30000e+00	2.013688e+06	
Reset re-loads circuit ***************************

Circuit: ***************************

Doing analysis at TEMP = 25.000000 and TNOM = 25.000000


No. of Data Rows : 67
                          ***************************
                          DC transfer characteristic  Mon Jan  9 13:58:25  2023
--------------------------------------------------------------------------------
Index   v-sweep         rds             
--------------------------------------------------------------------------------
0	0.000000e+00	1.457415e+04	
1	-5.00000e-02	1.495883e+04	
2	-1.00000e-01	1.536302e+04	
3	-1.50000e-01	1.578825e+04	
4	-2.00000e-01	1.623619e+04	
5	-2.50000e-01	1.670870e+04	
6	-3.00000e-01	1.720788e+04	
7	-3.50000e-01	1.773602e+04	
8	-4.00000e-01	1.829574e+04	
9	-4.50000e-01	1.888993e+04	
10	-5.00000e-01	1.952188e+04	
11	-5.50000e-01	2.019529e+04	
12	-6.00000e-01	2.091439e+04	
13	-6.50000e-01	2.168397e+04	
14	-7.00000e-01	2.250953e+04	
15	-7.50000e-01	2.339739e+04	
16	-8.00000e-01	2.435487e+04	
17	-8.50000e-01	2.539047e+04	
18	-9.00000e-01	2.651413e+04	
19	-9.50000e-01	2.773754e+04	
20	-1.00000e+00	2.907455e+04	
21	-1.05000e+00	3.054168e+04	
22	-1.10000e+00	3.215882e+04	
23	-1.15000e+00	3.395006e+04	
24	-1.20000e+00	3.594491e+04	
25	-1.25000e+00	3.817989e+04	
26	-1.30000e+00	4.070062e+04	
27	-1.35000e+00	4.356489e+04	
28	-1.40000e+00	4.684676e+04	
29	-1.45000e+00	5.064258e+04	
30	-1.50000e+00	5.507946e+04	
31	-1.55000e+00	6.032778e+04	
32	-1.60000e+00	6.661931e+04	
33	-1.65000e+00	7.427346e+04	
34	-1.70000e+00	8.373405e+04	
35	-1.75000e+00	9.561615e+04	
36	-1.80000e+00	1.107524e+05	
37	-1.85000e+00	1.301993e+05	
38	-1.90000e+00	1.551114e+05	
39	-1.95000e+00	1.863600e+05	
40	-2.00000e+00	2.239148e+05	
41	-2.05000e+00	2.664151e+05	
42	-2.10000e+00	3.115145e+05	
43	-2.15000e+00	3.568718e+05	
44	-2.20000e+00	4.009379e+05	
45	-2.25000e+00	4.430687e+05	
46	-2.30000e+00	4.832267e+05	
47	-2.35000e+00	5.216530e+05	
48	-2.40000e+00	5.586615e+05	
49	-2.45000e+00	5.945452e+05	
50	-2.50000e+00	6.295461e+05	
51	-2.55000e+00	6.638535e+05	
52	-2.60000e+00	6.976117e+05	
53	-2.65000e+00	7.309301e+05	
54	-2.70000e+00	7.638911e+05	

Index   v-sweep         rds             
--------------------------------------------------------------------------------
55	-2.75000e+00	7.965573e+05	
56	-2.80000e+00	8.289766e+05	
57	-2.85000e+00	8.611857e+05	
58	-2.90000e+00	8.932134e+05	
59	-2.95000e+00	9.250819e+05	
60	-3.00000e+00	9.568093e+05	
61	-3.05000e+00	9.884095e+05	
62	-3.10000e+00	1.019894e+06	
63	-3.15000e+00	1.051272e+06	
64	-3.20000e+00	1.082552e+06	
65	-3.25000e+00	1.113739e+06	
66	-3.30000e+00	1.144838e+06	
Reset re-loads circuit ***************************

Circuit: ***************************

Note: No ".plot", ".print", or ".fourier" lines; no simulations run
