
Note: Compatibility modes selected: hs

Warning: m=xx on .subckt line will override multiplier m hierarchy!


Circuit: ***************************

Doing analysis at TEMP = 25.000000 and TNOM = 25.000000


No. of Data Rows : 67
                          ***************************
                          DC transfer characteristic  Mon Jan  9 13:58:25  2023
--------------------------------------------------------------------------------
Index   v-sweep         rds             
--------------------------------------------------------------------------------
0	0.000000e+00	1.079819e+06	
1	-5.00000e-02	3.638328e+06	
2	-1.00000e-01	2.707269e+07	
3	-1.50000e-01	1.370316e+08	
4	-2.00000e-01	4.042718e+08	
5	-2.50000e-01	8.492319e+08	
6	-3.00000e-01	1.433030e+09	
7	-3.50000e-01	2.085696e+09	
8	-4.00000e-01	2.741834e+09	
9	-4.50000e-01	3.358792e+09	
10	-5.00000e-01	3.916738e+09	
11	-5.50000e-01	4.411235e+09	
12	-6.00000e-01	4.845923e+09	
13	-6.50000e-01	5.227688e+09	
14	-7.00000e-01	5.564063e+09	
15	-7.50000e-01	5.862063e+09	
16	-8.00000e-01	6.127764e+09	
17	-8.50000e-01	6.366257e+09	
18	-9.00000e-01	6.581730e+09	
19	-9.50000e-01	6.777614e+09	
20	-1.00000e+00	6.956712e+09	
21	-1.05000e+00	7.121323e+09	
22	-1.10000e+00	7.273339e+09	
23	-1.15000e+00	7.414332e+09	
24	-1.20000e+00	7.545610e+09	
25	-1.25000e+00	7.668273e+09	
26	-1.30000e+00	7.783253e+09	
27	-1.35000e+00	7.891342e+09	
28	-1.40000e+00	7.993219e+09	
29	-1.45000e+00	8.089471e+09	
30	-1.50000e+00	8.180606e+09	
31	-1.55000e+00	8.267066e+09	
32	-1.60000e+00	8.349238e+09	
33	-1.65000e+00	8.427462e+09	
34	-1.70000e+00	8.502034e+09	
35	-1.75000e+00	8.573213e+09	
36	-1.80000e+00	8.641223e+09	
37	-1.85000e+00	8.706253e+09	
38	-1.90000e+00	8.768459e+09	
39	-1.95000e+00	8.827966e+09	
40	-2.00000e+00	8.884859e+09	
41	-2.05000e+00	8.939188e+09	
42	-2.10000e+00	8.990962e+09	
43	-2.15000e+00	9.040145e+09	
44	-2.20000e+00	9.086652e+09	
45	-2.25000e+00	9.130344e+09	
46	-2.30000e+00	9.171026e+09	
47	-2.35000e+00	9.208440e+09	
48	-2.40000e+00	9.242262e+09	
49	-2.45000e+00	9.272100e+09	
50	-2.50000e+00	9.297492e+09	
51	-2.55000e+00	9.317902e+09	
52	-2.60000e+00	9.332727e+09	
53	-2.65000e+00	9.341298e+09	
54	-2.70000e+00	9.342883e+09	

Index   v-sweep         rds             
--------------------------------------------------------------------------------
55	-2.75000e+00	9.336701e+09	
56	-2.80000e+00	9.321934e+09	
57	-2.85000e+00	9.297738e+09	
58	-2.90000e+00	9.263269e+09	
59	-2.95000e+00	9.217698e+09	
60	-3.00000e+00	9.160243e+09	
61	-3.05000e+00	9.090192e+09	
62	-3.10000e+00	9.006933e+09	
63	-3.15000e+00	8.909979e+09	
64	-3.20000e+00	8.799002e+09	
65	-3.25000e+00	8.673848e+09	
66	-3.30000e+00	8.534564e+09	
Reset re-loads circuit ***************************

Circuit: ***************************

Doing analysis at TEMP = 25.000000 and TNOM = 25.000000


No. of Data Rows : 67
                          ***************************
                          DC transfer characteristic  Mon Jan  9 13:58:25  2023
--------------------------------------------------------------------------------
Index   v-sweep         rds             
--------------------------------------------------------------------------------
0	0.000000e+00	1.065433e+05	
1	-5.00000e-02	1.232047e+05	
2	-1.00000e-01	1.459788e+05	
3	-1.50000e-01	1.788995e+05	
4	-2.00000e-01	2.303352e+05	
5	-2.50000e-01	3.201263e+05	
6	-3.00000e-01	5.031092e+05	
7	-3.50000e-01	9.487703e+05	
8	-4.00000e-01	2.142790e+06	
9	-4.50000e-01	5.064499e+06	
10	-5.00000e-01	1.089092e+07	
11	-5.50000e-01	2.037237e+07	
12	-6.00000e-01	3.348543e+07	
13	-6.50000e-01	4.953734e+07	
14	-7.00000e-01	6.752160e+07	
15	-7.50000e-01	8.645757e+07	
16	-8.00000e-01	1.055773e+08	
17	-8.50000e-01	1.243667e+08	
18	-9.00000e-01	1.425280e+08	
19	-9.50000e-01	1.599177e+08	
20	-1.00000e+00	1.764910e+08	
21	-1.05000e+00	1.922604e+08	
22	-1.10000e+00	2.072682e+08	
23	-1.15000e+00	2.215700e+08	
24	-1.20000e+00	2.352248e+08	
25	-1.25000e+00	2.482901e+08	
26	-1.30000e+00	2.608194e+08	
27	-1.35000e+00	2.728609e+08	
28	-1.40000e+00	2.844576e+08	
29	-1.45000e+00	2.956476e+08	
30	-1.50000e+00	3.064642e+08	
31	-1.55000e+00	3.169370e+08	
32	-1.60000e+00	3.270918e+08	
33	-1.65000e+00	3.369513e+08	
34	-1.70000e+00	3.465357e+08	
35	-1.75000e+00	3.558627e+08	
36	-1.80000e+00	3.649483e+08	
37	-1.85000e+00	3.738063e+08	
38	-1.90000e+00	3.824493e+08	
39	-1.95000e+00	3.908880e+08	
40	-2.00000e+00	3.991319e+08	
41	-2.05000e+00	4.071890e+08	
42	-2.10000e+00	4.150653e+08	
43	-2.15000e+00	4.227652e+08	
44	-2.20000e+00	4.302908e+08	
45	-2.25000e+00	4.376415e+08	
46	-2.30000e+00	4.448132e+08	
47	-2.35000e+00	4.517982e+08	
48	-2.40000e+00	4.585837e+08	
49	-2.45000e+00	4.651515e+08	
50	-2.50000e+00	4.714763e+08	
51	-2.55000e+00	4.775257e+08	
52	-2.60000e+00	4.832580e+08	
53	-2.65000e+00	4.886223e+08	
54	-2.70000e+00	4.935569e+08	

Index   v-sweep         rds             
--------------------------------------------------------------------------------
55	-2.75000e+00	4.979894e+08	
56	-2.80000e+00	5.018360e+08	
57	-2.85000e+00	5.050024e+08	
58	-2.90000e+00	5.073843e+08	
59	-2.95000e+00	5.088698e+08	
60	-3.00000e+00	5.093421e+08	
61	-3.05000e+00	5.086828e+08	
62	-3.10000e+00	5.067776e+08	
63	-3.15000e+00	5.035213e+08	
64	-3.20000e+00	4.988243e+08	
65	-3.25000e+00	4.926191e+08	
66	-3.30000e+00	4.848666e+08	
Reset re-loads circuit ***************************

Circuit: ***************************

Doing analysis at TEMP = 25.000000 and TNOM = 25.000000


No. of Data Rows : 67
                          ***************************
                          DC transfer characteristic  Mon Jan  9 13:58:25  2023
--------------------------------------------------------------------------------
Index   v-sweep         rds             
--------------------------------------------------------------------------------
0	0.000000e+00	5.720291e+04	
1	-5.00000e-02	6.150858e+04	
2	-1.00000e-01	6.651186e+04	
3	-1.50000e-01	7.239665e+04	
4	-2.00000e-01	7.941730e+04	
5	-2.50000e-01	8.793554e+04	
6	-3.00000e-01	9.848304e+04	
7	-3.50000e-01	1.118722e+05	
8	-4.00000e-01	1.294036e+05	
9	-4.50000e-01	1.532792e+05	
10	-5.00000e-01	1.874828e+05	
11	-5.50000e-01	2.397964e+05	
12	-6.00000e-01	3.266842e+05	
13	-6.50000e-01	4.851886e+05	
14	-7.00000e-01	7.984025e+05	
15	-7.50000e-01	1.430895e+06	
16	-8.00000e-01	2.632403e+06	
17	-8.50000e-01	4.661021e+06	
18	-9.00000e-01	7.666302e+06	
19	-9.50000e-01	1.162650e+07	
20	-1.00000e+00	1.637347e+07	
21	-1.05000e+00	2.166789e+07	
22	-1.10000e+00	2.727191e+07	
23	-1.15000e+00	3.299171e+07	
24	-1.20000e+00	3.868988e+07	
25	-1.25000e+00	4.427978e+07	
26	-1.30000e+00	4.971331e+07	
27	-1.35000e+00	5.496863e+07	
28	-1.40000e+00	6.004039e+07	
29	-1.45000e+00	6.493280e+07	
30	-1.50000e+00	6.965516e+07	
31	-1.55000e+00	7.421902e+07	
32	-1.60000e+00	7.863657e+07	
33	-1.65000e+00	8.291966e+07	
34	-1.70000e+00	8.707942e+07	
35	-1.75000e+00	9.112598e+07	
36	-1.80000e+00	9.506847e+07	
37	-1.85000e+00	9.891500e+07	
38	-1.90000e+00	1.026728e+08	
39	-1.95000e+00	1.063482e+08	
40	-2.00000e+00	1.099470e+08	
41	-2.05000e+00	1.134740e+08	
42	-2.10000e+00	1.169338e+08	
43	-2.15000e+00	1.203302e+08	
44	-2.20000e+00	1.236667e+08	
45	-2.25000e+00	1.269463e+08	
46	-2.30000e+00	1.301716e+08	
47	-2.35000e+00	1.333447e+08	
48	-2.40000e+00	1.364673e+08	
49	-2.45000e+00	1.395405e+08	
50	-2.50000e+00	1.425646e+08	
51	-2.55000e+00	1.455391e+08	
52	-2.60000e+00	1.484626e+08	
53	-2.65000e+00	1.513321e+08	
54	-2.70000e+00	1.541429e+08	

Index   v-sweep         rds             
--------------------------------------------------------------------------------
55	-2.75000e+00	1.568885e+08	
56	-2.80000e+00	1.595595e+08	
57	-2.85000e+00	1.621440e+08	
58	-2.90000e+00	1.646264e+08	
59	-2.95000e+00	1.669872e+08	
60	-3.00000e+00	1.692025e+08	
61	-3.05000e+00	1.712438e+08	
62	-3.10000e+00	1.730776e+08	
63	-3.15000e+00	1.746654e+08	
64	-3.20000e+00	1.759640e+08	
65	-3.25000e+00	1.769263e+08	
66	-3.30000e+00	1.775022e+08	
Reset re-loads circuit ***************************

Circuit: ***************************

Doing analysis at TEMP = 25.000000 and TNOM = 25.000000


No. of Data Rows : 67
                          ***************************
                          DC transfer characteristic  Mon Jan  9 13:58:25  2023
--------------------------------------------------------------------------------
Index   v-sweep         rds             
--------------------------------------------------------------------------------
0	0.000000e+00	4.069818e+04	
1	-5.00000e-02	4.267634e+04	
2	-1.00000e-01	4.485562e+04	
3	-1.50000e-01	4.726830e+04	
4	-2.00000e-01	4.995394e+04	
5	-2.50000e-01	5.296155e+04	
6	-3.00000e-01	5.635258e+04	
7	-3.50000e-01	6.020514e+04	
8	-4.00000e-01	6.461996e+04	
9	-4.50000e-01	6.972922e+04	
10	-5.00000e-01	7.570967e+04	
11	-5.50000e-01	8.280298e+04	
12	-6.00000e-01	9.134786e+04	
13	-6.50000e-01	1.018332e+05	
14	-7.00000e-01	1.149884e+05	
15	-7.50000e-01	1.319455e+05	
16	-8.00000e-01	1.545408e+05	
17	-8.50000e-01	1.859058e+05	
18	-9.00000e-01	2.316693e+05	
19	-9.50000e-01	3.024501e+05	
20	-1.00000e+00	4.188521e+05	
21	-1.05000e+00	6.201212e+05	
22	-1.10000e+00	9.741507e+05	
23	-1.15000e+00	1.577787e+06	
24	-1.20000e+00	2.534026e+06	
25	-1.25000e+00	3.912468e+06	
26	-1.30000e+00	5.720404e+06	
27	-1.35000e+00	7.903237e+06	
28	-1.40000e+00	1.036839e+07	
29	-1.45000e+00	1.301449e+07	
30	-1.50000e+00	1.575223e+07	
31	-1.55000e+00	1.851345e+07	
32	-1.60000e+00	2.125170e+07	
33	-1.65000e+00	2.393844e+07	
34	-1.70000e+00	2.655824e+07	
35	-1.75000e+00	2.910448e+07	
36	-1.80000e+00	3.157604e+07	
37	-1.85000e+00	3.397504e+07	
38	-1.90000e+00	3.630530e+07	
39	-1.95000e+00	3.857142e+07	
40	-2.00000e+00	4.077818e+07	
41	-2.05000e+00	4.293024e+07	
42	-2.10000e+00	4.503200e+07	
43	-2.15000e+00	4.708745e+07	
44	-2.20000e+00	4.910023e+07	
45	-2.25000e+00	5.107357e+07	
46	-2.30000e+00	5.301039e+07	
47	-2.35000e+00	5.491323e+07	
48	-2.40000e+00	5.678439e+07	
49	-2.45000e+00	5.862588e+07	
50	-2.50000e+00	6.043949e+07	
51	-2.55000e+00	6.222679e+07	
52	-2.60000e+00	6.398913e+07	
53	-2.65000e+00	6.572770e+07	
54	-2.70000e+00	6.744344e+07	

Index   v-sweep         rds             
--------------------------------------------------------------------------------
55	-2.75000e+00	6.913707e+07	
56	-2.80000e+00	7.080903e+07	
57	-2.85000e+00	7.245939e+07	
58	-2.90000e+00	7.408781e+07	
59	-2.95000e+00	7.569337e+07	
60	-3.00000e+00	7.727444e+07	
61	-3.05000e+00	7.882850e+07	
62	-3.10000e+00	8.035193e+07	
63	-3.15000e+00	8.183977e+07	
64	-3.20000e+00	8.328540e+07	
65	-3.25000e+00	8.468034e+07	
66	-3.30000e+00	8.601389e+07	
Reset re-loads circuit ***************************

Circuit: ***************************

Doing analysis at TEMP = 25.000000 and TNOM = 25.000000


No. of Data Rows : 67
                          ***************************
                          DC transfer characteristic  Mon Jan  9 13:58:25  2023
--------------------------------------------------------------------------------
Index   v-sweep         rds             
--------------------------------------------------------------------------------
0	0.000000e+00	3.257850e+04	
1	-5.00000e-02	3.373027e+04	
2	-1.00000e-01	3.496599e+04	
3	-1.50000e-01	3.629514e+04	
4	-2.00000e-01	3.772876e+04	
5	-2.50000e-01	3.927964e+04	
6	-3.00000e-01	4.096277e+04	
7	-3.50000e-01	4.279580e+04	
8	-4.00000e-01	4.479968e+04	
9	-4.50000e-01	4.699940e+04	
10	-5.00000e-01	4.942510e+04	
11	-5.50000e-01	5.211341e+04	
12	-6.00000e-01	5.510931e+04	
13	-6.50000e-01	5.846859e+04	
14	-7.00000e-01	6.226135e+04	
15	-7.50000e-01	6.657685e+04	
16	-8.00000e-01	7.153040e+04	
17	-8.50000e-01	7.727356e+04	
18	-9.00000e-01	8.400926e+04	
19	-9.50000e-01	9.201519e+04	
20	-1.00000e+00	1.016805e+05	
21	-1.05000e+00	1.135660e+05	
22	-1.10000e+00	1.285046e+05	
23	-1.15000e+00	1.477776e+05	
24	-1.20000e+00	1.734299e+05	
25	-1.25000e+00	2.088530e+05	
26	-1.30000e+00	2.598669e+05	
27	-1.35000e+00	3.366784e+05	
28	-1.40000e+00	4.570785e+05	
29	-1.45000e+00	6.504675e+05	
30	-1.50000e+00	9.599689e+05	
31	-1.55000e+00	1.437489e+06	
32	-1.60000e+00	2.129372e+06	
33	-1.65000e+00	3.059172e+06	
34	-1.70000e+00	4.218659e+06	
35	-1.75000e+00	5.571953e+06	
36	-1.80000e+00	7.068229e+06	
37	-1.85000e+00	8.655054e+06	
38	-1.90000e+00	1.028728e+07	
39	-1.95000e+00	1.193065e+07	
40	-2.00000e+00	1.356166e+07	
41	-2.05000e+00	1.516570e+07	
42	-2.10000e+00	1.673469e+07	
43	-2.15000e+00	1.826499e+07	
44	-2.20000e+00	1.975584e+07	
45	-2.25000e+00	2.120817e+07	
46	-2.30000e+00	2.262385e+07	
47	-2.35000e+00	2.400518e+07	
48	-2.40000e+00	2.535465e+07	
49	-2.45000e+00	2.667469e+07	
50	-2.50000e+00	2.796759e+07	
51	-2.55000e+00	2.923551e+07	
52	-2.60000e+00	3.048036e+07	
53	-2.65000e+00	3.170391e+07	
54	-2.70000e+00	3.290772e+07	

Index   v-sweep         rds             
--------------------------------------------------------------------------------
55	-2.75000e+00	3.409318e+07	
56	-2.80000e+00	3.526153e+07	
57	-2.85000e+00	3.641387e+07	
58	-2.90000e+00	3.755118e+07	
59	-2.95000e+00	3.867430e+07	
60	-3.00000e+00	3.978396e+07	
61	-3.05000e+00	4.088079e+07	
62	-3.10000e+00	4.196526e+07	
63	-3.15000e+00	4.303770e+07	
64	-3.20000e+00	4.409825e+07	
65	-3.25000e+00	4.514681e+07	
66	-3.30000e+00	4.618298e+07	
Reset re-loads circuit ***************************

Circuit: ***************************

Doing analysis at TEMP = 25.000000 and TNOM = 25.000000


No. of Data Rows : 67
                          ***************************
                          DC transfer characteristic  Mon Jan  9 13:58:25  2023
--------------------------------------------------------------------------------
Index   v-sweep         rds             
--------------------------------------------------------------------------------
0	0.000000e+00	2.782386e+04	
1	-5.00000e-02	2.858684e+04	
2	-1.00000e-01	2.939255e+04	
3	-1.50000e-01	3.024468e+04	
4	-2.00000e-01	3.114736e+04	
5	-2.50000e-01	3.210522e+04	
6	-3.00000e-01	3.312349e+04	
7	-3.50000e-01	3.420805e+04	
8	-4.00000e-01	3.536560e+04	
9	-4.50000e-01	3.660376e+04	
10	-5.00000e-01	3.793124e+04	
11	-5.50000e-01	3.935805e+04	
12	-6.00000e-01	4.089578e+04	
13	-6.50000e-01	4.255787e+04	
14	-7.00000e-01	4.436000e+04	
15	-7.50000e-01	4.632062e+04	
16	-8.00000e-01	4.846158e+04	
17	-8.50000e-01	5.080889e+04	
18	-9.00000e-01	5.339379e+04	
19	-9.50000e-01	5.625418e+04	
20	-1.00000e+00	5.943639e+04	
21	-1.05000e+00	6.299768e+04	
22	-1.10000e+00	6.700967e+04	
23	-1.15000e+00	7.156303e+04	
24	-1.20000e+00	7.677419e+04	
25	-1.25000e+00	8.279502e+04	
26	-1.30000e+00	8.982706e+04	
27	-1.35000e+00	9.814307e+04	
28	-1.40000e+00	1.081202e+05	
29	-1.45000e+00	1.202927e+05	
30	-1.50000e+00	1.354375e+05	
31	-1.55000e+00	1.547169e+05	
32	-1.60000e+00	1.799217e+05	
33	-1.65000e+00	2.138888e+05	
34	-1.70000e+00	2.612151e+05	
35	-1.75000e+00	3.294187e+05	
36	-1.80000e+00	4.306177e+05	
37	-1.85000e+00	5.833429e+05	
38	-1.90000e+00	8.131163e+05	
39	-1.95000e+00	1.149599e+06	
40	-2.00000e+00	1.619357e+06	
41	-2.05000e+00	2.236951e+06	
42	-2.10000e+00	2.999537e+06	
43	-2.15000e+00	3.888003e+06	
44	-2.20000e+00	4.873210e+06	
45	-2.25000e+00	5.923483e+06	
46	-2.30000e+00	7.010244e+06	
47	-2.35000e+00	8.110810e+06	
48	-2.40000e+00	9.208897e+06	
49	-2.45000e+00	1.029382e+07	
50	-2.50000e+00	1.135921e+07	
51	-2.55000e+00	1.240181e+07	
52	-2.60000e+00	1.342041e+07	
53	-2.65000e+00	1.441509e+07	
54	-2.70000e+00	1.538670e+07	

Index   v-sweep         rds             
--------------------------------------------------------------------------------
55	-2.75000e+00	1.633651e+07	
56	-2.80000e+00	1.726594e+07	
57	-2.85000e+00	1.817648e+07	
58	-2.90000e+00	1.906957e+07	
59	-2.95000e+00	1.994656e+07	
60	-3.00000e+00	2.080870e+07	
61	-3.05000e+00	2.165711e+07	
62	-3.10000e+00	2.249283e+07	
63	-3.15000e+00	2.331677e+07	
64	-3.20000e+00	2.412974e+07	
65	-3.25000e+00	2.493248e+07	
66	-3.30000e+00	2.572563e+07	
Reset re-loads circuit ***************************

Circuit: ***************************

Note: No ".plot", ".print", or ".fourier" lines; no simulations run
