
Note: Compatibility modes selected: hs

Warning: m=xx on .subckt line will override multiplier m hierarchy!


Circuit: ***************************

Doing analysis at TEMP = -40.000000 and TNOM = -40.000000


No. of Data Rows : 67
                          ***************************
                          DC transfer characteristic  Mon Jan  9 13:58:26  2023
--------------------------------------------------------------------------------
Index   v-sweep         rds             
--------------------------------------------------------------------------------
0	0.000000e+00	8.695019e+06	
1	-5.00000e-02	1.021131e+08	
2	-1.00000e-01	9.431417e+08	
3	-1.50000e-01	3.408318e+09	
4	-2.00000e-01	7.425997e+09	
5	-2.50000e-01	1.211423e+10	
6	-3.00000e-01	1.663406e+10	
7	-3.50000e-01	2.058744e+10	
8	-4.00000e-01	2.390872e+10	
9	-4.50000e-01	2.667312e+10	
10	-5.00000e-01	2.898732e+10	
11	-5.50000e-01	3.094805e+10	
12	-6.00000e-01	3.263235e+10	
13	-6.50000e-01	3.409879e+10	
14	-7.00000e-01	3.539128e+10	
15	-7.50000e-01	3.654283e+10	
16	-8.00000e-01	3.757845e+10	
17	-8.50000e-01	3.851735e+10	
18	-9.00000e-01	3.937450e+10	
19	-9.50000e-01	4.016172e+10	
20	-1.00000e+00	4.088848e+10	
21	-1.05000e+00	4.156248e+10	
22	-1.10000e+00	4.219002e+10	
23	-1.15000e+00	4.277636e+10	
24	-1.20000e+00	4.332592e+10	
25	-1.25000e+00	4.384245e+10	
26	-1.30000e+00	4.432914e+10	
27	-1.35000e+00	4.478876e+10	
28	-1.40000e+00	4.522371e+10	
29	-1.45000e+00	4.563608e+10	
30	-1.50000e+00	4.602772e+10	
31	-1.55000e+00	4.640025e+10	
32	-1.60000e+00	4.675510e+10	
33	-1.65000e+00	4.709355e+10	
34	-1.70000e+00	4.741670e+10	
35	-1.75000e+00	4.772553e+10	
36	-1.80000e+00	4.802088e+10	
37	-1.85000e+00	4.830345e+10	
38	-1.90000e+00	4.857381e+10	
39	-1.95000e+00	4.883237e+10	
40	-2.00000e+00	4.907941e+10	
41	-2.05000e+00	4.931501e+10	
42	-2.10000e+00	4.953910e+10	
43	-2.15000e+00	4.975137e+10	
44	-2.20000e+00	4.995132e+10	
45	-2.25000e+00	5.013818e+10	
46	-2.30000e+00	5.031096e+10	
47	-2.35000e+00	5.046834e+10	
48	-2.40000e+00	5.060875e+10	
49	-2.45000e+00	5.073029e+10	
50	-2.50000e+00	5.083075e+10	
51	-2.55000e+00	5.090762e+10	
52	-2.60000e+00	5.095806e+10	
53	-2.65000e+00	5.097897e+10	
54	-2.70000e+00	5.096697e+10	

Index   v-sweep         rds             
--------------------------------------------------------------------------------
55	-2.75000e+00	5.091845e+10	
56	-2.80000e+00	5.082965e+10	
57	-2.85000e+00	5.069668e+10	
58	-2.90000e+00	5.051565e+10	
59	-2.95000e+00	5.028271e+10	
60	-3.00000e+00	4.999418e+10	
61	-3.05000e+00	4.964667e+10	
62	-3.10000e+00	4.923717e+10	
63	-3.15000e+00	4.876318e+10	
64	-3.20000e+00	4.822283e+10	
65	-3.25000e+00	4.761498e+10	
66	-3.30000e+00	4.693930e+10	
Reset re-loads circuit ***************************

Circuit: ***************************

Doing analysis at TEMP = -40.000000 and TNOM = -40.000000


No. of Data Rows : 67
                          ***************************
                          DC transfer characteristic  Mon Jan  9 13:58:26  2023
--------------------------------------------------------------------------------
Index   v-sweep         rds             
--------------------------------------------------------------------------------
0	0.000000e+00	2.419908e+05	
1	-5.00000e-02	2.867312e+05	
2	-1.00000e-01	3.514291e+05	
3	-1.50000e-01	4.526939e+05	
4	-2.00000e-01	6.305171e+05	
5	-2.50000e-01	9.992149e+05	
6	-3.00000e-01	1.934051e+06	
7	-3.50000e-01	4.577196e+06	
8	-4.00000e-01	1.118362e+07	
9	-4.50000e-01	2.387703e+07	
10	-5.00000e-01	4.284480e+07	
11	-5.50000e-01	6.633502e+07	
12	-6.00000e-01	9.201404e+07	
13	-6.50000e-01	1.180448e+08	
14	-7.00000e-01	1.433601e+08	
15	-7.50000e-01	1.674900e+08	
16	-8.00000e-01	1.903148e+08	
17	-8.50000e-01	2.118844e+08	
18	-9.00000e-01	2.323159e+08	
19	-9.50000e-01	2.517418e+08	
20	-1.00000e+00	2.702876e+08	
21	-1.05000e+00	2.880640e+08	
22	-1.10000e+00	3.051648e+08	
23	-1.15000e+00	3.216686e+08	
24	-1.20000e+00	3.376407e+08	
25	-1.25000e+00	3.531354e+08	
26	-1.30000e+00	3.681979e+08	
27	-1.35000e+00	3.828662e+08	
28	-1.40000e+00	3.971721e+08	
29	-1.45000e+00	4.111429e+08	
30	-1.50000e+00	4.248018e+08	
31	-1.55000e+00	4.381688e+08	
32	-1.60000e+00	4.512612e+08	
33	-1.65000e+00	4.640944e+08	
34	-1.70000e+00	4.766816e+08	
35	-1.75000e+00	4.890347e+08	
36	-1.80000e+00	5.011642e+08	
37	-1.85000e+00	5.130790e+08	
38	-1.90000e+00	5.247872e+08	
39	-1.95000e+00	5.362953e+08	
40	-2.00000e+00	5.476084e+08	
41	-2.05000e+00	5.587298e+08	
42	-2.10000e+00	5.696608e+08	
43	-2.15000e+00	5.803996e+08	
44	-2.20000e+00	5.909414e+08	
45	-2.25000e+00	6.012766e+08	
46	-2.30000e+00	6.113906e+08	
47	-2.35000e+00	6.212619e+08	
48	-2.40000e+00	6.308610e+08	
49	-2.45000e+00	6.401490e+08	
50	-2.50000e+00	6.490755e+08	
51	-2.55000e+00	6.575779e+08	
52	-2.60000e+00	6.655790e+08	
53	-2.65000e+00	6.729863e+08	
54	-2.70000e+00	6.796908e+08	

Index   v-sweep         rds             
--------------------------------------------------------------------------------
55	-2.75000e+00	6.855673e+08	
56	-2.80000e+00	6.904740e+08	
57	-2.85000e+00	6.942549e+08	
58	-2.90000e+00	6.967423e+08	
59	-2.95000e+00	6.977611e+08	
60	-3.00000e+00	6.971349e+08	
61	-3.05000e+00	6.946935e+08	
62	-3.10000e+00	6.902812e+08	
63	-3.15000e+00	6.837673e+08	
64	-3.20000e+00	6.750555e+08	
65	-3.25000e+00	6.640936e+08	
66	-3.30000e+00	6.508811e+08	
Reset re-loads circuit ***************************

Circuit: ***************************

Doing analysis at TEMP = -40.000000 and TNOM = -40.000000


No. of Data Rows : 67
                          ***************************
                          DC transfer characteristic  Mon Jan  9 13:58:26  2023
--------------------------------------------------------------------------------
Index   v-sweep         rds             
--------------------------------------------------------------------------------
0	0.000000e+00	1.206778e+05	
1	-5.00000e-02	1.305287e+05	
2	-1.00000e-01	1.421154e+05	
3	-1.50000e-01	1.559389e+05	
4	-2.00000e-01	1.727124e+05	
5	-2.50000e-01	1.934844e+05	
6	-3.00000e-01	2.198592e+05	
7	-3.50000e-01	2.544095e+05	
8	-4.00000e-01	3.015024e+05	
9	-4.50000e-01	3.690747e+05	
10	-5.00000e-01	4.727380e+05	
11	-5.50000e-01	6.458607e+05	
12	-6.00000e-01	9.643784e+05	
13	-6.50000e-01	1.598862e+06	
14	-7.00000e-01	2.874149e+06	
15	-7.50000e-01	5.217530e+06	
16	-8.00000e-01	8.914115e+06	
17	-8.50000e-01	1.389355e+07	
18	-9.00000e-01	1.978924e+07	
19	-9.50000e-01	2.616081e+07	
20	-1.00000e+00	3.265850e+07	
21	-1.05000e+00	3.906677e+07	
22	-1.10000e+00	4.527884e+07	
23	-1.15000e+00	5.125654e+07	
24	-1.20000e+00	5.699847e+07	
25	-1.25000e+00	6.252021e+07	
26	-1.30000e+00	6.784344e+07	
27	-1.35000e+00	7.299058e+07	
28	-1.40000e+00	7.798241e+07	
29	-1.45000e+00	8.283721e+07	
30	-1.50000e+00	8.757065e+07	
31	-1.55000e+00	9.219597e+07	
32	-1.60000e+00	9.672435e+07	
33	-1.65000e+00	1.011651e+08	
34	-1.70000e+00	1.055262e+08	
35	-1.75000e+00	1.098142e+08	
36	-1.80000e+00	1.140348e+08	
37	-1.85000e+00	1.181929e+08	
38	-1.90000e+00	1.222924e+08	
39	-1.95000e+00	1.263370e+08	
40	-2.00000e+00	1.303297e+08	
41	-2.05000e+00	1.342732e+08	
42	-2.10000e+00	1.381699e+08	
43	-2.15000e+00	1.420216e+08	
44	-2.20000e+00	1.458302e+08	
45	-2.25000e+00	1.495969e+08	
46	-2.30000e+00	1.533227e+08	
47	-2.35000e+00	1.570083e+08	
48	-2.40000e+00	1.606535e+08	
49	-2.45000e+00	1.642578e+08	
50	-2.50000e+00	1.678194e+08	
51	-2.55000e+00	1.713355e+08	
52	-2.60000e+00	1.748016e+08	
53	-2.65000e+00	1.782113e+08	
54	-2.70000e+00	1.815558e+08	

Index   v-sweep         rds             
--------------------------------------------------------------------------------
55	-2.75000e+00	1.848233e+08	
56	-2.80000e+00	1.879982e+08	
57	-2.85000e+00	1.910609e+08	
58	-2.90000e+00	1.939870e+08	
59	-2.95000e+00	1.967465e+08	
60	-3.00000e+00	1.993038e+08	
61	-3.05000e+00	2.016169e+08	
62	-3.10000e+00	2.036376e+08	
63	-3.15000e+00	2.053120e+08	
64	-3.20000e+00	2.065810e+08	
65	-3.25000e+00	2.073819e+08	
66	-3.30000e+00	2.076504e+08	
Reset re-loads circuit ***************************

Circuit: ***************************

Doing analysis at TEMP = -40.000000 and TNOM = -40.000000


No. of Data Rows : 67
                          ***************************
                          DC transfer characteristic  Mon Jan  9 13:58:26  2023
--------------------------------------------------------------------------------
Index   v-sweep         rds             
--------------------------------------------------------------------------------
0	0.000000e+00	8.397750e+04	
1	-5.00000e-02	8.829500e+04	
2	-1.00000e-01	9.307560e+04	
3	-1.50000e-01	9.839794e+04	
4	-2.00000e-01	1.043595e+05	
5	-2.50000e-01	1.110825e+05	
6	-3.00000e-01	1.187223e+05	
7	-3.50000e-01	1.274797e+05	
8	-4.00000e-01	1.376180e+05	
9	-4.50000e-01	1.494898e+05	
10	-5.00000e-01	1.635775e+05	
11	-5.50000e-01	1.805584e+05	
12	-6.00000e-01	2.014114e+05	
13	-6.50000e-01	2.276000e+05	
14	-7.00000e-01	2.614009e+05	
15	-7.50000e-01	3.065184e+05	
16	-8.00000e-01	3.692914e+05	
17	-8.50000e-01	4.611497e+05	
18	-9.00000e-01	6.036653e+05	
19	-9.50000e-01	8.383448e+05	
20	-1.00000e+00	1.241815e+06	
21	-1.05000e+00	1.936254e+06	
22	-1.10000e+00	3.066275e+06	
23	-1.15000e+00	4.728405e+06	
24	-1.20000e+00	6.906567e+06	
25	-1.25000e+00	9.480023e+06	
26	-1.30000e+00	1.228848e+07	
27	-1.35000e+00	1.519187e+07	
28	-1.40000e+00	1.809446e+07	
29	-1.45000e+00	2.094222e+07	
30	-1.50000e+00	2.371043e+07	
31	-1.55000e+00	2.639195e+07	
32	-1.60000e+00	2.898882e+07	
33	-1.65000e+00	3.150730e+07	
34	-1.70000e+00	3.395506e+07	
35	-1.75000e+00	3.633981e+07	
36	-1.80000e+00	3.866867e+07	
37	-1.85000e+00	4.094793e+07	
38	-1.90000e+00	4.318302e+07	
39	-1.95000e+00	4.537861e+07	
40	-2.00000e+00	4.753862e+07	
41	-2.05000e+00	4.966642e+07	
42	-2.10000e+00	5.176484e+07	
43	-2.15000e+00	5.383629e+07	
44	-2.20000e+00	5.588283e+07	
45	-2.25000e+00	5.790623e+07	
46	-2.30000e+00	5.990799e+07	
47	-2.35000e+00	6.188942e+07	
48	-2.40000e+00	6.385166e+07	
49	-2.45000e+00	6.579566e+07	
50	-2.50000e+00	6.772227e+07	
51	-2.55000e+00	6.963218e+07	
52	-2.60000e+00	7.152593e+07	
53	-2.65000e+00	7.340390e+07	
54	-2.70000e+00	7.526626e+07	

Index   v-sweep         rds             
--------------------------------------------------------------------------------
55	-2.75000e+00	7.711294e+07	
56	-2.80000e+00	7.894349e+07	
57	-2.85000e+00	8.075704e+07	
58	-2.90000e+00	8.255208e+07	
59	-2.95000e+00	8.432636e+07	
60	-3.00000e+00	8.607664e+07	
61	-3.05000e+00	8.779841e+07	
62	-3.10000e+00	8.948567e+07	
63	-3.15000e+00	9.113056e+07	
64	-3.20000e+00	9.272304e+07	
65	-3.25000e+00	9.425056e+07	
66	-3.30000e+00	9.569772e+07	
Reset re-loads circuit ***************************

Circuit: ***************************

Doing analysis at TEMP = -40.000000 and TNOM = -40.000000


No. of Data Rows : 67
                          ***************************
                          DC transfer characteristic  Mon Jan  9 13:58:26  2023
--------------------------------------------------------------------------------
Index   v-sweep         rds             
--------------------------------------------------------------------------------
0	0.000000e+00	6.670529e+04	
1	-5.00000e-02	6.917194e+04	
2	-1.00000e-01	7.182559e+04	
3	-1.50000e-01	7.468833e+04	
4	-2.00000e-01	7.778586e+04	
5	-2.50000e-01	8.114828e+04	
6	-3.00000e-01	8.481104e+04	
7	-3.50000e-01	8.881622e+04	
8	-4.00000e-01	9.321412e+04	
9	-4.50000e-01	9.806537e+04	
10	-5.00000e-01	1.034437e+05	
11	-5.50000e-01	1.094398e+05	
12	-6.00000e-01	1.161661e+05	
13	-6.50000e-01	1.237642e+05	
14	-7.00000e-01	1.324144e+05	
15	-7.50000e-01	1.423501e+05	
16	-8.00000e-01	1.538781e+05	
17	-8.50000e-01	1.674104e+05	
18	-9.00000e-01	1.835115e+05	
19	-9.50000e-01	2.029739e+05	
20	-1.00000e+00	2.269424e+05	
21	-1.05000e+00	2.571217e+05	
22	-1.10000e+00	2.961399e+05	
23	-1.15000e+00	3.481984e+05	
24	-1.20000e+00	4.202611e+05	
25	-1.25000e+00	5.242123e+05	
26	-1.30000e+00	6.805425e+05	
27	-1.35000e+00	9.235664e+05	
28	-1.40000e+00	1.305430e+06	
29	-1.45000e+00	1.890958e+06	
30	-1.50000e+00	2.735665e+06	
31	-1.55000e+00	3.855961e+06	
32	-1.60000e+00	5.217049e+06	
33	-1.65000e+00	6.749598e+06	
34	-1.70000e+00	8.378410e+06	
35	-1.75000e+00	1.004253e+07	
36	-1.80000e+00	1.170136e+07	
37	-1.85000e+00	1.333196e+07	
38	-1.90000e+00	1.492371e+07	
39	-1.95000e+00	1.647345e+07	
40	-2.00000e+00	1.798204e+07	
41	-2.05000e+00	1.945227e+07	
42	-2.10000e+00	2.088765e+07	
43	-2.15000e+00	2.229177e+07	
44	-2.20000e+00	2.366799e+07	
45	-2.25000e+00	2.501934e+07	
46	-2.30000e+00	2.634847e+07	
47	-2.35000e+00	2.765767e+07	
48	-2.40000e+00	2.894889e+07	
49	-2.45000e+00	3.022382e+07	
50	-2.50000e+00	3.148387e+07	
51	-2.55000e+00	3.273029e+07	
52	-2.60000e+00	3.396412e+07	
53	-2.65000e+00	3.518627e+07	
54	-2.70000e+00	3.639750e+07	

Index   v-sweep         rds             
--------------------------------------------------------------------------------
55	-2.75000e+00	3.759850e+07	
56	-2.80000e+00	3.878984e+07	
57	-2.85000e+00	3.997202e+07	
58	-2.90000e+00	4.114545e+07	
59	-2.95000e+00	4.231047e+07	
60	-3.00000e+00	4.346734e+07	
61	-3.05000e+00	4.461618e+07	
62	-3.10000e+00	4.575700e+07	
63	-3.15000e+00	4.688963e+07	
64	-3.20000e+00	4.801365e+07	
65	-3.25000e+00	4.912832e+07	
66	-3.30000e+00	5.023249e+07	
Reset re-loads circuit ***************************

Circuit: ***************************

Doing analysis at TEMP = -40.000000 and TNOM = -40.000000


No. of Data Rows : 67
                          ***************************
                          DC transfer characteristic  Mon Jan  9 13:58:26  2023
--------------------------------------------------------------------------------
Index   v-sweep         rds             
--------------------------------------------------------------------------------
0	0.000000e+00	5.684440e+04	
1	-5.00000e-02	5.846320e+04	
2	-1.00000e-01	6.017545e+04	
3	-1.50000e-01	6.198949e+04	
4	-2.00000e-01	6.391466e+04	
5	-2.50000e-01	6.596149e+04	
6	-3.00000e-01	6.814189e+04	
7	-3.50000e-01	7.046935e+04	
8	-4.00000e-01	7.295928e+04	
9	-4.50000e-01	7.562927e+04	
10	-5.00000e-01	7.849958e+04	
11	-5.50000e-01	8.159361e+04	
12	-6.00000e-01	8.493853e+04	
13	-6.50000e-01	8.856611e+04	
14	-7.00000e-01	9.251370e+04	
15	-7.50000e-01	9.682552e+04	
16	-8.00000e-01	1.015543e+05	
17	-8.50000e-01	1.067634e+05	
18	-9.00000e-01	1.125297e+05	
19	-9.50000e-01	1.189472e+05	
20	-1.00000e+00	1.261325e+05	
21	-1.05000e+00	1.342310e+05	
22	-1.10000e+00	1.434275e+05	
23	-1.15000e+00	1.539591e+05	
24	-1.20000e+00	1.661359e+05	
25	-1.25000e+00	1.803695e+05	
26	-1.30000e+00	1.972180e+05	
27	-1.35000e+00	2.174541e+05	
28	-1.40000e+00	2.421732e+05	
29	-1.45000e+00	2.729699e+05	
30	-1.50000e+00	3.122287e+05	
31	-1.55000e+00	3.636132e+05	
32	-1.60000e+00	4.328870e+05	
33	-1.65000e+00	5.292431e+05	
34	-1.70000e+00	6.672522e+05	
35	-1.75000e+00	8.690400e+05	
36	-1.80000e+00	1.164959e+06	
37	-1.85000e+00	1.589372e+06	
38	-1.90000e+00	2.169452e+06	
39	-1.95000e+00	2.911807e+06	
40	-2.00000e+00	3.797284e+06	
41	-2.05000e+00	4.788540e+06	
42	-2.10000e+00	5.843762e+06	
43	-2.15000e+00	6.927347e+06	
44	-2.20000e+00	8.014107e+06	
45	-2.25000e+00	9.088706e+06	
46	-2.30000e+00	1.014317e+07	
47	-2.35000e+00	1.117430e+07	
48	-2.40000e+00	1.218170e+07	
49	-2.45000e+00	1.316642e+07	
50	-2.50000e+00	1.413020e+07	
51	-2.55000e+00	1.507497e+07	
52	-2.60000e+00	1.600266e+07	
53	-2.65000e+00	1.691503e+07	
54	-2.70000e+00	1.781369e+07	

Index   v-sweep         rds             
--------------------------------------------------------------------------------
55	-2.75000e+00	1.870002e+07	
56	-2.80000e+00	1.957524e+07	
57	-2.85000e+00	2.044040e+07	
58	-2.90000e+00	2.129639e+07	
59	-2.95000e+00	2.214399e+07	
60	-3.00000e+00	2.298387e+07	
61	-3.05000e+00	2.381661e+07	
62	-3.10000e+00	2.464270e+07	
63	-3.15000e+00	2.546257e+07	
64	-3.20000e+00	2.627659e+07	
65	-3.25000e+00	2.708507e+07	
66	-3.30000e+00	2.788830e+07	
Reset re-loads circuit ***************************

Circuit: ***************************

Note: No ".plot", ".print", or ".fourier" lines; no simulations run
