
Note: Compatibility modes selected: hs

Warning: m=xx on .subckt line will override multiplier m hierarchy!


Circuit: ***************************

Doing analysis at TEMP = -40.000000 and TNOM = -40.000000


No. of Data Rows : 67
                          ***************************
                          DC transfer characteristic  Mon Jan  9 13:58:26  2023
--------------------------------------------------------------------------------
Index   v-sweep         rds             
--------------------------------------------------------------------------------
0	0.000000e+00	1.397356e+07	
1	-5.00000e-02	1.495981e+08	
2	-1.00000e-01	1.395513e+09	
3	-1.50000e-01	5.140051e+09	
4	-2.00000e-01	1.136149e+10	
5	-2.50000e-01	1.874035e+10	
6	-3.00000e-01	2.594924e+10	
7	-3.50000e-01	3.231986e+10	
8	-4.00000e-01	3.771366e+10	
9	-4.50000e-01	4.222969e+10	
10	-5.00000e-01	4.602763e+10	
11	-5.50000e-01	4.925727e+10	
12	-6.00000e-01	5.203998e+10	
13	-6.50000e-01	5.446892e+10	
14	-7.00000e-01	5.661448e+10	
15	-7.50000e-01	5.852977e+10	
16	-8.00000e-01	6.025522e+10	
17	-8.50000e-01	6.182199e+10	
18	-9.00000e-01	6.325438e+10	
19	-9.50000e-01	6.457164e+10	
20	-1.00000e+00	6.578921e+10	
21	-1.05000e+00	6.691965e+10	
22	-1.10000e+00	6.797329e+10	
23	-1.15000e+00	6.895873e+10	
24	-1.20000e+00	6.988321e+10	
25	-1.25000e+00	7.075288e+10	
26	-1.30000e+00	7.157299e+10	
27	-1.35000e+00	7.234810e+10	
28	-1.40000e+00	7.308214e+10	
29	-1.45000e+00	7.377858e+10	
30	-1.50000e+00	7.444045e+10	
31	-1.55000e+00	7.507042e+10	
32	-1.60000e+00	7.567088e+10	
33	-1.65000e+00	7.624391e+10	
34	-1.70000e+00	7.679135e+10	
35	-1.75000e+00	7.731483e+10	
36	-1.80000e+00	7.781572e+10	
37	-1.85000e+00	7.829519e+10	
38	-1.90000e+00	7.875417e+10	
39	-1.95000e+00	7.919335e+10	
40	-2.00000e+00	7.961317e+10	
41	-2.05000e+00	8.001376e+10	
42	-2.10000e+00	8.039497e+10	
43	-2.15000e+00	8.075629e+10	
44	-2.20000e+00	8.109683e+10	
45	-2.25000e+00	8.141531e+10	
46	-2.30000e+00	8.171000e+10	
47	-2.35000e+00	8.197867e+10	
48	-2.40000e+00	8.221863e+10	
49	-2.45000e+00	8.242665e+10	
50	-2.50000e+00	8.259897e+10	
51	-2.55000e+00	8.273130e+10	
52	-2.60000e+00	8.281882e+10	
53	-2.65000e+00	8.285624e+10	
54	-2.70000e+00	8.283781e+10	

Index   v-sweep         rds             
--------------------------------------------------------------------------------
55	-2.75000e+00	8.275743e+10	
56	-2.80000e+00	8.260869e+10	
57	-2.85000e+00	8.238504e+10	
58	-2.90000e+00	8.207989e+10	
59	-2.95000e+00	8.168679e+10	
60	-3.00000e+00	8.119960e+10	
61	-3.05000e+00	8.061266e+10	
62	-3.10000e+00	7.992107e+10	
63	-3.15000e+00	7.912078e+10	
64	-3.20000e+00	7.820889e+10	
65	-3.25000e+00	7.718375e+10	
66	-3.30000e+00	7.604515e+10	
Reset re-loads circuit ***************************

Circuit: ***************************

Doing analysis at TEMP = -40.000000 and TNOM = -40.000000


No. of Data Rows : 67
                          ***************************
                          DC transfer characteristic  Mon Jan  9 13:58:26  2023
--------------------------------------------------------------------------------
Index   v-sweep         rds             
--------------------------------------------------------------------------------
0	0.000000e+00	4.640150e+05	
1	-5.00000e-02	5.490093e+05	
2	-1.00000e-01	6.715016e+05	
3	-1.50000e-01	8.622891e+05	
4	-2.00000e-01	1.194859e+06	
5	-2.50000e-01	1.877000e+06	
6	-3.00000e-01	3.585552e+06	
7	-3.50000e-01	8.394602e+06	
8	-4.00000e-01	2.050320e+07	
9	-4.50000e-01	4.403816e+07	
10	-5.00000e-01	7.956661e+07	
11	-5.50000e-01	1.239042e+08	
12	-6.00000e-01	1.726344e+08	
13	-6.50000e-01	2.222125e+08	
14	-7.00000e-01	2.705463e+08	
15	-7.50000e-01	3.166936e+08	
16	-8.00000e-01	3.603953e+08	
17	-8.50000e-01	4.017286e+08	
18	-9.00000e-01	4.409059e+08	
19	-9.50000e-01	4.781738e+08	
20	-1.00000e+00	5.137684e+08	
21	-1.05000e+00	5.478984e+08	
22	-1.10000e+00	5.807419e+08	
23	-1.15000e+00	6.124479e+08	
24	-1.20000e+00	6.431408e+08	
25	-1.25000e+00	6.729237e+08	
26	-1.30000e+00	7.018828e+08	
27	-1.35000e+00	7.300903e+08	
28	-1.40000e+00	7.576070e+08	
29	-1.45000e+00	7.844847e+08	
30	-1.50000e+00	8.107676e+08	
31	-1.55000e+00	8.364939e+08	
32	-1.60000e+00	8.616968e+08	
33	-1.65000e+00	8.864051e+08	
34	-1.70000e+00	9.106443e+08	
35	-1.75000e+00	9.344370e+08	
36	-1.80000e+00	9.578030e+08	
37	-1.85000e+00	9.807596e+08	
38	-1.90000e+00	1.003322e+09	
39	-1.95000e+00	1.025502e+09	
40	-2.00000e+00	1.047311e+09	
41	-2.05000e+00	1.068754e+09	
42	-2.10000e+00	1.089833e+09	
43	-2.15000e+00	1.110546e+09	
44	-2.20000e+00	1.130883e+09	
45	-2.25000e+00	1.150827e+09	
46	-2.30000e+00	1.170349e+09	
47	-2.35000e+00	1.189408e+09	
48	-2.40000e+00	1.207948e+09	
49	-2.45000e+00	1.225894e+09	
50	-2.50000e+00	1.243151e+09	
51	-2.55000e+00	1.259599e+09	
52	-2.60000e+00	1.275089e+09	
53	-2.65000e+00	1.289443e+09	
54	-2.70000e+00	1.302454e+09	

Index   v-sweep         rds             
--------------------------------------------------------------------------------
55	-2.75000e+00	1.313880e+09	
56	-2.80000e+00	1.323448e+09	
57	-2.85000e+00	1.330857e+09	
58	-2.90000e+00	1.335785e+09	
59	-2.95000e+00	1.337894e+09	
60	-3.00000e+00	1.336842e+09	
61	-3.05000e+00	1.332300e+09	
62	-3.10000e+00	1.323966e+09	
63	-3.15000e+00	1.311587e+09	
64	-3.20000e+00	1.294975e+09	
65	-3.25000e+00	1.274026e+09	
66	-3.30000e+00	1.248737e+09	
Reset re-loads circuit ***************************

Circuit: ***************************

Doing analysis at TEMP = -40.000000 and TNOM = -40.000000


No. of Data Rows : 67
                          ***************************
                          DC transfer characteristic  Mon Jan  9 13:58:26  2023
--------------------------------------------------------------------------------
Index   v-sweep         rds             
--------------------------------------------------------------------------------
0	0.000000e+00	2.307192e+05	
1	-5.00000e-02	2.495015e+05	
2	-1.00000e-01	2.715840e+05	
3	-1.50000e-01	2.979164e+05	
4	-2.00000e-01	3.298490e+05	
5	-2.50000e-01	3.693652e+05	
6	-3.00000e-01	4.194948e+05	
7	-3.50000e-01	4.850882e+05	
8	-4.00000e-01	5.743619e+05	
9	-4.50000e-01	7.022098e+05	
10	-5.00000e-01	8.978395e+05	
11	-5.50000e-01	1.223480e+06	
12	-6.00000e-01	1.820406e+06	
13	-6.50000e-01	3.006109e+06	
14	-7.00000e-01	5.388527e+06	
15	-7.50000e-01	9.776492e+06	
16	-8.00000e-01	1.672285e+07	
17	-8.50000e-01	2.611253e+07	
18	-9.00000e-01	3.726312e+07	
19	-9.50000e-01	4.934318e+07	
20	-1.00000e+00	6.168702e+07	
21	-1.05000e+00	7.388117e+07	
22	-1.10000e+00	8.571838e+07	
23	-1.15000e+00	9.712224e+07	
24	-1.20000e+00	1.080870e+08	
25	-1.25000e+00	1.186400e+08	
26	-1.30000e+00	1.288206e+08	
27	-1.35000e+00	1.386702e+08	
28	-1.40000e+00	1.482273e+08	
29	-1.45000e+00	1.575260e+08	
30	-1.50000e+00	1.665956e+08	
31	-1.55000e+00	1.754608e+08	
32	-1.60000e+00	1.841425e+08	
33	-1.65000e+00	1.926584e+08	
34	-1.70000e+00	2.010233e+08	
35	-1.75000e+00	2.092496e+08	
36	-1.80000e+00	2.173481e+08	
37	-1.85000e+00	2.253276e+08	
38	-1.90000e+00	2.331961e+08	
39	-1.95000e+00	2.409602e+08	
40	-2.00000e+00	2.486257e+08	
41	-2.05000e+00	2.561976e+08	
42	-2.10000e+00	2.636804e+08	
43	-2.15000e+00	2.710777e+08	
44	-2.20000e+00	2.783927e+08	
45	-2.25000e+00	2.856281e+08	
46	-2.30000e+00	2.927858e+08	
47	-2.35000e+00	2.998667e+08	
48	-2.40000e+00	3.068709e+08	
49	-2.45000e+00	3.137970e+08	
50	-2.50000e+00	3.206419e+08	
51	-2.55000e+00	3.274002e+08	
52	-2.60000e+00	3.340634e+08	
53	-2.65000e+00	3.406193e+08	
54	-2.70000e+00	3.470510e+08	

Index   v-sweep         rds             
--------------------------------------------------------------------------------
55	-2.75000e+00	3.533361e+08	
56	-2.80000e+00	3.594449e+08	
57	-2.85000e+00	3.653400e+08	
58	-2.90000e+00	3.709747e+08	
59	-2.95000e+00	3.762918e+08	
60	-3.00000e+00	3.812230e+08	
61	-3.05000e+00	3.856880e+08	
62	-3.10000e+00	3.895948e+08	
63	-3.15000e+00	3.928397e+08	
64	-3.20000e+00	3.953096e+08	
65	-3.25000e+00	3.968840e+08	
66	-3.30000e+00	3.974393e+08	
Reset re-loads circuit ***************************

Circuit: ***************************

Doing analysis at TEMP = -40.000000 and TNOM = -40.000000


No. of Data Rows : 67
                          ***************************
                          DC transfer characteristic  Mon Jan  9 13:58:26  2023
--------------------------------------------------------------------------------
Index   v-sweep         rds             
--------------------------------------------------------------------------------
0	0.000000e+00	1.598612e+05	
1	-5.00000e-02	1.681016e+05	
2	-1.00000e-01	1.772285e+05	
3	-1.50000e-01	1.873928e+05	
4	-2.00000e-01	1.987816e+05	
5	-2.50000e-01	2.116302e+05	
6	-3.00000e-01	2.262374e+05	
7	-3.50000e-01	2.429897e+05	
8	-4.00000e-01	2.623947e+05	
9	-4.50000e-01	2.851328e+05	
10	-5.00000e-01	3.121364e+05	
11	-5.50000e-01	3.447158e+05	
12	-6.00000e-01	3.847687e+05	
13	-6.50000e-01	4.351382e+05	
14	-7.00000e-01	5.002571e+05	
15	-7.50000e-01	5.873584e+05	
16	-8.00000e-01	7.088558e+05	
17	-8.50000e-01	8.872011e+05	
18	-9.00000e-01	1.164864e+06	
19	-9.50000e-01	1.623546e+06	
20	-1.00000e+00	2.413309e+06	
21	-1.05000e+00	3.770245e+06	
22	-1.10000e+00	5.966740e+06	
23	-1.15000e+00	9.174243e+06	
24	-1.20000e+00	1.334773e+07	
25	-1.25000e+00	1.825119e+07	
26	-1.30000e+00	2.358338e+07	
27	-1.35000e+00	2.908618e+07	
28	-1.40000e+00	3.458528e+07	
29	-1.45000e+00	3.998293e+07	
30	-1.50000e+00	4.523464e+07	
31	-1.55000e+00	5.032755e+07	
32	-1.60000e+00	5.526536e+07	
33	-1.65000e+00	6.005935e+07	
34	-1.70000e+00	6.472335e+07	
35	-1.75000e+00	6.927129e+07	
36	-1.80000e+00	7.371604e+07	
37	-1.85000e+00	7.806902e+07	
38	-1.90000e+00	8.234010e+07	
39	-1.95000e+00	8.653773e+07	
40	-2.00000e+00	9.066911e+07	
41	-2.05000e+00	9.474034e+07	
42	-2.10000e+00	9.875662e+07	
43	-2.15000e+00	1.027224e+08	
44	-2.20000e+00	1.066414e+08	
45	-2.25000e+00	1.105168e+08	
46	-2.30000e+00	1.143516e+08	
47	-2.35000e+00	1.181480e+08	
48	-2.40000e+00	1.219082e+08	
49	-2.45000e+00	1.256339e+08	
50	-2.50000e+00	1.293267e+08	
51	-2.55000e+00	1.329879e+08	
52	-2.60000e+00	1.366184e+08	
53	-2.65000e+00	1.402189e+08	
54	-2.70000e+00	1.437898e+08	

Index   v-sweep         rds             
--------------------------------------------------------------------------------
55	-2.75000e+00	1.473308e+08	
56	-2.80000e+00	1.508410e+08	
57	-2.85000e+00	1.543186e+08	
58	-2.90000e+00	1.577608e+08	
59	-2.95000e+00	1.611631e+08	
60	-3.00000e+00	1.645191e+08	
61	-3.05000e+00	1.678202e+08	
62	-3.10000e+00	1.710545e+08	
63	-3.15000e+00	1.742070e+08	
64	-3.20000e+00	1.772580e+08	
65	-3.25000e+00	1.801833e+08	
66	-3.30000e+00	1.829530e+08	
Reset re-loads circuit ***************************

Circuit: ***************************

Doing analysis at TEMP = -40.000000 and TNOM = -40.000000


No. of Data Rows : 67
                          ***************************
                          DC transfer characteristic  Mon Jan  9 13:58:26  2023
--------------------------------------------------------------------------------
Index   v-sweep         rds             
--------------------------------------------------------------------------------
0	0.000000e+00	1.256628e+05	
1	-5.00000e-02	1.303196e+05	
2	-1.00000e-01	1.353303e+05	
3	-1.50000e-01	1.407366e+05	
4	-2.00000e-01	1.465875e+05	
5	-2.50000e-01	1.529400e+05	
6	-3.00000e-01	1.598613e+05	
7	-3.50000e-01	1.674315e+05	
8	-4.00000e-01	1.757462e+05	
9	-4.50000e-01	1.849205e+05	
10	-5.00000e-01	1.950948e+05	
11	-5.50000e-01	2.064417e+05	
12	-6.00000e-01	2.191754e+05	
13	-6.50000e-01	2.335658e+05	
14	-7.00000e-01	2.499569e+05	
15	-7.50000e-01	2.687943e+05	
16	-8.00000e-01	2.906651e+05	
17	-8.50000e-01	3.163575e+05	
18	-9.00000e-01	3.469535e+05	
19	-9.50000e-01	3.839752e+05	
20	-1.00000e+00	4.296241e+05	
21	-1.05000e+00	4.871859e+05	
22	-1.10000e+00	5.617364e+05	
23	-1.15000e+00	6.614088e+05	
24	-1.20000e+00	7.997105e+05	
25	-1.25000e+00	9.997183e+05	
26	-1.30000e+00	1.301180e+06	
27	-1.35000e+00	1.770328e+06	
28	-1.40000e+00	2.506643e+06	
29	-1.45000e+00	3.631110e+06	
30	-1.50000e+00	5.242989e+06	
31	-1.55000e+00	7.365405e+06	
32	-1.60000e+00	9.927509e+06	
33	-1.65000e+00	1.279896e+07	
34	-1.70000e+00	1.584261e+07	
35	-1.75000e+00	1.894915e+07	
36	-1.80000e+00	2.204649e+07	
37	-1.85000e+00	2.509408e+07	
38	-1.90000e+00	2.807309e+07	
39	-1.95000e+00	3.097778e+07	
40	-2.00000e+00	3.380951e+07	
41	-2.05000e+00	3.657303e+07	
42	-2.10000e+00	3.927439e+07	
43	-2.15000e+00	4.191981e+07	
44	-2.20000e+00	4.451516e+07	
45	-2.25000e+00	4.706572e+07	
46	-2.30000e+00	4.957613e+07	
47	-2.35000e+00	5.205041e+07	
48	-2.40000e+00	5.449202e+07	
49	-2.45000e+00	5.690390e+07	
50	-2.50000e+00	5.928861e+07	
51	-2.55000e+00	6.164832e+07	
52	-2.60000e+00	6.398489e+07	
53	-2.65000e+00	6.629994e+07	
54	-2.70000e+00	6.859485e+07	

Index   v-sweep         rds             
--------------------------------------------------------------------------------
55	-2.75000e+00	7.087082e+07	
56	-2.80000e+00	7.312890e+07	
57	-2.85000e+00	7.536996e+07	
58	-2.90000e+00	7.759476e+07	
59	-2.95000e+00	7.980389e+07	
60	-3.00000e+00	8.199778e+07	
61	-3.05000e+00	8.417667e+07	
62	-3.10000e+00	8.634052e+07	
63	-3.15000e+00	8.848896e+07	
64	-3.20000e+00	9.062116e+07	
65	-3.25000e+00	9.273567e+07	
66	-3.30000e+00	9.483027e+07	
Reset re-loads circuit ***************************

Circuit: ***************************

Doing analysis at TEMP = -40.000000 and TNOM = -40.000000


No. of Data Rows : 67
                          ***************************
                          DC transfer characteristic  Mon Jan  9 13:58:26  2023
--------------------------------------------------------------------------------
Index   v-sweep         rds             
--------------------------------------------------------------------------------
0	0.000000e+00	1.066426e+05	
1	-5.00000e-02	1.097014e+05	
2	-1.00000e-01	1.129380e+05	
3	-1.50000e-01	1.163685e+05	
4	-2.00000e-01	1.200108e+05	
5	-2.50000e-01	1.238851e+05	
6	-3.00000e-01	1.280142e+05	
7	-3.50000e-01	1.324243e+05	
8	-4.00000e-01	1.371449e+05	
9	-4.50000e-01	1.422101e+05	
10	-5.00000e-01	1.476588e+05	
11	-5.50000e-01	1.535365e+05	
12	-6.00000e-01	1.598956e+05	
13	-6.50000e-01	1.667979e+05	
14	-7.00000e-01	1.743159e+05	
15	-7.50000e-01	1.825356e+05	
16	-8.00000e-01	1.915599e+05	
17	-8.50000e-01	2.015127e+05	
18	-9.00000e-01	2.125445e+05	
19	-9.50000e-01	2.248401e+05	
20	-1.00000e+00	2.386287e+05	
21	-1.05000e+00	2.541981e+05	
22	-1.10000e+00	2.719143e+05	
23	-1.15000e+00	2.922497e+05	
24	-1.20000e+00	3.158236e+05	
25	-1.25000e+00	3.434631e+05	
26	-1.30000e+00	3.762952e+05	
27	-1.35000e+00	4.158895e+05	
28	-1.40000e+00	4.644869e+05	
29	-1.45000e+00	5.253714e+05	
30	-1.50000e+00	6.034910e+05	
31	-1.55000e+00	7.065012e+05	
32	-1.60000e+00	8.465097e+05	
33	-1.65000e+00	1.042855e+06	
34	-1.70000e+00	1.325990e+06	
35	-1.75000e+00	1.741253e+06	
36	-1.80000e+00	2.348342e+06	
37	-1.85000e+00	3.209953e+06	
38	-1.90000e+00	4.368283e+06	
39	-1.95000e+00	5.822569e+06	
40	-2.00000e+00	7.526299e+06	
41	-2.05000e+00	9.406276e+06	
42	-2.10000e+00	1.138764e+07	
43	-2.15000e+00	1.341015e+07	
44	-2.20000e+00	1.543280e+07	
45	-2.25000e+00	1.743140e+07	
46	-2.30000e+00	1.939374e+07	
47	-2.35000e+00	2.131521e+07	
48	-2.40000e+00	2.319556e+07	
49	-2.45000e+00	2.503677e+07	
50	-2.50000e+00	2.684185e+07	
51	-2.55000e+00	2.861409e+07	
52	-2.60000e+00	3.035671e+07	
53	-2.65000e+00	3.207269e+07	
54	-2.70000e+00	3.376469e+07	

Index   v-sweep         rds             
--------------------------------------------------------------------------------
55	-2.75000e+00	3.543505e+07	
56	-2.80000e+00	3.708582e+07	
57	-2.85000e+00	3.871876e+07	
58	-2.90000e+00	4.033539e+07	
59	-2.95000e+00	4.193703e+07	
60	-3.00000e+00	4.352481e+07	
61	-3.05000e+00	4.509971e+07	
62	-3.10000e+00	4.666258e+07	
63	-3.15000e+00	4.821415e+07	
64	-3.20000e+00	4.975506e+07	
65	-3.25000e+00	5.128586e+07	
66	-3.30000e+00	5.280699e+07	
Reset re-loads circuit ***************************

Circuit: ***************************

Note: No ".plot", ".print", or ".fourier" lines; no simulations run
