
Note: Compatibility modes selected: hs

Warning: m=xx on .subckt line will override multiplier m hierarchy!


Circuit: ***************************

Doing analysis at TEMP = 125.000000 and TNOM = 125.000000


No. of Data Rows : 67
                          ***************************
                          DC transfer characteristic  Mon Jan  9 13:58:26  2023
--------------------------------------------------------------------------------
Index   v-sweep         rds             
--------------------------------------------------------------------------------
0	0.000000e+00	1.450357e+06	
1	-5.00000e-02	2.349300e+06	
2	-1.00000e-01	5.266264e+06	
3	-1.50000e-01	1.956984e+07	
4	-2.00000e-01	7.917869e+07	
5	-2.50000e-01	2.310882e+08	
6	-3.00000e-01	4.935867e+08	
7	-3.50000e-01	8.420961e+08	
8	-4.00000e-01	1.230237e+09	
9	-4.50000e-01	1.617201e+09	
10	-5.00000e-01	1.979263e+09	
11	-5.50000e-01	2.307494e+09	
12	-6.00000e-01	2.601561e+09	
13	-6.50000e-01	2.864875e+09	
14	-7.00000e-01	3.101885e+09	
15	-7.50000e-01	3.316877e+09	
16	-8.00000e-01	3.513545e+09	
17	-8.50000e-01	3.694924e+09	
18	-9.00000e-01	3.863451e+09	
19	-9.50000e-01	4.021073e+09	
20	-1.00000e+00	4.169343e+09	
21	-1.05000e+00	4.309503e+09	
22	-1.10000e+00	4.442560e+09	
23	-1.15000e+00	4.569331e+09	
24	-1.20000e+00	4.690490e+09	
25	-1.25000e+00	4.806594e+09	
26	-1.30000e+00	4.918112e+09	
27	-1.35000e+00	5.025441e+09	
28	-1.40000e+00	5.128918e+09	
29	-1.45000e+00	5.228836e+09	
30	-1.50000e+00	5.325447e+09	
31	-1.55000e+00	5.418973e+09	
32	-1.60000e+00	5.509608e+09	
33	-1.65000e+00	5.597523e+09	
34	-1.70000e+00	5.682869e+09	
35	-1.75000e+00	5.765775e+09	
36	-1.80000e+00	5.846353e+09	
37	-1.85000e+00	5.924696e+09	
38	-1.90000e+00	6.000873e+09	
39	-1.95000e+00	6.074930e+09	
40	-2.00000e+00	6.146886e+09	
41	-2.05000e+00	6.216726e+09	
42	-2.10000e+00	6.284394e+09	
43	-2.15000e+00	6.349791e+09	
44	-2.20000e+00	6.412761e+09	
45	-2.25000e+00	6.473087e+09	
46	-2.30000e+00	6.530480e+09	
47	-2.35000e+00	6.584570e+09	
48	-2.40000e+00	6.634899e+09	
49	-2.45000e+00	6.680912e+09	
50	-2.50000e+00	6.721954e+09	
51	-2.55000e+00	6.757264e+09	
52	-2.60000e+00	6.785979e+09	
53	-2.65000e+00	6.807139e+09	
54	-2.70000e+00	6.819699e+09	

Index   v-sweep         rds             
--------------------------------------------------------------------------------
55	-2.75000e+00	6.822544e+09	
56	-2.80000e+00	6.814523e+09	
57	-2.85000e+00	6.794472e+09	
58	-2.90000e+00	6.761266e+09	
59	-2.95000e+00	6.713859e+09	
60	-3.00000e+00	6.651344e+09	
61	-3.05000e+00	6.573000e+09	
62	-3.10000e+00	6.478353e+09	
63	-3.15000e+00	6.367219e+09	
64	-3.20000e+00	6.239742e+09	
65	-3.25000e+00	6.096417e+09	
66	-3.30000e+00	5.938095e+09	
Reset re-loads circuit ***************************

Circuit: ***************************

Doing analysis at TEMP = 125.000000 and TNOM = 125.000000


No. of Data Rows : 67
                          ***************************
                          DC transfer characteristic  Mon Jan  9 13:58:26  2023
--------------------------------------------------------------------------------
Index   v-sweep         rds             
--------------------------------------------------------------------------------
0	0.000000e+00	3.228520e+05	
1	-5.00000e-02	3.626341e+05	
2	-1.00000e-01	4.135078e+05	
3	-1.50000e-01	4.808043e+05	
4	-2.00000e-01	5.738307e+05	
5	-2.50000e-01	7.102265e+05	
6	-3.00000e-01	9.270297e+05	
7	-3.50000e-01	1.312027e+06	
8	-4.00000e-01	2.098891e+06	
9	-4.50000e-01	3.930761e+06	
10	-5.00000e-01	8.303029e+06	
11	-5.50000e-01	1.751622e+07	
12	-6.00000e-01	3.341282e+07	
13	-6.50000e-01	5.600591e+07	
14	-7.00000e-01	8.348924e+07	
15	-7.50000e-01	1.133727e+08	
16	-8.00000e-01	1.435533e+08	
17	-8.50000e-01	1.727208e+08	
18	-9.00000e-01	2.002648e+08	
19	-9.50000e-01	2.260253e+08	
20	-1.00000e+00	2.500785e+08	
21	-1.05000e+00	2.725986e+08	
22	-1.10000e+00	2.937843e+08	
23	-1.15000e+00	3.138249e+08	
24	-1.20000e+00	3.328868e+08	
25	-1.25000e+00	3.511107e+08	
26	-1.30000e+00	3.686135e+08	
27	-1.35000e+00	3.854913e+08	
28	-1.40000e+00	4.018228e+08	
29	-1.45000e+00	4.176727e+08	
30	-1.50000e+00	4.330943e+08	
31	-1.55000e+00	4.481316e+08	
32	-1.60000e+00	4.628214e+08	
33	-1.65000e+00	4.771943e+08	
34	-1.70000e+00	4.912763e+08	
35	-1.75000e+00	5.050893e+08	
36	-1.80000e+00	5.186522e+08	
37	-1.85000e+00	5.319809e+08	
38	-1.90000e+00	5.450893e+08	
39	-1.95000e+00	5.579893e+08	
40	-2.00000e+00	5.706910e+08	
41	-2.05000e+00	5.832025e+08	
42	-2.10000e+00	5.955304e+08	
43	-2.15000e+00	6.076792e+08	
44	-2.20000e+00	6.196508e+08	
45	-2.25000e+00	6.314444e+08	
46	-2.30000e+00	6.430551e+08	
47	-2.35000e+00	6.544736e+08	
48	-2.40000e+00	6.656846e+08	
49	-2.45000e+00	6.766655e+08	
50	-2.50000e+00	6.873849e+08	
51	-2.55000e+00	6.978003e+08	
52	-2.60000e+00	7.078570e+08	
53	-2.65000e+00	7.174851e+08	
54	-2.70000e+00	7.265986e+08	

Index   v-sweep         rds             
--------------------------------------------------------------------------------
55	-2.75000e+00	7.350926e+08	
56	-2.80000e+00	7.428427e+08	
57	-2.85000e+00	7.497042e+08	
58	-2.90000e+00	7.555118e+08	
59	-2.95000e+00	7.600819e+08	
60	-3.00000e+00	7.632148e+08	
61	-3.05000e+00	7.647002e+08	
62	-3.10000e+00	7.643241e+08	
63	-3.15000e+00	7.618775e+08	
64	-3.20000e+00	7.571677e+08	
65	-3.25000e+00	7.500303e+08	
66	-3.30000e+00	7.403421e+08	
Reset re-loads circuit ***************************

Circuit: ***************************

Doing analysis at TEMP = 125.000000 and TNOM = 125.000000


No. of Data Rows : 67
                          ***************************
                          DC transfer characteristic  Mon Jan  9 13:58:26  2023
--------------------------------------------------------------------------------
Index   v-sweep         rds             
--------------------------------------------------------------------------------
0	0.000000e+00	1.872490e+05	
1	-5.00000e-02	1.996239e+05	
2	-1.00000e-01	2.137394e+05	
3	-1.50000e-01	2.299895e+05	
4	-2.00000e-01	2.488965e+05	
5	-2.50000e-01	2.711670e+05	
6	-3.00000e-01	2.977805e+05	
7	-3.50000e-01	3.301334e+05	
8	-4.00000e-01	3.702834e+05	
9	-4.50000e-01	4.213813e+05	
10	-5.00000e-01	4.884801e+05	
11	-5.50000e-01	5.801344e+05	
12	-6.00000e-01	7.117688e+05	
13	-6.50000e-01	9.131898e+05	
14	-7.00000e-01	1.245904e+06	
15	-7.50000e-01	1.841573e+06	
16	-8.00000e-01	2.971338e+06	
17	-8.50000e-01	5.107464e+06	
18	-9.00000e-01	8.841102e+06	
19	-9.50000e-01	1.458459e+07	
20	-1.00000e+00	2.228827e+07	
21	-1.05000e+00	3.145442e+07	
22	-1.10000e+00	4.140302e+07	
23	-1.15000e+00	5.153606e+07	
24	-1.20000e+00	6.145442e+07	
25	-1.25000e+00	7.094975e+07	
26	-1.30000e+00	7.994714e+07	
27	-1.35000e+00	8.844831e+07	
28	-1.40000e+00	9.649182e+07	
29	-1.45000e+00	1.041296e+08	
30	-1.50000e+00	1.114146e+08	
31	-1.55000e+00	1.183958e+08	
32	-1.60000e+00	1.251156e+08	
33	-1.65000e+00	1.316103e+08	
34	-1.70000e+00	1.379099e+08	
35	-1.75000e+00	1.440395e+08	
36	-1.80000e+00	1.500200e+08	
37	-1.85000e+00	1.558684e+08	
38	-1.90000e+00	1.615992e+08	
39	-1.95000e+00	1.672243e+08	
40	-2.00000e+00	1.727536e+08	
41	-2.05000e+00	1.781956e+08	
42	-2.10000e+00	1.835575e+08	
43	-2.15000e+00	1.888452e+08	
44	-2.20000e+00	1.940640e+08	
45	-2.25000e+00	1.992182e+08	
46	-2.30000e+00	2.043116e+08	
47	-2.35000e+00	2.093472e+08	
48	-2.40000e+00	2.143275e+08	
49	-2.45000e+00	2.192544e+08	
50	-2.50000e+00	2.241288e+08	
51	-2.55000e+00	2.289508e+08	
52	-2.60000e+00	2.337193e+08	
53	-2.65000e+00	2.384315e+08	
54	-2.70000e+00	2.430829e+08	

Index   v-sweep         rds             
--------------------------------------------------------------------------------
55	-2.75000e+00	2.476664e+08	
56	-2.80000e+00	2.521717e+08	
57	-2.85000e+00	2.565848e+08	
58	-2.90000e+00	2.608870e+08	
59	-2.95000e+00	2.650541e+08	
60	-3.00000e+00	2.690554e+08	
61	-3.05000e+00	2.728529e+08	
62	-3.10000e+00	2.764007e+08	
63	-3.15000e+00	2.796439e+08	
64	-3.20000e+00	2.825188e+08	
65	-3.25000e+00	2.849528e+08	
66	-3.30000e+00	2.868652e+08	
Reset re-loads circuit ***************************

Circuit: ***************************

Doing analysis at TEMP = 125.000000 and TNOM = 125.000000


No. of Data Rows : 67
                          ***************************
                          DC transfer characteristic  Mon Jan  9 13:58:26  2023
--------------------------------------------------------------------------------
Index   v-sweep         rds             
--------------------------------------------------------------------------------
0	0.000000e+00	1.350494e+05	
1	-5.00000e-02	1.410247e+05	
2	-1.00000e-01	1.475493e+05	
3	-1.50000e-01	1.547023e+05	
4	-2.00000e-01	1.625791e+05	
5	-2.50000e-01	1.712952e+05	
6	-3.00000e-01	1.809920e+05	
7	-3.50000e-01	1.918446e+05	
8	-4.00000e-01	2.040723e+05	
9	-4.50000e-01	2.179530e+05	
10	-5.00000e-01	2.338448e+05	
11	-5.50000e-01	2.522164e+05	
12	-6.00000e-01	2.736930e+05	
13	-6.50000e-01	2.991266e+05	
14	-7.00000e-01	3.297067e+05	
15	-7.50000e-01	3.671411e+05	
16	-8.00000e-01	4.139625e+05	
17	-8.50000e-01	4.740664e+05	
18	-9.00000e-01	5.536999e+05	
19	-9.50000e-01	6.633459e+05	
20	-1.00000e+00	8.214295e+05	
21	-1.05000e+00	1.061632e+06	
22	-1.10000e+00	1.446534e+06	
23	-1.15000e+00	2.088626e+06	
24	-1.20000e+00	3.167895e+06	
25	-1.25000e+00	4.912349e+06	
26	-1.30000e+00	7.512094e+06	
27	-1.35000e+00	1.100881e+07	
28	-1.40000e+00	1.525763e+07	
29	-1.45000e+00	1.999458e+07	
30	-1.50000e+00	2.494418e+07	
31	-1.55000e+00	2.989259e+07	
32	-1.60000e+00	3.470722e+07	
33	-1.65000e+00	3.932335e+07	
34	-1.70000e+00	4.372129e+07	
35	-1.75000e+00	4.790675e+07	
36	-1.80000e+00	5.189744e+07	
37	-1.85000e+00	5.571528e+07	
38	-1.90000e+00	5.938230e+07	
39	-1.95000e+00	6.291870e+07	
40	-2.00000e+00	6.634222e+07	
41	-2.05000e+00	6.966802e+07	
42	-2.10000e+00	7.290888e+07	
43	-2.15000e+00	7.607552e+07	
44	-2.20000e+00	7.917689e+07	
45	-2.25000e+00	8.222047e+07	
46	-2.30000e+00	8.521250e+07	
47	-2.35000e+00	8.815826e+07	
48	-2.40000e+00	9.106215e+07	
49	-2.45000e+00	9.392793e+07	
50	-2.50000e+00	9.675876e+07	
51	-2.55000e+00	9.955735e+07	
52	-2.60000e+00	1.023260e+08	
53	-2.65000e+00	1.050667e+08	
54	-2.70000e+00	1.077809e+08	

Index   v-sweep         rds             
--------------------------------------------------------------------------------
55	-2.75000e+00	1.104701e+08	
56	-2.80000e+00	1.131352e+08	
57	-2.85000e+00	1.157768e+08	
58	-2.90000e+00	1.183950e+08	
59	-2.95000e+00	1.209894e+08	
60	-3.00000e+00	1.235587e+08	
61	-3.05000e+00	1.261008e+08	
62	-3.10000e+00	1.286123e+08	
63	-3.15000e+00	1.310881e+08	
64	-3.20000e+00	1.335214e+08	
65	-3.25000e+00	1.359028e+08	
66	-3.30000e+00	1.382202e+08	
Reset re-loads circuit ***************************

Circuit: ***************************

Doing analysis at TEMP = 125.000000 and TNOM = 125.000000


No. of Data Rows : 67
                          ***************************
                          DC transfer characteristic  Mon Jan  9 13:58:26  2023
--------------------------------------------------------------------------------
Index   v-sweep         rds             
--------------------------------------------------------------------------------
0	0.000000e+00	1.078530e+05	
1	-5.00000e-02	1.113956e+05	
2	-1.00000e-01	1.151766e+05	
3	-1.50000e-01	1.192210e+05	
4	-2.00000e-01	1.235573e+05	
5	-2.50000e-01	1.282182e+05	
6	-3.00000e-01	1.332415e+05	
7	-3.50000e-01	1.386713e+05	
8	-4.00000e-01	1.445588e+05	
9	-4.50000e-01	1.509644e+05	
10	-5.00000e-01	1.579596e+05	
11	-5.50000e-01	1.656295e+05	
12	-6.00000e-01	1.740765e+05	
13	-6.50000e-01	1.834248e+05	
14	-7.00000e-01	1.938262e+05	
15	-7.50000e-01	2.054686e+05	
16	-8.00000e-01	2.185873e+05	
17	-8.50000e-01	2.334803e+05	
18	-9.00000e-01	2.505310e+05	
19	-9.50000e-01	2.702407e+05	
20	-1.00000e+00	2.932760e+05	
21	-1.05000e+00	3.205425e+05	
22	-1.10000e+00	3.532980e+05	
23	-1.15000e+00	3.933356e+05	
24	-1.20000e+00	4.432851e+05	
25	-1.25000e+00	5.071275e+05	
26	-1.30000e+00	5.910946e+05	
27	-1.35000e+00	7.052745e+05	
28	-1.40000e+00	8.664754e+05	
29	-1.45000e+00	1.103137e+06	
30	-1.50000e+00	1.462764e+06	
31	-1.55000e+00	2.019913e+06	
32	-1.60000e+00	2.876544e+06	
33	-1.65000e+00	4.141243e+06	
34	-1.70000e+00	5.884862e+06	
35	-1.75000e+00	8.098643e+06	
36	-1.80000e+00	1.069017e+07	
37	-1.85000e+00	1.352043e+07	
38	-1.90000e+00	1.645173e+07	
39	-1.95000e+00	1.937814e+07	
40	-2.00000e+00	2.223317e+07	
41	-2.05000e+00	2.498326e+07	
42	-2.10000e+00	2.761727e+07	
43	-2.15000e+00	3.013712e+07	
44	-2.20000e+00	3.255131e+07	
45	-2.25000e+00	3.487088e+07	
46	-2.30000e+00	3.710723e+07	
47	-2.35000e+00	3.927105e+07	
48	-2.40000e+00	4.137187e+07	
49	-2.45000e+00	4.341795e+07	
50	-2.50000e+00	4.541633e+07	
51	-2.55000e+00	4.737296e+07	
52	-2.60000e+00	4.929286e+07	
53	-2.65000e+00	5.118024e+07	
54	-2.70000e+00	5.303867e+07	

Index   v-sweep         rds             
--------------------------------------------------------------------------------
55	-2.75000e+00	5.487113e+07	
56	-2.80000e+00	5.668016e+07	
57	-2.85000e+00	5.846791e+07	
58	-2.90000e+00	6.023621e+07	
59	-2.95000e+00	6.198662e+07	
60	-3.00000e+00	6.372046e+07	
61	-3.05000e+00	6.543885e+07	
62	-3.10000e+00	6.714271e+07	
63	-3.15000e+00	6.883278e+07	
64	-3.20000e+00	7.050957e+07	
65	-3.25000e+00	7.217336e+07	
66	-3.30000e+00	7.382412e+07	
Reset re-loads circuit ***************************

Circuit: ***************************

Doing analysis at TEMP = 125.000000 and TNOM = 125.000000


No. of Data Rows : 67
                          ***************************
                          DC transfer characteristic  Mon Jan  9 13:58:26  2023
--------------------------------------------------------------------------------
Index   v-sweep         rds             
--------------------------------------------------------------------------------
0	0.000000e+00	9.110634e+04	
1	-5.00000e-02	9.345848e+04	
2	-1.00000e-01	9.593395e+04	
3	-1.50000e-01	9.854270e+04	
4	-2.00000e-01	1.012958e+05	
5	-2.50000e-01	1.042055e+05	
6	-3.00000e-01	1.072857e+05	
7	-3.50000e-01	1.105517e+05	
8	-4.00000e-01	1.140209e+05	
9	-4.50000e-01	1.177127e+05	
10	-5.00000e-01	1.216495e+05	
11	-5.50000e-01	1.258562e+05	
12	-6.00000e-01	1.303618e+05	
13	-6.50000e-01	1.351991e+05	
14	-7.00000e-01	1.404061e+05	
15	-7.50000e-01	1.460270e+05	
16	-8.00000e-01	1.521129e+05	
17	-8.50000e-01	1.587240e+05	
18	-9.00000e-01	1.659311e+05	
19	-9.50000e-01	1.738185e+05	
20	-1.00000e+00	1.824870e+05	
21	-1.05000e+00	1.920583e+05	
22	-1.10000e+00	2.026804e+05	
23	-1.15000e+00	2.145356e+05	
24	-1.20000e+00	2.278505e+05	
25	-1.25000e+00	2.429102e+05	
26	-1.30000e+00	2.600781e+05	
27	-1.35000e+00	2.798248e+05	
28	-1.40000e+00	3.027687e+05	
29	-1.45000e+00	3.297385e+05	
30	-1.50000e+00	3.618658e+05	
31	-1.55000e+00	4.007313e+05	
32	-1.60000e+00	4.485957e+05	
33	-1.65000e+00	5.087765e+05	
34	-1.70000e+00	5.862688e+05	
35	-1.75000e+00	6.887797e+05	
36	-1.80000e+00	8.284203e+05	
37	-1.85000e+00	1.024328e+06	
38	-1.90000e+00	1.306188e+06	
39	-1.95000e+00	1.717428e+06	
40	-2.00000e+00	2.314436e+06	
41	-2.05000e+00	3.156369e+06	
42	-2.10000e+00	4.284267e+06	
43	-2.15000e+00	5.699517e+06	
44	-2.20000e+00	7.357815e+06	
45	-2.25000e+00	9.184059e+06	
46	-2.30000e+00	1.109697e+07	
47	-2.35000e+00	1.302847e+07	
48	-2.40000e+00	1.493159e+07	
49	-2.45000e+00	1.677942e+07	
50	-2.50000e+00	1.856005e+07	
51	-2.55000e+00	2.027117e+07	
52	-2.60000e+00	2.191586e+07	
53	-2.65000e+00	2.349979e+07	
54	-2.70000e+00	2.502948e+07	

Index   v-sweep         rds             
--------------------------------------------------------------------------------
55	-2.75000e+00	2.651141e+07	
56	-2.80000e+00	2.795156e+07	
57	-2.85000e+00	2.935526e+07	
58	-2.90000e+00	3.072712e+07	
59	-2.95000e+00	3.207110e+07	
60	-3.00000e+00	3.339057e+07	
61	-3.05000e+00	3.468838e+07	
62	-3.10000e+00	3.596693e+07	
63	-3.15000e+00	3.722829e+07	
64	-3.20000e+00	3.847419e+07	
65	-3.25000e+00	3.970610e+07	
66	-3.30000e+00	4.092528e+07	
Reset re-loads circuit ***************************

Circuit: ***************************

Note: No ".plot", ".print", or ".fourier" lines; no simulations run
