
Note: Compatibility modes selected: hs

Warning: m=xx on .subckt line will override multiplier m hierarchy!


Circuit: ***************************

Doing analysis at TEMP = -40.000000 and TNOM = -40.000000


No. of Data Rows : 67
                          ***************************
                          DC transfer characteristic  Mon Jan  9 13:58:25  2023
--------------------------------------------------------------------------------
Index   v-sweep         rds             
--------------------------------------------------------------------------------
0	0.000000e+00	4.299537e+04	
1	-5.00000e-02	1.673101e+05	
2	-1.00000e-01	8.528949e+05	
3	-1.50000e-01	1.552548e+06	
4	-2.00000e-01	1.838384e+06	
5	-2.50000e-01	1.958955e+06	
6	-3.00000e-01	2.019619e+06	
7	-3.50000e-01	2.053226e+06	
8	-4.00000e-01	2.071885e+06	
9	-4.50000e-01	2.081036e+06	
10	-5.00000e-01	2.083565e+06	
11	-5.50000e-01	2.081214e+06	
12	-6.00000e-01	2.075134e+06	
13	-6.50000e-01	2.066140e+06	
14	-7.00000e-01	2.054834e+06	
15	-7.50000e-01	2.041679e+06	
16	-8.00000e-01	2.027037e+06	
17	-8.50000e-01	2.011195e+06	
18	-9.00000e-01	1.994389e+06	
19	-9.50000e-01	1.976810e+06	
20	-1.00000e+00	1.958615e+06	
21	-1.05000e+00	1.939937e+06	
22	-1.10000e+00	1.920886e+06	
23	-1.15000e+00	1.901554e+06	
24	-1.20000e+00	1.882020e+06	
25	-1.25000e+00	1.862350e+06	
26	-1.30000e+00	1.842600e+06	
27	-1.35000e+00	1.822818e+06	
28	-1.40000e+00	1.803045e+06	
29	-1.45000e+00	1.783315e+06	
30	-1.50000e+00	1.763660e+06	
31	-1.55000e+00	1.744103e+06	
32	-1.60000e+00	1.724667e+06	
33	-1.65000e+00	1.705369e+06	
34	-1.70000e+00	1.686226e+06	
35	-1.75000e+00	1.667248e+06	
36	-1.80000e+00	1.648447e+06	
37	-1.85000e+00	1.629831e+06	
38	-1.90000e+00	1.611405e+06	
39	-1.95000e+00	1.593173e+06	
40	-2.00000e+00	1.575136e+06	
41	-2.05000e+00	1.557295e+06	
42	-2.10000e+00	1.539645e+06	
43	-2.15000e+00	1.522182e+06	
44	-2.20000e+00	1.504900e+06	
45	-2.25000e+00	1.487787e+06	
46	-2.30000e+00	1.470832e+06	
47	-2.35000e+00	1.454020e+06	
48	-2.40000e+00	1.437333e+06	
49	-2.45000e+00	1.420750e+06	
50	-2.50000e+00	1.404248e+06	
51	-2.55000e+00	1.387800e+06	
52	-2.60000e+00	1.371378e+06	
53	-2.65000e+00	1.354949e+06	
54	-2.70000e+00	1.338480e+06	

Index   v-sweep         rds             
--------------------------------------------------------------------------------
55	-2.75000e+00	1.321932e+06	
56	-2.80000e+00	1.305268e+06	
57	-2.85000e+00	1.288447e+06	
58	-2.90000e+00	1.271426e+06	
59	-2.95000e+00	1.254164e+06	
60	-3.00000e+00	1.236616e+06	
61	-3.05000e+00	1.218741e+06	
62	-3.10000e+00	1.200496e+06	
63	-3.15000e+00	1.181843e+06	
64	-3.20000e+00	1.162744e+06	
65	-3.25000e+00	1.143166e+06	
66	-3.30000e+00	1.123081e+06	
Reset re-loads circuit ***************************

Circuit: ***************************

Doing analysis at TEMP = -40.000000 and TNOM = -40.000000


No. of Data Rows : 67
                          ***************************
                          DC transfer characteristic  Mon Jan  9 13:58:25  2023
--------------------------------------------------------------------------------
Index   v-sweep         rds             
--------------------------------------------------------------------------------
0	0.000000e+00	2.386465e+03	
1	-5.00000e-02	2.704727e+03	
2	-1.00000e-01	3.109738e+03	
3	-1.50000e-01	3.641867e+03	
4	-2.00000e-01	4.370149e+03	
5	-2.50000e-01	5.420913e+03	
6	-3.00000e-01	7.041692e+03	
7	-3.50000e-01	9.731913e+03	
8	-4.00000e-01	1.435403e+04	
9	-4.50000e-01	2.145492e+04	
10	-5.00000e-01	2.958944e+04	
11	-5.50000e-01	3.664970e+04	
12	-6.00000e-01	4.221771e+04	
13	-6.50000e-01	4.672812e+04	
14	-7.00000e-01	5.057045e+04	
15	-7.50000e-01	5.397077e+04	
16	-8.00000e-01	5.705302e+04	
17	-8.50000e-01	5.988815e+04	
18	-9.00000e-01	6.251991e+04	
19	-9.50000e-01	6.497747e+04	
20	-1.00000e+00	6.728178e+04	
21	-1.05000e+00	6.944878e+04	
22	-1.10000e+00	7.149124e+04	
23	-1.15000e+00	7.341976e+04	
24	-1.20000e+00	7.524336e+04	
25	-1.25000e+00	7.696990e+04	
26	-1.30000e+00	7.860633e+04	
27	-1.35000e+00	8.015883e+04	
28	-1.40000e+00	8.163298e+04	
29	-1.45000e+00	8.303385e+04	
30	-1.50000e+00	8.436604e+04	
31	-1.55000e+00	8.563377e+04	
32	-1.60000e+00	8.684091e+04	
33	-1.65000e+00	8.799103e+04	
34	-1.70000e+00	8.908742e+04	
35	-1.75000e+00	9.013311e+04	
36	-1.80000e+00	9.113094e+04	
37	-1.85000e+00	9.208350e+04	
38	-1.90000e+00	9.299322e+04	
39	-1.95000e+00	9.386233e+04	
40	-2.00000e+00	9.469291e+04	
41	-2.05000e+00	9.548682e+04	
42	-2.10000e+00	9.624579e+04	
43	-2.15000e+00	9.697131e+04	
44	-2.20000e+00	9.766469e+04	
45	-2.25000e+00	9.832697e+04	
46	-2.30000e+00	9.895894e+04	
47	-2.35000e+00	9.956103e+04	
48	-2.40000e+00	1.001333e+05	
49	-2.45000e+00	1.006754e+05	
50	-2.50000e+00	1.011864e+05	
51	-2.55000e+00	1.016649e+05	
52	-2.60000e+00	1.021086e+05	
53	-2.65000e+00	1.025147e+05	
54	-2.70000e+00	1.028794e+05	

Index   v-sweep         rds             
--------------------------------------------------------------------------------
55	-2.75000e+00	1.031981e+05	
56	-2.80000e+00	1.034652e+05	
57	-2.85000e+00	1.036740e+05	
58	-2.90000e+00	1.038170e+05	
59	-2.95000e+00	1.038854e+05	
60	-3.00000e+00	1.038696e+05	
61	-3.05000e+00	1.037590e+05	
62	-3.10000e+00	1.035425e+05	
63	-3.15000e+00	1.032082e+05	
64	-3.20000e+00	1.027440e+05	
65	-3.25000e+00	1.021381e+05	
66	-3.30000e+00	1.013789e+05	
Reset re-loads circuit ***************************

Circuit: ***************************

Doing analysis at TEMP = -40.000000 and TNOM = -40.000000


No. of Data Rows : 67
                          ***************************
                          DC transfer characteristic  Mon Jan  9 13:58:25  2023
--------------------------------------------------------------------------------
Index   v-sweep         rds             
--------------------------------------------------------------------------------
0	0.000000e+00	1.320021e+03	
1	-5.00000e-02	1.409914e+03	
2	-1.00000e-01	1.510912e+03	
3	-1.50000e-01	1.625184e+03	
4	-2.00000e-01	1.755500e+03	
5	-2.50000e-01	1.905453e+03	
6	-3.00000e-01	2.079784e+03	
7	-3.50000e-01	2.284874e+03	
8	-4.00000e-01	2.529498e+03	
9	-4.50000e-01	2.826012e+03	
10	-5.00000e-01	3.192272e+03	
11	-5.50000e-01	3.654732e+03	
12	-6.00000e-01	4.253325e+03	
13	-6.50000e-01	5.048151e+03	
14	-7.00000e-01	6.123935e+03	
15	-7.50000e-01	7.573642e+03	
16	-8.00000e-01	9.423865e+03	
17	-8.50000e-01	1.153127e+04	
18	-9.00000e-01	1.364004e+04	
19	-9.50000e-01	1.558472e+04	
20	-1.00000e+00	1.734077e+04	
21	-1.05000e+00	1.894283e+04	
22	-1.10000e+00	2.042855e+04	
23	-1.15000e+00	2.182484e+04	
24	-1.20000e+00	2.314916e+04	
25	-1.25000e+00	2.441281e+04	
26	-1.30000e+00	2.562338e+04	
27	-1.35000e+00	2.678624e+04	
28	-1.40000e+00	2.790539e+04	
29	-1.45000e+00	2.898399e+04	
30	-1.50000e+00	3.002460e+04	
31	-1.55000e+00	3.102942e+04	
32	-1.60000e+00	3.200035e+04	
33	-1.65000e+00	3.293910e+04	
34	-1.70000e+00	3.384720e+04	
35	-1.75000e+00	3.472607e+04	
36	-1.80000e+00	3.557701e+04	
37	-1.85000e+00	3.640123e+04	
38	-1.90000e+00	3.719986e+04	
39	-1.95000e+00	3.797397e+04	
40	-2.00000e+00	3.872455e+04	
41	-2.05000e+00	3.945255e+04	
42	-2.10000e+00	4.015887e+04	
43	-2.15000e+00	4.084433e+04	
44	-2.20000e+00	4.150976e+04	
45	-2.25000e+00	4.215588e+04	
46	-2.30000e+00	4.278342e+04	
47	-2.35000e+00	4.339303e+04	
48	-2.40000e+00	4.398533e+04	
49	-2.45000e+00	4.456085e+04	
50	-2.50000e+00	4.512008e+04	
51	-2.55000e+00	4.566338e+04	
52	-2.60000e+00	4.619104e+04	
53	-2.65000e+00	4.670317e+04	
54	-2.70000e+00	4.719971e+04	

Index   v-sweep         rds             
--------------------------------------------------------------------------------
55	-2.75000e+00	4.768040e+04	
56	-2.80000e+00	4.814466e+04	
57	-2.85000e+00	4.859161e+04	
58	-2.90000e+00	4.901997e+04	
59	-2.95000e+00	4.942800e+04	
60	-3.00000e+00	4.981341e+04	
61	-3.05000e+00	5.017334e+04	
62	-3.10000e+00	5.050423e+04	
63	-3.15000e+00	5.080183e+04	
64	-3.20000e+00	5.106109e+04	
65	-3.25000e+00	5.127621e+04	
66	-3.30000e+00	5.144058e+04	
Reset re-loads circuit ***************************

Circuit: ***************************

Doing analysis at TEMP = -40.000000 and TNOM = -40.000000


No. of Data Rows : 67
                          ***************************
                          DC transfer characteristic  Mon Jan  9 13:58:25  2023
--------------------------------------------------------------------------------
Index   v-sweep         rds             
--------------------------------------------------------------------------------
0	0.000000e+00	9.895216e+02	
1	-5.00000e-02	1.035908e+03	
2	-1.00000e-01	1.086033e+03	
3	-1.50000e-01	1.140358e+03	
4	-2.00000e-01	1.199426e+03	
5	-2.50000e-01	1.263879e+03	
6	-3.00000e-01	1.334476e+03	
7	-3.50000e-01	1.412128e+03	
8	-4.00000e-01	1.497936e+03	
9	-4.50000e-01	1.593239e+03	
10	-5.00000e-01	1.699682e+03	
11	-5.50000e-01	1.819316e+03	
12	-6.00000e-01	1.954713e+03	
13	-6.50000e-01	2.109154e+03	
14	-7.00000e-01	2.286869e+03	
15	-7.50000e-01	2.493395e+03	
16	-8.00000e-01	2.736068e+03	
17	-8.50000e-01	3.024724e+03	
18	-9.00000e-01	3.372605e+03	
19	-9.50000e-01	3.797339e+03	
20	-1.00000e+00	4.321320e+03	
21	-1.05000e+00	4.969364e+03	
22	-1.10000e+00	5.759496e+03	
23	-1.15000e+00	6.684786e+03	
24	-1.20000e+00	7.700053e+03	
25	-1.25000e+00	8.739234e+03	
26	-1.30000e+00	9.752308e+03	
27	-1.35000e+00	1.071961e+04	
28	-1.40000e+00	1.164077e+04	
29	-1.45000e+00	1.252167e+04	
30	-1.50000e+00	1.336840e+04	
31	-1.55000e+00	1.418569e+04	
32	-1.60000e+00	1.497697e+04	
33	-1.65000e+00	1.574470e+04	
34	-1.70000e+00	1.649070e+04	
35	-1.75000e+00	1.721635e+04	
36	-1.80000e+00	1.792277e+04	
37	-1.85000e+00	1.861090e+04	
38	-1.90000e+00	1.928152e+04	
39	-1.95000e+00	1.993536e+04	
40	-2.00000e+00	2.057303e+04	
41	-2.05000e+00	2.119514e+04	
42	-2.10000e+00	2.180221e+04	
43	-2.15000e+00	2.239476e+04	
44	-2.20000e+00	2.297327e+04	
45	-2.25000e+00	2.353819e+04	
46	-2.30000e+00	2.408994e+04	
47	-2.35000e+00	2.462895e+04	
48	-2.40000e+00	2.515561e+04	
49	-2.45000e+00	2.567028e+04	
50	-2.50000e+00	2.617333e+04	
51	-2.55000e+00	2.666511e+04	
52	-2.60000e+00	2.714593e+04	
53	-2.65000e+00	2.761612e+04	
54	-2.70000e+00	2.807595e+04	

Index   v-sweep         rds             
--------------------------------------------------------------------------------
55	-2.75000e+00	2.852569e+04	
56	-2.80000e+00	2.896556e+04	
57	-2.85000e+00	2.939575e+04	
58	-2.90000e+00	2.981637e+04	
59	-2.95000e+00	3.022747e+04	
60	-3.00000e+00	3.062899e+04	
61	-3.05000e+00	3.102072e+04	
62	-3.10000e+00	3.140229e+04	
63	-3.15000e+00	3.177312e+04	
64	-3.20000e+00	3.213236e+04	
65	-3.25000e+00	3.247884e+04	
66	-3.30000e+00	3.281099e+04	
Reset re-loads circuit ***************************

Circuit: ***************************

Doing analysis at TEMP = -40.000000 and TNOM = -40.000000


No. of Data Rows : 67
                          ***************************
                          DC transfer characteristic  Mon Jan  9 13:58:25  2023
--------------------------------------------------------------------------------
Index   v-sweep         rds             
--------------------------------------------------------------------------------
0	0.000000e+00	8.369272e+02	
1	-5.00000e-02	8.672327e+02	
2	-1.00000e-01	8.993661e+02	
3	-1.50000e-01	9.334941e+02	
4	-2.00000e-01	9.698048e+02	
5	-2.50000e-01	1.008510e+03	
6	-3.00000e-01	1.049852e+03	
7	-3.50000e-01	1.094102e+03	
8	-4.00000e-01	1.141576e+03	
9	-4.50000e-01	1.192633e+03	
10	-5.00000e-01	1.247689e+03	
11	-5.50000e-01	1.307226e+03	
12	-6.00000e-01	1.371806e+03	
13	-6.50000e-01	1.442090e+03	
14	-7.00000e-01	1.518859e+03	
15	-7.50000e-01	1.603041e+03	
16	-8.00000e-01	1.695749e+03	
17	-8.50000e-01	1.798328e+03	
18	-9.00000e-01	1.912414e+03	
19	-9.50000e-01	2.040020e+03	
20	-1.00000e+00	2.183637e+03	
21	-1.05000e+00	2.346382e+03	
22	-1.10000e+00	2.532179e+03	
23	-1.15000e+00	2.745988e+03	
24	-1.20000e+00	2.994074e+03	
25	-1.25000e+00	3.284231e+03	
26	-1.30000e+00	3.625767e+03	
27	-1.35000e+00	4.028734e+03	
28	-1.40000e+00	4.501528e+03	
29	-1.45000e+00	5.046124e+03	
30	-1.50000e+00	5.652713e+03	
31	-1.55000e+00	6.299479e+03	
32	-1.60000e+00	6.961041e+03	
33	-1.65000e+00	7.618519e+03	
34	-1.70000e+00	8.262495e+03	
35	-1.75000e+00	8.890089e+03	
36	-1.80000e+00	9.501385e+03	
37	-1.85000e+00	1.009738e+04	
38	-1.90000e+00	1.067914e+04	
39	-1.95000e+00	1.124760e+04	
40	-2.00000e+00	1.180351e+04	
41	-2.05000e+00	1.234748e+04	
42	-2.10000e+00	1.288001e+04	
43	-2.15000e+00	1.340154e+04	
44	-2.20000e+00	1.391243e+04	
45	-2.25000e+00	1.441302e+04	
46	-2.30000e+00	1.490361e+04	
47	-2.35000e+00	1.538450e+04	
48	-2.40000e+00	1.585595e+04	
49	-2.45000e+00	1.631821e+04	
50	-2.50000e+00	1.677152e+04	
51	-2.55000e+00	1.721612e+04	
52	-2.60000e+00	1.765223e+04	
53	-2.65000e+00	1.808007e+04	
54	-2.70000e+00	1.849984e+04	

Index   v-sweep         rds             
--------------------------------------------------------------------------------
55	-2.75000e+00	1.891174e+04	
56	-2.80000e+00	1.931596e+04	
57	-2.85000e+00	1.971269e+04	
58	-2.90000e+00	2.010212e+04	
59	-2.95000e+00	2.048441e+04	
60	-3.00000e+00	2.085971e+04	
61	-3.05000e+00	2.122818e+04	
62	-3.10000e+00	2.158994e+04	
63	-3.15000e+00	2.194509e+04	
64	-3.20000e+00	2.229369e+04	
65	-3.25000e+00	2.263575e+04	
66	-3.30000e+00	2.297121e+04	
Reset re-loads circuit ***************************

Circuit: ***************************

Doing analysis at TEMP = -40.000000 and TNOM = -40.000000


No. of Data Rows : 67
                          ***************************
                          DC transfer characteristic  Mon Jan  9 13:58:25  2023
--------------------------------------------------------------------------------
Index   v-sweep         rds             
--------------------------------------------------------------------------------
0	0.000000e+00	7.500470e+02	
1	-5.00000e-02	7.722667e+02	
2	-1.00000e-01	7.955602e+02	
3	-1.50000e-01	8.200054e+02	
4	-2.00000e-01	8.456877e+02	
5	-2.50000e-01	8.727012e+02	
6	-3.00000e-01	9.011500e+02	
7	-3.50000e-01	9.311490e+02	
8	-4.00000e-01	9.628261e+02	
9	-4.50000e-01	9.963233e+02	
10	-5.00000e-01	1.031799e+03	
11	-5.50000e-01	1.069432e+03	
12	-6.00000e-01	1.109420e+03	
13	-6.50000e-01	1.151990e+03	
14	-7.00000e-01	1.197394e+03	
15	-7.50000e-01	1.245923e+03	
16	-8.00000e-01	1.297905e+03	
17	-8.50000e-01	1.353719e+03	
18	-9.00000e-01	1.413796e+03	
19	-9.50000e-01	1.478640e+03	
20	-1.00000e+00	1.548834e+03	
21	-1.05000e+00	1.625057e+03	
22	-1.10000e+00	1.708110e+03	
23	-1.15000e+00	1.798938e+03	
24	-1.20000e+00	1.898667e+03	
25	-1.25000e+00	2.008642e+03	
26	-1.30000e+00	2.130484e+03	
27	-1.35000e+00	2.266154e+03	
28	-1.40000e+00	2.418036e+03	
29	-1.45000e+00	2.589031e+03	
30	-1.50000e+00	2.782651e+03	
31	-1.55000e+00	3.003087e+03	
32	-1.60000e+00	3.255162e+03	
33	-1.65000e+00	3.544014e+03	
34	-1.70000e+00	3.874220e+03	
35	-1.75000e+00	4.248124e+03	
36	-1.80000e+00	4.663645e+03	
37	-1.85000e+00	5.113038e+03	
38	-1.90000e+00	5.584475e+03	
39	-1.95000e+00	6.065983e+03	
40	-2.00000e+00	6.548668e+03	
41	-2.05000e+00	7.027351e+03	
42	-2.10000e+00	7.499547e+03	
43	-2.15000e+00	7.964259e+03	
44	-2.20000e+00	8.421190e+03	
45	-2.25000e+00	8.870337e+03	
46	-2.30000e+00	9.311810e+03	
47	-2.35000e+00	9.745760e+03	
48	-2.40000e+00	1.017235e+04	
49	-2.45000e+00	1.059173e+04	
50	-2.50000e+00	1.100406e+04	
51	-2.55000e+00	1.140949e+04	
52	-2.60000e+00	1.180817e+04	
53	-2.65000e+00	1.220023e+04	
54	-2.70000e+00	1.258581e+04	

Index   v-sweep         rds             
--------------------------------------------------------------------------------
55	-2.75000e+00	1.296506e+04	
56	-2.80000e+00	1.333809e+04	
57	-2.85000e+00	1.370504e+04	
58	-2.90000e+00	1.406604e+04	
59	-2.95000e+00	1.442120e+04	
60	-3.00000e+00	1.477064e+04	
61	-3.05000e+00	1.511449e+04	
62	-3.10000e+00	1.545286e+04	
63	-3.15000e+00	1.578585e+04	
64	-3.20000e+00	1.611359e+04	
65	-3.25000e+00	1.643616e+04	
66	-3.30000e+00	1.675367e+04	
Reset re-loads circuit ***************************

Circuit: ***************************

Note: No ".plot", ".print", or ".fourier" lines; no simulations run
