
Note: Compatibility modes selected: hs

Warning: m=xx on .subckt line will override multiplier m hierarchy!


Circuit: ***************************

Doing analysis at TEMP = 125.000000 and TNOM = 125.000000


No. of Data Rows : 67
                          ***************************
                          DC transfer characteristic  Mon Jan  9 13:58:26  2023
--------------------------------------------------------------------------------
Index   v-sweep         rds             
--------------------------------------------------------------------------------
0	0.000000e+00	4.969739e+03	
1	-5.00000e-02	6.528355e+03	
2	-1.00000e-01	9.370595e+03	
3	-1.50000e-01	1.567487e+04	
4	-2.00000e-01	3.253838e+04	
5	-2.50000e-01	6.947983e+04	
6	-3.00000e-01	1.100617e+05	
7	-3.50000e-01	1.361415e+05	
8	-4.00000e-01	1.513484e+05	
9	-4.50000e-01	1.611927e+05	
10	-5.00000e-01	1.683588e+05	
11	-5.50000e-01	1.740215e+05	
12	-6.00000e-01	1.787287e+05	
13	-6.50000e-01	1.827622e+05	
14	-7.00000e-01	1.862832e+05	
15	-7.50000e-01	1.893924e+05	
16	-8.00000e-01	1.921584e+05	
17	-8.50000e-01	1.946309e+05	
18	-9.00000e-01	1.968479e+05	
19	-9.50000e-01	1.988397e+05	
20	-1.00000e+00	2.006310e+05	
21	-1.05000e+00	2.022426e+05	
22	-1.10000e+00	2.036922e+05	
23	-1.15000e+00	2.049951e+05	
24	-1.20000e+00	2.061646e+05	
25	-1.25000e+00	2.072124e+05	
26	-1.30000e+00	2.081491e+05	
27	-1.35000e+00	2.089839e+05	
28	-1.40000e+00	2.097251e+05	
29	-1.45000e+00	2.103801e+05	
30	-1.50000e+00	2.109558e+05	
31	-1.55000e+00	2.114582e+05	
32	-1.60000e+00	2.118928e+05	
33	-1.65000e+00	2.122647e+05	
34	-1.70000e+00	2.125784e+05	
35	-1.75000e+00	2.128380e+05	
36	-1.80000e+00	2.130473e+05	
37	-1.85000e+00	2.132097e+05	
38	-1.90000e+00	2.133282e+05	
39	-1.95000e+00	2.134055e+05	
40	-2.00000e+00	2.134438e+05	
41	-2.05000e+00	2.134450e+05	
42	-2.10000e+00	2.134106e+05	
43	-2.15000e+00	2.133414e+05	
44	-2.20000e+00	2.132381e+05	
45	-2.25000e+00	2.131003e+05	
46	-2.30000e+00	2.129273e+05	
47	-2.35000e+00	2.127175e+05	
48	-2.40000e+00	2.124686e+05	
49	-2.45000e+00	2.121773e+05	
50	-2.50000e+00	2.118395e+05	
51	-2.55000e+00	2.114499e+05	
52	-2.60000e+00	2.110022e+05	
53	-2.65000e+00	2.104891e+05	
54	-2.70000e+00	2.099019e+05	

Index   v-sweep         rds             
--------------------------------------------------------------------------------
55	-2.75000e+00	2.092310e+05	
56	-2.80000e+00	2.084657e+05	
57	-2.85000e+00	2.075942e+05	
58	-2.90000e+00	2.066037e+05	
59	-2.95000e+00	2.054809e+05	
60	-3.00000e+00	2.042116e+05	
61	-3.05000e+00	2.027816e+05	
62	-3.10000e+00	2.011766e+05	
63	-3.15000e+00	1.993825e+05	
64	-3.20000e+00	1.973863e+05	
65	-3.25000e+00	1.951758e+05	
66	-3.30000e+00	1.927406e+05	
Reset re-loads circuit ***************************

Circuit: ***************************

Doing analysis at TEMP = 125.000000 and TNOM = 125.000000


No. of Data Rows : 67
                          ***************************
                          DC transfer characteristic  Mon Jan  9 13:58:26  2023
--------------------------------------------------------------------------------
Index   v-sweep         rds             
--------------------------------------------------------------------------------
0	0.000000e+00	1.423403e+03	
1	-5.00000e-02	1.551283e+03	
2	-1.00000e-01	1.701925e+03	
3	-1.50000e-01	1.881947e+03	
4	-2.00000e-01	2.100780e+03	
5	-2.50000e-01	2.372304e+03	
6	-3.00000e-01	2.717727e+03	
7	-3.50000e-01	3.170881e+03	
8	-4.00000e-01	3.788331e+03	
9	-4.50000e-01	4.668874e+03	
10	-5.00000e-01	5.988019e+03	
11	-5.50000e-01	8.032799e+03	
12	-6.00000e-01	1.110817e+04	
13	-6.50000e-01	1.507798e+04	
14	-7.00000e-01	1.909669e+04	
15	-7.50000e-01	2.244802e+04	
16	-8.00000e-01	2.507056e+04	
17	-8.50000e-01	2.717647e+04	
18	-9.00000e-01	2.895387e+04	
19	-9.50000e-01	3.051894e+04	
20	-1.00000e+00	3.193792e+04	
21	-1.05000e+00	3.324894e+04	
22	-1.10000e+00	3.447486e+04	
23	-1.15000e+00	3.563021e+04	
24	-1.20000e+00	3.672476e+04	
25	-1.25000e+00	3.776548e+04	
26	-1.30000e+00	3.875759e+04	
27	-1.35000e+00	3.970519e+04	
28	-1.40000e+00	4.061166e+04	
29	-1.45000e+00	4.147981e+04	
30	-1.50000e+00	4.231209e+04	
31	-1.55000e+00	4.311065e+04	
32	-1.60000e+00	4.387740e+04	
33	-1.65000e+00	4.461408e+04	
34	-1.70000e+00	4.532227e+04	
35	-1.75000e+00	4.600342e+04	
36	-1.80000e+00	4.665889e+04	
37	-1.85000e+00	4.728991e+04	
38	-1.90000e+00	4.789764e+04	
39	-1.95000e+00	4.848317e+04	
40	-2.00000e+00	4.904750e+04	
41	-2.05000e+00	4.959158e+04	
42	-2.10000e+00	5.011630e+04	
43	-2.15000e+00	5.062246e+04	
44	-2.20000e+00	5.111083e+04	
45	-2.25000e+00	5.158207e+04	
46	-2.30000e+00	5.203681e+04	
47	-2.35000e+00	5.247553e+04	
48	-2.40000e+00	5.289865e+04	
49	-2.45000e+00	5.330642e+04	
50	-2.50000e+00	5.369893e+04	
51	-2.55000e+00	5.407609e+04	
52	-2.60000e+00	5.443755e+04	
53	-2.65000e+00	5.478267e+04	
54	-2.70000e+00	5.511048e+04	

Index   v-sweep         rds             
--------------------------------------------------------------------------------
55	-2.75000e+00	5.541963e+04	
56	-2.80000e+00	5.570829e+04	
57	-2.85000e+00	5.597415e+04	
58	-2.90000e+00	5.621433e+04	
59	-2.95000e+00	5.642535e+04	
60	-3.00000e+00	5.660309e+04	
61	-3.05000e+00	5.674275e+04	
62	-3.10000e+00	5.683889e+04	
63	-3.15000e+00	5.688538e+04	
64	-3.20000e+00	5.687555e+04	
65	-3.25000e+00	5.680218e+04	
66	-3.30000e+00	5.665771e+04	
Reset re-loads circuit ***************************

Circuit: ***************************

Doing analysis at TEMP = 125.000000 and TNOM = 125.000000


No. of Data Rows : 67
                          ***************************
                          DC transfer characteristic  Mon Jan  9 13:58:26  2023
--------------------------------------------------------------------------------
Index   v-sweep         rds             
--------------------------------------------------------------------------------
0	0.000000e+00	9.075595e+02	
1	-5.00000e-02	9.563791e+02	
2	-1.00000e-01	1.010042e+03	
3	-1.50000e-01	1.069302e+03	
4	-2.00000e-01	1.135075e+03	
5	-2.50000e-01	1.208489e+03	
6	-3.00000e-01	1.290947e+03	
7	-3.50000e-01	1.384215e+03	
8	-4.00000e-01	1.490550e+03	
9	-4.50000e-01	1.612872e+03	
10	-5.00000e-01	1.755033e+03	
11	-5.50000e-01	1.922198e+03	
12	-6.00000e-01	2.121441e+03	
13	-6.50000e-01	2.362659e+03	
14	-7.00000e-01	2.659988e+03	
15	-7.50000e-01	3.033981e+03	
16	-8.00000e-01	3.514693e+03	
17	-8.50000e-01	4.144939e+03	
18	-9.00000e-01	4.979372e+03	
19	-9.50000e-01	6.066151e+03	
20	-1.00000e+00	7.394957e+03	
21	-1.05000e+00	8.846132e+03	
22	-1.10000e+00	1.024417e+04	
23	-1.15000e+00	1.148252e+04	
24	-1.20000e+00	1.255319e+04	
25	-1.25000e+00	1.349218e+04	
26	-1.30000e+00	1.433713e+04	
27	-1.35000e+00	1.511528e+04	
28	-1.40000e+00	1.584420e+04	
29	-1.45000e+00	1.653499e+04	
30	-1.50000e+00	1.719475e+04	
31	-1.55000e+00	1.782815e+04	
32	-1.60000e+00	1.843841e+04	
33	-1.65000e+00	1.902784e+04	
34	-1.70000e+00	1.959817e+04	
35	-1.75000e+00	2.015075e+04	
36	-1.80000e+00	2.068667e+04	
37	-1.85000e+00	2.120686e+04	
38	-1.90000e+00	2.171210e+04	
39	-1.95000e+00	2.220308e+04	
40	-2.00000e+00	2.268043e+04	
41	-2.05000e+00	2.314471e+04	
42	-2.10000e+00	2.359644e+04	
43	-2.15000e+00	2.403611e+04	
44	-2.20000e+00	2.446415e+04	
45	-2.25000e+00	2.488099e+04	
46	-2.30000e+00	2.528703e+04	
47	-2.35000e+00	2.568263e+04	
48	-2.40000e+00	2.606816e+04	
49	-2.45000e+00	2.644394e+04	
50	-2.50000e+00	2.681028e+04	
51	-2.55000e+00	2.716747e+04	
52	-2.60000e+00	2.751578e+04	
53	-2.65000e+00	2.785543e+04	
54	-2.70000e+00	2.818660e+04	

Index   v-sweep         rds             
--------------------------------------------------------------------------------
55	-2.75000e+00	2.850943e+04	
56	-2.80000e+00	2.882397e+04	
57	-2.85000e+00	2.913019e+04	
58	-2.90000e+00	2.942795e+04	
59	-2.95000e+00	2.971694e+04	
60	-3.00000e+00	2.999669e+04	
61	-3.05000e+00	3.026652e+04	
62	-3.10000e+00	3.052547e+04	
63	-3.15000e+00	3.077227e+04	
64	-3.20000e+00	3.100532e+04	
65	-3.25000e+00	3.122260e+04	
66	-3.30000e+00	3.142167e+04	
Reset re-loads circuit ***************************

Circuit: ***************************

Doing analysis at TEMP = 125.000000 and TNOM = 125.000000


No. of Data Rows : 67
                          ***************************
                          DC transfer characteristic  Mon Jan  9 13:58:26  2023
--------------------------------------------------------------------------------
Index   v-sweep         rds             
--------------------------------------------------------------------------------
0	0.000000e+00	7.045144e+02	
1	-5.00000e-02	7.319516e+02	
2	-1.00000e-01	7.612833e+02	
3	-1.50000e-01	7.927106e+02	
4	-2.00000e-01	8.264640e+02	
5	-2.50000e-01	8.628093e+02	
6	-3.00000e-01	9.020540e+02	
7	-3.50000e-01	9.445564e+02	
8	-4.00000e-01	9.907362e+02	
9	-4.50000e-01	1.041088e+03	
10	-5.00000e-01	1.096199e+03	
11	-5.50000e-01	1.156773e+03	
12	-6.00000e-01	1.223654e+03	
13	-6.50000e-01	1.297874e+03	
14	-7.00000e-01	1.380698e+03	
15	-7.50000e-01	1.473694e+03	
16	-8.00000e-01	1.578830e+03	
17	-8.50000e-01	1.698603e+03	
18	-9.00000e-01	1.836224e+03	
19	-9.50000e-01	1.995866e+03	
20	-1.00000e+00	2.183023e+03	
21	-1.05000e+00	2.404984e+03	
22	-1.10000e+00	2.671436e+03	
23	-1.15000e+00	2.995060e+03	
24	-1.20000e+00	3.391640e+03	
25	-1.25000e+00	3.878309e+03	
26	-1.30000e+00	4.467277e+03	
27	-1.35000e+00	5.153231e+03	
28	-1.40000e+00	5.901601e+03	
29	-1.45000e+00	6.656440e+03	
30	-1.50000e+00	7.369883e+03	
31	-1.55000e+00	8.022177e+03	
32	-1.60000e+00	8.616211e+03	
33	-1.65000e+00	9.163342e+03	
34	-1.70000e+00	9.674799e+03	
35	-1.75000e+00	1.015910e+04	
36	-1.80000e+00	1.062214e+04	
37	-1.85000e+00	1.106785e+04	
38	-1.90000e+00	1.149892e+04	
39	-1.95000e+00	1.191719e+04	
40	-2.00000e+00	1.232395e+04	
41	-2.05000e+00	1.272017e+04	
42	-2.10000e+00	1.310659e+04	
43	-2.15000e+00	1.348378e+04	
44	-2.20000e+00	1.385221e+04	
45	-2.25000e+00	1.421229e+04	
46	-2.30000e+00	1.456436e+04	
47	-2.35000e+00	1.490871e+04	
48	-2.40000e+00	1.524563e+04	
49	-2.45000e+00	1.557536e+04	
50	-2.50000e+00	1.589813e+04	
51	-2.55000e+00	1.621416e+04	
52	-2.60000e+00	1.652364e+04	
53	-2.65000e+00	1.682678e+04	
54	-2.70000e+00	1.712374e+04	

Index   v-sweep         rds             
--------------------------------------------------------------------------------
55	-2.75000e+00	1.741469e+04	
56	-2.80000e+00	1.769981e+04	
57	-2.85000e+00	1.797923e+04	
58	-2.90000e+00	1.825310e+04	
59	-2.95000e+00	1.852155e+04	
60	-3.00000e+00	1.878468e+04	
61	-3.05000e+00	1.904256e+04	
62	-3.10000e+00	1.929525e+04	
63	-3.15000e+00	1.954275e+04	
64	-3.20000e+00	1.978500e+04	
65	-3.25000e+00	2.002184e+04	
66	-3.30000e+00	2.025305e+04	
Reset re-loads circuit ***************************

Circuit: ***************************

Doing analysis at TEMP = 125.000000 and TNOM = 125.000000


No. of Data Rows : 67
                          ***************************
                          DC transfer characteristic  Mon Jan  9 13:58:26  2023
--------------------------------------------------------------------------------
Index   v-sweep         rds             
--------------------------------------------------------------------------------
0	0.000000e+00	5.971011e+02	
1	-5.00000e-02	6.154746e+02	
2	-1.00000e-01	6.348245e+02	
3	-1.50000e-01	6.552296e+02	
4	-2.00000e-01	6.767774e+02	
5	-2.50000e-01	6.995655e+02	
6	-3.00000e-01	7.237029e+02	
7	-3.50000e-01	7.493116e+02	
8	-4.00000e-01	7.765290e+02	
9	-4.50000e-01	8.055099e+02	
10	-5.00000e-01	8.364297e+02	
11	-5.50000e-01	8.694879e+02	
12	-6.00000e-01	9.049121e+02	
13	-6.50000e-01	9.429633e+02	
14	-7.00000e-01	9.839426e+02	
15	-7.50000e-01	1.028198e+03	
16	-8.00000e-01	1.076136e+03	
17	-8.50000e-01	1.128230e+03	
18	-9.00000e-01	1.185042e+03	
19	-9.50000e-01	1.247234e+03	
20	-1.00000e+00	1.315601e+03	
21	-1.05000e+00	1.391096e+03	
22	-1.10000e+00	1.474877e+03	
23	-1.15000e+00	1.568361e+03	
24	-1.20000e+00	1.673291e+03	
25	-1.25000e+00	1.791837e+03	
26	-1.30000e+00	1.926710e+03	
27	-1.35000e+00	2.081317e+03	
28	-1.40000e+00	2.259936e+03	
29	-1.45000e+00	2.467878e+03	
30	-1.50000e+00	2.711537e+03	
31	-1.55000e+00	2.998061e+03	
32	-1.60000e+00	3.334133e+03	
33	-1.65000e+00	3.723148e+03	
34	-1.70000e+00	4.160811e+03	
35	-1.75000e+00	4.631775e+03	
36	-1.80000e+00	5.112430e+03	
37	-1.85000e+00	5.580520e+03	
38	-1.90000e+00	6.023439e+03	
39	-1.95000e+00	6.438655e+03	
40	-2.00000e+00	6.829220e+03	
41	-2.05000e+00	7.199681e+03	
42	-2.10000e+00	7.554129e+03	
43	-2.15000e+00	7.895682e+03	
44	-2.20000e+00	8.226574e+03	
45	-2.25000e+00	8.548370e+03	
46	-2.30000e+00	8.862175e+03	
47	-2.35000e+00	9.168781e+03	
48	-2.40000e+00	9.468772e+03	
49	-2.45000e+00	9.762589e+03	
50	-2.50000e+00	1.005058e+04	
51	-2.55000e+00	1.033302e+04	
52	-2.60000e+00	1.061014e+04	
53	-2.65000e+00	1.088214e+04	
54	-2.70000e+00	1.114920e+04	

Index   v-sweep         rds             
--------------------------------------------------------------------------------
55	-2.75000e+00	1.141146e+04	
56	-2.80000e+00	1.166907e+04	
57	-2.85000e+00	1.192216e+04	
58	-2.90000e+00	1.217084e+04	
59	-2.95000e+00	1.241524e+04	
60	-3.00000e+00	1.265545e+04	
61	-3.05000e+00	1.289157e+04	
62	-3.10000e+00	1.312370e+04	
63	-3.15000e+00	1.335194e+04	
64	-3.20000e+00	1.357636e+04	
65	-3.25000e+00	1.379704e+04	
66	-3.30000e+00	1.401405e+04	
Reset re-loads circuit ***************************

Circuit: ***************************

Doing analysis at TEMP = 125.000000 and TNOM = 125.000000


No. of Data Rows : 67
                          ***************************
                          DC transfer characteristic  Mon Jan  9 13:58:26  2023
--------------------------------------------------------------------------------
Index   v-sweep         rds             
--------------------------------------------------------------------------------
0	0.000000e+00	5.287295e+02	
1	-5.00000e-02	5.422080e+02	
2	-1.00000e-01	5.562682e+02	
3	-1.50000e-01	5.709480e+02	
4	-2.00000e-01	5.862885e+02	
5	-2.50000e-01	6.023347e+02	
6	-3.00000e-01	6.191357e+02	
7	-3.50000e-01	6.367453e+02	
8	-4.00000e-01	6.552224e+02	
9	-4.50000e-01	6.746319e+02	
10	-5.00000e-01	6.950454e+02	
11	-5.50000e-01	7.165418e+02	
12	-6.00000e-01	7.392086e+02	
13	-6.50000e-01	7.631432e+02	
14	-7.00000e-01	7.884536e+02	
15	-7.50000e-01	8.152608e+02	
16	-8.00000e-01	8.437004e+02	
17	-8.50000e-01	8.739245e+02	
18	-9.00000e-01	9.061051e+02	
19	-9.50000e-01	9.404365e+02	
20	-1.00000e+00	9.771400e+02	
21	-1.05000e+00	1.016468e+03	
22	-1.10000e+00	1.058709e+03	
23	-1.15000e+00	1.104196e+03	
24	-1.20000e+00	1.153315e+03	
25	-1.25000e+00	1.206513e+03	
26	-1.30000e+00	1.264314e+03	
27	-1.35000e+00	1.327333e+03	
28	-1.40000e+00	1.396298e+03	
29	-1.45000e+00	1.472075e+03	
30	-1.50000e+00	1.555698e+03	
31	-1.55000e+00	1.648411e+03	
32	-1.60000e+00	1.751718e+03	
33	-1.65000e+00	1.867436e+03	
34	-1.70000e+00	1.997763e+03	
35	-1.75000e+00	2.145334e+03	
36	-1.80000e+00	2.313245e+03	
37	-1.85000e+00	2.504974e+03	
38	-1.90000e+00	2.724074e+03	
39	-1.95000e+00	2.973436e+03	
40	-2.00000e+00	3.253923e+03	
41	-2.05000e+00	3.562572e+03	
42	-2.10000e+00	3.891461e+03	
43	-2.15000e+00	4.228942e+03	
44	-2.20000e+00	4.563457e+03	
45	-2.25000e+00	4.887248e+03	
46	-2.30000e+00	5.197302e+03	
47	-2.35000e+00	5.493900e+03	
48	-2.40000e+00	5.778741e+03	
49	-2.45000e+00	6.053743e+03	
50	-2.50000e+00	6.320548e+03	
51	-2.55000e+00	6.580420e+03	
52	-2.60000e+00	6.834287e+03	
53	-2.65000e+00	7.082825e+03	
54	-2.70000e+00	7.326525e+03	

Index   v-sweep         rds             
--------------------------------------------------------------------------------
55	-2.75000e+00	7.565757e+03	
56	-2.80000e+00	7.800797e+03	
57	-2.85000e+00	8.031866e+03	
58	-2.90000e+00	8.259137e+03	
59	-2.95000e+00	8.482756e+03	
60	-3.00000e+00	8.702845e+03	
61	-3.05000e+00	8.919512e+03	
62	-3.10000e+00	9.132851e+03	
63	-3.15000e+00	9.342949e+03	
64	-3.20000e+00	9.549882e+03	
65	-3.25000e+00	9.753726e+03	
66	-3.30000e+00	9.954548e+03	
Reset re-loads circuit ***************************

Circuit: ***************************

Note: No ".plot", ".print", or ".fourier" lines; no simulations run
