
Note: Compatibility modes selected: hs

Warning: m=xx on .subckt line will override multiplier m hierarchy!


Circuit: ***************************

Doing analysis at TEMP = 25.000000 and TNOM = 25.000000


No. of Data Rows : 67
                          ***************************
                          DC transfer characteristic  Mon Jan  9 13:58:25  2023
--------------------------------------------------------------------------------
Index   v-sweep         rds             
--------------------------------------------------------------------------------
0	0.000000e+00	1.191668e+05	
1	-5.00000e-02	3.714282e+05	
2	-1.00000e-01	2.482331e+06	
3	-1.50000e-01	1.073681e+07	
4	-2.00000e-01	2.382758e+07	
5	-2.50000e-01	3.639188e+07	
6	-3.00000e-01	4.648781e+07	
7	-3.50000e-01	5.448173e+07	
8	-4.00000e-01	6.104866e+07	
9	-4.50000e-01	6.667296e+07	
10	-5.00000e-01	7.165408e+07	
11	-5.50000e-01	7.617409e+07	
12	-6.00000e-01	8.034634e+07	
13	-6.50000e-01	8.424402e+07	
14	-7.00000e-01	8.791635e+07	
15	-7.50000e-01	9.139782e+07	
16	-8.00000e-01	9.471353e+07	
17	-8.50000e-01	9.788241e+07	
18	-9.00000e-01	1.009192e+08	
19	-9.50000e-01	1.038357e+08	
20	-1.00000e+00	1.066416e+08	
21	-1.05000e+00	1.093452e+08	
22	-1.10000e+00	1.119533e+08	
23	-1.15000e+00	1.144722e+08	
24	-1.20000e+00	1.169070e+08	
25	-1.25000e+00	1.192627e+08	
26	-1.30000e+00	1.215434e+08	
27	-1.35000e+00	1.237532e+08	
28	-1.40000e+00	1.258955e+08	
29	-1.45000e+00	1.279736e+08	
30	-1.50000e+00	1.299906e+08	
31	-1.55000e+00	1.319491e+08	
32	-1.60000e+00	1.338517e+08	
33	-1.65000e+00	1.357007e+08	
34	-1.70000e+00	1.374981e+08	
35	-1.75000e+00	1.392457e+08	
36	-1.80000e+00	1.409450e+08	
37	-1.85000e+00	1.425971e+08	
38	-1.90000e+00	1.442026e+08	
39	-1.95000e+00	1.457617e+08	
40	-2.00000e+00	1.472739e+08	
41	-2.05000e+00	1.487378e+08	
42	-2.10000e+00	1.501513e+08	
43	-2.15000e+00	1.515109e+08	
44	-2.20000e+00	1.528121e+08	
45	-2.25000e+00	1.540487e+08	
46	-2.30000e+00	1.552131e+08	
47	-2.35000e+00	1.562958e+08	
48	-2.40000e+00	1.572852e+08	
49	-2.45000e+00	1.581679e+08	
50	-2.50000e+00	1.589281e+08	
51	-2.55000e+00	1.595482e+08	
52	-2.60000e+00	1.600083e+08	
53	-2.65000e+00	1.602868e+08	
54	-2.70000e+00	1.603607e+08	

Index   v-sweep         rds             
--------------------------------------------------------------------------------
55	-2.75000e+00	1.602059e+08	
56	-2.80000e+00	1.597981e+08	
57	-2.85000e+00	1.591132e+08	
58	-2.90000e+00	1.581285e+08	
59	-2.95000e+00	1.568237e+08	
60	-3.00000e+00	1.551820e+08	
61	-3.05000e+00	1.531907e+08	
62	-3.10000e+00	1.508429e+08	
63	-3.15000e+00	1.481380e+08	
64	-3.20000e+00	1.450823e+08	
65	-3.25000e+00	1.416892e+08	
66	-3.30000e+00	1.379793e+08	
Reset re-loads circuit ***************************

Circuit: ***************************

Doing analysis at TEMP = 25.000000 and TNOM = 25.000000


No. of Data Rows : 67
                          ***************************
                          DC transfer characteristic  Mon Jan  9 13:58:25  2023
--------------------------------------------------------------------------------
Index   v-sweep         rds             
--------------------------------------------------------------------------------
0	0.000000e+00	1.043919e+04	
1	-5.00000e-02	1.191205e+04	
2	-1.00000e-01	1.385466e+04	
3	-1.50000e-01	1.653020e+04	
4	-2.00000e-01	2.043528e+04	
5	-2.50000e-01	2.660832e+04	
6	-3.00000e-01	3.750040e+04	
7	-3.50000e-01	5.956580e+04	
8	-4.00000e-01	1.095434e+05	
9	-4.50000e-01	2.173154e+05	
10	-5.00000e-01	3.965154e+05	
11	-5.50000e-01	6.138319e+05	
12	-6.00000e-01	8.264555e+05	
13	-6.50000e-01	1.016684e+06	
14	-7.00000e-01	1.184665e+06	
15	-7.50000e-01	1.335514e+06	
16	-8.00000e-01	1.474070e+06	
17	-8.50000e-01	1.603867e+06	
18	-9.00000e-01	1.727307e+06	
19	-9.50000e-01	1.845993e+06	
20	-1.00000e+00	1.961010e+06	
21	-1.05000e+00	2.073099e+06	
22	-1.10000e+00	2.182781e+06	
23	-1.15000e+00	2.290426e+06	
24	-1.20000e+00	2.396306e+06	
25	-1.25000e+00	2.500623e+06	
26	-1.30000e+00	2.603530e+06	
27	-1.35000e+00	2.705145e+06	
28	-1.40000e+00	2.805563e+06	
29	-1.45000e+00	2.904858e+06	
30	-1.50000e+00	3.003092e+06	
31	-1.55000e+00	3.100314e+06	
32	-1.60000e+00	3.196568e+06	
33	-1.65000e+00	3.291890e+06	
34	-1.70000e+00	3.386310e+06	
35	-1.75000e+00	3.479855e+06	
36	-1.80000e+00	3.572548e+06	
37	-1.85000e+00	3.664410e+06	
38	-1.90000e+00	3.755457e+06	
39	-1.95000e+00	3.845703e+06	
40	-2.00000e+00	3.935155e+06	
41	-2.05000e+00	4.023816e+06	
42	-2.10000e+00	4.111678e+06	
43	-2.15000e+00	4.198723e+06	
44	-2.20000e+00	4.284916e+06	
45	-2.25000e+00	4.370198e+06	
46	-2.30000e+00	4.454482e+06	
47	-2.35000e+00	4.537643e+06	
48	-2.40000e+00	4.619507e+06	
49	-2.45000e+00	4.699839e+06	
50	-2.50000e+00	4.778329e+06	
51	-2.55000e+00	4.854582e+06	
52	-2.60000e+00	4.928095e+06	
53	-2.65000e+00	4.998250e+06	
54	-2.70000e+00	5.064293e+06	

Index   v-sweep         rds             
--------------------------------------------------------------------------------
55	-2.75000e+00	5.125330e+06	
56	-2.80000e+00	5.180314e+06	
57	-2.85000e+00	5.228048e+06	
58	-2.90000e+00	5.267192e+06	
59	-2.95000e+00	5.296283e+06	
60	-3.00000e+00	5.313772e+06	
61	-3.05000e+00	5.318069e+06	
62	-3.10000e+00	5.307609e+06	
63	-3.15000e+00	5.280935e+06	
64	-3.20000e+00	5.236784e+06	
65	-3.25000e+00	5.174188e+06	
66	-3.30000e+00	5.092564e+06	
Reset re-loads circuit ***************************

Circuit: ***************************

Doing analysis at TEMP = 25.000000 and TNOM = 25.000000


No. of Data Rows : 67
                          ***************************
                          DC transfer characteristic  Mon Jan  9 13:58:25  2023
--------------------------------------------------------------------------------
Index   v-sweep         rds             
--------------------------------------------------------------------------------
0	0.000000e+00	5.638768e+03	
1	-5.00000e-02	6.028427e+03	
2	-1.00000e-01	6.473770e+03	
3	-1.50000e-01	6.987615e+03	
4	-2.00000e-01	7.587019e+03	
5	-2.50000e-01	8.295180e+03	
6	-3.00000e-01	9.144433e+03	
7	-3.50000e-01	1.018117e+04	
8	-4.00000e-01	1.147424e+04	
9	-4.50000e-01	1.312989e+04	
10	-5.00000e-01	1.531989e+04	
11	-5.50000e-01	1.833678e+04	
12	-6.00000e-01	2.270794e+04	
13	-6.50000e-01	2.943307e+04	
14	-7.00000e-01	4.043877e+04	
15	-7.50000e-01	5.914359e+04	
16	-8.00000e-01	8.996267e+04	
17	-8.50000e-01	1.347293e+05	
18	-9.00000e-01	1.890533e+05	
19	-9.50000e-01	2.454734e+05	
20	-1.00000e+00	2.990508e+05	
21	-1.05000e+00	3.483464e+05	
22	-1.10000e+00	3.937231e+05	
23	-1.15000e+00	4.360151e+05	
24	-1.20000e+00	4.759974e+05	
25	-1.25000e+00	5.142648e+05	
26	-1.30000e+00	5.512446e+05	
27	-1.35000e+00	5.872384e+05	
28	-1.40000e+00	6.224590e+05	
29	-1.45000e+00	6.570578e+05	
30	-1.50000e+00	6.911441e+05	
31	-1.55000e+00	7.247982e+05	
32	-1.60000e+00	7.580796e+05	
33	-1.65000e+00	7.910333e+05	
34	-1.70000e+00	8.236941e+05	
35	-1.75000e+00	8.560888e+05	
36	-1.80000e+00	8.882386e+05	
37	-1.85000e+00	9.201605e+05	
38	-1.90000e+00	9.518682e+05	
39	-1.95000e+00	9.833730e+05	
40	-2.00000e+00	1.014684e+06	
41	-2.05000e+00	1.045810e+06	
42	-2.10000e+00	1.076756e+06	
43	-2.15000e+00	1.107528e+06	
44	-2.20000e+00	1.138131e+06	
45	-2.25000e+00	1.168568e+06	
46	-2.30000e+00	1.198842e+06	
47	-2.35000e+00	1.228954e+06	
48	-2.40000e+00	1.258903e+06	
49	-2.45000e+00	1.288687e+06	
50	-2.50000e+00	1.318298e+06	
51	-2.55000e+00	1.347724e+06	
52	-2.60000e+00	1.376948e+06	
53	-2.65000e+00	1.405940e+06	
54	-2.70000e+00	1.434660e+06	

Index   v-sweep         rds             
--------------------------------------------------------------------------------
55	-2.75000e+00	1.463053e+06	
56	-2.80000e+00	1.491042e+06	
57	-2.85000e+00	1.518527e+06	
58	-2.90000e+00	1.545377e+06	
59	-2.95000e+00	1.571425e+06	
60	-3.00000e+00	1.596463e+06	
61	-3.05000e+00	1.620237e+06	
62	-3.10000e+00	1.642439e+06	
63	-3.15000e+00	1.662708e+06	
64	-3.20000e+00	1.680626e+06	
65	-3.25000e+00	1.695720e+06	
66	-3.30000e+00	1.707470e+06	
Reset re-loads circuit ***************************

Circuit: ***************************

Doing analysis at TEMP = 25.000000 and TNOM = 25.000000


No. of Data Rows : 67
                          ***************************
                          DC transfer characteristic  Mon Jan  9 13:58:25  2023
--------------------------------------------------------------------------------
Index   v-sweep         rds             
--------------------------------------------------------------------------------
0	0.000000e+00	4.038792e+03	
1	-5.00000e-02	4.221567e+03	
2	-1.00000e-01	4.420821e+03	
3	-1.50000e-01	4.638884e+03	
4	-2.00000e-01	4.878546e+03	
5	-2.50000e-01	5.143175e+03	
6	-3.00000e-01	5.436879e+03	
7	-3.50000e-01	5.764715e+03	
8	-4.00000e-01	6.132979e+03	
9	-4.50000e-01	6.549612e+03	
10	-5.00000e-01	7.024766e+03	
11	-5.50000e-01	7.571623e+03	
12	-6.00000e-01	8.207606e+03	
13	-6.50000e-01	8.956197e+03	
14	-7.00000e-01	9.849759e+03	
15	-7.50000e-01	1.093403e+04	
16	-8.00000e-01	1.227552e+04	
17	-8.50000e-01	1.397395e+04	
18	-9.00000e-01	1.618387e+04	
19	-9.50000e-01	1.915245e+04	
20	-1.00000e+00	2.328375e+04	
21	-1.05000e+00	2.923524e+04	
22	-1.10000e+00	3.800645e+04	
23	-1.15000e+00	5.083171e+04	
24	-1.20000e+00	6.854879e+04	
25	-1.25000e+00	9.063303e+04	
26	-1.30000e+00	1.151380e+05	
27	-1.35000e+00	1.399386e+05	
28	-1.40000e+00	1.637666e+05	
29	-1.45000e+00	1.862326e+05	
30	-1.50000e+00	2.074148e+05	
31	-1.55000e+00	2.275415e+05	
32	-1.60000e+00	2.468446e+05	
33	-1.65000e+00	2.655147e+05	
34	-1.70000e+00	2.836969e+05	
35	-1.75000e+00	3.014980e+05	
36	-1.80000e+00	3.189961e+05	
37	-1.85000e+00	3.362487e+05	
38	-1.90000e+00	3.532982e+05	
39	-1.95000e+00	3.701762e+05	
40	-2.00000e+00	3.869068e+05	
41	-2.05000e+00	4.035081e+05	
42	-2.10000e+00	4.199945e+05	
43	-2.15000e+00	4.363771e+05	
44	-2.20000e+00	4.526648e+05	
45	-2.25000e+00	4.688645e+05	
46	-2.30000e+00	4.849821e+05	
47	-2.35000e+00	5.010222e+05	
48	-2.40000e+00	5.169888e+05	
49	-2.45000e+00	5.328850e+05	
50	-2.50000e+00	5.487135e+05	
51	-2.55000e+00	5.644765e+05	
52	-2.60000e+00	5.801758e+05	
53	-2.65000e+00	5.958128e+05	
54	-2.70000e+00	6.113881e+05	

Index   v-sweep         rds             
--------------------------------------------------------------------------------
55	-2.75000e+00	6.269017e+05	
56	-2.80000e+00	6.423527e+05	
57	-2.85000e+00	6.577386e+05	
58	-2.90000e+00	6.730547e+05	
59	-2.95000e+00	6.882938e+05	
60	-3.00000e+00	7.034444e+05	
61	-3.05000e+00	7.184897e+05	
62	-3.10000e+00	7.334061e+05	
63	-3.15000e+00	7.481607e+05	
64	-3.20000e+00	7.627094e+05	
65	-3.25000e+00	7.769941e+05	
66	-3.30000e+00	7.909395e+05	
Reset re-loads circuit ***************************

Circuit: ***************************

Doing analysis at TEMP = 25.000000 and TNOM = 25.000000


No. of Data Rows : 67
                          ***************************
                          DC transfer characteristic  Mon Jan  9 13:58:25  2023
--------------------------------------------------------------------------------
Index   v-sweep         rds             
--------------------------------------------------------------------------------
0	0.000000e+00	3.286793e+03	
1	-5.00000e-02	3.397402e+03	
2	-1.00000e-01	3.515259e+03	
3	-1.50000e-01	3.641100e+03	
4	-2.00000e-01	3.775762e+03	
5	-2.50000e-01	3.920206e+03	
6	-3.00000e-01	4.075535e+03	
7	-3.50000e-01	4.243026e+03	
8	-4.00000e-01	4.424161e+03	
9	-4.50000e-01	4.620676e+03	
10	-5.00000e-01	4.834612e+03	
11	-5.50000e-01	5.068387e+03	
12	-6.00000e-01	5.324888e+03	
13	-6.50000e-01	5.607585e+03	
14	-7.00000e-01	5.920696e+03	
15	-7.50000e-01	6.269383e+03	
16	-8.00000e-01	6.660045e+03	
17	-8.50000e-01	7.100695e+03	
18	-9.00000e-01	7.601508e+03	
19	-9.50000e-01	8.175577e+03	
20	-1.00000e+00	8.840025e+03	
21	-1.05000e+00	9.617634e+03	
22	-1.10000e+00	1.053929e+04	
23	-1.15000e+00	1.164776e+04	
24	-1.20000e+00	1.300351e+04	
25	-1.25000e+00	1.469394e+04	
26	-1.30000e+00	1.684771e+04	
27	-1.35000e+00	1.965624e+04	
28	-1.40000e+00	2.340160e+04	
29	-1.45000e+00	2.847896e+04	
30	-1.50000e+00	3.537148e+04	
31	-1.55000e+00	4.450020e+04	
32	-1.60000e+00	5.593014e+04	
33	-1.65000e+00	6.915719e+04	
34	-1.70000e+00	8.329129e+04	
35	-1.75000e+00	9.750708e+04	
36	-1.80000e+00	1.113187e+05	
37	-1.85000e+00	1.245580e+05	
38	-1.90000e+00	1.372367e+05	
39	-1.95000e+00	1.494355e+05	
40	-2.00000e+00	1.612459e+05	
41	-2.05000e+00	1.727490e+05	
42	-2.10000e+00	1.840092e+05	
43	-2.15000e+00	1.950763e+05	
44	-2.20000e+00	2.059877e+05	
45	-2.25000e+00	2.167717e+05	
46	-2.30000e+00	2.274497e+05	
47	-2.35000e+00	2.380378e+05	
48	-2.40000e+00	2.485485e+05	
49	-2.45000e+00	2.589915e+05	
50	-2.50000e+00	2.693744e+05	
51	-2.55000e+00	2.797029e+05	
52	-2.60000e+00	2.899821e+05	
53	-2.65000e+00	3.002155e+05	
54	-2.70000e+00	3.104065e+05	

Index   v-sweep         rds             
--------------------------------------------------------------------------------
55	-2.75000e+00	3.205575e+05	
56	-2.80000e+00	3.306706e+05	
57	-2.85000e+00	3.407476e+05	
58	-2.90000e+00	3.507900e+05	
59	-2.95000e+00	3.607988e+05	
60	-3.00000e+00	3.707751e+05	
61	-3.05000e+00	3.807195e+05	
62	-3.10000e+00	3.906322e+05	
63	-3.15000e+00	4.005129e+05	
64	-3.20000e+00	4.103608e+05	
65	-3.25000e+00	4.201738e+05	
66	-3.30000e+00	4.299486e+05	
Reset re-loads circuit ***************************

Circuit: ***************************

Doing analysis at TEMP = 25.000000 and TNOM = 25.000000


No. of Data Rows : 67
                          ***************************
                          DC transfer characteristic  Mon Jan  9 13:58:25  2023
--------------------------------------------------------------------------------
Index   v-sweep         rds             
--------------------------------------------------------------------------------
0	0.000000e+00	2.829266e+03	
1	-5.00000e-02	2.904258e+03	
2	-1.00000e-01	2.983052e+03	
3	-1.50000e-01	3.065946e+03	
4	-2.00000e-01	3.153268e+03	
5	-2.50000e-01	3.245380e+03	
6	-3.00000e-01	3.342687e+03	
7	-3.50000e-01	3.445642e+03	
8	-4.00000e-01	3.554748e+03	
9	-4.50000e-01	3.670573e+03	
10	-5.00000e-01	3.793757e+03	
11	-5.50000e-01	3.925021e+03	
12	-6.00000e-01	4.065188e+03	
13	-6.50000e-01	4.215191e+03	
14	-7.00000e-01	4.376102e+03	
15	-7.50000e-01	4.549153e+03	
16	-8.00000e-01	4.735768e+03	
17	-8.50000e-01	4.937603e+03	
18	-9.00000e-01	5.156593e+03	
19	-9.50000e-01	5.395015e+03	
20	-1.00000e+00	5.655567e+03	
21	-1.05000e+00	5.941467e+03	
22	-1.10000e+00	6.256583e+03	
23	-1.15000e+00	6.605610e+03	
24	-1.20000e+00	6.994292e+03	
25	-1.25000e+00	7.429735e+03	
26	-1.30000e+00	7.920825e+03	
27	-1.35000e+00	8.478807e+03	
28	-1.40000e+00	9.118101e+03	
29	-1.45000e+00	9.857458e+03	
30	-1.50000e+00	1.072162e+04	
31	-1.55000e+00	1.174376e+04	
32	-1.60000e+00	1.296899e+04	
33	-1.65000e+00	1.445949e+04	
34	-1.70000e+00	1.630166e+04	
35	-1.75000e+00	1.861525e+04	
36	-1.80000e+00	2.156242e+04	
37	-1.85000e+00	2.534916e+04	
38	-1.90000e+00	3.020200e+04	
39	-1.95000e+00	3.629744e+04	
40	-2.00000e+00	4.364930e+04	
41	-2.05000e+00	5.203131e+04	
42	-2.10000e+00	6.103565e+04	
43	-2.15000e+00	7.024244e+04	
44	-2.20000e+00	7.935633e+04	
45	-2.25000e+00	8.823272e+04	
46	-2.30000e+00	9.683409e+04	
47	-2.35000e+00	1.051776e+05	
48	-2.40000e+00	1.133000e+05	
49	-2.45000e+00	1.212406e+05	
50	-2.50000e+00	1.290338e+05	
51	-2.55000e+00	1.367076e+05	
52	-2.60000e+00	1.442843e+05	
53	-2.65000e+00	1.517810e+05	
54	-2.70000e+00	1.592110e+05	

Index   v-sweep         rds             
--------------------------------------------------------------------------------
55	-2.75000e+00	1.665845e+05	
56	-2.80000e+00	1.739096e+05	
57	-2.85000e+00	1.811923e+05	
58	-2.90000e+00	1.884376e+05	
59	-2.95000e+00	1.956494e+05	
60	-3.00000e+00	2.028308e+05	
61	-3.05000e+00	2.099843e+05	
62	-3.10000e+00	2.171119e+05	
63	-3.15000e+00	2.242154e+05	
64	-3.20000e+00	2.312960e+05	
65	-3.25000e+00	2.383551e+05	
66	-3.30000e+00	2.453934e+05	
Reset re-loads circuit ***************************

Circuit: ***************************

Note: No ".plot", ".print", or ".fourier" lines; no simulations run
