
Note: Compatibility modes selected: hs

Warning: m=xx on .subckt line will override multiplier m hierarchy!


Circuit: ***************************

Doing analysis at TEMP = 25.000000 and TNOM = 25.000000


No. of Data Rows : 67
                          ***************************
                          DC transfer characteristic  Mon Jan  9 13:58:25  2023
--------------------------------------------------------------------------------
Index   v-sweep         rds             
--------------------------------------------------------------------------------
0	0.000000e+00	5.114999e+06	
1	-5.00000e-02	1.604972e+07	
2	-1.00000e-01	1.120413e+08	
3	-1.50000e-01	5.670815e+08	
4	-2.00000e-01	1.639604e+09	
5	-2.50000e-01	3.295727e+09	
6	-3.00000e-01	5.264066e+09	
7	-3.50000e-01	7.258652e+09	
8	-4.00000e-01	9.107883e+09	
9	-4.50000e-01	1.075032e+10	
10	-5.00000e-01	1.218653e+10	
11	-5.50000e-01	1.344144e+10	
12	-6.00000e-01	1.454500e+10	
13	-6.50000e-01	1.552451e+10	
14	-7.00000e-01	1.640260e+10	
15	-7.50000e-01	1.719727e+10	
16	-8.00000e-01	1.792263e+10	
17	-8.50000e-01	1.858975e+10	
18	-9.00000e-01	1.920731e+10	
19	-9.50000e-01	1.978224e+10	
20	-1.00000e+00	2.032008e+10	
21	-1.05000e+00	2.082532e+10	
22	-1.10000e+00	2.130167e+10	
23	-1.15000e+00	2.175218e+10	
24	-1.20000e+00	2.217944e+10	
25	-1.25000e+00	2.258562e+10	
26	-1.30000e+00	2.297259e+10	
27	-1.35000e+00	2.334197e+10	
28	-1.40000e+00	2.369515e+10	
29	-1.45000e+00	2.403337e+10	
30	-1.50000e+00	2.435771e+10	
31	-1.55000e+00	2.466913e+10	
32	-1.60000e+00	2.496848e+10	
33	-1.65000e+00	2.525651e+10	
34	-1.70000e+00	2.553389e+10	
35	-1.75000e+00	2.580121e+10	
36	-1.80000e+00	2.605896e+10	
37	-1.85000e+00	2.630755e+10	
38	-1.90000e+00	2.654732e+10	
39	-1.95000e+00	2.677847e+10	
40	-2.00000e+00	2.700111e+10	
41	-2.05000e+00	2.721523e+10	
42	-2.10000e+00	2.742064e+10	
43	-2.15000e+00	2.761701e+10	
44	-2.20000e+00	2.780382e+10	
45	-2.25000e+00	2.798032e+10	
46	-2.30000e+00	2.814555e+10	
47	-2.35000e+00	2.829827e+10	
48	-2.40000e+00	2.843700e+10	
49	-2.45000e+00	2.855995e+10	
50	-2.50000e+00	2.866504e+10	
51	-2.55000e+00	2.874989e+10	
52	-2.60000e+00	2.881185e+10	
53	-2.65000e+00	2.884800e+10	
54	-2.70000e+00	2.885518e+10	

Index   v-sweep         rds             
--------------------------------------------------------------------------------
55	-2.75000e+00	2.883009e+10	
56	-2.80000e+00	2.876930e+10	
57	-2.85000e+00	2.866936e+10	
58	-2.90000e+00	2.852691e+10	
59	-2.95000e+00	2.833882e+10	
60	-3.00000e+00	2.810225e+10	
61	-3.05000e+00	2.781488e+10	
62	-3.10000e+00	2.747493e+10	
63	-3.15000e+00	2.708141e+10	
64	-3.20000e+00	2.663411e+10	
65	-3.25000e+00	2.613375e+10	
66	-3.30000e+00	2.558200e+10	
Reset re-loads circuit ***************************

Circuit: ***************************

Doing analysis at TEMP = 25.000000 and TNOM = 25.000000


No. of Data Rows : 67
                          ***************************
                          DC transfer characteristic  Mon Jan  9 13:58:25  2023
--------------------------------------------------------------------------------
Index   v-sweep         rds             
--------------------------------------------------------------------------------
0	0.000000e+00	5.344315e+05	
1	-5.00000e-02	6.164957e+05	
2	-1.00000e-01	7.279893e+05	
3	-1.50000e-01	8.878193e+05	
4	-2.00000e-01	1.134581e+06	
5	-2.50000e-01	1.557840e+06	
6	-3.00000e-01	2.398829e+06	
7	-3.50000e-01	4.386607e+06	
8	-4.00000e-01	9.594470e+06	
9	-4.50000e-01	2.213422e+07	
10	-5.00000e-01	4.634172e+07	
11	-5.50000e-01	8.339346e+07	
12	-6.00000e-01	1.304966e+08	
13	-6.50000e-01	1.830344e+08	
14	-7.00000e-01	2.369236e+08	
15	-7.50000e-01	2.895701e+08	
16	-8.00000e-01	3.397256e+08	
17	-8.50000e-01	3.870048e+08	
18	-9.00000e-01	4.314712e+08	
19	-9.50000e-01	4.733786e+08	
20	-1.00000e+00	5.130345e+08	
21	-1.05000e+00	5.507370e+08	
22	-1.10000e+00	5.867510e+08	
23	-1.15000e+00	6.213018e+08	
24	-1.20000e+00	6.545774e+08	
25	-1.25000e+00	6.867331e+08	
26	-1.30000e+00	7.178969e+08	
27	-1.35000e+00	7.481748e+08	
28	-1.40000e+00	7.776543e+08	
29	-1.45000e+00	8.064087e+08	
30	-1.50000e+00	8.344993e+08	
31	-1.55000e+00	8.619780e+08	
32	-1.60000e+00	8.888890e+08	
33	-1.65000e+00	9.152701e+08	
34	-1.70000e+00	9.411541e+08	
35	-1.75000e+00	9.665692e+08	
36	-1.80000e+00	9.915402e+08	
37	-1.85000e+00	1.016089e+09	
38	-1.90000e+00	1.040233e+09	
39	-1.95000e+00	1.063990e+09	
40	-2.00000e+00	1.087371e+09	
41	-2.05000e+00	1.110387e+09	
42	-2.10000e+00	1.133044e+09	
43	-2.15000e+00	1.155343e+09	
44	-2.20000e+00	1.177281e+09	
45	-2.25000e+00	1.198844e+09	
46	-2.30000e+00	1.220013e+09	
47	-2.35000e+00	1.240755e+09	
48	-2.40000e+00	1.261023e+09	
49	-2.45000e+00	1.280754e+09	
50	-2.50000e+00	1.299863e+09	
51	-2.55000e+00	1.318243e+09	
52	-2.60000e+00	1.335757e+09	
53	-2.65000e+00	1.352240e+09	
54	-2.70000e+00	1.367491e+09	

Index   v-sweep         rds             
--------------------------------------------------------------------------------
55	-2.75000e+00	1.381277e+09	
56	-2.80000e+00	1.393326e+09	
57	-2.85000e+00	1.403332e+09	
58	-2.90000e+00	1.410960e+09	
59	-2.95000e+00	1.415848e+09	
60	-3.00000e+00	1.417621e+09	
61	-3.05000e+00	1.415901e+09	
62	-3.10000e+00	1.410326e+09	
63	-3.15000e+00	1.400570e+09	
64	-3.20000e+00	1.386361e+09	
65	-3.25000e+00	1.367509e+09	
66	-3.30000e+00	1.343921e+09	
Reset re-loads circuit ***************************

Circuit: ***************************

Doing analysis at TEMP = 25.000000 and TNOM = 25.000000


No. of Data Rows : 67
                          ***************************
                          DC transfer characteristic  Mon Jan  9 13:58:25  2023
--------------------------------------------------------------------------------
Index   v-sweep         rds             
--------------------------------------------------------------------------------
0	0.000000e+00	2.871247e+05	
1	-5.00000e-02	3.087585e+05	
2	-1.00000e-01	3.338922e+05	
3	-1.50000e-01	3.634470e+05	
4	-2.00000e-01	3.986960e+05	
5	-2.50000e-01	4.414493e+05	
6	-3.00000e-01	4.943649e+05	
7	-3.50000e-01	5.615008e+05	
8	-4.00000e-01	6.493462e+05	
9	-4.50000e-01	7.688690e+05	
10	-5.00000e-01	9.398681e+05	
11	-5.50000e-01	1.200878e+06	
12	-6.00000e-01	1.632918e+06	
13	-6.50000e-01	2.416090e+06	
14	-7.00000e-01	3.944279e+06	
15	-7.50000e-01	6.954959e+06	
16	-8.00000e-01	1.243029e+07	
17	-8.50000e-01	2.108148e+07	
18	-9.00000e-01	3.283615e+07	
19	-9.50000e-01	4.688487e+07	
20	-1.00000e+00	6.216040e+07	
21	-1.05000e+00	7.776317e+07	
22	-1.10000e+00	9.311534e+07	
23	-1.15000e+00	1.079233e+08	
24	-1.20000e+00	1.220818e+08	
25	-1.25000e+00	1.355890e+08	
26	-1.30000e+00	1.484921e+08	
27	-1.35000e+00	1.608555e+08	
28	-1.40000e+00	1.727451e+08	
29	-1.45000e+00	1.842220e+08	
30	-1.50000e+00	1.953393e+08	
31	-1.55000e+00	2.061424e+08	
32	-1.60000e+00	2.166694e+08	
33	-1.65000e+00	2.269520e+08	
34	-1.70000e+00	2.370168e+08	
35	-1.75000e+00	2.468859e+08	
36	-1.80000e+00	2.565778e+08	
37	-1.85000e+00	2.661081e+08	
38	-1.90000e+00	2.754899e+08	
39	-1.95000e+00	2.847344e+08	
40	-2.00000e+00	2.938511e+08	
41	-2.05000e+00	3.028482e+08	
42	-2.10000e+00	3.117327e+08	
43	-2.15000e+00	3.205107e+08	
44	-2.20000e+00	3.291873e+08	
45	-2.25000e+00	3.377669e+08	
46	-2.30000e+00	3.462531e+08	
47	-2.35000e+00	3.546483e+08	
48	-2.40000e+00	3.629540e+08	
49	-2.45000e+00	3.711705e+08	
50	-2.50000e+00	3.792959e+08	
51	-2.55000e+00	3.873265e+08	
52	-2.60000e+00	3.952554e+08	
53	-2.65000e+00	4.030722e+08	
54	-2.70000e+00	4.107616e+08	

Index   v-sweep         rds             
--------------------------------------------------------------------------------
55	-2.75000e+00	4.183025e+08	
56	-2.80000e+00	4.256668e+08	
57	-2.85000e+00	4.328179e+08	
58	-2.90000e+00	4.397092e+08	
59	-2.95000e+00	4.462826e+08	
60	-3.00000e+00	4.524676e+08	
61	-3.05000e+00	4.581795e+08	
62	-3.10000e+00	4.633194e+08	
63	-3.15000e+00	4.677739e+08	
64	-3.20000e+00	4.714160e+08	
65	-3.25000e+00	4.741073e+08	
66	-3.30000e+00	4.757010e+08	
Reset re-loads circuit ***************************

Circuit: ***************************

Doing analysis at TEMP = 25.000000 and TNOM = 25.000000


No. of Data Rows : 67
                          ***************************
                          DC transfer characteristic  Mon Jan  9 13:58:25  2023
--------------------------------------------------------------------------------
Index   v-sweep         rds             
--------------------------------------------------------------------------------
0	0.000000e+00	2.006159e+05	
1	-5.00000e-02	2.103756e+05	
2	-1.00000e-01	2.211248e+05	
3	-1.50000e-01	2.330218e+05	
4	-2.00000e-01	2.462606e+05	
5	-2.50000e-01	2.610812e+05	
6	-3.00000e-01	2.777845e+05	
7	-3.50000e-01	2.967526e+05	
8	-4.00000e-01	3.184778e+05	
9	-4.50000e-01	3.436055e+05	
10	-5.00000e-01	3.729976e+05	
11	-5.50000e-01	4.078309e+05	
12	-6.00000e-01	4.497520e+05	
13	-6.50000e-01	5.011327e+05	
14	-7.00000e-01	5.655039e+05	
15	-7.50000e-01	6.483269e+05	
16	-8.00000e-01	7.584256e+05	
17	-8.50000e-01	9.107645e+05	
18	-9.00000e-01	1.132030e+06	
19	-9.50000e-01	1.471954e+06	
20	-1.00000e+00	2.025097e+06	
21	-1.05000e+00	2.965176e+06	
22	-1.10000e+00	4.572741e+06	
23	-1.15000e+00	7.195584e+06	
24	-1.20000e+00	1.109783e+07	
25	-1.25000e+00	1.629218e+07	
26	-1.30000e+00	2.251898e+07	
27	-1.35000e+00	2.938258e+07	
28	-1.40000e+00	3.650980e+07	
29	-1.45000e+00	4.363237e+07	
30	-1.50000e+00	5.059382e+07	
31	-1.55000e+00	5.732162e+07	
32	-1.60000e+00	6.379525e+07	
33	-1.65000e+00	7.002201e+07	
34	-1.70000e+00	7.602193e+07	
35	-1.75000e+00	8.181921e+07	
36	-1.80000e+00	8.743797e+07	
37	-1.85000e+00	9.290029e+07	
38	-1.90000e+00	9.822558e+07	
39	-1.95000e+00	1.034305e+08	
40	-2.00000e+00	1.085291e+08	
41	-2.05000e+00	1.135332e+08	
42	-2.10000e+00	1.184530e+08	
43	-2.15000e+00	1.232968e+08	
44	-2.20000e+00	1.280717e+08	
45	-2.25000e+00	1.327836e+08	
46	-2.30000e+00	1.374378e+08	
47	-2.35000e+00	1.420385e+08	
48	-2.40000e+00	1.465895e+08	
49	-2.45000e+00	1.510940e+08	
50	-2.50000e+00	1.555546e+08	
51	-2.55000e+00	1.599738e+08	
52	-2.60000e+00	1.643535e+08	
53	-2.65000e+00	1.686952e+08	
54	-2.70000e+00	1.730000e+08	

Index   v-sweep         rds             
--------------------------------------------------------------------------------
55	-2.75000e+00	1.772686e+08	
56	-2.80000e+00	1.815009e+08	
57	-2.85000e+00	1.856959e+08	
58	-2.90000e+00	1.898519e+08	
59	-2.95000e+00	1.939653e+08	
60	-3.00000e+00	1.980310e+08	
61	-3.05000e+00	2.020413e+08	
62	-3.10000e+00	2.059858e+08	
63	-3.15000e+00	2.098503e+08	
64	-3.20000e+00	2.136165e+08	
65	-3.25000e+00	2.172607e+08	
66	-3.30000e+00	2.207534e+08	
Reset re-loads circuit ***************************

Circuit: ***************************

Doing analysis at TEMP = 25.000000 and TNOM = 25.000000


No. of Data Rows : 67
                          ***************************
                          DC transfer characteristic  Mon Jan  9 13:58:25  2023
--------------------------------------------------------------------------------
Index   v-sweep         rds             
--------------------------------------------------------------------------------
0	0.000000e+00	1.578323e+05	
1	-5.00000e-02	1.634194e+05	
2	-1.00000e-01	1.694122e+05	
3	-1.50000e-01	1.758564e+05	
4	-2.00000e-01	1.828051e+05	
5	-2.50000e-01	1.903198e+05	
6	-3.00000e-01	1.984726e+05	
7	-3.50000e-01	2.073482e+05	
8	-4.00000e-01	2.170472e+05	
9	-4.50000e-01	2.276895e+05	
10	-5.00000e-01	2.394195e+05	
11	-5.50000e-01	2.524126e+05	
12	-6.00000e-01	2.668837e+05	
13	-6.50000e-01	2.830994e+05	
14	-7.00000e-01	3.013942e+05	
15	-7.50000e-01	3.221931e+05	
16	-8.00000e-01	3.460444e+05	
17	-8.50000e-01	3.736674e+05	
18	-9.00000e-01	4.060231e+05	
19	-9.50000e-01	4.444229e+05	
20	-1.00000e+00	4.906992e+05	
21	-1.05000e+00	5.474819e+05	
22	-1.10000e+00	6.186606e+05	
23	-1.15000e+00	7.101817e+05	
24	-1.20000e+00	8.314646e+05	
25	-1.25000e+00	9.979652e+05	
26	-1.30000e+00	1.235812e+06	
27	-1.35000e+00	1.589790e+06	
28	-1.40000e+00	2.135143e+06	
29	-1.45000e+00	2.988693e+06	
30	-1.50000e+00	4.303517e+06	
31	-1.55000e+00	6.226621e+06	
32	-1.60000e+00	8.827693e+06	
33	-1.65000e+00	1.205251e+07	
34	-1.70000e+00	1.574399e+07	
35	-1.75000e+00	1.970917e+07	
36	-1.80000e+00	2.377913e+07	
37	-1.85000e+00	2.783541e+07	
38	-1.90000e+00	3.180886e+07	
39	-1.95000e+00	3.566683e+07	
40	-2.00000e+00	3.939967e+07	
41	-2.05000e+00	4.301036e+07	
42	-2.10000e+00	4.650793e+07	
43	-2.15000e+00	4.990365e+07	
44	-2.20000e+00	5.320898e+07	
45	-2.25000e+00	5.643459e+07	
46	-2.30000e+00	5.959000e+07	
47	-2.35000e+00	6.268349e+07	
48	-2.40000e+00	6.572213e+07	
49	-2.45000e+00	6.871198e+07	
50	-2.50000e+00	7.165814e+07	
51	-2.55000e+00	7.456496e+07	
52	-2.60000e+00	7.743612e+07	
53	-2.65000e+00	8.027476e+07	
54	-2.70000e+00	8.308355e+07	

Index   v-sweep         rds             
--------------------------------------------------------------------------------
55	-2.75000e+00	8.586478e+07	
56	-2.80000e+00	8.862042e+07	
57	-2.85000e+00	9.135214e+07	
58	-2.90000e+00	9.406138e+07	
59	-2.95000e+00	9.674936e+07	
60	-3.00000e+00	9.941706e+07	
61	-3.05000e+00	1.020653e+08	
62	-3.10000e+00	1.046944e+08	
63	-3.15000e+00	1.073047e+08	
64	-3.20000e+00	1.098959e+08	
65	-3.25000e+00	1.124671e+08	
66	-3.30000e+00	1.150168e+08	
Reset re-loads circuit ***************************

Circuit: ***************************

Doing analysis at TEMP = 25.000000 and TNOM = 25.000000


No. of Data Rows : 67
                          ***************************
                          DC transfer characteristic  Mon Jan  9 13:58:25  2023
--------------------------------------------------------------------------------
Index   v-sweep         rds             
--------------------------------------------------------------------------------
0	0.000000e+00	1.329673e+05	
1	-5.00000e-02	1.366305e+05	
2	-1.00000e-01	1.404986e+05	
3	-1.50000e-01	1.445893e+05	
4	-2.00000e-01	1.489222e+05	
5	-2.50000e-01	1.535197e+05	
6	-3.00000e-01	1.584066e+05	
7	-3.50000e-01	1.636111e+05	
8	-4.00000e-01	1.691653e+05	
9	-4.50000e-01	1.751056e+05	
10	-5.00000e-01	1.814736e+05	
11	-5.50000e-01	1.883173e+05	
12	-6.00000e-01	1.956919e+05	
13	-6.50000e-01	2.036616e+05	
14	-7.00000e-01	2.123015e+05	
15	-7.50000e-01	2.216996e+05	
16	-8.00000e-01	2.319600e+05	
17	-8.50000e-01	2.432069e+05	
18	-9.00000e-01	2.555894e+05	
19	-9.50000e-01	2.692880e+05	
20	-1.00000e+00	2.845233e+05	
21	-1.05000e+00	3.015680e+05	
22	-1.10000e+00	3.207628e+05	
23	-1.15000e+00	3.425386e+05	
24	-1.20000e+00	3.674484e+05	
25	-1.25000e+00	3.962124e+05	
26	-1.30000e+00	4.297855e+05	
27	-1.35000e+00	4.694574e+05	
28	-1.40000e+00	5.170079e+05	
29	-1.45000e+00	5.749510e+05	
30	-1.50000e+00	6.469285e+05	
31	-1.55000e+00	7.383597e+05	
32	-1.60000e+00	8.575278e+05	
33	-1.65000e+00	1.017398e+06	
34	-1.70000e+00	1.238581e+06	
35	-1.75000e+00	1.553757e+06	
36	-1.80000e+00	2.012975e+06	
37	-1.85000e+00	2.686464e+06	
38	-1.90000e+00	3.657556e+06	
39	-1.95000e+00	4.999090e+06	
40	-2.00000e+00	6.740183e+06	
41	-2.05000e+00	8.846645e+06	
42	-2.10000e+00	1.123200e+07	
43	-2.15000e+00	1.378974e+07	
44	-2.20000e+00	1.642364e+07	
45	-2.25000e+00	1.906299e+07	
46	-2.30000e+00	2.166382e+07	
47	-2.35000e+00	2.420321e+07	
48	-2.40000e+00	2.667231e+07	
49	-2.45000e+00	2.907056e+07	
50	-2.50000e+00	3.140178e+07	
51	-2.55000e+00	3.367170e+07	
52	-2.60000e+00	3.588660e+07	
53	-2.65000e+00	3.805259e+07	
54	-2.70000e+00	4.017526e+07	

Index   v-sweep         rds             
--------------------------------------------------------------------------------
55	-2.75000e+00	4.225955e+07	
56	-2.80000e+00	4.430980e+07	
57	-2.85000e+00	4.632971e+07	
58	-2.90000e+00	4.832246e+07	
59	-2.95000e+00	5.029079e+07	
60	-3.00000e+00	5.223700e+07	
61	-3.05000e+00	5.416308e+07	
62	-3.10000e+00	5.607073e+07	
63	-3.15000e+00	5.796141e+07	
64	-3.20000e+00	5.983638e+07	
65	-3.25000e+00	6.169670e+07	
66	-3.30000e+00	6.354331e+07	
Reset re-loads circuit ***************************

Circuit: ***************************

Note: No ".plot", ".print", or ".fourier" lines; no simulations run
