
Note: Compatibility modes selected: hs

Warning: m=xx on .subckt line will override multiplier m hierarchy!


Circuit: ***************************

Doing analysis at TEMP = 25.000000 and TNOM = 25.000000


No. of Data Rows : 67
                          ***************************
                          DC transfer characteristic  Mon Jan  9 13:58:25  2023
--------------------------------------------------------------------------------
Index   v-sweep         rds             
--------------------------------------------------------------------------------
0	0.000000e+00	5.648034e+06	
1	-5.00000e-02	1.896106e+07	
2	-1.00000e-01	1.407260e+08	
3	-1.50000e-01	7.137284e+08	
4	-2.00000e-01	2.111576e+09	
5	-2.50000e-01	4.448564e+09	
6	-3.00000e-01	7.526353e+09	
7	-3.50000e-01	1.097688e+10	
8	-4.00000e-01	1.445107e+10	
9	-4.50000e-01	1.771883e+10	
10	-5.00000e-01	2.067217e+10	
11	-5.50000e-01	2.328639e+10	
12	-6.00000e-01	2.558076e+10	
13	-6.50000e-01	2.759233e+10	
14	-7.00000e-01	2.936171e+10	
15	-7.50000e-01	3.092672e+10	
16	-8.00000e-01	3.232008e+10	
17	-8.50000e-01	3.356916e+10	
18	-9.00000e-01	3.469643e+10	
19	-9.50000e-01	3.572025e+10	
20	-1.00000e+00	3.665560e+10	
21	-1.05000e+00	3.751474e+10	
22	-1.10000e+00	3.830773e+10	
23	-1.15000e+00	3.904290e+10	
24	-1.20000e+00	3.972720e+10	
25	-1.25000e+00	4.036644e+10	
26	-1.30000e+00	4.096554e+10	
27	-1.35000e+00	4.152866e+10	
28	-1.40000e+00	4.205938e+10	
29	-1.45000e+00	4.256078e+10	
30	-1.50000e+00	4.303552e+10	
31	-1.55000e+00	4.348593e+10	
32	-1.60000e+00	4.391402e+10	
33	-1.65000e+00	4.432158e+10	
34	-1.70000e+00	4.471014e+10	
35	-1.75000e+00	4.508106e+10	
36	-1.80000e+00	4.543550e+10	
37	-1.85000e+00	4.577444e+10	
38	-1.90000e+00	4.609871e+10	
39	-1.95000e+00	4.640892e+10	
40	-2.00000e+00	4.670554e+10	
41	-2.05000e+00	4.698881e+10	
42	-2.10000e+00	4.725876e+10	
43	-2.15000e+00	4.751519e+10	
44	-2.20000e+00	4.775764e+10	
45	-2.25000e+00	4.798537e+10	
46	-2.30000e+00	4.819734e+10	
47	-2.35000e+00	4.839217e+10	
48	-2.40000e+00	4.856816e+10	
49	-2.45000e+00	4.872322e+10	
50	-2.50000e+00	4.885489e+10	
51	-2.55000e+00	4.896036e+10	
52	-2.60000e+00	4.903642e+10	
53	-2.65000e+00	4.907954e+10	
54	-2.70000e+00	4.908585e+10	

Index   v-sweep         rds             
--------------------------------------------------------------------------------
55	-2.75000e+00	4.905123e+10	
56	-2.80000e+00	4.897134e+10	
57	-2.85000e+00	4.884175e+10	
58	-2.90000e+00	4.865799e+10	
59	-2.95000e+00	4.841571e+10	
60	-3.00000e+00	4.811077e+10	
61	-3.05000e+00	4.773944e+10	
62	-3.10000e+00	4.729850e+10	
63	-3.15000e+00	4.678542e+10	
64	-3.20000e+00	4.619847e+10	
65	-3.25000e+00	4.553688e+10	
66	-3.30000e+00	4.480094e+10	
Reset re-loads circuit ***************************

Circuit: ***************************

Doing analysis at TEMP = 25.000000 and TNOM = 25.000000


No. of Data Rows : 67
                          ***************************
                          DC transfer characteristic  Mon Jan  9 13:58:25  2023
--------------------------------------------------------------------------------
Index   v-sweep         rds             
--------------------------------------------------------------------------------
0	0.000000e+00	5.553682e+05	
1	-5.00000e-02	6.421890e+05	
2	-1.00000e-01	7.608558e+05	
3	-1.50000e-01	9.323780e+05	
4	-2.00000e-01	1.200335e+06	
5	-2.50000e-01	1.668029e+06	
6	-3.00000e-01	2.620944e+06	
7	-3.50000e-01	4.941667e+06	
8	-4.00000e-01	1.116277e+07	
9	-4.50000e-01	2.640876e+07	
10	-5.00000e-01	5.688560e+07	
11	-5.50000e-01	1.066273e+08	
12	-6.00000e-01	1.756255e+08	
13	-6.50000e-01	2.603000e+08	
14	-7.00000e-01	3.553350e+08	
15	-7.50000e-01	4.554910e+08	
16	-8.00000e-01	5.566337e+08	
17	-8.50000e-01	6.559836e+08	
18	-9.00000e-01	7.519269e+08	
19	-9.50000e-01	8.436888e+08	
20	-1.00000e+00	9.310316e+08	
21	-1.05000e+00	1.014029e+09	
22	-1.10000e+00	1.092919e+09	
23	-1.15000e+00	1.168007e+09	
24	-1.20000e+00	1.239620e+09	
25	-1.25000e+00	1.308074e+09	
26	-1.30000e+00	1.373661e+09	
27	-1.35000e+00	1.436645e+09	
28	-1.40000e+00	1.497262e+09	
29	-1.45000e+00	1.555718e+09	
30	-1.50000e+00	1.612194e+09	
31	-1.55000e+00	1.666850e+09	
32	-1.60000e+00	1.719826e+09	
33	-1.65000e+00	1.771245e+09	
34	-1.70000e+00	1.821215e+09	
35	-1.75000e+00	1.869831e+09	
36	-1.80000e+00	1.917179e+09	
37	-1.85000e+00	1.963333e+09	
38	-1.90000e+00	2.008360e+09	
39	-1.95000e+00	2.052318e+09	
40	-2.00000e+00	2.095257e+09	
41	-2.05000e+00	2.137218e+09	
42	-2.10000e+00	2.178236e+09	
43	-2.15000e+00	2.218332e+09	
44	-2.20000e+00	2.257518e+09	
45	-2.25000e+00	2.295791e+09	
46	-2.30000e+00	2.333129e+09	
47	-2.35000e+00	2.369492e+09	
48	-2.40000e+00	2.404813e+09	
49	-2.45000e+00	2.438994e+09	
50	-2.50000e+00	2.471904e+09	
51	-2.55000e+00	2.503371e+09	
52	-2.60000e+00	2.533177e+09	
53	-2.65000e+00	2.561053e+09	
54	-2.70000e+00	2.586674e+09	

Index   v-sweep         rds             
--------------------------------------------------------------------------------
55	-2.75000e+00	2.609661e+09	
56	-2.80000e+00	2.629572e+09	
57	-2.85000e+00	2.645911e+09	
58	-2.90000e+00	2.658132e+09	
59	-2.95000e+00	2.665647e+09	
60	-3.00000e+00	2.667843e+09	
61	-3.05000e+00	2.664099e+09	
62	-3.10000e+00	2.653816e+09	
63	-3.15000e+00	2.636445e+09	
64	-3.20000e+00	2.611519e+09	
65	-3.25000e+00	2.578686e+09	
66	-3.30000e+00	2.537746e+09	
Reset re-loads circuit ***************************

Circuit: ***************************

Doing analysis at TEMP = 25.000000 and TNOM = 25.000000


No. of Data Rows : 67
                          ***************************
                          DC transfer characteristic  Mon Jan  9 13:58:25  2023
--------------------------------------------------------------------------------
Index   v-sweep         rds             
--------------------------------------------------------------------------------
0	0.000000e+00	2.960758e+05	
1	-5.00000e-02	3.184335e+05	
2	-1.00000e-01	3.444270e+05	
3	-1.50000e-01	3.750186e+05	
4	-2.00000e-01	4.115410e+05	
5	-2.50000e-01	4.558919e+05	
6	-3.00000e-01	5.108655e+05	
7	-3.50000e-01	5.807399e+05	
8	-4.00000e-01	6.723809e+05	
9	-4.50000e-01	7.974467e+05	
10	-5.00000e-01	9.771072e+05	
11	-5.50000e-01	1.252888e+06	
12	-6.00000e-01	1.713033e+06	
13	-6.50000e-01	2.556735e+06	
14	-7.00000e-01	4.230754e+06	
15	-7.50000e-01	7.615051e+06	
16	-8.00000e-01	1.403184e+07	
17	-8.50000e-01	2.483173e+07	
18	-9.00000e-01	4.078387e+07	
19	-9.50000e-01	6.175610e+07	
20	-1.00000e+00	8.685021e+07	
21	-1.05000e+00	1.147970e+08	
22	-1.10000e+00	1.443379e+08	
23	-1.15000e+00	1.744490e+08	
24	-1.20000e+00	2.044063e+08	
25	-1.25000e+00	2.337551e+08	
26	-1.30000e+00	2.622457e+08	
27	-1.35000e+00	2.897673e+08	
28	-1.40000e+00	3.162962e+08	
29	-1.45000e+00	3.418591e+08	
30	-1.50000e+00	3.665089e+08	
31	-1.55000e+00	3.903098e+08	
32	-1.60000e+00	4.133291e+08	
33	-1.65000e+00	4.356317e+08	
34	-1.70000e+00	4.572782e+08	
35	-1.75000e+00	4.783239e+08	
36	-1.80000e+00	4.988181e+08	
37	-1.85000e+00	5.188047e+08	
38	-1.90000e+00	5.383229e+08	
39	-1.95000e+00	5.574068e+08	
40	-2.00000e+00	5.760871e+08	
41	-2.05000e+00	5.943904e+08	
42	-2.10000e+00	6.123405e+08	
43	-2.15000e+00	6.299584e+08	
44	-2.20000e+00	6.472625e+08	
45	-2.25000e+00	6.642688e+08	
46	-2.30000e+00	6.809911e+08	
47	-2.35000e+00	6.974409e+08	
48	-2.40000e+00	7.136269e+08	
49	-2.45000e+00	7.295547e+08	
50	-2.50000e+00	7.452264e+08	
51	-2.55000e+00	7.606393e+08	
52	-2.60000e+00	7.757850e+08	
53	-2.65000e+00	7.906480e+08	
54	-2.70000e+00	8.052038e+08	

Index   v-sweep         rds             
--------------------------------------------------------------------------------
55	-2.75000e+00	8.194170e+08	
56	-2.80000e+00	8.332390e+08	
57	-2.85000e+00	8.466058e+08	
58	-2.90000e+00	8.594352e+08	
59	-2.95000e+00	8.716243e+08	
60	-3.00000e+00	8.830474e+08	
61	-3.05000e+00	8.935539e+08	
62	-3.10000e+00	9.029678e+08	
63	-3.15000e+00	9.110868e+08	
64	-3.20000e+00	9.176848e+08	
65	-3.25000e+00	9.225149e+08	
66	-3.30000e+00	9.253155e+08	
Reset re-loads circuit ***************************

Circuit: ***************************

Doing analysis at TEMP = 25.000000 and TNOM = 25.000000


No. of Data Rows : 67
                          ***************************
                          DC transfer characteristic  Mon Jan  9 13:58:25  2023
--------------------------------------------------------------------------------
Index   v-sweep         rds             
--------------------------------------------------------------------------------
0	0.000000e+00	2.087231e+05	
1	-5.00000e-02	2.189058e+05	
2	-1.00000e-01	2.301280e+05	
3	-1.50000e-01	2.425573e+05	
4	-2.00000e-01	2.563994e+05	
5	-2.50000e-01	2.719090e+05	
6	-3.00000e-01	2.894062e+05	
7	-3.50000e-01	3.092981e+05	
8	-4.00000e-01	3.321104e+05	
9	-4.50000e-01	3.585340e+05	
10	-5.00000e-01	3.894945e+05	
11	-5.50000e-01	4.262596e+05	
12	-6.00000e-01	4.706106e+05	
13	-6.50000e-01	5.251247e+05	
14	-7.00000e-01	5.936602e+05	
15	-7.50000e-01	6.822252e+05	
16	-8.00000e-01	8.006075e+05	
17	-8.50000e-01	9.655776e+05	
18	-9.00000e-01	1.207433e+06	
19	-9.50000e-01	1.583590e+06	
20	-1.00000e+00	2.205739e+06	
21	-1.05000e+00	3.286248e+06	
22	-1.10000e+00	5.189506e+06	
23	-1.15000e+00	8.427623e+06	
24	-1.20000e+00	1.353377e+07	
25	-1.25000e+00	2.085531e+07	
26	-1.30000e+00	3.041036e+07	
27	-1.35000e+00	4.189807e+07	
28	-1.40000e+00	5.482679e+07	
29	-1.45000e+00	6.866556e+07	
30	-1.50000e+00	8.295046e+07	
31	-1.55000e+00	9.733006e+07	
32	-1.60000e+00	1.115665e+08	
33	-1.65000e+00	1.255151e+08	
34	-1.70000e+00	1.390992e+08	
35	-1.75000e+00	1.522874e+08	
36	-1.80000e+00	1.650763e+08	
37	-1.85000e+00	1.774793e+08	
38	-1.90000e+00	1.895178e+08	
39	-1.95000e+00	2.012172e+08	
40	-2.00000e+00	2.126035e+08	
41	-2.05000e+00	2.237020e+08	
42	-2.10000e+00	2.345361e+08	
43	-2.15000e+00	2.451274e+08	
44	-2.20000e+00	2.554952e+08	
45	-2.25000e+00	2.656568e+08	
46	-2.30000e+00	2.756277e+08	
47	-2.35000e+00	2.854213e+08	
48	-2.40000e+00	2.950499e+08	
49	-2.45000e+00	3.045242e+08	
50	-2.50000e+00	3.138534e+08	
51	-2.55000e+00	3.230460e+08	
52	-2.60000e+00	3.321092e+08	
53	-2.65000e+00	3.410490e+08	
54	-2.70000e+00	3.498704e+08	

Index   v-sweep         rds             
--------------------------------------------------------------------------------
55	-2.75000e+00	3.585772e+08	
56	-2.80000e+00	3.671716e+08	
57	-2.85000e+00	3.756540e+08	
58	-2.90000e+00	3.840223e+08	
59	-2.95000e+00	3.922716e+08	
60	-3.00000e+00	4.003933e+08	
61	-3.05000e+00	4.083738e+08	
62	-3.10000e+00	4.161939e+08	
63	-3.15000e+00	4.238273e+08	
64	-3.20000e+00	4.312389e+08	
65	-3.25000e+00	4.383841e+08	
66	-3.30000e+00	4.452063e+08	
Reset re-loads circuit ***************************

Circuit: ***************************

Doing analysis at TEMP = 25.000000 and TNOM = 25.000000


No. of Data Rows : 67
                          ***************************
                          DC transfer characteristic  Mon Jan  9 13:58:25  2023
--------------------------------------------------------------------------------
Index   v-sweep         rds             
--------------------------------------------------------------------------------
0	0.000000e+00	1.661338e+05	
1	-5.00000e-02	1.720455e+05	
2	-1.00000e-01	1.783911e+05	
3	-1.50000e-01	1.852200e+05	
4	-2.00000e-01	1.925897e+05	
5	-2.50000e-01	2.005671e+05	
6	-3.00000e-01	2.092303e+05	
7	-3.50000e-01	2.186718e+05	
8	-4.00000e-01	2.290012e+05	
9	-4.50000e-01	2.403497e+05	
10	-5.00000e-01	2.528757e+05	
11	-5.50000e-01	2.667721e+05	
12	-6.00000e-01	2.822760e+05	
13	-6.50000e-01	2.996827e+05	
14	-7.00000e-01	3.193637e+05	
15	-7.50000e-01	3.417934e+05	
16	-8.00000e-01	3.675868e+05	
17	-8.50000e-01	3.975549e+05	
18	-9.00000e-01	4.327882e+05	
19	-9.50000e-01	4.747855e+05	
20	-1.00000e+00	5.256585e+05	
21	-1.05000e+00	5.884677e+05	
22	-1.10000e+00	6.677910e+05	
23	-1.15000e+00	7.707223e+05	
24	-1.20000e+00	9.086781e+05	
25	-1.25000e+00	1.100748e+06	
26	-1.30000e+00	1.379934e+06	
27	-1.35000e+00	1.804345e+06	
28	-1.40000e+00	2.475013e+06	
29	-1.45000e+00	3.556749e+06	
30	-1.50000e+00	5.285055e+06	
31	-1.55000e+00	7.931938e+06	
32	-1.60000e+00	1.172489e+07	
33	-1.65000e+00	1.676043e+07	
34	-1.70000e+00	2.296821e+07	
35	-1.75000e+00	3.014239e+07	
36	-1.80000e+00	3.801124e+07	
37	-1.85000e+00	4.630418e+07	
38	-1.90000e+00	5.479373e+07	
39	-1.95000e+00	6.331054e+07	
40	-2.00000e+00	7.174065e+07	
41	-2.05000e+00	8.001468e+07	
42	-2.10000e+00	8.809564e+07	
43	-2.15000e+00	9.596833e+07	
44	-2.20000e+00	1.036313e+08	
45	-2.25000e+00	1.110911e+08	
46	-2.30000e+00	1.183587e+08	
47	-2.35000e+00	1.254469e+08	
48	-2.40000e+00	1.323691e+08	
49	-2.45000e+00	1.391384e+08	
50	-2.50000e+00	1.457669e+08	
51	-2.55000e+00	1.522660e+08	
52	-2.60000e+00	1.586458e+08	
53	-2.65000e+00	1.649155e+08	
54	-2.70000e+00	1.710832e+08	

Index   v-sweep         rds             
--------------------------------------------------------------------------------
55	-2.75000e+00	1.771562e+08	
56	-2.80000e+00	1.831410e+08	
57	-2.85000e+00	1.890432e+08	
58	-2.90000e+00	1.948680e+08	
59	-2.95000e+00	2.006198e+08	
60	-3.00000e+00	2.063022e+08	
61	-3.05000e+00	2.119184e+08	
62	-3.10000e+00	2.174709e+08	
63	-3.15000e+00	2.229612e+08	
64	-3.20000e+00	2.283900e+08	
65	-3.25000e+00	2.337564e+08	
66	-3.30000e+00	2.390581e+08	
Reset re-loads circuit ***************************

Circuit: ***************************

Doing analysis at TEMP = 25.000000 and TNOM = 25.000000


No. of Data Rows : 67
                          ***************************
                          DC transfer characteristic  Mon Jan  9 13:58:25  2023
--------------------------------------------------------------------------------
Index   v-sweep         rds             
--------------------------------------------------------------------------------
0	0.000000e+00	1.407145e+05	
1	-5.00000e-02	1.445963e+05	
2	-1.00000e-01	1.486970e+05	
3	-1.50000e-01	1.530354e+05	
4	-2.00000e-01	1.576331e+05	
5	-2.50000e-01	1.625138e+05	
6	-3.00000e-01	1.677045e+05	
7	-3.50000e-01	1.732357e+05	
8	-4.00000e-01	1.791421e+05	
9	-4.50000e-01	1.854632e+05	
10	-5.00000e-01	1.922441e+05	
11	-5.50000e-01	1.995368e+05	
12	-6.00000e-01	2.074016e+05	
13	-6.50000e-01	2.159083e+05	
14	-7.00000e-01	2.251389e+05	
15	-7.50000e-01	2.351897e+05	
16	-8.00000e-01	2.461748e+05	
17	-8.50000e-01	2.582306e+05	
18	-9.00000e-01	2.715211e+05	
19	-9.50000e-01	2.862455e+05	
20	-1.00000e+00	3.026484e+05	
21	-1.05000e+00	3.210323e+05	
22	-1.10000e+00	3.417770e+05	
23	-1.15000e+00	3.653647e+05	
24	-1.20000e+00	3.924169e+05	
25	-1.25000e+00	4.237474e+05	
26	-1.30000e+00	4.604410e+05	
27	-1.35000e+00	5.039732e+05	
28	-1.40000e+00	5.563956e+05	
29	-1.45000e+00	6.206323e+05	
30	-1.50000e+00	7.009649e+05	
31	-1.55000e+00	8.038469e+05	
32	-1.60000e+00	9.392958e+05	
33	-1.65000e+00	1.123297e+06	
34	-1.70000e+00	1.381892e+06	
35	-1.75000e+00	1.757742e+06	
36	-1.80000e+00	2.319260e+06	
37	-1.85000e+00	3.169504e+06	
38	-1.90000e+00	4.446498e+06	
39	-1.95000e+00	6.303728e+06	
40	-2.00000e+00	8.869104e+06	
41	-2.05000e+00	1.220046e+07	
42	-2.10000e+00	1.626402e+07	
43	-2.15000e+00	2.094695e+07	
44	-2.20000e+00	2.609265e+07	
45	-2.25000e+00	3.153853e+07	
46	-2.30000e+00	3.714228e+07	
47	-2.35000e+00	4.279357e+07	
48	-2.40000e+00	4.841482e+07	
49	-2.45000e+00	5.395626e+07	
50	-2.50000e+00	5.938920e+07	
51	-2.55000e+00	6.469974e+07	
52	-2.60000e+00	6.988369e+07	
53	-2.65000e+00	7.494288e+07	
54	-2.70000e+00	7.988260e+07	

Index   v-sweep         rds             
--------------------------------------------------------------------------------
55	-2.75000e+00	8.470992e+07	
56	-2.80000e+00	8.943260e+07	
57	-2.85000e+00	9.405849e+07	
58	-2.90000e+00	9.859513e+07	
59	-2.95000e+00	1.030495e+08	
60	-3.00000e+00	1.074282e+08	
61	-3.05000e+00	1.117369e+08	
62	-3.10000e+00	1.159809e+08	
63	-3.15000e+00	1.201650e+08	
64	-3.20000e+00	1.242932e+08	
65	-3.25000e+00	1.283694e+08	
66	-3.30000e+00	1.323968e+08	
Reset re-loads circuit ***************************

Circuit: ***************************

Note: No ".plot", ".print", or ".fourier" lines; no simulations run
