
Note: Compatibility modes selected: hs

Warning: m=xx on .subckt line will override multiplier m hierarchy!


Circuit: ***************************

Doing analysis at TEMP = 125.000000 and TNOM = 125.000000


No. of Data Rows : 67
                          ***************************
                          DC transfer characteristic  Mon Jan  9 13:58:27  2023
--------------------------------------------------------------------------------
Index   v-sweep         rds             
--------------------------------------------------------------------------------
0	0.000000e+00	1.052134e+07	
1	-5.00000e-02	1.657363e+07	
2	-1.00000e-01	3.485430e+07	
3	-1.50000e-01	1.192457e+08	
4	-2.00000e-01	4.849270e+08	
5	-2.50000e-01	1.500260e+09	
6	-3.00000e-01	3.451220e+09	
7	-3.50000e-01	6.378239e+09	
8	-4.00000e-01	1.007597e+10	
9	-4.50000e-01	1.421264e+10	
10	-5.00000e-01	1.846698e+10	
11	-5.50000e-01	2.260567e+10	
12	-6.00000e-01	2.649523e+10	
13	-6.50000e-01	3.007963e+10	
14	-7.00000e-01	3.335136e+10	
15	-7.50000e-01	3.632847e+10	
16	-8.00000e-01	3.903986e+10	
17	-8.50000e-01	4.151704e+10	
18	-9.00000e-01	4.379008e+10	
19	-9.50000e-01	4.588588e+10	
20	-1.00000e+00	4.782774e+10	
21	-1.05000e+00	4.963550e+10	
22	-1.10000e+00	5.132589e+10	
23	-1.15000e+00	5.291300e+10	
24	-1.20000e+00	5.440869e+10	
25	-1.25000e+00	5.582294e+10	
26	-1.30000e+00	5.716425e+10	
27	-1.35000e+00	5.843984e+10	
28	-1.40000e+00	5.965588e+10	
29	-1.45000e+00	6.081770e+10	
30	-1.50000e+00	6.192991e+10	
31	-1.55000e+00	6.299653e+10	
32	-1.60000e+00	6.402104e+10	
33	-1.65000e+00	6.500654e+10	
34	-1.70000e+00	6.595570e+10	
35	-1.75000e+00	6.687089e+10	
36	-1.80000e+00	6.775416e+10	
37	-1.85000e+00	6.860726e+10	
38	-1.90000e+00	6.943165e+10	
39	-1.95000e+00	7.022846e+10	
40	-2.00000e+00	7.099853e+10	
41	-2.05000e+00	7.174229e+10	
42	-2.10000e+00	7.245978e+10	
43	-2.15000e+00	7.315056e+10	
44	-2.20000e+00	7.381367e+10	
45	-2.25000e+00	7.444752e+10	
46	-2.30000e+00	7.504985e+10	
47	-2.35000e+00	7.561762e+10	
48	-2.40000e+00	7.614699e+10	
49	-2.45000e+00	7.663317e+10	
50	-2.50000e+00	7.707046e+10	
51	-2.55000e+00	7.745213e+10	
52	-2.60000e+00	7.777047e+10	
53	-2.65000e+00	7.801683e+10	
54	-2.70000e+00	7.818164e+10	

Index   v-sweep         rds             
--------------------------------------------------------------------------------
55	-2.75000e+00	7.825459e+10	
56	-2.80000e+00	7.822482e+10	
57	-2.85000e+00	7.808113e+10	
58	-2.90000e+00	7.781237e+10	
59	-2.95000e+00	7.740775e+10	
60	-3.00000e+00	7.685733e+10	
61	-3.05000e+00	7.615249e+10	
62	-3.10000e+00	7.528638e+10	
63	-3.15000e+00	7.425443e+10	
64	-3.20000e+00	7.305474e+10	
65	-3.25000e+00	7.168843e+10	
66	-3.30000e+00	7.015982e+10	
Reset re-loads circuit ***************************

Circuit: ***************************

Doing analysis at TEMP = 125.000000 and TNOM = 125.000000


No. of Data Rows : 67
                          ***************************
                          DC transfer characteristic  Mon Jan  9 13:58:27  2023
--------------------------------------------------------------------------------
Index   v-sweep         rds             
--------------------------------------------------------------------------------
0	0.000000e+00	2.515720e+06	
1	-5.00000e-02	2.828058e+06	
2	-1.00000e-01	3.228374e+06	
3	-1.50000e-01	3.759449e+06	
4	-2.00000e-01	4.496405e+06	
5	-2.50000e-01	5.582677e+06	
6	-3.00000e-01	7.322390e+06	
7	-3.50000e-01	1.044529e+07	
8	-4.00000e-01	1.692084e+07	
9	-4.50000e-01	3.223780e+07	
10	-5.00000e-01	6.937272e+07	
11	-5.50000e-01	1.495043e+08	
12	-6.00000e-01	2.939938e+08	
13	-6.50000e-01	5.137057e+08	
14	-7.00000e-01	8.044462e+08	
15	-7.50000e-01	1.150095e+09	
16	-8.00000e-01	1.529650e+09	
17	-8.50000e-01	1.923537e+09	
18	-9.00000e-01	2.316890e+09	
19	-9.50000e-01	2.700100e+09	
20	-1.00000e+00	3.067906e+09	
21	-1.05000e+00	3.418089e+09	
22	-1.10000e+00	3.750321e+09	
23	-1.15000e+00	4.065328e+09	
24	-1.20000e+00	4.364348e+09	
25	-1.25000e+00	4.648802e+09	
26	-1.30000e+00	4.920116e+09	
27	-1.35000e+00	5.179629e+09	
28	-1.40000e+00	5.428552e+09	
29	-1.45000e+00	5.667959e+09	
30	-1.50000e+00	5.898788e+09	
31	-1.55000e+00	6.121859e+09	
32	-1.60000e+00	6.337880e+09	
33	-1.65000e+00	6.547466e+09	
34	-1.70000e+00	6.751150e+09	
35	-1.75000e+00	6.949395e+09	
36	-1.80000e+00	7.142607e+09	
37	-1.85000e+00	7.331137e+09	
38	-1.90000e+00	7.515296e+09	
39	-1.95000e+00	7.695352e+09	
40	-2.00000e+00	7.871543e+09	
41	-2.05000e+00	8.044069e+09	
42	-2.10000e+00	8.213100e+09	
43	-2.15000e+00	8.378773e+09	
44	-2.20000e+00	8.541186e+09	
45	-2.25000e+00	8.700394e+09	
46	-2.30000e+00	8.856402e+09	
47	-2.35000e+00	9.009151e+09	
48	-2.40000e+00	9.158507e+09	
49	-2.45000e+00	9.304244e+09	
50	-2.50000e+00	9.446028e+09	
51	-2.55000e+00	9.583390e+09	
52	-2.60000e+00	9.715711e+09	
53	-2.65000e+00	9.842194e+09	
54	-2.70000e+00	9.961844e+09	

Index   v-sweep         rds             
--------------------------------------------------------------------------------
55	-2.75000e+00	1.007345e+10	
56	-2.80000e+00	1.017555e+10	
57	-2.85000e+00	1.026647e+10	
58	-2.90000e+00	1.034426e+10	
59	-2.95000e+00	1.040676e+10	
60	-3.00000e+00	1.045161e+10	
61	-3.05000e+00	1.047628e+10	
62	-3.10000e+00	1.047820e+10	
63	-3.15000e+00	1.045479e+10	
64	-3.20000e+00	1.040363e+10	
65	-3.25000e+00	1.032256e+10	
66	-3.30000e+00	1.020984e+10	
Reset re-loads circuit ***************************

Circuit: ***************************

Doing analysis at TEMP = 125.000000 and TNOM = 125.000000


No. of Data Rows : 67
                          ***************************
                          DC transfer characteristic  Mon Jan  9 13:58:27  2023
--------------------------------------------------------------------------------
Index   v-sweep         rds             
--------------------------------------------------------------------------------
0	0.000000e+00	1.435366e+06	
1	-5.00000e-02	1.531141e+06	
2	-1.00000e-01	1.640561e+06	
3	-1.50000e-01	1.766758e+06	
4	-2.00000e-01	1.913899e+06	
5	-2.50000e-01	2.087644e+06	
6	-3.00000e-01	2.295880e+06	
7	-3.50000e-01	2.549913e+06	
8	-4.00000e-01	2.866520e+06	
9	-4.50000e-01	3.271603e+06	
10	-5.00000e-01	3.807117e+06	
11	-5.50000e-01	4.544964e+06	
12	-6.00000e-01	5.616705e+06	
13	-6.50000e-01	7.280987e+06	
14	-7.00000e-01	1.008162e+07	
15	-7.50000e-01	1.520344e+07	
16	-8.00000e-01	2.512335e+07	
17	-8.50000e-01	4.425444e+07	
18	-9.00000e-01	7.853536e+07	
19	-9.50000e-01	1.333719e+08	
20	-1.00000e+00	2.112191e+08	
21	-1.05000e+00	3.105866e+08	
22	-1.10000e+00	4.268821e+08	
23	-1.15000e+00	5.541990e+08	
24	-1.20000e+00	6.869363e+08	
25	-1.25000e+00	8.206914e+08	
26	-1.30000e+00	9.524681e+08	
27	-1.35000e+00	1.080488e+09	
28	-1.40000e+00	1.203869e+09	
29	-1.45000e+00	1.322320e+09	
30	-1.50000e+00	1.435905e+09	
31	-1.55000e+00	1.544880e+09	
32	-1.60000e+00	1.649591e+09	
33	-1.65000e+00	1.750410e+09	
34	-1.70000e+00	1.847702e+09	
35	-1.75000e+00	1.941808e+09	
36	-1.80000e+00	2.033038e+09	
37	-1.85000e+00	2.121667e+09	
38	-1.90000e+00	2.207938e+09	
39	-1.95000e+00	2.292062e+09	
40	-2.00000e+00	2.374226e+09	
41	-2.05000e+00	2.454591e+09	
42	-2.10000e+00	2.533298e+09	
43	-2.15000e+00	2.610471e+09	
44	-2.20000e+00	2.686217e+09	
45	-2.25000e+00	2.760631e+09	
46	-2.30000e+00	2.833793e+09	
47	-2.35000e+00	2.905776e+09	
48	-2.40000e+00	2.976637e+09	
49	-2.45000e+00	3.046425e+09	
50	-2.50000e+00	3.115174e+09	
51	-2.55000e+00	3.182907e+09	
52	-2.60000e+00	3.249626e+09	
53	-2.65000e+00	3.315314e+09	
54	-2.70000e+00	3.379925e+09	

Index   v-sweep         rds             
--------------------------------------------------------------------------------
55	-2.75000e+00	3.443382e+09	
56	-2.80000e+00	3.505565e+09	
57	-2.85000e+00	3.566307e+09	
58	-2.90000e+00	3.625379e+09	
59	-2.95000e+00	3.682481e+09	
60	-3.00000e+00	3.737235e+09	
61	-3.05000e+00	3.789167e+09	
62	-3.10000e+00	3.837703e+09	
63	-3.15000e+00	3.882159e+09	
64	-3.20000e+00	3.921738e+09	
65	-3.25000e+00	3.955532e+09	
66	-3.30000e+00	3.982531e+09	
Reset re-loads circuit ***************************

Circuit: ***************************

Doing analysis at TEMP = 125.000000 and TNOM = 125.000000


No. of Data Rows : 67
                          ***************************
                          DC transfer characteristic  Mon Jan  9 13:58:27  2023
--------------------------------------------------------------------------------
Index   v-sweep         rds             
--------------------------------------------------------------------------------
0	0.000000e+00	1.021206e+06	
1	-5.00000e-02	1.067116e+06	
2	-1.00000e-01	1.117331e+06	
3	-1.50000e-01	1.172487e+06	
4	-2.00000e-01	1.233349e+06	
5	-2.50000e-01	1.300850e+06	
6	-3.00000e-01	1.376137e+06	
7	-3.50000e-01	1.460635e+06	
8	-4.00000e-01	1.556142e+06	
9	-4.50000e-01	1.664950e+06	
10	-5.00000e-01	1.790033e+06	
11	-5.50000e-01	1.935316e+06	
12	-6.00000e-01	2.106080e+06	
13	-6.50000e-01	2.309601e+06	
14	-7.00000e-01	2.556162e+06	
15	-7.50000e-01	2.860740e+06	
16	-8.00000e-01	3.245912e+06	
17	-8.50000e-01	3.747091e+06	
18	-9.00000e-01	4.422358e+06	
19	-9.50000e-01	5.371699e+06	
20	-1.00000e+00	6.775756e+06	
21	-1.05000e+00	8.973679e+06	
22	-1.10000e+00	1.260886e+07	
23	-1.15000e+00	1.884908e+07	
24	-1.20000e+00	2.956671e+07	
25	-1.25000e+00	4.718269e+07	
26	-1.30000e+00	7.397548e+07	
27	-1.35000e+00	1.111700e+08	
28	-1.40000e+00	1.584254e+08	
29	-1.45000e+00	2.140144e+08	
30	-1.50000e+00	2.754722e+08	
31	-1.55000e+00	3.402872e+08	
32	-1.60000e+00	4.063542e+08	
33	-1.65000e+00	4.721416e+08	
34	-1.70000e+00	5.366645e+08	
35	-1.75000e+00	5.993696e+08	
36	-1.80000e+00	6.600073e+08	
37	-1.85000e+00	7.185228e+08	
38	-1.90000e+00	7.749762e+08	
39	-1.95000e+00	8.294888e+08	
40	-2.00000e+00	8.822088e+08	
41	-2.05000e+00	9.332913e+08	
42	-2.10000e+00	9.828866e+08	
43	-2.15000e+00	1.031135e+09	
44	-2.20000e+00	1.078162e+09	
45	-2.25000e+00	1.124082e+09	
46	-2.30000e+00	1.168995e+09	
47	-2.35000e+00	1.212989e+09	
48	-2.40000e+00	1.256141e+09	
49	-2.45000e+00	1.298520e+09	
50	-2.50000e+00	1.340185e+09	
51	-2.55000e+00	1.381187e+09	
52	-2.60000e+00	1.421572e+09	
53	-2.65000e+00	1.461380e+09	
54	-2.70000e+00	1.500643e+09	

Index   v-sweep         rds             
--------------------------------------------------------------------------------
55	-2.75000e+00	1.539392e+09	
56	-2.80000e+00	1.577648e+09	
57	-2.85000e+00	1.615427e+09	
58	-2.90000e+00	1.652740e+09	
59	-2.95000e+00	1.689587e+09	
60	-3.00000e+00	1.725955e+09	
61	-3.05000e+00	1.761821e+09	
62	-3.10000e+00	1.797141e+09	
63	-3.15000e+00	1.831852e+09	
64	-3.20000e+00	1.865861e+09	
65	-3.25000e+00	1.899043e+09	
66	-3.30000e+00	1.931237e+09	
Reset re-loads circuit ***************************

Circuit: ***************************

Doing analysis at TEMP = 125.000000 and TNOM = 125.000000


No. of Data Rows : 67
                          ***************************
                          DC transfer characteristic  Mon Jan  9 13:58:27  2023
--------------------------------------------------------------------------------
Index   v-sweep         rds             
--------------------------------------------------------------------------------
0	0.000000e+00	7.998287e+05	
1	-5.00000e-02	8.265673e+05	
2	-1.00000e-01	8.551468e+05	
3	-1.50000e-01	8.857641e+05	
4	-2.00000e-01	9.186450e+05	
5	-2.50000e-01	9.540501e+05	
6	-3.00000e-01	9.922813e+05	
7	-3.50000e-01	1.033691e+06	
8	-4.00000e-01	1.078692e+06	
9	-4.50000e-01	1.127772e+06	
10	-5.00000e-01	1.181512e+06	
11	-5.50000e-01	1.240606e+06	
12	-6.00000e-01	1.305896e+06	
13	-6.50000e-01	1.378407e+06	
14	-7.00000e-01	1.459403e+06	
15	-7.50000e-01	1.550459e+06	
16	-8.00000e-01	1.653565e+06	
17	-8.50000e-01	1.771266e+06	
18	-9.00000e-01	1.906873e+06	
19	-9.50000e-01	2.064763e+06	
20	-1.00000e+00	2.250843e+06	
21	-1.05000e+00	2.473261e+06	
22	-1.10000e+00	2.743541e+06	
23	-1.15000e+00	3.078447e+06	
24	-1.20000e+00	3.503149e+06	
25	-1.25000e+00	4.056761e+06	
26	-1.30000e+00	4.802315e+06	
27	-1.35000e+00	5.845019e+06	
28	-1.40000e+00	7.365447e+06	
29	-1.45000e+00	9.676615e+06	
30	-1.50000e+00	1.330819e+07	
31	-1.55000e+00	1.909032e+07	
32	-1.60000e+00	2.814907e+07	
33	-1.65000e+00	4.170366e+07	
34	-1.70000e+00	6.067936e+07	
35	-1.75000e+00	8.534377e+07	
36	-1.80000e+00	1.151976e+08	
37	-1.85000e+00	1.491621e+08	
38	-1.90000e+00	1.859150e+08	
39	-1.95000e+00	2.241941e+08	
40	-2.00000e+00	2.629752e+08	
41	-2.05000e+00	3.015244e+08	
42	-2.10000e+00	3.393719e+08	
43	-2.15000e+00	3.762538e+08	
44	-2.20000e+00	4.120509e+08	
45	-2.25000e+00	4.467373e+08	
46	-2.30000e+00	4.803433e+08	
47	-2.35000e+00	5.129296e+08	
48	-2.40000e+00	5.445708e+08	
49	-2.45000e+00	5.753457e+08	
50	-2.50000e+00	6.053311e+08	
51	-2.55000e+00	6.345991e+08	
52	-2.60000e+00	6.632154e+08	
53	-2.65000e+00	6.912393e+08	
54	-2.70000e+00	7.187234e+08	

Index   v-sweep         rds             
--------------------------------------------------------------------------------
55	-2.75000e+00	7.457144e+08	
56	-2.80000e+00	7.722533e+08	
57	-2.85000e+00	7.983764e+08	
58	-2.90000e+00	8.241152e+08	
59	-2.95000e+00	8.494977e+08	
60	-3.00000e+00	8.745481e+08	
61	-3.05000e+00	8.992874e+08	
62	-3.10000e+00	9.237336e+08	
63	-3.15000e+00	9.479013e+08	
64	-3.20000e+00	9.718018e+08	
65	-3.25000e+00	9.954423e+08	
66	-3.30000e+00	1.018825e+09	
Reset re-loads circuit ***************************

Circuit: ***************************

Doing analysis at TEMP = 125.000000 and TNOM = 125.000000


No. of Data Rows : 67
                          ***************************
                          DC transfer characteristic  Mon Jan  9 13:58:27  2023
--------------------------------------------------------------------------------
Index   v-sweep         rds             
--------------------------------------------------------------------------------
0	0.000000e+00	6.624140e+05	
1	-5.00000e-02	6.798624e+05	
2	-1.00000e-01	6.982494e+05	
3	-1.50000e-01	7.176530e+05	
4	-2.00000e-01	7.381598e+05	
5	-2.50000e-01	7.598665e+05	
6	-3.00000e-01	7.828817e+05	
7	-3.50000e-01	8.073273e+05	
8	-4.00000e-01	8.333408e+05	
9	-4.50000e-01	8.610781e+05	
10	-5.00000e-01	8.907161e+05	
11	-5.50000e-01	9.224571e+05	
12	-6.00000e-01	9.565329e+05	
13	-6.50000e-01	9.932108e+05	
14	-7.00000e-01	1.032800e+06	
15	-7.50000e-01	1.075661e+06	
16	-8.00000e-01	1.122217e+06	
17	-8.50000e-01	1.172966e+06	
18	-9.00000e-01	1.228499e+06	
19	-9.50000e-01	1.289525e+06	
20	-1.00000e+00	1.356898e+06	
21	-1.05000e+00	1.431659e+06	
22	-1.10000e+00	1.515088e+06	
23	-1.15000e+00	1.608775e+06	
24	-1.20000e+00	1.714724e+06	
25	-1.25000e+00	1.835486e+06	
26	-1.30000e+00	1.974366e+06	
27	-1.35000e+00	2.135709e+06	
28	-1.40000e+00	2.325338e+06	
29	-1.45000e+00	2.551215e+06	
30	-1.50000e+00	2.824473e+06	
31	-1.55000e+00	3.161073e+06	
32	-1.60000e+00	3.584522e+06	
33	-1.65000e+00	4.130423e+06	
34	-1.70000e+00	4.854231e+06	
35	-1.75000e+00	5.844429e+06	
36	-1.80000e+00	7.244335e+06	
37	-1.85000e+00	9.285281e+06	
38	-1.90000e+00	1.232819e+07	
39	-1.95000e+00	1.689377e+07	
40	-2.00000e+00	2.363786e+07	
41	-2.05000e+00	3.322973e+07	
42	-2.10000e+00	4.615135e+07	
43	-2.15000e+00	6.251779e+07	
44	-2.20000e+00	8.202610e+07	
45	-2.25000e+00	1.040537e+08	
46	-2.30000e+00	1.278362e+08	
47	-2.35000e+00	1.526325e+08	
48	-2.40000e+00	1.778281e+08	
49	-2.45000e+00	2.029697e+08	
50	-2.50000e+00	2.277569e+08	
51	-2.55000e+00	2.520117e+08	
52	-2.60000e+00	2.756451e+08	
53	-2.65000e+00	2.986277e+08	
54	-2.70000e+00	3.209671e+08	

Index   v-sweep         rds             
--------------------------------------------------------------------------------
55	-2.75000e+00	3.426925e+08	
56	-2.80000e+00	3.638439e+08	
57	-2.85000e+00	3.844654e+08	
58	-2.90000e+00	4.046016e+08	
59	-2.95000e+00	4.242951e+08	
60	-3.00000e+00	4.435853e+08	
61	-3.05000e+00	4.625081e+08	
62	-3.10000e+00	4.810958e+08	
63	-3.15000e+00	4.993771e+08	
64	-3.20000e+00	5.173774e+08	
65	-3.25000e+00	5.351192e+08	
66	-3.30000e+00	5.526225e+08	
Reset re-loads circuit ***************************

Circuit: ***************************

Note: No ".plot", ".print", or ".fourier" lines; no simulations run
