
Note: Compatibility modes selected: hs

Warning: m=xx on .subckt line will override multiplier m hierarchy!


Circuit: ***************************

Doing analysis at TEMP = 125.000000 and TNOM = 125.000000


No. of Data Rows : 67
                          ***************************
                          DC transfer characteristic  Mon Jan  9 13:58:26  2023
--------------------------------------------------------------------------------
Index   v-sweep         rds             
--------------------------------------------------------------------------------
0	0.000000e+00	1.003661e+04	
1	-5.00000e-02	1.316224e+04	
2	-1.00000e-01	1.884031e+04	
3	-1.50000e-01	3.136259e+04	
4	-2.00000e-01	6.473278e+04	
5	-2.50000e-01	1.385380e+05	
6	-3.00000e-01	2.209188e+05	
7	-3.50000e-01	2.741123e+05	
8	-4.00000e-01	3.049435e+05	
9	-4.50000e-01	3.247381e+05	
10	-5.00000e-01	3.390564e+05	
11	-5.50000e-01	3.503273e+05	
12	-6.00000e-01	3.596771e+05	
13	-6.50000e-01	3.676817e+05	
14	-7.00000e-01	3.746675e+05	
15	-7.50000e-01	3.808376e+05	
16	-8.00000e-01	3.863288e+05	
17	-8.50000e-01	3.912402e+05	
18	-9.00000e-01	3.956470e+05	
19	-9.50000e-01	3.996087e+05	
20	-1.00000e+00	4.031744e+05	
21	-1.05000e+00	4.063846e+05	
22	-1.10000e+00	4.092744e+05	
23	-1.15000e+00	4.118737e+05	
24	-1.20000e+00	4.142087e+05	
25	-1.25000e+00	4.163027e+05	
26	-1.30000e+00	4.181761e+05	
27	-1.35000e+00	4.198472e+05	
28	-1.40000e+00	4.213323e+05	
29	-1.45000e+00	4.226462e+05	
30	-1.50000e+00	4.238022e+05	
31	-1.55000e+00	4.248123e+05	
32	-1.60000e+00	4.256874e+05	
33	-1.65000e+00	4.264375e+05	
34	-1.70000e+00	4.270715e+05	
35	-1.75000e+00	4.275977e+05	
36	-1.80000e+00	4.280234e+05	
37	-1.85000e+00	4.283554e+05	
38	-1.90000e+00	4.285997e+05	
39	-1.95000e+00	4.287616e+05	
40	-2.00000e+00	4.288454e+05	
41	-2.05000e+00	4.288551e+05	
42	-2.10000e+00	4.287934e+05	
43	-2.15000e+00	4.286622e+05	
44	-2.20000e+00	4.284625e+05	
45	-2.25000e+00	4.281938e+05	
46	-2.30000e+00	4.278546e+05	
47	-2.35000e+00	4.274417e+05	
48	-2.40000e+00	4.269504e+05	
49	-2.45000e+00	4.263743e+05	
50	-2.50000e+00	4.257048e+05	
51	-2.55000e+00	4.249317e+05	
52	-2.60000e+00	4.240422e+05	
53	-2.65000e+00	4.230215e+05	
54	-2.70000e+00	4.218525e+05	

Index   v-sweep         rds             
--------------------------------------------------------------------------------
55	-2.75000e+00	4.205158e+05	
56	-2.80000e+00	4.189899e+05	
57	-2.85000e+00	4.172510e+05	
58	-2.90000e+00	4.152736e+05	
59	-2.95000e+00	4.130308e+05	
60	-3.00000e+00	4.104943e+05	
61	-3.05000e+00	4.076354e+05	
62	-3.10000e+00	4.044253e+05	
63	-3.15000e+00	4.008357e+05	
64	-3.20000e+00	3.968402e+05	
65	-3.25000e+00	3.924145e+05	
66	-3.30000e+00	3.875374e+05	
Reset re-loads circuit ***************************

Circuit: ***************************

Doing analysis at TEMP = 125.000000 and TNOM = 125.000000


No. of Data Rows : 67
                          ***************************
                          DC transfer characteristic  Mon Jan  9 13:58:27  2023
--------------------------------------------------------------------------------
Index   v-sweep         rds             
--------------------------------------------------------------------------------
0	0.000000e+00	2.842589e+03	
1	-5.00000e-02	3.094230e+03	
2	-1.00000e-01	3.389952e+03	
3	-1.50000e-01	3.742355e+03	
4	-2.00000e-01	4.169292e+03	
5	-2.50000e-01	4.696865e+03	
6	-3.00000e-01	5.364654e+03	
7	-3.50000e-01	6.235233e+03	
8	-4.00000e-01	7.412173e+03	
9	-4.50000e-01	9.074636e+03	
10	-5.00000e-01	1.153958e+04	
11	-5.50000e-01	1.533497e+04	
12	-6.00000e-01	2.108548e+04	
13	-6.50000e-01	2.873068e+04	
14	-7.00000e-01	3.677088e+04	
15	-7.50000e-01	4.362553e+04	
16	-8.00000e-01	4.899324e+04	
17	-8.50000e-01	5.326333e+04	
18	-9.00000e-01	5.683199e+04	
19	-9.50000e-01	5.995201e+04	
20	-1.00000e+00	6.276829e+04	
21	-1.05000e+00	6.536369e+04	
22	-1.10000e+00	6.778744e+04	
23	-1.15000e+00	7.007034e+04	
24	-1.20000e+00	7.223283e+04	
25	-1.25000e+00	7.428928e+04	
26	-1.30000e+00	7.625032e+04	
27	-1.35000e+00	7.812422e+04	
28	-1.40000e+00	7.991766e+04	
29	-1.45000e+00	8.163622e+04	
30	-1.50000e+00	8.328471e+04	
31	-1.55000e+00	8.486732e+04	
32	-1.60000e+00	8.638779e+04	
33	-1.65000e+00	8.784948e+04	
34	-1.70000e+00	8.925548e+04	
35	-1.75000e+00	9.060860e+04	
36	-1.80000e+00	9.191143e+04	
37	-1.85000e+00	9.316639e+04	
38	-1.90000e+00	9.437572e+04	
39	-1.95000e+00	9.554151e+04	
40	-2.00000e+00	9.666573e+04	
41	-2.05000e+00	9.775021e+04	
42	-2.10000e+00	9.879665e+04	
43	-2.15000e+00	9.980664e+04	
44	-2.20000e+00	1.007817e+05	
45	-2.25000e+00	1.017230e+05	
46	-2.30000e+00	1.026319e+05	
47	-2.35000e+00	1.035093e+05	
48	-2.40000e+00	1.043561e+05	
49	-2.45000e+00	1.051727e+05	
50	-2.50000e+00	1.059594e+05	
51	-2.55000e+00	1.067160e+05	
52	-2.60000e+00	1.074420e+05	
53	-2.65000e+00	1.081360e+05	
54	-2.70000e+00	1.087963e+05	

Index   v-sweep         rds             
--------------------------------------------------------------------------------
55	-2.75000e+00	1.094204e+05	
56	-2.80000e+00	1.100047e+05	
57	-2.85000e+00	1.105449e+05	
58	-2.90000e+00	1.110354e+05	
59	-2.95000e+00	1.114694e+05	
60	-3.00000e+00	1.118391e+05	
61	-3.05000e+00	1.121351e+05	
62	-3.10000e+00	1.123469e+05	
63	-3.15000e+00	1.124624e+05	
64	-3.20000e+00	1.124686e+05	
65	-3.25000e+00	1.123513e+05	
66	-3.30000e+00	1.120957e+05	
Reset re-loads circuit ***************************

Circuit: ***************************

Doing analysis at TEMP = 125.000000 and TNOM = 125.000000


No. of Data Rows : 67
                          ***************************
                          DC transfer characteristic  Mon Jan  9 13:58:27  2023
--------------------------------------------------------------------------------
Index   v-sweep         rds             
--------------------------------------------------------------------------------
0	0.000000e+00	1.828449e+03	
1	-5.00000e-02	1.926156e+03	
2	-1.00000e-01	2.033498e+03	
3	-1.50000e-01	2.151964e+03	
4	-2.00000e-01	2.283364e+03	
5	-2.50000e-01	2.429921e+03	
6	-3.00000e-01	2.594399e+03	
7	-3.50000e-01	2.780272e+03	
8	-4.00000e-01	2.991963e+03	
9	-4.50000e-01	3.235198e+03	
10	-5.00000e-01	3.517499e+03	
11	-5.50000e-01	3.848939e+03	
12	-6.00000e-01	4.243272e+03	
13	-6.50000e-01	4.719680e+03	
14	-7.00000e-01	5.305485e+03	
15	-7.50000e-01	6.040316e+03	
16	-8.00000e-01	6.982076e+03	
17	-8.50000e-01	8.213588e+03	
18	-9.00000e-01	9.842451e+03	
19	-9.50000e-01	1.197001e+04	
20	-1.00000e+00	1.459460e+04	
21	-1.05000e+00	1.749935e+04	
22	-1.10000e+00	2.032942e+04	
23	-1.15000e+00	2.284542e+04	
24	-1.20000e+00	2.501384e+04	
25	-1.25000e+00	2.690447e+04	
26	-1.30000e+00	2.859656e+04	
27	-1.35000e+00	3.014862e+04	
28	-1.40000e+00	3.159867e+04	
29	-1.45000e+00	3.297066e+04	
30	-1.50000e+00	3.427979e+04	
31	-1.55000e+00	3.553600e+04	
32	-1.60000e+00	3.674608e+04	
33	-1.65000e+00	3.791483e+04	
34	-1.70000e+00	3.904582e+04	
35	-1.75000e+00	4.014180e+04	
36	-1.80000e+00	4.120500e+04	
37	-1.85000e+00	4.223726e+04	
38	-1.90000e+00	4.324014e+04	
39	-1.95000e+00	4.421502e+04	
40	-2.00000e+00	4.516312e+04	
41	-2.05000e+00	4.608556e+04	
42	-2.10000e+00	4.698335e+04	
43	-2.15000e+00	4.785744e+04	
44	-2.20000e+00	4.870868e+04	
45	-2.25000e+00	4.953791e+04	
46	-2.30000e+00	5.034590e+04	
47	-2.35000e+00	5.113337e+04	
48	-2.40000e+00	5.190102e+04	
49	-2.45000e+00	5.264948e+04	
50	-2.50000e+00	5.337936e+04	
51	-2.55000e+00	5.409124e+04	
52	-2.60000e+00	5.478561e+04	
53	-2.65000e+00	5.546293e+04	
54	-2.70000e+00	5.612356e+04	

Index   v-sweep         rds             
--------------------------------------------------------------------------------
55	-2.75000e+00	5.676775e+04	
56	-2.80000e+00	5.739564e+04	
57	-2.85000e+00	5.800718e+04	
58	-2.90000e+00	5.860209e+04	
59	-2.95000e+00	5.917982e+04	
60	-3.00000e+00	5.973947e+04	
61	-3.05000e+00	6.027972e+04	
62	-3.10000e+00	6.079872e+04	
63	-3.15000e+00	6.129406e+04	
64	-3.20000e+00	6.176262e+04	
65	-3.25000e+00	6.220051e+04	
66	-3.30000e+00	6.260294e+04	
Reset re-loads circuit ***************************

Circuit: ***************************

Doing analysis at TEMP = 125.000000 and TNOM = 125.000000


No. of Data Rows : 67
                          ***************************
                          DC transfer characteristic  Mon Jan  9 13:58:27  2023
--------------------------------------------------------------------------------
Index   v-sweep         rds             
--------------------------------------------------------------------------------
0	0.000000e+00	1.418012e+03	
1	-5.00000e-02	1.472897e+03	
2	-1.00000e-01	1.531552e+03	
3	-1.50000e-01	1.594373e+03	
4	-2.00000e-01	1.661816e+03	
5	-2.50000e-01	1.734407e+03	
6	-3.00000e-01	1.812752e+03	
7	-3.50000e-01	1.897558e+03	
8	-4.00000e-01	1.989651e+03	
9	-4.50000e-01	2.090004e+03	
10	-5.00000e-01	2.199773e+03	
11	-5.50000e-01	2.320335e+03	
12	-6.00000e-01	2.453351e+03	
13	-6.50000e-01	2.600836e+03	
14	-7.00000e-01	2.765262e+03	
15	-7.50000e-01	2.949689e+03	
16	-8.00000e-01	3.157948e+03	
17	-8.50000e-01	3.394893e+03	
18	-9.00000e-01	3.666743e+03	
19	-9.50000e-01	3.981575e+03	
20	-1.00000e+00	4.349990e+03	
21	-1.05000e+00	4.786036e+03	
22	-1.10000e+00	5.308366e+03	
23	-1.15000e+00	5.941464e+03	
24	-1.20000e+00	6.716079e+03	
25	-1.25000e+00	7.666475e+03	
26	-1.30000e+00	8.819513e+03	
27	-1.35000e+00	1.017100e+04	
28	-1.40000e+00	1.165985e+04	
29	-1.45000e+00	1.317618e+04	
30	-1.50000e+00	1.461720e+04	
31	-1.55000e+00	1.593464e+04	
32	-1.60000e+00	1.713011e+04	
33	-1.65000e+00	1.822622e+04	
34	-1.70000e+00	1.924686e+04	
35	-1.75000e+00	2.021053e+04	
36	-1.80000e+00	2.113009e+04	
37	-1.85000e+00	2.201415e+04	
38	-1.90000e+00	2.286853e+04	
39	-1.95000e+00	2.369718e+04	
40	-2.00000e+00	2.450289e+04	
41	-2.05000e+00	2.528768e+04	
42	-2.10000e+00	2.605309e+04	
43	-2.15000e+00	2.680031e+04	
44	-2.20000e+00	2.753031e+04	
45	-2.25000e+00	2.824389e+04	
46	-2.30000e+00	2.894174e+04	
47	-2.35000e+00	2.962448e+04	
48	-2.40000e+00	3.029263e+04	
49	-2.45000e+00	3.094669e+04	
50	-2.50000e+00	3.158710e+04	
51	-2.55000e+00	3.221430e+04	
52	-2.60000e+00	3.282867e+04	
53	-2.65000e+00	3.343059e+04	
54	-2.70000e+00	3.402039e+04	

Index   v-sweep         rds             
--------------------------------------------------------------------------------
55	-2.75000e+00	3.459842e+04	
56	-2.80000e+00	3.516499e+04	
57	-2.85000e+00	3.572039e+04	
58	-2.90000e+00	3.626489e+04	
59	-2.95000e+00	3.679874e+04	
60	-3.00000e+00	3.732214e+04	
61	-3.05000e+00	3.783527e+04	
62	-3.10000e+00	3.833822e+04	
63	-3.15000e+00	3.883100e+04	
64	-3.20000e+00	3.931350e+04	
65	-3.25000e+00	3.978546e+04	
66	-3.30000e+00	4.024644e+04	
Reset re-loads circuit ***************************

Circuit: ***************************

Doing analysis at TEMP = 125.000000 and TNOM = 125.000000


No. of Data Rows : 67
                          ***************************
                          DC transfer characteristic  Mon Jan  9 13:58:27  2023
--------------------------------------------------------------------------------
Index   v-sweep         rds             
--------------------------------------------------------------------------------
0	0.000000e+00	1.207908e+03	
1	-5.00000e-02	1.245007e+03	
2	-1.00000e-01	1.284076e+03	
3	-1.50000e-01	1.325274e+03	
4	-2.00000e-01	1.368779e+03	
5	-2.50000e-01	1.414787e+03	
6	-3.00000e-01	1.463518e+03	
7	-3.50000e-01	1.515217e+03	
8	-4.00000e-01	1.570163e+03	
9	-4.50000e-01	1.628668e+03	
10	-5.00000e-01	1.691085e+03	
11	-5.50000e-01	1.757817e+03	
12	-6.00000e-01	1.829322e+03	
13	-6.50000e-01	1.906128e+03	
14	-7.00000e-01	1.988841e+03	
15	-7.50000e-01	2.078164e+03	
16	-8.00000e-01	2.174915e+03	
17	-8.50000e-01	2.280052e+03	
18	-9.00000e-01	2.394704e+03	
19	-9.50000e-01	2.520209e+03	
20	-1.00000e+00	2.658167e+03	
21	-1.05000e+00	2.810502e+03	
22	-1.10000e+00	2.979548e+03	
23	-1.15000e+00	3.168158e+03	
24	-1.20000e+00	3.379849e+03	
25	-1.25000e+00	3.618992e+03	
26	-1.30000e+00	3.891053e+03	
27	-1.35000e+00	4.202901e+03	
28	-1.40000e+00	4.563163e+03	
29	-1.45000e+00	4.982561e+03	
30	-1.50000e+00	5.474024e+03	
31	-1.55000e+00	6.052065e+03	
32	-1.60000e+00	6.730364e+03	
33	-1.65000e+00	7.516139e+03	
34	-1.70000e+00	8.401139e+03	
35	-1.75000e+00	9.354434e+03	
36	-1.80000e+00	1.032752e+04	
37	-1.85000e+00	1.127392e+04	
38	-1.90000e+00	1.216700e+04	
39	-1.95000e+00	1.300137e+04	
40	-2.00000e+00	1.378365e+04	
41	-2.05000e+00	1.452370e+04	
42	-2.10000e+00	1.523039e+04	
43	-2.15000e+00	1.591046e+04	
44	-2.20000e+00	1.656872e+04	
45	-2.25000e+00	1.720854e+04	
46	-2.30000e+00	1.783226e+04	
47	-2.35000e+00	1.844157e+04	
48	-2.40000e+00	1.903770e+04	
49	-2.45000e+00	1.962157e+04	
50	-2.50000e+00	2.019390e+04	
51	-2.55000e+00	2.075525e+04	
52	-2.60000e+00	2.130611e+04	
53	-2.65000e+00	2.184687e+04	
54	-2.70000e+00	2.237788e+04	

Index   v-sweep         rds             
--------------------------------------------------------------------------------
55	-2.75000e+00	2.289945e+04	
56	-2.80000e+00	2.341185e+04	
57	-2.85000e+00	2.391535e+04	
58	-2.90000e+00	2.441018e+04	
59	-2.95000e+00	2.489656e+04	
60	-3.00000e+00	2.537470e+04	
61	-3.05000e+00	2.584479e+04	
62	-3.10000e+00	2.630702e+04	
63	-3.15000e+00	2.676158e+04	
64	-3.20000e+00	2.720861e+04	
65	-3.25000e+00	2.764828e+04	
66	-3.30000e+00	2.808072e+04	
Reset re-loads circuit ***************************

Circuit: ***************************

Doing analysis at TEMP = 125.000000 and TNOM = 125.000000


No. of Data Rows : 67
                          ***************************
                          DC transfer characteristic  Mon Jan  9 13:58:27  2023
--------------------------------------------------------------------------------
Index   v-sweep         rds             
--------------------------------------------------------------------------------
0	0.000000e+00	1.063855e+03	
1	-5.00000e-02	1.090861e+03	
2	-1.00000e-01	1.119029e+03	
3	-1.50000e-01	1.148434e+03	
4	-2.00000e-01	1.179157e+03	
5	-2.50000e-01	1.211288e+03	
6	-3.00000e-01	1.244925e+03	
7	-3.50000e-01	1.280175e+03	
8	-4.00000e-01	1.317154e+03	
9	-4.50000e-01	1.355992e+03	
10	-5.00000e-01	1.396831e+03	
11	-5.50000e-01	1.439826e+03	
12	-6.00000e-01	1.485153e+03	
13	-6.50000e-01	1.533003e+03	
14	-7.00000e-01	1.583592e+03	
15	-7.50000e-01	1.637158e+03	
16	-8.00000e-01	1.693970e+03	
17	-8.50000e-01	1.754329e+03	
18	-9.00000e-01	1.818575e+03	
19	-9.50000e-01	1.887093e+03	
20	-1.00000e+00	1.960318e+03	
21	-1.05000e+00	2.038749e+03	
22	-1.10000e+00	2.122957e+03	
23	-1.15000e+00	2.213597e+03	
24	-1.20000e+00	2.311427e+03	
25	-1.25000e+00	2.417329e+03	
26	-1.30000e+00	2.532331e+03	
27	-1.35000e+00	2.657643e+03	
28	-1.40000e+00	2.794691e+03	
29	-1.45000e+00	2.945172e+03	
30	-1.50000e+00	3.111111e+03	
31	-1.55000e+00	3.294941e+03	
32	-1.60000e+00	3.499598e+03	
33	-1.65000e+00	3.728632e+03	
34	-1.70000e+00	3.986333e+03	
35	-1.75000e+00	4.277850e+03	
36	-1.80000e+00	4.609251e+03	
37	-1.85000e+00	4.987403e+03	
38	-1.90000e+00	5.419434e+03	
39	-1.95000e+00	5.911402e+03	
40	-2.00000e+00	6.465726e+03	
41	-2.05000e+00	7.077615e+03	
42	-2.10000e+00	7.732358e+03	
43	-2.15000e+00	8.406972e+03	
44	-2.20000e+00	9.077399e+03	
45	-2.25000e+00	9.726564e+03	
46	-2.30000e+00	1.034725e+04	
47	-2.35000e+00	1.093956e+04	
48	-2.40000e+00	1.150701e+04	
49	-2.45000e+00	1.205373e+04	
50	-2.50000e+00	1.258335e+04	
51	-2.55000e+00	1.309864e+04	
52	-2.60000e+00	1.360165e+04	
53	-2.65000e+00	1.409389e+04	
54	-2.70000e+00	1.457641e+04	

Index   v-sweep         rds             
--------------------------------------------------------------------------------
55	-2.75000e+00	1.505003e+04	
56	-2.80000e+00	1.551533e+04	
57	-2.85000e+00	1.597277e+04	
58	-2.90000e+00	1.642274e+04	
59	-2.95000e+00	1.686551e+04	
60	-3.00000e+00	1.730136e+04	
61	-3.05000e+00	1.773049e+04	
62	-3.10000e+00	1.815310e+04	
63	-3.15000e+00	1.856936e+04	
64	-3.20000e+00	1.897942e+04	
65	-3.25000e+00	1.938343e+04	
66	-3.30000e+00	1.978152e+04	
Reset re-loads circuit ***************************

Circuit: ***************************

Note: No ".plot", ".print", or ".fourier" lines; no simulations run
