
Note: Compatibility modes selected: hs

Warning: m=xx on .subckt line will override multiplier m hierarchy!


Circuit: ***************************

Doing analysis at TEMP = 25.000000 and TNOM = 25.000000


No. of Data Rows : 67
                          ***************************
                          DC transfer characteristic  Mon Jan  9 13:58:25  2023
--------------------------------------------------------------------------------
Index   v-sweep         rds             
--------------------------------------------------------------------------------
0	0.000000e+00	1.857796e+04	
1	-5.00000e-02	3.405238e+04	
2	-1.00000e-01	9.557231e+04	
3	-1.50000e-01	3.029013e+05	
4	-2.00000e-01	5.294443e+05	
5	-2.50000e-01	6.467729e+05	
6	-3.00000e-01	7.051520e+05	
7	-3.50000e-01	7.393597e+05	
8	-4.00000e-01	7.623130e+05	
9	-4.50000e-01	7.790327e+05	
10	-5.00000e-01	7.917683e+05	
11	-5.50000e-01	8.016838e+05	
12	-6.00000e-01	8.094617e+05	
13	-6.50000e-01	8.155442e+05	
14	-7.00000e-01	8.202411e+05	
15	-7.50000e-01	8.237820e+05	
16	-8.00000e-01	8.263442e+05	
17	-8.50000e-01	8.280690e+05	
18	-9.00000e-01	8.290718e+05	
19	-9.50000e-01	8.294479e+05	
20	-1.00000e+00	8.292778e+05	
21	-1.05000e+00	8.286295e+05	
22	-1.10000e+00	8.275614e+05	
23	-1.15000e+00	8.261238e+05	
24	-1.20000e+00	8.243604e+05	
25	-1.25000e+00	8.223092e+05	
26	-1.30000e+00	8.200037e+05	
27	-1.35000e+00	8.174731e+05	
28	-1.40000e+00	8.147433e+05	
29	-1.45000e+00	8.118373e+05	
30	-1.50000e+00	8.087752e+05	
31	-1.55000e+00	8.055753e+05	
32	-1.60000e+00	8.022536e+05	
33	-1.65000e+00	7.988243e+05	
34	-1.70000e+00	7.953004e+05	
35	-1.75000e+00	7.916929e+05	
36	-1.80000e+00	7.880119e+05	
37	-1.85000e+00	7.842661e+05	
38	-1.90000e+00	7.804627e+05	
39	-1.95000e+00	7.766080e+05	
40	-2.00000e+00	7.727068e+05	
41	-2.05000e+00	7.687626e+05	
42	-2.10000e+00	7.647777e+05	
43	-2.15000e+00	7.607524e+05	
44	-2.20000e+00	7.566860e+05	
45	-2.25000e+00	7.525756e+05	
46	-2.30000e+00	7.484165e+05	
47	-2.35000e+00	7.442021e+05	
48	-2.40000e+00	7.399236e+05	
49	-2.45000e+00	7.355701e+05	
50	-2.50000e+00	7.311281e+05	
51	-2.55000e+00	7.265818e+05	
52	-2.60000e+00	7.219129e+05	
53	-2.65000e+00	7.171009e+05	
54	-2.70000e+00	7.121227e+05	

Index   v-sweep         rds             
--------------------------------------------------------------------------------
55	-2.75000e+00	7.069528e+05	
56	-2.80000e+00	7.015638e+05	
57	-2.85000e+00	6.959266e+05	
58	-2.90000e+00	6.900101e+05	
59	-2.95000e+00	6.837825e+05	
60	-3.00000e+00	6.772112e+05	
61	-3.05000e+00	6.702637e+05	
62	-3.10000e+00	6.629078e+05	
63	-3.15000e+00	6.551130e+05	
64	-3.20000e+00	6.468507e+05	
65	-3.25000e+00	6.380954e+05	
66	-3.30000e+00	6.288252e+05	
Reset re-loads circuit ***************************

Circuit: ***************************

Doing analysis at TEMP = 25.000000 and TNOM = 25.000000


No. of Data Rows : 67
                          ***************************
                          DC transfer characteristic  Mon Jan  9 13:58:25  2023
--------------------------------------------------------------------------------
Index   v-sweep         rds             
--------------------------------------------------------------------------------
0	0.000000e+00	2.512117e+03	
1	-5.00000e-02	2.782988e+03	
2	-1.00000e-01	3.112298e+03	
3	-1.50000e-01	3.521013e+03	
4	-2.00000e-01	4.041292e+03	
5	-2.50000e-01	4.724792e+03	
6	-3.00000e-01	5.659016e+03	
7	-3.50000e-01	7.000743e+03	
8	-4.00000e-01	9.042980e+03	
9	-4.50000e-01	1.231680e+04	
10	-5.00000e-01	1.753502e+04	
11	-5.50000e-01	2.473389e+04	
12	-6.00000e-01	3.233000e+04	
13	-6.50000e-01	3.875098e+04	
14	-7.00000e-01	4.381574e+04	
15	-7.50000e-01	4.792877e+04	
16	-8.00000e-01	5.143859e+04	
17	-8.50000e-01	5.455269e+04	
18	-9.00000e-01	5.738695e+04	
19	-9.50000e-01	6.000777e+04	
20	-1.00000e+00	6.245553e+04	
21	-1.05000e+00	6.475648e+04	
22	-1.10000e+00	6.692887e+04	
23	-1.15000e+00	6.898623e+04	
24	-1.20000e+00	7.093908e+04	
25	-1.25000e+00	7.279597e+04	
26	-1.30000e+00	7.456407e+04	
27	-1.35000e+00	7.624959e+04	
28	-1.40000e+00	7.785795e+04	
29	-1.45000e+00	7.939398e+04	
30	-1.50000e+00	8.086206e+04	
31	-1.55000e+00	8.226615e+04	
32	-1.60000e+00	8.360986e+04	
33	-1.65000e+00	8.489654e+04	
34	-1.70000e+00	8.612925e+04	
35	-1.75000e+00	8.731085e+04	
36	-1.80000e+00	8.844397e+04	
37	-1.85000e+00	8.953108e+04	
38	-1.90000e+00	9.057447e+04	
39	-1.95000e+00	9.157629e+04	
40	-2.00000e+00	9.253851e+04	
41	-2.05000e+00	9.346298e+04	
42	-2.10000e+00	9.435141e+04	
43	-2.15000e+00	9.520536e+04	
44	-2.20000e+00	9.602620e+04	
45	-2.25000e+00	9.681517e+04	
46	-2.30000e+00	9.757325e+04	
47	-2.35000e+00	9.830121e+04	
48	-2.40000e+00	9.899951e+04	
49	-2.45000e+00	9.966827e+04	
50	-2.50000e+00	1.003072e+05	
51	-2.55000e+00	1.009155e+05	
52	-2.60000e+00	1.014918e+05	
53	-2.65000e+00	1.020341e+05	
54	-2.70000e+00	1.025396e+05	

Index   v-sweep         rds             
--------------------------------------------------------------------------------
55	-2.75000e+00	1.030047e+05	
56	-2.80000e+00	1.034248e+05	
57	-2.85000e+00	1.037943e+05	
58	-2.90000e+00	1.041066e+05	
59	-2.95000e+00	1.043538e+05	
60	-3.00000e+00	1.045270e+05	
61	-3.05000e+00	1.046162e+05	
62	-3.10000e+00	1.046101e+05	
63	-3.15000e+00	1.044969e+05	
64	-3.20000e+00	1.042637e+05	
65	-3.25000e+00	1.038974e+05	
66	-3.30000e+00	1.033845e+05	
Reset re-loads circuit ***************************

Circuit: ***************************

Doing analysis at TEMP = 25.000000 and TNOM = 25.000000


No. of Data Rows : 67
                          ***************************
                          DC transfer characteristic  Mon Jan  9 13:58:25  2023
--------------------------------------------------------------------------------
Index   v-sweep         rds             
--------------------------------------------------------------------------------
0	0.000000e+00	1.537591e+03	
1	-5.00000e-02	1.631581e+03	
2	-1.00000e-01	1.736092e+03	
3	-1.50000e-01	1.852978e+03	
4	-2.00000e-01	1.984553e+03	
5	-2.50000e-01	2.133748e+03	
6	-3.00000e-01	2.304316e+03	
7	-3.50000e-01	2.501154e+03	
8	-4.00000e-01	2.730755e+03	
9	-4.50000e-01	3.001904e+03	
10	-5.00000e-01	3.326744e+03	
11	-5.50000e-01	3.722461e+03	
12	-6.00000e-01	4.213953e+03	
13	-6.50000e-01	4.838046e+03	
14	-7.00000e-01	5.649643e+03	
15	-7.50000e-01	6.728420e+03	
16	-8.00000e-01	8.176544e+03	
17	-8.50000e-01	1.007786e+04	
18	-9.00000e-01	1.238955e+04	
19	-9.50000e-01	1.486813e+04	
20	-1.00000e+00	1.722216e+04	
21	-1.05000e+00	1.931844e+04	
22	-1.10000e+00	2.117094e+04	
23	-1.15000e+00	2.283842e+04	
24	-1.20000e+00	2.437210e+04	
25	-1.25000e+00	2.580669e+04	
26	-1.30000e+00	2.716418e+04	
27	-1.35000e+00	2.845853e+04	
28	-1.40000e+00	2.969891e+04	
29	-1.45000e+00	3.089158e+04	
30	-1.50000e+00	3.204110e+04	
31	-1.55000e+00	3.315089e+04	
32	-1.60000e+00	3.422367e+04	
33	-1.65000e+00	3.526168e+04	
34	-1.70000e+00	3.626682e+04	
35	-1.75000e+00	3.724074e+04	
36	-1.80000e+00	3.818494e+04	
37	-1.85000e+00	3.910074e+04	
38	-1.90000e+00	3.998936e+04	
39	-1.95000e+00	4.085195e+04	
40	-2.00000e+00	4.168955e+04	
41	-2.05000e+00	4.250314e+04	
42	-2.10000e+00	4.329365e+04	
43	-2.15000e+00	4.406196e+04	
44	-2.20000e+00	4.480888e+04	
45	-2.25000e+00	4.553521e+04	
46	-2.30000e+00	4.624167e+04	
47	-2.35000e+00	4.692896e+04	
48	-2.40000e+00	4.759773e+04	
49	-2.45000e+00	4.824859e+04	
50	-2.50000e+00	4.888208e+04	
51	-2.55000e+00	4.949869e+04	
52	-2.60000e+00	5.009882e+04	
53	-2.65000e+00	5.068276e+04	
54	-2.70000e+00	5.125068e+04	

Index   v-sweep         rds             
--------------------------------------------------------------------------------
55	-2.75000e+00	5.180257e+04	
56	-2.80000e+00	5.233820e+04	
57	-2.85000e+00	5.285709e+04	
58	-2.90000e+00	5.335843e+04	
59	-2.95000e+00	5.384100e+04	
60	-3.00000e+00	5.430314e+04	
61	-3.05000e+00	5.474262e+04	
62	-3.10000e+00	5.515662e+04	
63	-3.15000e+00	5.554157e+04	
64	-3.20000e+00	5.589317e+04	
65	-3.25000e+00	5.620628e+04	
66	-3.30000e+00	5.647486e+04	
Reset re-loads circuit ***************************

Circuit: ***************************

Doing analysis at TEMP = 25.000000 and TNOM = 25.000000


No. of Data Rows : 67
                          ***************************
                          DC transfer characteristic  Mon Jan  9 13:58:25  2023
--------------------------------------------------------------------------------
Index   v-sweep         rds             
--------------------------------------------------------------------------------
0	0.000000e+00	1.185280e+03	
1	-5.00000e-02	1.236713e+03	
2	-1.00000e-01	1.292053e+03	
3	-1.50000e-01	1.351757e+03	
4	-2.00000e-01	1.416356e+03	
5	-2.50000e-01	1.486470e+03	
6	-3.00000e-01	1.562830e+03	
7	-3.50000e-01	1.646300e+03	
8	-4.00000e-01	1.737910e+03	
9	-4.50000e-01	1.838900e+03	
10	-5.00000e-01	1.950774e+03	
11	-5.50000e-01	2.075370e+03	
12	-6.00000e-01	2.214965e+03	
13	-6.50000e-01	2.372401e+03	
14	-7.00000e-01	2.551278e+03	
15	-7.50000e-01	2.756207e+03	
16	-8.00000e-01	2.993177e+03	
17	-8.50000e-01	3.270065e+03	
18	-9.00000e-01	3.597365e+03	
19	-9.50000e-01	3.989154e+03	
20	-1.00000e+00	4.464276e+03	
21	-1.05000e+00	5.047310e+03	
22	-1.10000e+00	5.767839e+03	
23	-1.15000e+00	6.654249e+03	
24	-1.20000e+00	7.716646e+03	
25	-1.25000e+00	8.922065e+03	
26	-1.30000e+00	1.018999e+04	
27	-1.35000e+00	1.143247e+04	
28	-1.40000e+00	1.259970e+04	
29	-1.45000e+00	1.368356e+04	
30	-1.50000e+00	1.469576e+04	
31	-1.55000e+00	1.565114e+04	
32	-1.60000e+00	1.656172e+04	
33	-1.65000e+00	1.743595e+04	
34	-1.70000e+00	1.827961e+04	
35	-1.75000e+00	1.909665e+04	
36	-1.80000e+00	1.988981e+04	
37	-1.85000e+00	2.066111e+04	
38	-1.90000e+00	2.141207e+04	
39	-1.95000e+00	2.214390e+04	
40	-2.00000e+00	2.285756e+04	
41	-2.05000e+00	2.355389e+04	
42	-2.10000e+00	2.423361e+04	
43	-2.15000e+00	2.489736e+04	
44	-2.20000e+00	2.554572e+04	
45	-2.25000e+00	2.617921e+04	
46	-2.30000e+00	2.679834e+04	
47	-2.35000e+00	2.740356e+04	
48	-2.40000e+00	2.799532e+04	
49	-2.45000e+00	2.857402e+04	
50	-2.50000e+00	2.914005e+04	
51	-2.55000e+00	2.969379e+04	
52	-2.60000e+00	3.023559e+04	
53	-2.65000e+00	3.076580e+04	
54	-2.70000e+00	3.128473e+04	

Index   v-sweep         rds             
--------------------------------------------------------------------------------
55	-2.75000e+00	3.179268e+04	
56	-2.80000e+00	3.228993e+04	
57	-2.85000e+00	3.277672e+04	
58	-2.90000e+00	3.325326e+04	
59	-2.95000e+00	3.371969e+04	
60	-3.00000e+00	3.417610e+04	
61	-3.05000e+00	3.462245e+04	
62	-3.10000e+00	3.505861e+04	
63	-3.15000e+00	3.548425e+04	
64	-3.20000e+00	3.589885e+04	
65	-3.25000e+00	3.630164e+04	
66	-3.30000e+00	3.669152e+04	
Reset re-loads circuit ***************************

Circuit: ***************************

Doing analysis at TEMP = 25.000000 and TNOM = 25.000000


No. of Data Rows : 67
                          ***************************
                          DC transfer characteristic  Mon Jan  9 13:58:25  2023
--------------------------------------------------------------------------------
Index   v-sweep         rds             
--------------------------------------------------------------------------------
0	0.000000e+00	9.920438e+02	
1	-5.00000e-02	1.025373e+03	
2	-1.00000e-01	1.060604e+03	
3	-1.50000e-01	1.097900e+03	
4	-2.00000e-01	1.137446e+03	
5	-2.50000e-01	1.179449e+03	
6	-3.00000e-01	1.224141e+03	
7	-3.50000e-01	1.271785e+03	
8	-4.00000e-01	1.322681e+03	
9	-4.50000e-01	1.377168e+03	
10	-5.00000e-01	1.435636e+03	
11	-5.50000e-01	1.498532e+03	
12	-6.00000e-01	1.566375e+03	
13	-6.50000e-01	1.639764e+03	
14	-7.00000e-01	1.719401e+03	
15	-7.50000e-01	1.806110e+03	
16	-8.00000e-01	1.900867e+03	
17	-8.50000e-01	2.004833e+03	
18	-9.00000e-01	2.119401e+03	
19	-9.50000e-01	2.246254e+03	
20	-1.00000e+00	2.387446e+03	
21	-1.05000e+00	2.545500e+03	
22	-1.10000e+00	2.723544e+03	
23	-1.15000e+00	2.925489e+03	
24	-1.20000e+00	3.156250e+03	
25	-1.25000e+00	3.422031e+03	
26	-1.30000e+00	3.730621e+03	
27	-1.35000e+00	4.091629e+03	
28	-1.40000e+00	4.516346e+03	
29	-1.45000e+00	5.016596e+03	
30	-1.50000e+00	5.601445e+03	
31	-1.55000e+00	6.270993e+03	
32	-1.60000e+00	7.009572e+03	
33	-1.65000e+00	7.785863e+03	
34	-1.70000e+00	8.564834e+03	
35	-1.75000e+00	9.322155e+03	
36	-1.80000e+00	1.004830e+04	
37	-1.85000e+00	1.074348e+04	
38	-1.90000e+00	1.141154e+04	
39	-1.95000e+00	1.205670e+04	
40	-2.00000e+00	1.268240e+04	
41	-2.05000e+00	1.329119e+04	
42	-2.10000e+00	1.388491e+04	
43	-2.15000e+00	1.446490e+04	
44	-2.20000e+00	1.503216e+04	
45	-2.25000e+00	1.558744e+04	
46	-2.30000e+00	1.613136e+04	
47	-2.35000e+00	1.666439e+04	
48	-2.40000e+00	1.718696e+04	
49	-2.45000e+00	1.769943e+04	
50	-2.50000e+00	1.820212e+04	
51	-2.55000e+00	1.869534e+04	
52	-2.60000e+00	1.917933e+04	
53	-2.65000e+00	1.965436e+04	
54	-2.70000e+00	2.012067e+04	

Index   v-sweep         rds             
--------------------------------------------------------------------------------
55	-2.75000e+00	2.057848e+04	
56	-2.80000e+00	2.102800e+04	
57	-2.85000e+00	2.146944e+04	
58	-2.90000e+00	2.190299e+04	
59	-2.95000e+00	2.232884e+04	
60	-3.00000e+00	2.274717e+04	
61	-3.05000e+00	2.315815e+04	
62	-3.10000e+00	2.356194e+04	
63	-3.15000e+00	2.395868e+04	
64	-3.20000e+00	2.434850e+04	
65	-3.25000e+00	2.473148e+04	
66	-3.30000e+00	2.510769e+04	
Reset re-loads circuit ***************************

Circuit: ***************************

Doing analysis at TEMP = 25.000000 and TNOM = 25.000000


No. of Data Rows : 67
                          ***************************
                          DC transfer characteristic  Mon Jan  9 13:58:25  2023
--------------------------------------------------------------------------------
Index   v-sweep         rds             
--------------------------------------------------------------------------------
0	0.000000e+00	8.848044e+02	
1	-5.00000e-02	9.092589e+02	
2	-1.00000e-01	9.348380e+02	
3	-1.50000e-01	9.616193e+02	
4	-2.00000e-01	9.896880e+02	
5	-2.50000e-01	1.019137e+03	
6	-3.00000e-01	1.050070e+03	
7	-3.50000e-01	1.082599e+03	
8	-4.00000e-01	1.116849e+03	
9	-4.50000e-01	1.152958e+03	
10	-5.00000e-01	1.191080e+03	
11	-5.50000e-01	1.231385e+03	
12	-6.00000e-01	1.274063e+03	
13	-6.50000e-01	1.319329e+03	
14	-7.00000e-01	1.367420e+03	
15	-7.50000e-01	1.418608e+03	
16	-8.00000e-01	1.473198e+03	
17	-8.50000e-01	1.531536e+03	
18	-9.00000e-01	1.594019e+03	
19	-9.50000e-01	1.661098e+03	
20	-1.00000e+00	1.733295e+03	
21	-1.05000e+00	1.811211e+03	
22	-1.10000e+00	1.895546e+03	
23	-1.15000e+00	1.987117e+03	
24	-1.20000e+00	2.086883e+03	
25	-1.25000e+00	2.195977e+03	
26	-1.30000e+00	2.315746e+03	
27	-1.35000e+00	2.447802e+03	
28	-1.40000e+00	2.594080e+03	
29	-1.45000e+00	2.756922e+03	
30	-1.50000e+00	2.939164e+03	
31	-1.55000e+00	3.144251e+03	
32	-1.60000e+00	3.376334e+03	
33	-1.65000e+00	3.640347e+03	
34	-1.70000e+00	3.941934e+03	
35	-1.75000e+00	4.287060e+03	
36	-1.80000e+00	4.680982e+03	
37	-1.85000e+00	5.126223e+03	
38	-1.90000e+00	5.619780e+03	
39	-1.95000e+00	6.151162e+03	
40	-2.00000e+00	6.703957e+03	
41	-2.05000e+00	7.261275e+03	
42	-2.10000e+00	7.811076e+03	
43	-2.15000e+00	8.347575e+03	
44	-2.20000e+00	8.869432e+03	
45	-2.25000e+00	9.377409e+03	
46	-2.30000e+00	9.872869e+03	
47	-2.35000e+00	1.035713e+04	
48	-2.40000e+00	1.083126e+04	
49	-2.45000e+00	1.129609e+04	
50	-2.50000e+00	1.175226e+04	
51	-2.55000e+00	1.220024e+04	
52	-2.60000e+00	1.264042e+04	
53	-2.65000e+00	1.307312e+04	
54	-2.70000e+00	1.349859e+04	

Index   v-sweep         rds             
--------------------------------------------------------------------------------
55	-2.75000e+00	1.391706e+04	
56	-2.80000e+00	1.432871e+04	
57	-2.85000e+00	1.473374e+04	
58	-2.90000e+00	1.513230e+04	
59	-2.95000e+00	1.552455e+04	
60	-3.00000e+00	1.591063e+04	
61	-3.05000e+00	1.629067e+04	
62	-3.10000e+00	1.666480e+04	
63	-3.15000e+00	1.703316e+04	
64	-3.20000e+00	1.739585e+04	
65	-3.25000e+00	1.775300e+04	
66	-3.30000e+00	1.810471e+04	
Reset re-loads circuit ***************************

Circuit: ***************************

Note: No ".plot", ".print", or ".fourier" lines; no simulations run
