
Note: Compatibility modes selected: hs

Warning: m=xx on .subckt line will override multiplier m hierarchy!


Circuit: ***************************

Doing analysis at TEMP = 25.000000 and TNOM = 25.000000


No. of Data Rows : 67
                          ***************************
                          DC transfer characteristic  Mon Jan  9 13:58:25  2023
--------------------------------------------------------------------------------
Index   v-sweep         rds             
--------------------------------------------------------------------------------
0	0.000000e+00	1.053596e+07	
1	-5.00000e-02	3.445788e+07	
2	-1.00000e-01	2.504287e+08	
3	-1.50000e-01	1.279426e+09	
4	-2.00000e-01	3.816072e+09	
5	-2.50000e-01	8.090611e+09	
6	-3.00000e-01	1.375853e+10	
7	-3.50000e-01	2.015135e+10	
8	-4.00000e-01	2.662184e+10	
9	-4.50000e-01	3.273486e+10	
10	-5.00000e-01	3.827993e+10	
11	-5.50000e-01	4.320298e+10	
12	-6.00000e-01	4.753436e+10	
13	-6.50000e-01	5.133960e+10	
14	-7.00000e-01	5.469246e+10	
15	-7.50000e-01	5.766238e+10	
16	-8.00000e-01	6.030994e+10	
17	-8.50000e-01	6.268599e+10	
18	-9.00000e-01	6.483248e+10	
19	-9.50000e-01	6.678375e+10	
20	-1.00000e+00	6.856786e+10	
21	-1.05000e+00	7.020784e+10	
22	-1.10000e+00	7.172261e+10	
23	-1.15000e+00	7.312785e+10	
24	-1.20000e+00	7.443665e+10	
25	-1.25000e+00	7.565995e+10	
26	-1.30000e+00	7.680704e+10	
27	-1.35000e+00	7.788580e+10	
28	-1.40000e+00	7.890299e+10	
29	-1.45000e+00	7.986441e+10	
30	-1.50000e+00	8.077511e+10	
31	-1.55000e+00	8.163949e+10	
32	-1.60000e+00	8.246137e+10	
33	-1.65000e+00	8.324411e+10	
34	-1.70000e+00	8.399065e+10	
35	-1.75000e+00	8.470354e+10	
36	-1.80000e+00	8.538499e+10	
37	-1.85000e+00	8.603687e+10	
38	-1.90000e+00	8.666072e+10	
39	-1.95000e+00	8.725773e+10	
40	-2.00000e+00	8.782875e+10	
41	-2.05000e+00	8.837426e+10	
42	-2.10000e+00	8.889429e+10	
43	-2.15000e+00	8.938844e+10	
44	-2.20000e+00	8.985584e+10	
45	-2.25000e+00	9.029505e+10	
46	-2.30000e+00	9.070404e+10	
47	-2.35000e+00	9.108018e+10	
48	-2.40000e+00	9.142016e+10	
49	-2.45000e+00	9.171997e+10	
50	-2.50000e+00	9.197487e+10	
51	-2.55000e+00	9.217943e+10	
52	-2.60000e+00	9.232747e+10	
53	-2.65000e+00	9.241217e+10	
54	-2.70000e+00	9.242610e+10	

Index   v-sweep         rds             
--------------------------------------------------------------------------------
55	-2.75000e+00	9.236131e+10	
56	-2.80000e+00	9.220947e+10	
57	-2.85000e+00	9.196205e+10	
58	-2.90000e+00	9.161047e+10	
59	-2.95000e+00	9.114638e+10	
60	-3.00000e+00	9.056192e+10	
61	-3.05000e+00	8.984997e+10	
62	-3.10000e+00	8.900443e+10	
63	-3.15000e+00	8.802058e+10	
64	-3.20000e+00	8.689529e+10	
65	-3.25000e+00	8.562726e+10	
66	-3.30000e+00	8.421726e+10	
Reset re-loads circuit ***************************

Circuit: ***************************

Doing analysis at TEMP = 25.000000 and TNOM = 25.000000


No. of Data Rows : 67
                          ***************************
                          DC transfer characteristic  Mon Jan  9 13:58:25  2023
--------------------------------------------------------------------------------
Index   v-sweep         rds             
--------------------------------------------------------------------------------
0	0.000000e+00	1.083506e+06	
1	-5.00000e-02	1.254360e+06	
2	-1.00000e-01	1.488523e+06	
3	-1.50000e-01	1.828259e+06	
4	-2.00000e-01	2.361877e+06	
5	-2.50000e-01	3.300665e+06	
6	-3.00000e-01	5.234727e+06	
7	-3.50000e-01	9.999596e+06	
8	-4.00000e-01	2.282007e+07	
9	-4.50000e-01	5.402797e+07	
10	-5.00000e-01	1.157648e+08	
11	-5.50000e-01	2.155734e+08	
12	-6.00000e-01	3.529817e+08	
13	-6.50000e-01	5.206608e+08	
14	-7.00000e-01	7.081017e+08	
15	-7.50000e-01	9.051100e+08	
16	-8.00000e-01	1.103723e+09	
17	-8.50000e-01	1.298631e+09	
18	-9.00000e-01	1.486775e+09	
19	-9.50000e-01	1.666703e+09	
20	-1.00000e+00	1.837990e+09	
21	-1.05000e+00	2.000798e+09	
22	-1.10000e+00	2.155599e+09	
23	-1.15000e+00	2.302996e+09	
24	-1.20000e+00	2.443623e+09	
25	-1.25000e+00	2.578096e+09	
26	-1.30000e+00	2.706983e+09	
27	-1.35000e+00	2.830796e+09	
28	-1.40000e+00	2.949991e+09	
29	-1.45000e+00	3.064970e+09	
30	-1.50000e+00	3.176085e+09	
31	-1.55000e+00	3.283646e+09	
32	-1.60000e+00	3.387924e+09	
33	-1.65000e+00	3.489158e+09	
34	-1.70000e+00	3.587558e+09	
35	-1.75000e+00	3.683312e+09	
36	-1.80000e+00	3.776583e+09	
37	-1.85000e+00	3.867517e+09	
38	-1.90000e+00	3.956244e+09	
39	-1.95000e+00	4.042875e+09	
40	-2.00000e+00	4.127509e+09	
41	-2.05000e+00	4.210227e+09	
42	-2.10000e+00	4.291091e+09	
43	-2.15000e+00	4.370146e+09	
44	-2.20000e+00	4.447412e+09	
45	-2.25000e+00	4.522879e+09	
46	-2.30000e+00	4.596505e+09	
47	-2.35000e+00	4.668204e+09	
48	-2.40000e+00	4.737842e+09	
49	-2.45000e+00	4.805223e+09	
50	-2.50000e+00	4.870084e+09	
51	-2.55000e+00	4.932079e+09	
52	-2.60000e+00	4.990772e+09	
53	-2.65000e+00	5.045625e+09	
54	-2.70000e+00	5.095994e+09	

Index   v-sweep         rds             
--------------------------------------------------------------------------------
55	-2.75000e+00	5.141119e+09	
56	-2.80000e+00	5.180123e+09	
57	-2.85000e+00	5.212021e+09	
58	-2.90000e+00	5.235727e+09	
59	-2.95000e+00	5.250077e+09	
60	-3.00000e+00	5.253857e+09	
61	-3.05000e+00	5.245844e+09	
62	-3.10000e+00	5.224860e+09	
63	-3.15000e+00	5.189826e+09	
64	-3.20000e+00	5.139832e+09	
65	-3.25000e+00	5.074201e+09	
66	-3.30000e+00	4.992558e+09	
Reset re-loads circuit ***************************

Circuit: ***************************

Doing analysis at TEMP = 25.000000 and TNOM = 25.000000


No. of Data Rows : 67
                          ***************************
                          DC transfer characteristic  Mon Jan  9 13:58:25  2023
--------------------------------------------------------------------------------
Index   v-sweep         rds             
--------------------------------------------------------------------------------
0	0.000000e+00	5.740847e+05	
1	-5.00000e-02	6.179008e+05	
2	-1.00000e-01	6.689255e+05	
3	-1.50000e-01	7.290911e+05	
4	-2.00000e-01	8.010831e+05	
5	-2.50000e-01	8.887436e+05	
6	-3.00000e-01	9.977593e+05	
7	-3.50000e-01	1.136893e+06	
8	-4.00000e-01	1.320318e+06	
9	-4.50000e-01	1.572326e+06	
10	-5.00000e-01	1.937536e+06	
11	-5.50000e-01	2.504608e+06	
12	-6.00000e-01	3.464426e+06	
13	-6.50000e-01	5.251414e+06	
14	-7.00000e-01	8.834714e+06	
15	-7.50000e-01	1.607379e+07	
16	-8.00000e-01	2.963644e+07	
17	-8.50000e-01	5.207516e+07	
18	-9.00000e-01	8.465647e+07	
19	-9.50000e-01	1.268669e+08	
20	-1.00000e+00	1.767908e+08	
21	-1.05000e+00	2.319126e+08	
22	-1.10000e+00	2.898270e+08	
23	-1.15000e+00	3.486233e+08	
24	-1.20000e+00	4.069753e+08	
25	-1.25000e+00	4.640651e+08	
26	-1.30000e+00	5.194527e+08	
27	-1.35000e+00	5.729517e+08	
28	-1.40000e+00	6.245327e+08	
29	-1.45000e+00	6.742555e+08	
30	-1.50000e+00	7.222264e+08	
31	-1.55000e+00	7.685705e+08	
32	-1.60000e+00	8.134170e+08	
33	-1.65000e+00	8.568903e+08	
34	-1.70000e+00	8.991058e+08	
35	-1.75000e+00	9.401684e+08	
36	-1.80000e+00	9.801720e+08	
37	-1.85000e+00	1.019200e+09	
38	-1.90000e+00	1.057327e+09	
39	-1.95000e+00	1.094617e+09	
40	-2.00000e+00	1.131130e+09	
41	-2.05000e+00	1.166915e+09	
42	-2.10000e+00	1.202017e+09	
43	-2.15000e+00	1.236478e+09	
44	-2.20000e+00	1.270331e+09	
45	-2.25000e+00	1.303607e+09	
46	-2.30000e+00	1.336333e+09	
47	-2.35000e+00	1.368529e+09	
48	-2.40000e+00	1.400212e+09	
49	-2.45000e+00	1.431392e+09	
50	-2.50000e+00	1.462072e+09	
51	-2.55000e+00	1.492244e+09	
52	-2.60000e+00	1.521890e+09	
53	-2.65000e+00	1.550979e+09	
54	-2.70000e+00	1.579458e+09	

Index   v-sweep         rds             
--------------------------------------------------------------------------------
55	-2.75000e+00	1.607255e+09	
56	-2.80000e+00	1.634271e+09	
57	-2.85000e+00	1.660376e+09	
58	-2.90000e+00	1.685404e+09	
59	-2.95000e+00	1.709146e+09	
60	-3.00000e+00	1.731351e+09	
61	-3.05000e+00	1.751715e+09	
62	-3.10000e+00	1.769887e+09	
63	-3.15000e+00	1.785464e+09	
64	-3.20000e+00	1.797996e+09	
65	-3.25000e+00	1.806994e+09	
66	-3.30000e+00	1.811944e+09	
Reset re-loads circuit ***************************

Circuit: ***************************

Doing analysis at TEMP = 25.000000 and TNOM = 25.000000


No. of Data Rows : 67
                          ***************************
                          DC transfer characteristic  Mon Jan  9 13:58:25  2023
--------------------------------------------------------------------------------
Index   v-sweep         rds             
--------------------------------------------------------------------------------
0	0.000000e+00	4.008249e+05	
1	-5.00000e-02	4.205823e+05	
2	-1.00000e-01	4.423790e+05	
3	-1.50000e-01	4.665475e+05	
4	-2.00000e-01	4.934967e+05	
5	-2.50000e-01	5.237347e+05	
6	-3.00000e-01	5.579014e+05	
7	-3.50000e-01	5.968131e+05	
8	-4.00000e-01	6.415281e+05	
9	-4.50000e-01	6.934426e+05	
10	-5.00000e-01	7.544355e+05	
11	-5.50000e-01	8.270939e+05	
12	-6.00000e-01	9.150749e+05	
13	-6.50000e-01	1.023708e+06	
14	-7.00000e-01	1.161037e+06	
15	-7.50000e-01	1.339711e+06	
16	-8.00000e-01	1.580564e+06	
17	-8.50000e-01	1.919742e+06	
18	-9.00000e-01	2.423378e+06	
19	-9.50000e-01	3.218137e+06	
20	-1.00000e+00	4.551281e+06	
21	-1.05000e+00	6.887927e+06	
22	-1.10000e+00	1.100154e+07	
23	-1.15000e+00	1.792190e+07	
24	-1.20000e+00	2.863732e+07	
25	-1.25000e+00	4.369373e+07	
26	-1.30000e+00	6.297675e+07	
27	-1.35000e+00	8.579752e+07	
28	-1.40000e+00	1.111683e+08	
29	-1.45000e+00	1.380834e+08	
30	-1.50000e+00	1.656964e+08	
31	-1.55000e+00	1.933837e+08	
32	-1.60000e+00	2.207328e+08	
33	-1.65000e+00	2.474990e+08	
34	-1.70000e+00	2.735571e+08	
35	-1.75000e+00	2.988602e+08	
36	-1.80000e+00	3.234094e+08	
37	-1.85000e+00	3.472335e+08	
38	-1.90000e+00	3.703748e+08	
39	-1.95000e+00	3.928814e+08	
40	-2.00000e+00	4.148023e+08	
41	-2.05000e+00	4.361843e+08	
42	-2.10000e+00	4.570710e+08	
43	-2.15000e+00	4.775022e+08	
44	-2.20000e+00	4.975135e+08	
45	-2.25000e+00	5.171370e+08	
46	-2.30000e+00	5.364009e+08	
47	-2.35000e+00	5.553304e+08	
48	-2.40000e+00	5.739480e+08	
49	-2.45000e+00	5.922732e+08	
50	-2.50000e+00	6.103236e+08	
51	-2.55000e+00	6.281144e+08	
52	-2.60000e+00	6.456589e+08	
53	-2.65000e+00	6.629682e+08	
54	-2.70000e+00	6.800513e+08	

Index   v-sweep         rds             
--------------------------------------------------------------------------------
55	-2.75000e+00	6.969148e+08	
56	-2.80000e+00	7.135621e+08	
57	-2.85000e+00	7.299928e+08	
58	-2.90000e+00	7.462020e+08	
59	-2.95000e+00	7.621787e+08	
60	-3.00000e+00	7.779040e+08	
61	-3.05000e+00	7.933499e+08	
62	-3.10000e+00	8.084762e+08	
63	-3.15000e+00	8.232288e+08	
64	-3.20000e+00	8.375361e+08	
65	-3.25000e+00	8.513069e+08	
66	-3.30000e+00	8.644270e+08	
Reset re-loads circuit ***************************

Circuit: ***************************

Doing analysis at TEMP = 25.000000 and TNOM = 25.000000


No. of Data Rows : 67
                          ***************************
                          DC transfer characteristic  Mon Jan  9 13:58:25  2023
--------------------------------------------------------------------------------
Index   v-sweep         rds             
--------------------------------------------------------------------------------
0	0.000000e+00	3.156788e+05	
1	-5.00000e-02	3.270214e+05	
2	-1.00000e-01	3.392049e+05	
3	-1.50000e-01	3.523263e+05	
4	-2.00000e-01	3.664981e+05	
5	-2.50000e-01	3.818518e+05	
6	-3.00000e-01	3.985412e+05	
7	-3.50000e-01	4.167487e+05	
8	-4.00000e-01	4.366908e+05	
9	-4.50000e-01	4.586273e+05	
10	-5.00000e-01	4.828727e+05	
11	-5.50000e-01	5.098109e+05	
12	-6.00000e-01	5.399155e+05	
13	-6.50000e-01	5.737776e+05	
14	-7.00000e-01	6.121441e+05	
15	-7.50000e-01	6.559728e+05	
16	-8.00000e-01	7.065107e+05	
17	-8.50000e-01	7.654110e+05	
18	-9.00000e-01	8.349097e+05	
19	-9.50000e-01	9.181007e+05	
20	-1.00000e+00	1.019376e+06	
21	-1.05000e+00	1.145159e+06	
22	-1.10000e+00	1.305148e+06	
23	-1.15000e+00	1.514542e+06	
24	-1.20000e+00	1.798085e+06	
25	-1.25000e+00	2.197624e+06	
26	-1.30000e+00	2.786158e+06	
27	-1.35000e+00	3.692577e+06	
28	-1.40000e+00	5.138963e+06	
29	-1.45000e+00	7.477980e+06	
30	-1.50000e+00	1.118929e+07	
31	-1.55000e+00	1.678592e+07	
32	-1.60000e+00	2.464429e+07	
33	-1.65000e+00	3.485738e+07	
34	-1.70000e+00	4.720578e+07	
35	-1.75000e+00	6.124790e+07	
36	-1.80000e+00	7.645864e+07	
37	-1.85000e+00	9.234492e+07	
38	-1.90000e+00	1.085085e+08	
39	-1.95000e+00	1.246620e+08	
40	-2.00000e+00	1.406169e+08	
41	-2.05000e+00	1.562621e+08	
42	-2.10000e+00	1.715407e+08	
43	-2.15000e+00	1.864318e+08	
44	-2.20000e+00	2.009370e+08	
45	-2.25000e+00	2.150705e+08	
46	-2.30000e+00	2.288533e+08	
47	-2.35000e+00	2.423094e+08	
48	-2.40000e+00	2.554631e+08	
49	-2.45000e+00	2.683378e+08	
50	-2.50000e+00	2.809556e+08	
51	-2.55000e+00	2.933366e+08	
52	-2.60000e+00	3.054991e+08	
53	-2.65000e+00	3.174593e+08	
54	-2.70000e+00	3.292319e+08	

Index   v-sweep         rds             
--------------------------------------------------------------------------------
55	-2.75000e+00	3.408299e+08	
56	-2.80000e+00	3.522648e+08	
57	-2.85000e+00	3.635469e+08	
58	-2.90000e+00	3.746851e+08	
59	-2.95000e+00	3.856873e+08	
60	-3.00000e+00	3.965602e+08	
61	-3.05000e+00	4.073092e+08	
62	-3.10000e+00	4.179384e+08	
63	-3.15000e+00	4.284502e+08	
64	-3.20000e+00	4.388450e+08	
65	-3.25000e+00	4.491204e+08	
66	-3.30000e+00	4.592709e+08	
Reset re-loads circuit ***************************

Circuit: ***************************

Doing analysis at TEMP = 25.000000 and TNOM = 25.000000


No. of Data Rows : 67
                          ***************************
                          DC transfer characteristic  Mon Jan  9 13:58:25  2023
--------------------------------------------------------------------------------
Index   v-sweep         rds             
--------------------------------------------------------------------------------
0	0.000000e+00	2.645742e+05	
1	-5.00000e-02	2.719406e+05	
2	-1.00000e-01	2.797261e+05	
3	-1.50000e-01	2.879676e+05	
4	-2.00000e-01	2.967064e+05	
5	-2.50000e-01	3.059888e+05	
6	-3.00000e-01	3.158672e+05	
7	-3.50000e-01	3.264009e+05	
8	-4.00000e-01	3.376571e+05	
9	-4.50000e-01	3.497130e+05	
10	-5.00000e-01	3.626566e+05	
11	-5.50000e-01	3.765899e+05	
12	-6.00000e-01	3.916305e+05	
13	-6.50000e-01	4.079159e+05	
14	-7.00000e-01	4.256071e+05	
15	-7.50000e-01	4.448938e+05	
16	-8.00000e-01	4.660016e+05	
17	-8.50000e-01	4.892008e+05	
18	-9.00000e-01	5.148172e+05	
19	-9.50000e-01	5.432481e+05	
20	-1.00000e+00	5.749822e+05	
21	-1.05000e+00	6.106275e+05	
22	-1.10000e+00	6.509496e+05	
23	-1.15000e+00	6.969255e+05	
24	-1.20000e+00	7.498212e+05	
25	-1.25000e+00	8.113039e+05	
26	-1.30000e+00	8.836113e+05	
27	-1.35000e+00	9.698092e+05	
28	-1.40000e+00	1.074196e+06	
29	-1.45000e+00	1.202955e+06	
30	-1.50000e+00	1.365232e+06	
31	-1.55000e+00	1.574959e+06	
32	-1.60000e+00	1.853995e+06	
33	-1.65000e+00	2.237544e+06	
34	-1.70000e+00	2.783280e+06	
35	-1.75000e+00	3.585517e+06	
36	-1.80000e+00	4.793367e+06	
37	-1.85000e+00	6.624359e+06	
38	-1.90000e+00	9.354218e+06	
39	-1.95000e+00	1.326428e+07	
40	-2.00000e+00	1.855603e+07	
41	-2.05000e+00	2.527775e+07	
42	-2.10000e+00	3.330757e+07	
43	-2.15000e+00	4.239722e+07	
44	-2.20000e+00	5.224422e+07	
45	-2.25000e+00	6.255633e+07	
46	-2.30000e+00	7.309004e+07	
47	-2.35000e+00	8.366343e+07	
48	-2.40000e+00	9.415247e+07	
49	-2.45000e+00	1.044800e+08	
50	-2.50000e+00	1.146031e+08	
51	-2.55000e+00	1.245027e+08	
52	-2.60000e+00	1.341747e+08	
53	-2.65000e+00	1.436242e+08	
54	-2.70000e+00	1.528617e+08	

Index   v-sweep         rds             
--------------------------------------------------------------------------------
55	-2.75000e+00	1.619001e+08	
56	-2.80000e+00	1.707532e+08	
57	-2.85000e+00	1.794349e+08	
58	-2.90000e+00	1.879581e+08	
59	-2.95000e+00	1.963351e+08	
60	-3.00000e+00	2.045770e+08	
61	-3.05000e+00	2.126940e+08	
62	-3.10000e+00	2.206951e+08	
63	-3.15000e+00	2.285885e+08	
64	-3.20000e+00	2.363813e+08	
65	-3.25000e+00	2.440800e+08	
66	-3.30000e+00	2.516902e+08	
Reset re-loads circuit ***************************

Circuit: ***************************

Note: No ".plot", ".print", or ".fourier" lines; no simulations run
