
Note: Compatibility modes selected: hs

Warning: m=xx on .subckt line will override multiplier m hierarchy!


Circuit: ***************************

Doing analysis at TEMP = 25.000000 and TNOM = 25.000000


No. of Data Rows : 67
                          ***************************
                          DC transfer characteristic  Mon Jan  9 13:58:25  2023
--------------------------------------------------------------------------------
Index   v-sweep         rds             
--------------------------------------------------------------------------------
0	0.000000e+00	2.586734e+05	
1	-5.00000e-02	6.062188e+05	
2	-1.00000e-01	2.807346e+06	
3	-1.50000e-01	1.171457e+07	
4	-2.00000e-01	2.435268e+07	
5	-2.50000e-01	3.404768e+07	
6	-3.00000e-01	4.057513e+07	
7	-3.50000e-01	4.526995e+07	
8	-4.00000e-01	4.896482e+07	
9	-4.50000e-01	5.207610e+07	
10	-5.00000e-01	5.481356e+07	
11	-5.50000e-01	5.728934e+07	
12	-6.00000e-01	5.956779e+07	
13	-6.50000e-01	6.168850e+07	
14	-7.00000e-01	6.367744e+07	
15	-7.50000e-01	6.555274e+07	
16	-8.00000e-01	6.732769e+07	
17	-8.50000e-01	6.901251e+07	
18	-9.00000e-01	7.061537e+07	
19	-9.50000e-01	7.214299e+07	
20	-1.00000e+00	7.360103e+07	
21	-1.05000e+00	7.499439e+07	
22	-1.10000e+00	7.632738e+07	
23	-1.15000e+00	7.760378e+07	
24	-1.20000e+00	7.882702e+07	
25	-1.25000e+00	8.000019e+07	
26	-1.30000e+00	8.112611e+07	
27	-1.35000e+00	8.220735e+07	
28	-1.40000e+00	8.324629e+07	
29	-1.45000e+00	8.424511e+07	
30	-1.50000e+00	8.520584e+07	
31	-1.55000e+00	8.613035e+07	
32	-1.60000e+00	8.702036e+07	
33	-1.65000e+00	8.787747e+07	
34	-1.70000e+00	8.870311e+07	
35	-1.75000e+00	8.949859e+07	
36	-1.80000e+00	9.026502e+07	
37	-1.85000e+00	9.100337e+07	
38	-1.90000e+00	9.171434e+07	
39	-1.95000e+00	9.239842e+07	
40	-2.00000e+00	9.305577e+07	
41	-2.05000e+00	9.368620e+07	
42	-2.10000e+00	9.428911e+07	
43	-2.15000e+00	9.486341e+07	
44	-2.20000e+00	9.540744e+07	
45	-2.25000e+00	9.591890e+07	
46	-2.30000e+00	9.639480e+07	
47	-2.35000e+00	9.683132e+07	
48	-2.40000e+00	9.722382e+07	
49	-2.45000e+00	9.756672e+07	
50	-2.50000e+00	9.785350e+07	
51	-2.55000e+00	9.807669e+07	
52	-2.60000e+00	9.822784e+07	
53	-2.65000e+00	9.829761e+07	
54	-2.70000e+00	9.827586e+07	

Index   v-sweep         rds             
--------------------------------------------------------------------------------
55	-2.75000e+00	9.815178e+07	
56	-2.80000e+00	9.791413e+07	
57	-2.85000e+00	9.755143e+07	
58	-2.90000e+00	9.705236e+07	
59	-2.95000e+00	9.640605e+07	
60	-3.00000e+00	9.560256e+07	
61	-3.05000e+00	9.463329e+07	
62	-3.10000e+00	9.349142e+07	
63	-3.15000e+00	9.217237e+07	
64	-3.20000e+00	9.067418e+07	
65	-3.25000e+00	8.899782e+07	
66	-3.30000e+00	8.714739e+07	
Reset re-loads circuit ***************************

Circuit: ***************************

Doing analysis at TEMP = 25.000000 and TNOM = 25.000000


No. of Data Rows : 67
                          ***************************
                          DC transfer characteristic  Mon Jan  9 13:58:25  2023
--------------------------------------------------------------------------------
Index   v-sweep         rds             
--------------------------------------------------------------------------------
0	0.000000e+00	2.684672e+04	
1	-5.00000e-02	3.012846e+04	
2	-1.00000e-01	3.427601e+04	
3	-1.50000e-01	3.967971e+04	
4	-2.00000e-01	4.699982e+04	
5	-2.50000e-01	5.743570e+04	
6	-3.00000e-01	7.336054e+04	
7	-3.50000e-01	9.992473e+04	
8	-4.00000e-01	1.490149e+05	
9	-4.50000e-01	2.455907e+05	
10	-5.00000e-01	4.187849e+05	
11	-5.50000e-01	6.530162e+05	
12	-6.00000e-01	8.869716e+05	
13	-6.50000e-01	1.085664e+06	
14	-7.00000e-01	1.250020e+06	
15	-7.50000e-01	1.390513e+06	
16	-8.00000e-01	1.515677e+06	
17	-8.50000e-01	1.630897e+06	
18	-9.00000e-01	1.739392e+06	
19	-9.50000e-01	1.843088e+06	
20	-1.00000e+00	1.943172e+06	
21	-1.05000e+00	2.040398e+06	
22	-1.10000e+00	2.135262e+06	
23	-1.15000e+00	2.228099e+06	
24	-1.20000e+00	2.319148e+06	
25	-1.25000e+00	2.408581e+06	
26	-1.30000e+00	2.496524e+06	
27	-1.35000e+00	2.583078e+06	
28	-1.40000e+00	2.668320e+06	
29	-1.45000e+00	2.752313e+06	
30	-1.50000e+00	2.835109e+06	
31	-1.55000e+00	2.916753e+06	
32	-1.60000e+00	2.997282e+06	
33	-1.65000e+00	3.076731e+06	
34	-1.70000e+00	3.155129e+06	
35	-1.75000e+00	3.232504e+06	
36	-1.80000e+00	3.308880e+06	
37	-1.85000e+00	3.384279e+06	
38	-1.90000e+00	3.458722e+06	
39	-1.95000e+00	3.532228e+06	
40	-2.00000e+00	3.604811e+06	
41	-2.05000e+00	3.676485e+06	
42	-2.10000e+00	3.747257e+06	
43	-2.15000e+00	3.817128e+06	
44	-2.20000e+00	3.886093e+06	
45	-2.25000e+00	3.954132e+06	
46	-2.30000e+00	4.021210e+06	
47	-2.35000e+00	4.087271e+06	
48	-2.40000e+00	4.152232e+06	
49	-2.45000e+00	4.215976e+06	
50	-2.50000e+00	4.278342e+06	
51	-2.55000e+00	4.339118e+06	
52	-2.60000e+00	4.398029e+06	
53	-2.65000e+00	4.454729e+06	
54	-2.70000e+00	4.508786e+06	

Index   v-sweep         rds             
--------------------------------------------------------------------------------
55	-2.75000e+00	4.559676e+06	
56	-2.80000e+00	4.606776e+06	
57	-2.85000e+00	4.649351e+06	
58	-2.90000e+00	4.686558e+06	
59	-2.95000e+00	4.717449e+06	
60	-3.00000e+00	4.740976e+06	
61	-3.05000e+00	4.756016e+06	
62	-3.10000e+00	4.761391e+06	
63	-3.15000e+00	4.755914e+06	
64	-3.20000e+00	4.738433e+06	
65	-3.25000e+00	4.707889e+06	
66	-3.30000e+00	4.663380e+06	
Reset re-loads circuit ***************************

Circuit: ***************************

Doing analysis at TEMP = 25.000000 and TNOM = 25.000000


No. of Data Rows : 67
                          ***************************
                          DC transfer characteristic  Mon Jan  9 13:58:25  2023
--------------------------------------------------------------------------------
Index   v-sweep         rds             
--------------------------------------------------------------------------------
0	0.000000e+00	1.483560e+04	
1	-5.00000e-02	1.576709e+04	
2	-1.00000e-01	1.681413e+04	
3	-1.50000e-01	1.799957e+04	
4	-2.00000e-01	1.935266e+04	
5	-2.50000e-01	2.091150e+04	
6	-3.00000e-01	2.272658e+04	
7	-3.50000e-01	2.486624e+04	
8	-4.00000e-01	2.742517e+04	
9	-4.50000e-01	3.053813e+04	
10	-5.00000e-01	3.440301e+04	
11	-5.50000e-01	3.932060e+04	
12	-6.00000e-01	4.576613e+04	
13	-6.50000e-01	5.452010e+04	
14	-7.00000e-01	6.690433e+04	
15	-7.50000e-01	8.515503e+04	
16	-8.00000e-01	1.127268e+05	
17	-8.50000e-01	1.534222e+05	
18	-9.00000e-01	2.076896e+05	
19	-9.50000e-01	2.692813e+05	
20	-1.00000e+00	3.295434e+05	
21	-1.05000e+00	3.839511e+05	
22	-1.10000e+00	4.322840e+05	
23	-1.15000e+00	4.759113e+05	
24	-1.20000e+00	5.162254e+05	
25	-1.25000e+00	5.542474e+05	
26	-1.30000e+00	5.906557e+05	
27	-1.35000e+00	6.258899e+05	
28	-1.40000e+00	6.602360e+05	
29	-1.45000e+00	6.938830e+05	
30	-1.50000e+00	7.269585e+05	
31	-1.55000e+00	7.595507e+05	
32	-1.60000e+00	7.917219e+05	
33	-1.65000e+00	8.235174e+05	
34	-1.70000e+00	8.549705e+05	
35	-1.75000e+00	8.861066e+05	
36	-1.80000e+00	9.169452e+05	
37	-1.85000e+00	9.475016e+05	
38	-1.90000e+00	9.777882e+05	
39	-1.95000e+00	1.007815e+06	
40	-2.00000e+00	1.037591e+06	
41	-2.05000e+00	1.067122e+06	
42	-2.10000e+00	1.096415e+06	
43	-2.15000e+00	1.125476e+06	
44	-2.20000e+00	1.154308e+06	
45	-2.25000e+00	1.182917e+06	
46	-2.30000e+00	1.211304e+06	
47	-2.35000e+00	1.239474e+06	
48	-2.40000e+00	1.267428e+06	
49	-2.45000e+00	1.295167e+06	
50	-2.50000e+00	1.322690e+06	
51	-2.55000e+00	1.349993e+06	
52	-2.60000e+00	1.377068e+06	
53	-2.65000e+00	1.403905e+06	
54	-2.70000e+00	1.430485e+06	

Index   v-sweep         rds             
--------------------------------------------------------------------------------
55	-2.75000e+00	1.456779e+06	
56	-2.80000e+00	1.482748e+06	
57	-2.85000e+00	1.508339e+06	
58	-2.90000e+00	1.533478e+06	
59	-2.95000e+00	1.558069e+06	
60	-3.00000e+00	1.581989e+06	
61	-3.05000e+00	1.605084e+06	
62	-3.10000e+00	1.627160e+06	
63	-3.15000e+00	1.647983e+06	
64	-3.20000e+00	1.667274e+06	
65	-3.25000e+00	1.684707e+06	
66	-3.30000e+00	1.699905e+06	
Reset re-loads circuit ***************************

Circuit: ***************************

Doing analysis at TEMP = 25.000000 and TNOM = 25.000000


No. of Data Rows : 67
                          ***************************
                          DC transfer characteristic  Mon Jan  9 13:58:25  2023
--------------------------------------------------------------------------------
Index   v-sweep         rds             
--------------------------------------------------------------------------------
0	0.000000e+00	1.101953e+04	
1	-5.00000e-02	1.149572e+04	
2	-1.00000e-01	1.201096e+04	
3	-1.50000e-01	1.257026e+04	
4	-2.00000e-01	1.317949e+04	
5	-2.50000e-01	1.384563e+04	
6	-3.00000e-01	1.457701e+04	
7	-3.50000e-01	1.538367e+04	
8	-4.00000e-01	1.627780e+04	
9	-4.50000e-01	1.727438e+04	
10	-5.00000e-01	1.839200e+04	
11	-5.50000e-01	1.965399e+04	
12	-6.00000e-01	2.109005e+04	
13	-6.50000e-01	2.273852e+04	
14	-7.00000e-01	2.464974e+04	
15	-7.50000e-01	2.689094e+04	
16	-8.00000e-01	2.955380e+04	
17	-8.50000e-01	3.276597e+04	
18	-9.00000e-01	3.670928e+04	
19	-9.50000e-01	4.164838e+04	
20	-1.00000e+00	4.797500e+04	
21	-1.05000e+00	5.627042e+04	
22	-1.10000e+00	6.737007e+04	
23	-1.15000e+00	8.234560e+04	
24	-1.20000e+00	1.021830e+05	
25	-1.25000e+00	1.269596e+05	
26	-1.30000e+00	1.550913e+05	
27	-1.35000e+00	1.839521e+05	
28	-1.40000e+00	2.115022e+05	
29	-1.45000e+00	2.370038e+05	
30	-1.50000e+00	2.605855e+05	
31	-1.55000e+00	2.826574e+05	
32	-1.60000e+00	3.036166e+05	
33	-1.65000e+00	3.237665e+05	
34	-1.70000e+00	3.433210e+05	
35	-1.75000e+00	3.624262e+05	
36	-1.80000e+00	3.811818e+05	
37	-1.85000e+00	3.996565e+05	
38	-1.90000e+00	4.178982e+05	
39	-1.95000e+00	4.359410e+05	
40	-2.00000e+00	4.538094e+05	
41	-2.05000e+00	4.715216e+05	
42	-2.10000e+00	4.890911e+05	
43	-2.15000e+00	5.065284e+05	
44	-2.20000e+00	5.238415e+05	
45	-2.25000e+00	5.410366e+05	
46	-2.30000e+00	5.581188e+05	
47	-2.35000e+00	5.750924e+05	
48	-2.40000e+00	5.919607e+05	
49	-2.45000e+00	6.087265e+05	
50	-2.50000e+00	6.253922e+05	
51	-2.55000e+00	6.419600e+05	
52	-2.60000e+00	6.584316e+05	
53	-2.65000e+00	6.748084e+05	
54	-2.70000e+00	6.910915e+05	

Index   v-sweep         rds             
--------------------------------------------------------------------------------
55	-2.75000e+00	7.072817e+05	
56	-2.80000e+00	7.233790e+05	
57	-2.85000e+00	7.393826e+05	
58	-2.90000e+00	7.552907e+05	
59	-2.95000e+00	7.710993e+05	
60	-3.00000e+00	7.868022e+05	
61	-3.05000e+00	8.023896e+05	
62	-3.10000e+00	8.178469e+05	
63	-3.15000e+00	8.331531e+05	
64	-3.20000e+00	8.482793e+05	
65	-3.25000e+00	8.631861e+05	
66	-3.30000e+00	8.778215e+05	
Reset re-loads circuit ***************************

Circuit: ***************************

Doing analysis at TEMP = 25.000000 and TNOM = 25.000000


No. of Data Rows : 67
                          ***************************
                          DC transfer characteristic  Mon Jan  9 13:58:25  2023
--------------------------------------------------------------------------------
Index   v-sweep         rds             
--------------------------------------------------------------------------------
0	0.000000e+00	8.956303e+03	
1	-5.00000e-02	9.248916e+03	
2	-1.00000e-01	9.559171e+03	
3	-1.50000e-01	9.888703e+03	
4	-2.00000e-01	1.023936e+04	
5	-2.50000e-01	1.061322e+04	
6	-3.00000e-01	1.101267e+04	
7	-3.50000e-01	1.144040e+04	
8	-4.00000e-01	1.189953e+04	
9	-4.50000e-01	1.239362e+04	
10	-5.00000e-01	1.292681e+04	
11	-5.50000e-01	1.350390e+04	
12	-6.00000e-01	1.413053e+04	
13	-6.50000e-01	1.481334e+04	
14	-7.00000e-01	1.556020e+04	
15	-7.50000e-01	1.638050e+04	
16	-8.00000e-01	1.728560e+04	
17	-8.50000e-01	1.828925e+04	
18	-9.00000e-01	1.940837e+04	
19	-9.50000e-01	2.066389e+04	
20	-1.00000e+00	2.208209e+04	
21	-1.05000e+00	2.369631e+04	
22	-1.10000e+00	2.554942e+04	
23	-1.15000e+00	2.769733e+04	
24	-1.20000e+00	3.021398e+04	
25	-1.25000e+00	3.319856e+04	
26	-1.30000e+00	3.678565e+04	
27	-1.35000e+00	4.115907e+04	
28	-1.40000e+00	4.656829e+04	
29	-1.45000e+00	5.334129e+04	
30	-1.50000e+00	6.187316e+04	
31	-1.55000e+00	7.254557e+04	
32	-1.60000e+00	8.552781e+04	
33	-1.65000e+00	1.005166e+05	
34	-1.70000e+00	1.166847e+05	
35	-1.75000e+00	1.330362e+05	
36	-1.80000e+00	1.488654e+05	
37	-1.85000e+00	1.638993e+05	
38	-1.90000e+00	1.781565e+05	
39	-1.95000e+00	1.917697e+05	
40	-2.00000e+00	2.048841e+05	
41	-2.05000e+00	2.176200e+05	
42	-2.10000e+00	2.300680e+05	
43	-2.15000e+00	2.422930e+05	
44	-2.20000e+00	2.543414e+05	
45	-2.25000e+00	2.662459e+05	
46	-2.30000e+00	2.780300e+05	
47	-2.35000e+00	2.897109e+05	
48	-2.40000e+00	3.013009e+05	
49	-2.45000e+00	3.128094e+05	
50	-2.50000e+00	3.242435e+05	
51	-2.55000e+00	3.356085e+05	
52	-2.60000e+00	3.469087e+05	
53	-2.65000e+00	3.581473e+05	
54	-2.70000e+00	3.693271e+05	

Index   v-sweep         rds             
--------------------------------------------------------------------------------
55	-2.75000e+00	3.804502e+05	
56	-2.80000e+00	3.915183e+05	
57	-2.85000e+00	4.025330e+05	
58	-2.90000e+00	4.134953e+05	
59	-2.95000e+00	4.244065e+05	
60	-3.00000e+00	4.352673e+05	
61	-3.05000e+00	4.460784e+05	
62	-3.10000e+00	4.568402e+05	
63	-3.15000e+00	4.675529e+05	
64	-3.20000e+00	4.782163e+05	
65	-3.25000e+00	4.888294e+05	
66	-3.30000e+00	4.993906e+05	
Reset re-loads circuit ***************************

Circuit: ***************************

Doing analysis at TEMP = 25.000000 and TNOM = 25.000000


No. of Data Rows : 67
                          ***************************
                          DC transfer characteristic  Mon Jan  9 13:58:25  2023
--------------------------------------------------------------------------------
Index   v-sweep         rds             
--------------------------------------------------------------------------------
0	0.000000e+00	7.801759e+03	
1	-5.00000e-02	8.007866e+03	
2	-1.00000e-01	8.223820e+03	
3	-1.50000e-01	8.450339e+03	
4	-2.00000e-01	8.688211e+03	
5	-2.50000e-01	8.938308e+03	
6	-3.00000e-01	9.201590e+03	
7	-3.50000e-01	9.479121e+03	
8	-4.00000e-01	9.772086e+03	
9	-4.50000e-01	1.008180e+04	
10	-5.00000e-01	1.040973e+04	
11	-5.50000e-01	1.075754e+04	
12	-6.00000e-01	1.112706e+04	
13	-6.50000e-01	1.152040e+04	
14	-7.00000e-01	1.193992e+04	
15	-7.50000e-01	1.238831e+04	
16	-8.00000e-01	1.286865e+04	
17	-8.50000e-01	1.338446e+04	
18	-9.00000e-01	1.393979e+04	
19	-9.50000e-01	1.453936e+04	
20	-1.00000e+00	1.518863e+04	
21	-1.05000e+00	1.589403e+04	
22	-1.10000e+00	1.666311e+04	
23	-1.15000e+00	1.750485e+04	
24	-1.20000e+00	1.842996e+04	
25	-1.25000e+00	1.945136e+04	
26	-1.30000e+00	2.058476e+04	
27	-1.35000e+00	2.184937e+04	
28	-1.40000e+00	2.326898e+04	
29	-1.45000e+00	2.487332e+04	
30	-1.50000e+00	2.669990e+04	
31	-1.55000e+00	2.879650e+04	
32	-1.60000e+00	3.122456e+04	
33	-1.65000e+00	3.406348e+04	
34	-1.70000e+00	3.741597e+04	
35	-1.75000e+00	4.141340e+04	
36	-1.80000e+00	4.621849e+04	
37	-1.85000e+00	5.201813e+04	
38	-1.90000e+00	5.899301e+04	
39	-1.95000e+00	6.724921e+04	
40	-2.00000e+00	7.672052e+04	
41	-2.05000e+00	8.710867e+04	
42	-2.10000e+00	9.795299e+04	
43	-2.15000e+00	1.088107e+05	
44	-2.20000e+00	1.193998e+05	
45	-2.25000e+00	1.296150e+05	
46	-2.30000e+00	1.394635e+05	
47	-2.35000e+00	1.489994e+05	
48	-2.40000e+00	1.582847e+05	
49	-2.45000e+00	1.673731e+05	
50	-2.50000e+00	1.763071e+05	
51	-2.55000e+00	1.851184e+05	
52	-2.60000e+00	1.938301e+05	
53	-2.65000e+00	2.024593e+05	
54	-2.70000e+00	2.110184e+05	

Index   v-sweep         rds             
--------------------------------------------------------------------------------
55	-2.75000e+00	2.195167e+05	
56	-2.80000e+00	2.279610e+05	
57	-2.85000e+00	2.363566e+05	
58	-2.90000e+00	2.447073e+05	
59	-2.95000e+00	2.530164e+05	
60	-3.00000e+00	2.612862e+05	
61	-3.05000e+00	2.695185e+05	
62	-3.10000e+00	2.777150e+05	
63	-3.15000e+00	2.858769e+05	
64	-3.20000e+00	2.940051e+05	
65	-3.25000e+00	3.021007e+05	
66	-3.30000e+00	3.101641e+05	
Reset re-loads circuit ***************************

Circuit: ***************************

Note: No ".plot", ".print", or ".fourier" lines; no simulations run
