
Note: Compatibility modes selected: hs

Warning: m=xx on .subckt line will override multiplier m hierarchy!


Circuit: ***************************

Doing analysis at TEMP = 25.000000 and TNOM = 25.000000


No. of Data Rows : 67
                          ***************************
                          DC transfer characteristic  Mon Jan  9 13:58:25  2023
--------------------------------------------------------------------------------
Index   v-sweep         rds             
--------------------------------------------------------------------------------
0	0.000000e+00	5.377225e+05	
1	-5.00000e-02	1.817435e+06	
2	-1.00000e-01	1.355541e+07	
3	-1.50000e-01	6.854353e+07	
4	-2.00000e-01	2.019842e+08	
5	-2.50000e-01	4.238877e+08	
6	-3.00000e-01	7.147254e+08	
7	-3.50000e-01	1.039612e+09	
8	-4.00000e-01	1.366055e+09	
9	-4.50000e-01	1.672919e+09	
10	-5.00000e-01	1.950406e+09	
11	-5.50000e-01	2.196348e+09	
12	-6.00000e-01	2.412569e+09	
13	-6.50000e-01	2.602495e+09	
14	-7.00000e-01	2.769870e+09	
15	-7.50000e-01	2.918174e+09	
16	-8.00000e-01	3.050426e+09	
17	-8.50000e-01	3.169151e+09	
18	-9.00000e-01	3.276430e+09	
19	-9.50000e-01	3.373965e+09	
20	-1.00000e+00	3.463148e+09	
21	-1.05000e+00	3.545123e+09	
22	-1.10000e+00	3.620830e+09	
23	-1.15000e+00	3.691049e+09	
24	-1.20000e+00	3.756431e+09	
25	-1.25000e+00	3.817523e+09	
26	-1.30000e+00	3.874789e+09	
27	-1.35000e+00	3.928623e+09	
28	-1.40000e+00	3.979363e+09	
29	-1.45000e+00	4.027300e+09	
30	-1.50000e+00	4.072688e+09	
31	-1.55000e+00	4.115746e+09	
32	-1.60000e+00	4.156669e+09	
33	-1.65000e+00	4.195624e+09	
34	-1.70000e+00	4.232760e+09	
35	-1.75000e+00	4.268205e+09	
36	-1.80000e+00	4.302071e+09	
37	-1.85000e+00	4.334452e+09	
38	-1.90000e+00	4.365426e+09	
39	-1.95000e+00	4.395055e+09	
40	-2.00000e+00	4.423382e+09	
41	-2.05000e+00	4.450432e+09	
42	-2.10000e+00	4.476209e+09	
43	-2.15000e+00	4.500696e+09	
44	-2.20000e+00	4.523850e+09	
45	-2.25000e+00	4.545603e+09	
46	-2.30000e+00	4.565857e+09	
47	-2.35000e+00	4.584485e+09	
48	-2.40000e+00	4.601326e+09	
49	-2.45000e+00	4.616185e+09	
50	-2.50000e+00	4.628831e+09	
51	-2.55000e+00	4.639000e+09	
52	-2.60000e+00	4.646391e+09	
53	-2.65000e+00	4.650672e+09	
54	-2.70000e+00	4.651478e+09	

Index   v-sweep         rds             
--------------------------------------------------------------------------------
55	-2.75000e+00	4.648423e+09	
56	-2.80000e+00	4.641099e+09	
57	-2.85000e+00	4.629086e+09	
58	-2.90000e+00	4.611965e+09	
59	-2.95000e+00	4.589325e+09	
60	-3.00000e+00	4.560775e+09	
61	-3.05000e+00	4.525961e+09	
62	-3.10000e+00	4.484580e+09	
63	-3.15000e+00	4.436388e+09	
64	-3.20000e+00	4.381222e+09	
65	-3.25000e+00	4.319004e+09	
66	-3.30000e+00	4.249757e+09	
Reset re-loads circuit ***************************

Circuit: ***************************

Doing analysis at TEMP = 25.000000 and TNOM = 25.000000


No. of Data Rows : 67
                          ***************************
                          DC transfer characteristic  Mon Jan  9 13:58:25  2023
--------------------------------------------------------------------------------
Index   v-sweep         rds             
--------------------------------------------------------------------------------
0	0.000000e+00	5.281798e+04	
1	-5.00000e-02	6.106275e+04	
2	-1.00000e-01	7.232595e+04	
3	-1.50000e-01	8.859444e+04	
4	-2.00000e-01	1.139839e+05	
5	-2.50000e-01	1.582329e+05	
6	-3.00000e-01	2.481975e+05	
7	-3.50000e-01	4.667665e+05	
8	-4.00000e-01	1.051801e+06	
9	-4.50000e-01	2.485004e+06	
10	-5.00000e-01	5.348368e+06	
11	-5.50000e-01	1.001541e+07	
12	-6.00000e-01	1.647768e+07	
13	-6.50000e-01	2.439512e+07	
14	-7.00000e-01	3.327152e+07	
15	-7.50000e-01	4.262258e+07	
16	-8.00000e-01	5.206854e+07	
17	-8.50000e-01	6.135494e+07	
18	-9.00000e-01	7.033398e+07	
19	-9.50000e-01	7.893422e+07	
20	-1.00000e+00	8.713300e+07	
21	-1.05000e+00	9.493605e+07	
22	-1.10000e+00	1.023639e+08	
23	-1.15000e+00	1.094438e+08	
24	-1.20000e+00	1.162046e+08	
25	-1.25000e+00	1.226746e+08	
26	-1.30000e+00	1.288800e+08	
27	-1.35000e+00	1.348446e+08	
28	-1.40000e+00	1.405895e+08	
29	-1.45000e+00	1.461335e+08	
30	-1.50000e+00	1.514930e+08	
31	-1.55000e+00	1.566825e+08	
32	-1.60000e+00	1.617148e+08	
33	-1.65000e+00	1.666010e+08	
34	-1.70000e+00	1.713512e+08	
35	-1.75000e+00	1.759741e+08	
36	-1.80000e+00	1.804775e+08	
37	-1.85000e+00	1.848683e+08	
38	-1.90000e+00	1.891526e+08	
39	-1.95000e+00	1.933359e+08	
40	-2.00000e+00	1.974227e+08	
41	-2.05000e+00	2.014170e+08	
42	-2.10000e+00	2.053218e+08	
43	-2.15000e+00	2.091393e+08	
44	-2.20000e+00	2.128705e+08	
45	-2.25000e+00	2.165152e+08	
46	-2.30000e+00	2.200713e+08	
47	-2.35000e+00	2.235349e+08	
48	-2.40000e+00	2.269000e+08	
49	-2.45000e+00	2.301573e+08	
50	-2.50000e+00	2.332945e+08	
51	-2.55000e+00	2.362956e+08	
52	-2.60000e+00	2.391400e+08	
53	-2.65000e+00	2.418024e+08	
54	-2.70000e+00	2.442526e+08	

Index   v-sweep         rds             
--------------------------------------------------------------------------------
55	-2.75000e+00	2.464545e+08	
56	-2.80000e+00	2.483669e+08	
57	-2.85000e+00	2.499431e+08	
58	-2.90000e+00	2.511315e+08	
59	-2.95000e+00	2.518767e+08	
60	-3.00000e+00	2.521208e+08	
61	-3.05000e+00	2.518053e+08	
62	-3.10000e+00	2.508734e+08	
63	-3.15000e+00	2.492731e+08	
64	-3.20000e+00	2.469597e+08	
65	-3.25000e+00	2.438997e+08	
66	-3.30000e+00	2.400735e+08	
Reset re-loads circuit ***************************

Circuit: ***************************

Doing analysis at TEMP = 25.000000 and TNOM = 25.000000


No. of Data Rows : 67
                          ***************************
                          DC transfer characteristic  Mon Jan  9 13:58:25  2023
--------------------------------------------------------------------------------
Index   v-sweep         rds             
--------------------------------------------------------------------------------
0	0.000000e+00	2.844239e+04	
1	-5.00000e-02	3.058281e+04	
2	-1.00000e-01	3.306993e+04	
3	-1.50000e-01	3.599512e+04	
4	-2.00000e-01	3.948476e+04	
5	-2.50000e-01	4.371852e+04	
6	-3.00000e-01	4.896050e+04	
7	-3.50000e-01	5.561415e+04	
8	-4.00000e-01	6.432530e+04	
9	-4.50000e-01	7.618705e+04	
10	-5.00000e-01	9.317671e+04	
11	-5.50000e-01	1.191554e+05	
12	-6.00000e-01	1.622897e+05	
13	-6.50000e-01	2.409483e+05	
14	-7.00000e-01	3.963320e+05	
15	-7.50000e-01	7.100582e+05	
16	-8.00000e-01	1.306026e+06	
17	-8.50000e-01	2.312302e+06	
18	-9.00000e-01	3.803066e+06	
19	-9.50000e-01	5.767474e+06	
20	-1.00000e+00	8.122100e+06	
21	-1.05000e+00	1.074829e+07	
22	-1.10000e+00	1.352819e+07	
23	-1.15000e+00	1.636579e+07	
24	-1.20000e+00	1.919304e+07	
25	-1.25000e+00	2.196702e+07	
26	-1.30000e+00	2.466386e+07	
27	-1.35000e+00	2.727271e+07	
28	-1.40000e+00	2.979088e+07	
29	-1.45000e+00	3.222039e+07	
30	-1.50000e+00	3.456583e+07	
31	-1.55000e+00	3.683286e+07	
32	-1.60000e+00	3.902748e+07	
33	-1.65000e+00	4.115556e+07	
34	-1.70000e+00	4.322257e+07	
35	-1.75000e+00	4.523351e+07	
36	-1.80000e+00	4.719288e+07	
37	-1.85000e+00	4.910470e+07	
38	-1.90000e+00	5.097253e+07	
39	-1.95000e+00	5.279953e+07	
40	-2.00000e+00	5.458849e+07	
41	-2.05000e+00	5.634188e+07	
42	-2.10000e+00	5.806189e+07	
43	-2.15000e+00	5.975046e+07	
44	-2.20000e+00	6.140928e+07	
45	-2.25000e+00	6.303986e+07	
46	-2.30000e+00	6.464347e+07	
47	-2.35000e+00	6.622118e+07	
48	-2.40000e+00	6.777380e+07	
49	-2.45000e+00	6.930187e+07	
50	-2.50000e+00	7.080557e+07	
51	-2.55000e+00	7.228467e+07	
52	-2.60000e+00	7.373839e+07	
53	-2.65000e+00	7.516528e+07	
54	-2.70000e+00	7.656306e+07	

Index   v-sweep         rds             
--------------------------------------------------------------------------------
55	-2.75000e+00	7.792841e+07	
56	-2.80000e+00	7.925680e+07	
57	-2.85000e+00	8.054221e+07	
58	-2.90000e+00	8.177692e+07	
59	-2.95000e+00	8.295126e+07	
60	-3.00000e+00	8.405340e+07	
61	-3.05000e+00	8.506915e+07	
62	-3.10000e+00	8.598188e+07	
63	-3.15000e+00	8.677248e+07	
64	-3.20000e+00	8.741954e+07	
65	-3.25000e+00	8.789963e+07	
66	-3.30000e+00	8.818789e+07	
Reset re-loads circuit ***************************

Circuit: ***************************

Doing analysis at TEMP = 25.000000 and TNOM = 25.000000


No. of Data Rows : 67
                          ***************************
                          DC transfer characteristic  Mon Jan  9 13:58:25  2023
--------------------------------------------------------------------------------
Index   v-sweep         rds             
--------------------------------------------------------------------------------
0	0.000000e+00	2.025793e+04	
1	-5.00000e-02	2.124225e+04	
2	-1.00000e-01	2.232660e+04	
3	-1.50000e-01	2.352704e+04	
4	-2.00000e-01	2.486323e+04	
5	-2.50000e-01	2.635953e+04	
6	-3.00000e-01	2.804650e+04	
7	-3.50000e-01	2.996294e+04	
8	-4.00000e-01	3.215892e+04	
9	-4.50000e-01	3.470011e+04	
10	-5.00000e-01	3.767433e+04	
11	-5.50000e-01	4.120159e+04	
12	-6.00000e-01	4.545011e+04	
13	-6.50000e-01	5.066258e+04	
14	-7.00000e-01	5.720107e+04	
15	-7.50000e-01	6.562718e+04	
16	-8.00000e-01	7.685162e+04	
17	-8.50000e-01	9.242670e+04	
18	-9.00000e-01	1.151414e+05	
19	-9.50000e-01	1.502548e+05	
20	-1.00000e+00	2.079680e+05	
21	-1.05000e+00	3.077134e+05	
22	-1.10000e+00	4.831294e+05	
23	-1.15000e+00	7.822558e+05	
24	-1.20000e+00	1.256264e+06	
25	-1.25000e+00	1.939825e+06	
26	-1.30000e+00	2.836692e+06	
27	-1.35000e+00	3.919870e+06	
28	-1.40000e+00	5.143465e+06	
29	-1.45000e+00	6.457183e+06	
30	-1.50000e+00	7.816686e+06	
31	-1.55000e+00	9.188136e+06	
32	-1.60000e+00	1.054844e+07	
33	-1.65000e+00	1.188341e+07	
34	-1.70000e+00	1.318534e+07	
35	-1.75000e+00	1.445092e+07	
36	-1.80000e+00	1.567957e+07	
37	-1.85000e+00	1.687231e+07	
38	-1.90000e+00	1.803102e+07	
39	-1.95000e+00	1.915796e+07	
40	-2.00000e+00	2.025549e+07	
41	-2.05000e+00	2.132591e+07	
42	-2.10000e+00	2.237139e+07	
43	-2.15000e+00	2.339391e+07	
44	-2.20000e+00	2.439526e+07	
45	-2.25000e+00	2.537705e+07	
46	-2.30000e+00	2.634070e+07	
47	-2.35000e+00	2.728750e+07	
48	-2.40000e+00	2.821856e+07	
49	-2.45000e+00	2.913489e+07	
50	-2.50000e+00	3.003737e+07	
51	-2.55000e+00	3.092679e+07	
52	-2.60000e+00	3.180380e+07	
53	-2.65000e+00	3.266901e+07	
54	-2.70000e+00	3.352287e+07	

Index   v-sweep         rds             
--------------------------------------------------------------------------------
55	-2.75000e+00	3.436574e+07	
56	-2.80000e+00	3.519784e+07	
57	-2.85000e+00	3.601921e+07	
58	-2.90000e+00	3.682967e+07	
59	-2.95000e+00	3.762878e+07	
60	-3.00000e+00	3.841572e+07	
61	-3.05000e+00	3.918925e+07	
62	-3.10000e+00	3.994756e+07	
63	-3.15000e+00	4.068820e+07	
64	-3.20000e+00	4.140789e+07	
65	-3.25000e+00	4.210242e+07	
66	-3.30000e+00	4.276647e+07	
Reset re-loads circuit ***************************

Circuit: ***************************

Doing analysis at TEMP = 25.000000 and TNOM = 25.000000


No. of Data Rows : 67
                          ***************************
                          DC transfer characteristic  Mon Jan  9 13:58:25  2023
--------------------------------------------------------------------------------
Index   v-sweep         rds             
--------------------------------------------------------------------------------
0	0.000000e+00	1.622020e+04	
1	-5.00000e-02	1.679303e+04	
2	-1.00000e-01	1.740756e+04	
3	-1.50000e-01	1.806850e+04	
4	-2.00000e-01	1.878132e+04	
5	-2.50000e-01	1.955237e+04	
6	-3.00000e-01	2.038908e+04	
7	-3.50000e-01	2.130021e+04	
8	-4.00000e-01	2.229612e+04	
9	-4.50000e-01	2.338922e+04	
10	-5.00000e-01	2.459443e+04	
11	-5.50000e-01	2.592989e+04	
12	-6.00000e-01	2.741787e+04	
13	-6.50000e-01	2.908599e+04	
14	-7.00000e-01	3.096892e+04	
15	-7.50000e-01	3.311080e+04	
16	-8.00000e-01	3.556861e+04	
17	-8.50000e-01	3.841723e+04	
18	-9.00000e-01	4.175682e+04	
19	-9.50000e-01	4.572434e+04	
20	-1.00000e+00	5.051161e+04	
21	-1.05000e+00	5.639466e+04	
22	-1.10000e+00	6.378323e+04	
23	-1.15000e+00	7.330660e+04	
24	-1.20000e+00	8.596797e+04	
25	-1.25000e+00	1.034286e+05	
26	-1.30000e+00	1.285360e+05	
27	-1.35000e+00	1.662803e+05	
28	-1.40000e+00	2.253617e+05	
29	-1.45000e+00	3.201858e+05	
30	-1.50000e+00	4.719683e+05	
31	-1.55000e+00	7.064138e+05	
32	-1.60000e+00	1.046709e+06	
33	-1.65000e+00	1.504938e+06	
34	-1.70000e+00	2.077459e+06	
35	-1.75000e+00	2.746787e+06	
36	-1.80000e+00	3.487837e+06	
37	-1.85000e+00	4.274571e+06	
38	-1.90000e+00	5.084476e+06	
39	-1.95000e+00	5.900413e+06	
40	-2.00000e+00	6.710595e+06	
41	-2.05000e+00	7.507657e+06	
42	-2.10000e+00	8.287507e+06	
43	-2.15000e+00	9.048288e+06	
44	-2.20000e+00	9.789572e+06	
45	-2.25000e+00	1.051179e+07	
46	-2.30000e+00	1.121585e+07	
47	-2.35000e+00	1.190290e+07	
48	-2.40000e+00	1.257413e+07	
49	-2.45000e+00	1.323076e+07	
50	-2.50000e+00	1.387393e+07	
51	-2.55000e+00	1.450468e+07	
52	-2.60000e+00	1.512399e+07	
53	-2.65000e+00	1.573272e+07	
54	-2.70000e+00	1.633164e+07	

Index   v-sweep         rds             
--------------------------------------------------------------------------------
55	-2.75000e+00	1.692144e+07	
56	-2.80000e+00	1.750275e+07	
57	-2.85000e+00	1.807610e+07	
58	-2.90000e+00	1.864198e+07	
59	-2.95000e+00	1.920081e+07	
60	-3.00000e+00	1.975295e+07	
61	-3.05000e+00	2.029871e+07	
62	-3.10000e+00	2.083833e+07	
63	-3.15000e+00	2.137198e+07	
64	-3.20000e+00	2.189972e+07	
65	-3.25000e+00	2.242152e+07	
66	-3.30000e+00	2.293717e+07	
Reset re-loads circuit ***************************

Circuit: ***************************

Doing analysis at TEMP = 25.000000 and TNOM = 25.000000


No. of Data Rows : 67
                          ***************************
                          DC transfer characteristic  Mon Jan  9 13:58:25  2023
--------------------------------------------------------------------------------
Index   v-sweep         rds             
--------------------------------------------------------------------------------
0	0.000000e+00	1.387966e+04	
1	-5.00000e-02	1.426019e+04	
2	-1.00000e-01	1.466203e+04	
3	-1.50000e-01	1.508702e+04	
4	-2.00000e-01	1.553721e+04	
5	-2.50000e-01	1.601491e+04	
6	-3.00000e-01	1.652273e+04	
7	-3.50000e-01	1.706360e+04	
8	-4.00000e-01	1.764086e+04	
9	-4.50000e-01	1.825831e+04	
10	-5.00000e-01	1.892029e+04	
11	-5.50000e-01	1.963179e+04	
12	-6.00000e-01	2.039857e+04	
13	-6.50000e-01	2.122735e+04	
14	-7.00000e-01	2.212593e+04	
15	-7.50000e-01	2.310351e+04	
16	-8.00000e-01	2.417097e+04	
17	-8.50000e-01	2.534127e+04	
18	-9.00000e-01	2.662998e+04	
19	-9.50000e-01	2.805597e+04	
20	-1.00000e+00	2.964231e+04	
21	-1.05000e+00	3.141754e+04	
22	-1.10000e+00	3.341731e+04	
23	-1.15000e+00	3.568676e+04	
24	-1.20000e+00	3.828387e+04	
25	-1.25000e+00	4.128424e+04	
26	-1.30000e+00	4.478817e+04	
27	-1.35000e+00	4.893138e+04	
28	-1.40000e+00	5.390154e+04	
29	-1.45000e+00	5.996435e+04	
30	-1.50000e+00	6.750614e+04	
31	-1.55000e+00	7.710476e+04	
32	-1.60000e+00	8.965013e+04	
33	-1.65000e+00	1.065518e+05	
34	-1.70000e+00	1.300930e+05	
35	-1.75000e+00	1.640075e+05	
36	-1.80000e+00	2.143137e+05	
37	-1.85000e+00	2.902177e+05	
38	-1.90000e+00	4.044075e+05	
39	-1.95000e+00	5.716455e+05	
40	-2.00000e+00	8.051749e+05	
41	-2.05000e+00	1.112286e+06	
42	-2.10000e+00	1.491610e+06	
43	-2.15000e+00	1.933672e+06	
44	-2.20000e+00	2.423993e+06	
45	-2.25000e+00	2.946815e+06	
46	-2.30000e+00	3.487909e+06	
47	-2.35000e+00	4.035977e+06	
48	-2.40000e+00	4.582901e+06	
49	-2.45000e+00	5.123348e+06	
50	-2.50000e+00	5.654141e+06	
51	-2.55000e+00	6.173643e+06	
52	-2.60000e+00	6.681241e+06	
53	-2.65000e+00	7.176971e+06	
54	-2.70000e+00	7.661249e+06	

Index   v-sweep         rds             
--------------------------------------------------------------------------------
55	-2.75000e+00	8.134696e+06	
56	-2.80000e+00	8.598022e+06	
57	-2.85000e+00	9.051959e+06	
58	-2.90000e+00	9.497219e+06	
59	-2.95000e+00	9.934475e+06	
60	-3.00000e+00	1.036434e+07	
61	-3.05000e+00	1.078739e+07	
62	-3.10000e+00	1.120412e+07	
63	-3.15000e+00	1.161498e+07	
64	-3.20000e+00	1.202039e+07	
65	-3.25000e+00	1.242071e+07	
66	-3.30000e+00	1.281625e+07	
Reset re-loads circuit ***************************

Circuit: ***************************

Note: No ".plot", ".print", or ".fourier" lines; no simulations run
