
Note: Compatibility modes selected: hs

Warning: m=xx on .subckt line will override multiplier m hierarchy!


Circuit: ***************************

Doing analysis at TEMP = 125.000000 and TNOM = 125.000000


No. of Data Rows : 67
                          ***************************
                          DC transfer characteristic  Mon Jan  9 13:58:26  2023
--------------------------------------------------------------------------------
Index   v-sweep         rds             
--------------------------------------------------------------------------------
0	0.000000e+00	2.735802e+04	
1	-5.00000e-02	4.257606e+04	
2	-1.00000e-01	8.675218e+04	
3	-1.50000e-01	2.783359e+05	
4	-2.00000e-01	1.020181e+06	
5	-2.50000e-01	2.580143e+06	
6	-3.00000e-01	4.487308e+06	
7	-3.50000e-01	6.219251e+06	
8	-4.00000e-01	7.640803e+06	
9	-4.50000e-01	8.805920e+06	
10	-5.00000e-01	9.791896e+06	
11	-5.50000e-01	1.065640e+07	
12	-6.00000e-01	1.143697e+07	
13	-6.50000e-01	1.215742e+07	
14	-7.00000e-01	1.283296e+07	
15	-7.50000e-01	1.347359e+07	
16	-8.00000e-01	1.408602e+07	
17	-8.50000e-01	1.467493e+07	
18	-9.00000e-01	1.524366e+07	
19	-9.50000e-01	1.579467e+07	
20	-1.00000e+00	1.632983e+07	
21	-1.05000e+00	1.685057e+07	
22	-1.10000e+00	1.735804e+07	
23	-1.15000e+00	1.785318e+07	
24	-1.20000e+00	1.833676e+07	
25	-1.25000e+00	1.880944e+07	
26	-1.30000e+00	1.927177e+07	
27	-1.35000e+00	1.972425e+07	
28	-1.40000e+00	2.016731e+07	
29	-1.45000e+00	2.060134e+07	
30	-1.50000e+00	2.102670e+07	
31	-1.55000e+00	2.144368e+07	
32	-1.60000e+00	2.185260e+07	
33	-1.65000e+00	2.225370e+07	
34	-1.70000e+00	2.264720e+07	
35	-1.75000e+00	2.303332e+07	
36	-1.80000e+00	2.341220e+07	
37	-1.85000e+00	2.378395e+07	
38	-1.90000e+00	2.414861e+07	
39	-1.95000e+00	2.450614e+07	
40	-2.00000e+00	2.485637e+07	
41	-2.05000e+00	2.519904e+07	
42	-2.10000e+00	2.553367e+07	
43	-2.15000e+00	2.585960e+07	
44	-2.20000e+00	2.617590e+07	
45	-2.25000e+00	2.648134e+07	
46	-2.30000e+00	2.677433e+07	
47	-2.35000e+00	2.705288e+07	
48	-2.40000e+00	2.731455e+07	
49	-2.45000e+00	2.755637e+07	
50	-2.50000e+00	2.777489e+07	
51	-2.55000e+00	2.796605e+07	
52	-2.60000e+00	2.812528e+07	
53	-2.65000e+00	2.824750e+07	
54	-2.70000e+00	2.832717e+07	

Index   v-sweep         rds             
--------------------------------------------------------------------------------
55	-2.75000e+00	2.835842e+07	
56	-2.80000e+00	2.833521e+07	
57	-2.85000e+00	2.825153e+07	
58	-2.90000e+00	2.810164e+07	
59	-2.95000e+00	2.788038e+07	
60	-3.00000e+00	2.758348e+07	
61	-3.05000e+00	2.720785e+07	
62	-3.10000e+00	2.675191e+07	
63	-3.15000e+00	2.621581e+07	
64	-3.20000e+00	2.560158e+07	
65	-3.25000e+00	2.491322e+07	
66	-3.30000e+00	2.415660e+07	
Reset re-loads circuit ***************************

Circuit: ***************************

Doing analysis at TEMP = 125.000000 and TNOM = 125.000000


No. of Data Rows : 67
                          ***************************
                          DC transfer characteristic  Mon Jan  9 13:58:26  2023
--------------------------------------------------------------------------------
Index   v-sweep         rds             
--------------------------------------------------------------------------------
0	0.000000e+00	5.991917e+03	
1	-5.00000e-02	6.669936e+03	
2	-1.00000e-01	7.516715e+03	
3	-1.50000e-01	8.603583e+03	
4	-2.00000e-01	1.004784e+04	
5	-2.50000e-01	1.205539e+04	
6	-3.00000e-01	1.501794e+04	
7	-3.50000e-01	1.975576e+04	
8	-4.00000e-01	2.816904e+04	
9	-4.50000e-01	4.493162e+04	
10	-5.00000e-01	8.042377e+04	
11	-5.50000e-01	1.489040e+05	
12	-6.00000e-01	2.522102e+05	
13	-6.50000e-01	3.712626e+05	
14	-7.00000e-01	4.855455e+05	
15	-7.50000e-01	5.868038e+05	
16	-8.00000e-01	6.753103e+05	
17	-8.50000e-01	7.538865e+05	
18	-9.00000e-01	8.252709e+05	
19	-9.50000e-01	8.915171e+05	
20	-1.00000e+00	9.540491e+05	
21	-1.05000e+00	1.013834e+06	
22	-1.10000e+00	1.071531e+06	
23	-1.15000e+00	1.127593e+06	
24	-1.20000e+00	1.182340e+06	
25	-1.25000e+00	1.235999e+06	
26	-1.30000e+00	1.288736e+06	
27	-1.35000e+00	1.340675e+06	
28	-1.40000e+00	1.391908e+06	
29	-1.45000e+00	1.442506e+06	
30	-1.50000e+00	1.492526e+06	
31	-1.55000e+00	1.542011e+06	
32	-1.60000e+00	1.590997e+06	
33	-1.65000e+00	1.639512e+06	
34	-1.70000e+00	1.687581e+06	
35	-1.75000e+00	1.735223e+06	
36	-1.80000e+00	1.782456e+06	
37	-1.85000e+00	1.829292e+06	
38	-1.90000e+00	1.875746e+06	
39	-1.95000e+00	1.921826e+06	
40	-2.00000e+00	1.967540e+06	
41	-2.05000e+00	2.012896e+06	
42	-2.10000e+00	2.057894e+06	
43	-2.15000e+00	2.102535e+06	
44	-2.20000e+00	2.146811e+06	
45	-2.25000e+00	2.190710e+06	
46	-2.30000e+00	2.234206e+06	
47	-2.35000e+00	2.277264e+06	
48	-2.40000e+00	2.319829e+06	
49	-2.45000e+00	2.361822e+06	
50	-2.50000e+00	2.403140e+06	
51	-2.55000e+00	2.443638e+06	
52	-2.60000e+00	2.483135e+06	
53	-2.65000e+00	2.521393e+06	
54	-2.70000e+00	2.558119e+06	

Index   v-sweep         rds             
--------------------------------------------------------------------------------
55	-2.75000e+00	2.592949e+06	
56	-2.80000e+00	2.625447e+06	
57	-2.85000e+00	2.655095e+06	
58	-2.90000e+00	2.681296e+06	
59	-2.95000e+00	2.703370e+06	
60	-3.00000e+00	2.720564e+06	
61	-3.05000e+00	2.732070e+06	
62	-3.10000e+00	2.737040e+06	
63	-3.15000e+00	2.734624e+06	
64	-3.20000e+00	2.724008e+06	
65	-3.25000e+00	2.704461e+06	
66	-3.30000e+00	2.675388e+06	
Reset re-loads circuit ***************************

Circuit: ***************************

Doing analysis at TEMP = 125.000000 and TNOM = 125.000000


No. of Data Rows : 67
                          ***************************
                          DC transfer characteristic  Mon Jan  9 13:58:26  2023
--------------------------------------------------------------------------------
Index   v-sweep         rds             
--------------------------------------------------------------------------------
0	0.000000e+00	3.493357e+03	
1	-5.00000e-02	3.706068e+03	
2	-1.00000e-01	3.945467e+03	
3	-1.50000e-01	4.216903e+03	
4	-2.00000e-01	4.527246e+03	
5	-2.50000e-01	4.885480e+03	
6	-3.00000e-01	5.303562e+03	
7	-3.50000e-01	5.797759e+03	
8	-4.00000e-01	6.390754e+03	
9	-4.50000e-01	7.115088e+03	
10	-5.00000e-01	8.019017e+03	
11	-5.50000e-01	9.176907e+03	
12	-6.00000e-01	1.070855e+04	
13	-6.50000e-01	1.281669e+04	
14	-7.00000e-01	1.586242e+04	
15	-7.50000e-01	2.051622e+04	
16	-8.00000e-01	2.802787e+04	
17	-8.50000e-01	4.051662e+04	
18	-9.00000e-01	6.059472e+04	
19	-9.50000e-01	8.930637e+04	
20	-1.00000e+00	1.240425e+05	
21	-1.05000e+00	1.601453e+05	
22	-1.10000e+00	1.942553e+05	
23	-1.15000e+00	2.252426e+05	
24	-1.20000e+00	2.532878e+05	
25	-1.25000e+00	2.789791e+05	
26	-1.30000e+00	3.028983e+05	
27	-1.35000e+00	3.255051e+05	
28	-1.40000e+00	3.471358e+05	
29	-1.45000e+00	3.680294e+05	
30	-1.50000e+00	3.883553e+05	
31	-1.55000e+00	4.082341e+05	
32	-1.60000e+00	4.277528e+05	
33	-1.65000e+00	4.469749e+05	
34	-1.70000e+00	4.659475e+05	
35	-1.75000e+00	4.847058e+05	
36	-1.80000e+00	5.032769e+05	
37	-1.85000e+00	5.216816e+05	
38	-1.90000e+00	5.399362e+05	
39	-1.95000e+00	5.580537e+05	
40	-2.00000e+00	5.760444e+05	
41	-2.05000e+00	5.939166e+05	
42	-2.10000e+00	6.116774e+05	
43	-2.15000e+00	6.293324e+05	
44	-2.20000e+00	6.468862e+05	
45	-2.25000e+00	6.643429e+05	
46	-2.30000e+00	6.817057e+05	
47	-2.35000e+00	6.989770e+05	
48	-2.40000e+00	7.161586e+05	
49	-2.45000e+00	7.332515e+05	
50	-2.50000e+00	7.502551e+05	
51	-2.55000e+00	7.671676e+05	
52	-2.60000e+00	7.839844e+05	
53	-2.65000e+00	8.006981e+05	
54	-2.70000e+00	8.172967e+05	

Index   v-sweep         rds             
--------------------------------------------------------------------------------
55	-2.75000e+00	8.337623e+05	
56	-2.80000e+00	8.500693e+05	
57	-2.85000e+00	8.661823e+05	
58	-2.90000e+00	8.820532e+05	
59	-2.95000e+00	8.976186e+05	
60	-3.00000e+00	9.127962e+05	
61	-3.05000e+00	9.274819e+05	
62	-3.10000e+00	9.415459e+05	
63	-3.15000e+00	9.548294e+05	
64	-3.20000e+00	9.671425e+05	
65	-3.25000e+00	9.782616e+05	
66	-3.30000e+00	9.879297e+05	
Reset re-loads circuit ***************************

Circuit: ***************************

Doing analysis at TEMP = 125.000000 and TNOM = 125.000000


No. of Data Rows : 67
                          ***************************
                          DC transfer characteristic  Mon Jan  9 13:58:26  2023
--------------------------------------------------------------------------------
Index   v-sweep         rds             
--------------------------------------------------------------------------------
0	0.000000e+00	2.566673e+03	
1	-5.00000e-02	2.672769e+03	
2	-1.00000e-01	2.787633e+03	
3	-1.50000e-01	2.912396e+03	
4	-2.00000e-01	3.048393e+03	
5	-2.50000e-01	3.197210e+03	
6	-3.00000e-01	3.360748e+03	
7	-3.50000e-01	3.541299e+03	
8	-4.00000e-01	3.741657e+03	
9	-4.50000e-01	3.965261e+03	
10	-5.00000e-01	4.216392e+03	
11	-5.50000e-01	4.500443e+03	
12	-6.00000e-01	4.824308e+03	
13	-6.50000e-01	5.196928e+03	
14	-7.00000e-01	5.630107e+03	
15	-7.50000e-01	6.139735e+03	
16	-8.00000e-01	6.747668e+03	
17	-8.50000e-01	7.484725e+03	
18	-9.00000e-01	8.395566e+03	
19	-9.50000e-01	9.546876e+03	
20	-1.00000e+00	1.104140e+04	
21	-1.05000e+00	1.304221e+04	
22	-1.10000e+00	1.581344e+04	
23	-1.15000e+00	1.978106e+04	
24	-1.20000e+00	2.559101e+04	
25	-1.25000e+00	3.405754e+04	
26	-1.30000e+00	4.579946e+04	
27	-1.35000e+00	6.060641e+04	
28	-1.40000e+00	7.724365e+04	
29	-1.45000e+00	9.416226e+04	
30	-1.50000e+00	1.103139e+05	
31	-1.55000e+00	1.253172e+05	
32	-1.60000e+00	1.392033e+05	
33	-1.65000e+00	1.521573e+05	
34	-1.70000e+00	1.643822e+05	
35	-1.75000e+00	1.760501e+05	
36	-1.80000e+00	1.872934e+05	
37	-1.85000e+00	1.982105e+05	
38	-1.90000e+00	2.088733e+05	
39	-1.95000e+00	2.193346e+05	
40	-2.00000e+00	2.296330e+05	
41	-2.05000e+00	2.397973e+05	
42	-2.10000e+00	2.498493e+05	
43	-2.15000e+00	2.598053e+05	
44	-2.20000e+00	2.696780e+05	
45	-2.25000e+00	2.794773e+05	
46	-2.30000e+00	2.892109e+05	
47	-2.35000e+00	2.988849e+05	
48	-2.40000e+00	3.085044e+05	
49	-2.45000e+00	3.180732e+05	
50	-2.50000e+00	3.275948e+05	
51	-2.55000e+00	3.370718e+05	
52	-2.60000e+00	3.465064e+05	
53	-2.65000e+00	3.559005e+05	
54	-2.70000e+00	3.652555e+05	

Index   v-sweep         rds             
--------------------------------------------------------------------------------
55	-2.75000e+00	3.745727e+05	
56	-2.80000e+00	3.838526e+05	
57	-2.85000e+00	3.930955e+05	
58	-2.90000e+00	4.023009e+05	
59	-2.95000e+00	4.114674e+05	
60	-3.00000e+00	4.205921e+05	
61	-3.05000e+00	4.296706e+05	
62	-3.10000e+00	4.386954e+05	
63	-3.15000e+00	4.476562e+05	
64	-3.20000e+00	4.565378e+05	
65	-3.25000e+00	4.653194e+05	
66	-3.30000e+00	4.739730e+05	
Reset re-loads circuit ***************************

Circuit: ***************************

Doing analysis at TEMP = 125.000000 and TNOM = 125.000000


No. of Data Rows : 67
                          ***************************
                          DC transfer characteristic  Mon Jan  9 13:58:26  2023
--------------------------------------------------------------------------------
Index   v-sweep         rds             
--------------------------------------------------------------------------------
0	0.000000e+00	2.083778e+03	
1	-5.00000e-02	2.148510e+03	
2	-1.00000e-01	2.217181e+03	
3	-1.50000e-01	2.290162e+03	
4	-2.00000e-01	2.367873e+03	
5	-2.50000e-01	2.450786e+03	
6	-3.00000e-01	2.539442e+03	
7	-3.50000e-01	2.634457e+03	
8	-4.00000e-01	2.736542e+03	
9	-4.50000e-01	2.846513e+03	
10	-5.00000e-01	2.965321e+03	
11	-5.50000e-01	3.094071e+03	
12	-6.00000e-01	3.234065e+03	
13	-6.50000e-01	3.386839e+03	
14	-7.00000e-01	3.554222e+03	
15	-7.50000e-01	3.738409e+03	
16	-8.00000e-01	3.942053e+03	
17	-8.50000e-01	4.168397e+03	
18	-9.00000e-01	4.421439e+03	
19	-9.50000e-01	4.706167e+03	
20	-1.00000e+00	5.028883e+03	
21	-1.05000e+00	5.397652e+03	
22	-1.10000e+00	5.822953e+03	
23	-1.15000e+00	6.318631e+03	
24	-1.20000e+00	6.903313e+03	
25	-1.25000e+00	7.602547e+03	
26	-1.30000e+00	8.452120e+03	
27	-1.35000e+00	9.503224e+03	
28	-1.40000e+00	1.083052e+04	
29	-1.45000e+00	1.254438e+04	
30	-1.50000e+00	1.480793e+04	
31	-1.55000e+00	1.785515e+04	
32	-1.60000e+00	2.199302e+04	
33	-1.65000e+00	2.754598e+04	
34	-1.70000e+00	3.469835e+04	
35	-1.75000e+00	4.329202e+04	
36	-1.80000e+00	5.279329e+04	
37	-1.85000e+00	6.253795e+04	
38	-1.90000e+00	7.202604e+04	
39	-1.95000e+00	8.102216e+04	
40	-2.00000e+00	8.948779e+04	
41	-2.05000e+00	9.747998e+04	
42	-2.10000e+00	1.050837e+05	
43	-2.15000e+00	1.123803e+05	
44	-2.20000e+00	1.194371e+05	
45	-2.25000e+00	1.263067e+05	
46	-2.30000e+00	1.330288e+05	
47	-2.35000e+00	1.396334e+05	
48	-2.40000e+00	1.461429e+05	
49	-2.45000e+00	1.525742e+05	
50	-2.50000e+00	1.589403e+05	
51	-2.55000e+00	1.652509e+05	
52	-2.60000e+00	1.715137e+05	
53	-2.65000e+00	1.777347e+05	
54	-2.70000e+00	1.839186e+05	

Index   v-sweep         rds             
--------------------------------------------------------------------------------
55	-2.75000e+00	1.900691e+05	
56	-2.80000e+00	1.961893e+05	
57	-2.85000e+00	2.022817e+05	
58	-2.90000e+00	2.083481e+05	
59	-2.95000e+00	2.143903e+05	
60	-3.00000e+00	2.204097e+05	
61	-3.05000e+00	2.264073e+05	
62	-3.10000e+00	2.323840e+05	
63	-3.15000e+00	2.383406e+05	
64	-3.20000e+00	2.442774e+05	
65	-3.25000e+00	2.501946e+05	
66	-3.30000e+00	2.560919e+05	
Reset re-loads circuit ***************************

Circuit: ***************************

Doing analysis at TEMP = 125.000000 and TNOM = 125.000000


No. of Data Rows : 67
                          ***************************
                          DC transfer characteristic  Mon Jan  9 13:58:26  2023
--------------------------------------------------------------------------------
Index   v-sweep         rds             
--------------------------------------------------------------------------------
0	0.000000e+00	1.787954e+03	
1	-5.00000e-02	1.832155e+03	
2	-1.00000e-01	1.878464e+03	
3	-1.50000e-01	1.927036e+03	
4	-2.00000e-01	1.978039e+03	
5	-2.50000e-01	2.031661e+03	
6	-3.00000e-01	2.088108e+03	
7	-3.50000e-01	2.147610e+03	
8	-4.00000e-01	2.210420e+03	
9	-4.50000e-01	2.276823e+03	
10	-5.00000e-01	2.347135e+03	
11	-5.50000e-01	2.421711e+03	
12	-6.00000e-01	2.500950e+03	
13	-6.50000e-01	2.585305e+03	
14	-7.00000e-01	2.675284e+03	
15	-7.50000e-01	2.771470e+03	
16	-8.00000e-01	2.874526e+03	
17	-8.50000e-01	2.985214e+03	
18	-9.00000e-01	3.104412e+03	
19	-9.50000e-01	3.233140e+03	
20	-1.00000e+00	3.372584e+03	
21	-1.05000e+00	3.524135e+03	
22	-1.10000e+00	3.689438e+03	
23	-1.15000e+00	3.870445e+03	
24	-1.20000e+00	4.069494e+03	
25	-1.25000e+00	4.289410e+03	
26	-1.30000e+00	4.533631e+03	
27	-1.35000e+00	4.806388e+03	
28	-1.40000e+00	5.112940e+03	
29	-1.45000e+00	5.459899e+03	
30	-1.50000e+00	5.855681e+03	
31	-1.55000e+00	6.311144e+03	
32	-1.60000e+00	6.840498e+03	
33	-1.65000e+00	7.462618e+03	
34	-1.70000e+00	8.202958e+03	
35	-1.75000e+00	9.096332e+03	
36	-1.80000e+00	1.019089e+04	
37	-1.85000e+00	1.155355e+04	
38	-1.90000e+00	1.327647e+04	
39	-1.95000e+00	1.548228e+04	
40	-2.00000e+00	1.832099e+04	
41	-2.05000e+00	2.194496e+04	
42	-2.10000e+00	2.644861e+04	
43	-2.15000e+00	3.178843e+04	
44	-2.20000e+00	3.774821e+04	
45	-2.25000e+00	4.400729e+04	
46	-2.30000e+00	5.026834e+04	
47	-2.35000e+00	5.634181e+04	
48	-2.40000e+00	6.215023e+04	
49	-2.45000e+00	6.768974e+04	
50	-2.50000e+00	7.299096e+04	
51	-2.55000e+00	7.809425e+04	
52	-2.60000e+00	8.303805e+04	
53	-2.65000e+00	8.785475e+04	
54	-2.70000e+00	9.257019e+04	

Index   v-sweep         rds             
--------------------------------------------------------------------------------
55	-2.75000e+00	9.720445e+04	
56	-2.80000e+00	1.017730e+05	
57	-2.85000e+00	1.062875e+05	
58	-2.90000e+00	1.107572e+05	
59	-2.95000e+00	1.151891e+05	
60	-3.00000e+00	1.195887e+05	
61	-3.05000e+00	1.239602e+05	
62	-3.10000e+00	1.283070e+05	
63	-3.15000e+00	1.326319e+05	
64	-3.20000e+00	1.369369e+05	
65	-3.25000e+00	1.412240e+05	
66	-3.30000e+00	1.454945e+05	
Reset re-loads circuit ***************************

Circuit: ***************************

Note: No ".plot", ".print", or ".fourier" lines; no simulations run
