
Note: Compatibility modes selected: hs

Warning: m=xx on .subckt line will override multiplier m hierarchy!


Circuit: ***************************

Doing analysis at TEMP = -40.000000 and TNOM = -40.000000


No. of Data Rows : 67
                          ***************************
                          DC transfer characteristic  Mon Jan  9 13:58:26  2023
--------------------------------------------------------------------------------
Index   v-sweep         rds             
--------------------------------------------------------------------------------
0	0.000000e+00	1.435932e+06	
1	-5.00000e-02	9.663876e+06	
2	-1.00000e-01	7.179605e+07	
3	-1.50000e-01	1.744963e+08	
4	-2.00000e-01	2.481658e+08	
5	-2.50000e-01	2.938406e+08	
6	-3.00000e-01	3.250788e+08	
7	-3.50000e-01	3.489498e+08	
8	-4.00000e-01	3.686408e+08	
9	-4.50000e-01	3.856660e+08	
10	-5.00000e-01	4.008123e+08	
11	-5.50000e-01	4.145279e+08	
12	-6.00000e-01	4.270910e+08	
13	-6.50000e-01	4.386874e+08	
14	-7.00000e-01	4.494500e+08	
15	-7.50000e-01	4.594787e+08	
16	-8.00000e-01	4.688520e+08	
17	-8.50000e-01	4.776339e+08	
18	-9.00000e-01	4.858778e+08	
19	-9.50000e-01	4.936291e+08	
20	-1.00000e+00	5.009274e+08	
21	-1.05000e+00	5.078072e+08	
22	-1.10000e+00	5.142994e+08	
23	-1.15000e+00	5.204313e+08	
24	-1.20000e+00	5.262277e+08	
25	-1.25000e+00	5.317108e+08	
26	-1.30000e+00	5.369011e+08	
27	-1.35000e+00	5.418170e+08	
28	-1.40000e+00	5.464754e+08	
29	-1.45000e+00	5.508919e+08	
30	-1.50000e+00	5.550807e+08	
31	-1.55000e+00	5.590550e+08	
32	-1.60000e+00	5.628266e+08	
33	-1.65000e+00	5.664065e+08	
34	-1.70000e+00	5.698046e+08	
35	-1.75000e+00	5.730299e+08	
36	-1.80000e+00	5.760899e+08	
37	-1.85000e+00	5.789913e+08	
38	-1.90000e+00	5.817393e+08	
39	-1.95000e+00	5.843378e+08	
40	-2.00000e+00	5.867888e+08	
41	-2.05000e+00	5.890926e+08	
42	-2.10000e+00	5.912472e+08	
43	-2.15000e+00	5.932485e+08	
44	-2.20000e+00	5.950893e+08	
45	-2.25000e+00	5.967598e+08	
46	-2.30000e+00	5.982466e+08	
47	-2.35000e+00	5.995331e+08	
48	-2.40000e+00	6.005986e+08	
49	-2.45000e+00	6.014187e+08	
50	-2.50000e+00	6.019648e+08	
51	-2.55000e+00	6.022043e+08	
52	-2.60000e+00	6.021006e+08	
53	-2.65000e+00	6.016134e+08	
54	-2.70000e+00	6.006988e+08	

Index   v-sweep         rds             
--------------------------------------------------------------------------------
55	-2.75000e+00	5.993101e+08	
56	-2.80000e+00	5.973987e+08	
57	-2.85000e+00	5.949145e+08	
58	-2.90000e+00	5.918075e+08	
59	-2.95000e+00	5.880288e+08	
60	-3.00000e+00	5.835323e+08	
61	-3.05000e+00	5.782762e+08	
62	-3.10000e+00	5.722245e+08	
63	-3.15000e+00	5.653488e+08	
64	-3.20000e+00	5.576302e+08	
65	-3.25000e+00	5.490600e+08	
66	-3.30000e+00	5.396414e+08	
Reset re-loads circuit ***************************

Circuit: ***************************

Doing analysis at TEMP = -40.000000 and TNOM = -40.000000


No. of Data Rows : 67
                          ***************************
                          DC transfer characteristic  Mon Jan  9 13:58:26  2023
--------------------------------------------------------------------------------
Index   v-sweep         rds             
--------------------------------------------------------------------------------
0	0.000000e+00	4.684448e+04	
1	-5.00000e-02	5.366938e+04	
2	-1.00000e-01	6.268853e+04	
3	-1.50000e-01	7.514063e+04	
4	-2.00000e-01	9.336820e+04	
5	-2.50000e-01	1.222629e+05	
6	-3.00000e-01	1.731947e+05	
7	-3.50000e-01	2.741562e+05	
8	-4.00000e-01	4.823489e+05	
9	-4.50000e-01	8.389553e+05	
10	-5.00000e-01	1.264577e+06	
11	-5.50000e-01	1.647686e+06	
12	-6.00000e-01	1.961891e+06	
13	-6.50000e-01	2.224711e+06	
14	-7.00000e-01	2.455093e+06	
15	-7.50000e-01	2.665213e+06	
16	-8.00000e-01	2.862125e+06	
17	-8.50000e-01	3.049895e+06	
18	-9.00000e-01	3.230935e+06	
19	-9.50000e-01	3.406725e+06	
20	-1.00000e+00	3.578216e+06	
21	-1.05000e+00	3.746036e+06	
22	-1.10000e+00	3.910620e+06	
23	-1.15000e+00	4.072278e+06	
24	-1.20000e+00	4.231240e+06	
25	-1.25000e+00	4.387679e+06	
26	-1.30000e+00	4.541734e+06	
27	-1.35000e+00	4.693514e+06	
28	-1.40000e+00	4.843112e+06	
29	-1.45000e+00	4.990605e+06	
30	-1.50000e+00	5.136060e+06	
31	-1.55000e+00	5.279536e+06	
32	-1.60000e+00	5.421088e+06	
33	-1.65000e+00	5.560762e+06	
34	-1.70000e+00	5.698602e+06	
35	-1.75000e+00	5.834650e+06	
36	-1.80000e+00	5.968944e+06	
37	-1.85000e+00	6.101516e+06	
38	-1.90000e+00	6.232399e+06	
39	-1.95000e+00	6.361620e+06	
40	-2.00000e+00	6.489198e+06	
41	-2.05000e+00	6.615147e+06	
42	-2.10000e+00	6.739471e+06	
43	-2.15000e+00	6.862154e+06	
44	-2.20000e+00	6.983166e+06	
45	-2.25000e+00	7.102444e+06	
46	-2.30000e+00	7.219892e+06	
47	-2.35000e+00	7.335368e+06	
48	-2.40000e+00	7.448670e+06	
49	-2.45000e+00	7.559527e+06	
50	-2.50000e+00	7.667578e+06	
51	-2.55000e+00	7.772362e+06	
52	-2.60000e+00	7.873294e+06	
53	-2.65000e+00	7.969655e+06	
54	-2.70000e+00	8.060572e+06	

Index   v-sweep         rds             
--------------------------------------------------------------------------------
55	-2.75000e+00	8.145005e+06	
56	-2.80000e+00	8.221738e+06	
57	-2.85000e+00	8.289375e+06	
58	-2.90000e+00	8.346347e+06	
59	-2.95000e+00	8.390922e+06	
60	-3.00000e+00	8.421239e+06	
61	-3.05000e+00	8.435348e+06	
62	-3.10000e+00	8.431269e+06	
63	-3.15000e+00	8.407069e+06	
64	-3.20000e+00	8.360951e+06	
65	-3.25000e+00	8.291357e+06	
66	-3.30000e+00	8.197067e+06	
Reset re-loads circuit ***************************

Circuit: ***************************

Doing analysis at TEMP = -40.000000 and TNOM = -40.000000


No. of Data Rows : 67
                          ***************************
                          DC transfer characteristic  Mon Jan  9 13:58:26  2023
--------------------------------------------------------------------------------
Index   v-sweep         rds             
--------------------------------------------------------------------------------
0	0.000000e+00	2.499244e+04	
1	-5.00000e-02	2.677097e+04	
2	-1.00000e-01	2.880048e+04	
3	-1.50000e-01	3.113787e+04	
4	-2.00000e-01	3.385855e+04	
5	-2.50000e-01	3.706454e+04	
6	-3.00000e-01	4.089723e+04	
7	-3.50000e-01	4.555796e+04	
8	-4.00000e-01	5.134276e+04	
9	-4.50000e-01	5.870289e+04	
10	-5.00000e-01	6.835503e+04	
11	-5.50000e-01	8.148777e+04	
12	-6.00000e-01	1.001499e+05	
13	-6.50000e-01	1.279165e+05	
14	-7.00000e-01	1.705983e+05	
15	-7.50000e-01	2.351223e+05	
16	-8.00000e-01	3.229315e+05	
17	-8.50000e-01	4.231520e+05	
18	-9.00000e-01	5.206595e+05	
19	-9.50000e-01	6.082928e+05	
20	-1.00000e+00	6.863016e+05	
21	-1.05000e+00	7.571853e+05	
22	-1.10000e+00	8.232020e+05	
23	-1.15000e+00	8.859098e+05	
24	-1.20000e+00	9.463049e+05	
25	-1.25000e+00	1.005016e+06	
26	-1.30000e+00	1.062444e+06	
27	-1.35000e+00	1.118852e+06	
28	-1.40000e+00	1.174415e+06	
29	-1.45000e+00	1.229253e+06	
30	-1.50000e+00	1.283451e+06	
31	-1.55000e+00	1.337070e+06	
32	-1.60000e+00	1.390157e+06	
33	-1.65000e+00	1.442744e+06	
34	-1.70000e+00	1.494860e+06	
35	-1.75000e+00	1.546524e+06	
36	-1.80000e+00	1.597755e+06	
37	-1.85000e+00	1.648565e+06	
38	-1.90000e+00	1.698968e+06	
39	-1.95000e+00	1.748972e+06	
40	-2.00000e+00	1.798586e+06	
41	-2.05000e+00	1.847819e+06	
42	-2.10000e+00	1.896676e+06	
43	-2.15000e+00	1.945164e+06	
44	-2.20000e+00	1.993288e+06	
45	-2.25000e+00	2.041053e+06	
46	-2.30000e+00	2.088460e+06	
47	-2.35000e+00	2.135511e+06	
48	-2.40000e+00	2.182206e+06	
49	-2.45000e+00	2.228540e+06	
50	-2.50000e+00	2.274501e+06	
51	-2.55000e+00	2.320075e+06	
52	-2.60000e+00	2.365233e+06	
53	-2.65000e+00	2.409937e+06	
54	-2.70000e+00	2.454129e+06	

Index   v-sweep         rds             
--------------------------------------------------------------------------------
55	-2.75000e+00	2.497731e+06	
56	-2.80000e+00	2.540637e+06	
57	-2.85000e+00	2.582707e+06	
58	-2.90000e+00	2.623761e+06	
59	-2.95000e+00	2.663570e+06	
60	-3.00000e+00	2.701851e+06	
61	-3.05000e+00	2.738258e+06	
62	-3.10000e+00	2.772374e+06	
63	-3.15000e+00	2.803710e+06	
64	-3.20000e+00	2.831702e+06	
65	-3.25000e+00	2.855708e+06	
66	-3.30000e+00	2.875020e+06	
Reset re-loads circuit ***************************

Circuit: ***************************

Doing analysis at TEMP = -40.000000 and TNOM = -40.000000


No. of Data Rows : 67
                          ***************************
                          DC transfer characteristic  Mon Jan  9 13:58:26  2023
--------------------------------------------------------------------------------
Index   v-sweep         rds             
--------------------------------------------------------------------------------
0	0.000000e+00	1.752316e+04	
1	-5.00000e-02	1.833576e+04	
2	-1.00000e-01	1.921937e+04	
3	-1.50000e-01	2.018366e+04	
4	-2.00000e-01	2.124016e+04	
5	-2.50000e-01	2.240270e+04	
6	-3.00000e-01	2.368800e+04	
7	-3.50000e-01	2.511647e+04	
8	-4.00000e-01	2.671333e+04	
9	-4.50000e-01	2.851001e+04	
10	-5.00000e-01	3.054628e+04	
11	-5.50000e-01	3.287306e+04	
12	-6.00000e-01	3.555667e+04	
13	-6.50000e-01	3.868489e+04	
14	-7.00000e-01	4.237624e+04	
15	-7.50000e-01	4.679399e+04	
16	-8.00000e-01	5.216827e+04	
17	-8.50000e-01	5.883068e+04	
18	-9.00000e-01	6.726867e+04	
19	-9.50000e-01	7.820590e+04	
20	-1.00000e+00	9.270045e+04	
21	-1.05000e+00	1.121847e+05	
22	-1.10000e+00	1.381943e+05	
23	-1.15000e+00	1.713965e+05	
24	-1.20000e+00	2.102682e+05	
25	-1.25000e+00	2.513077e+05	
26	-1.30000e+00	2.912887e+05	
27	-1.35000e+00	3.287869e+05	
28	-1.40000e+00	3.637877e+05	
29	-1.45000e+00	3.967937e+05	
30	-1.50000e+00	4.283313e+05	
31	-1.55000e+00	4.588074e+05	
32	-1.60000e+00	4.885062e+05	
33	-1.65000e+00	5.176198e+05	
34	-1.70000e+00	5.462778e+05	
35	-1.75000e+00	5.745681e+05	
36	-1.80000e+00	6.025515e+05	
37	-1.85000e+00	6.302709e+05	
38	-1.90000e+00	6.577569e+05	
39	-1.95000e+00	6.850319e+05	
40	-2.00000e+00	7.121126e+05	
41	-2.05000e+00	7.390118e+05	
42	-2.10000e+00	7.657391e+05	
43	-2.15000e+00	7.923023e+05	
44	-2.20000e+00	8.187075e+05	
45	-2.25000e+00	8.449598e+05	
46	-2.30000e+00	8.710633e+05	
47	-2.35000e+00	8.970213e+05	
48	-2.40000e+00	9.228370e+05	
49	-2.45000e+00	9.485127e+05	
50	-2.50000e+00	9.740507e+05	
51	-2.55000e+00	9.994527e+05	
52	-2.60000e+00	1.024720e+06	
53	-2.65000e+00	1.049854e+06	
54	-2.70000e+00	1.074855e+06	

Index   v-sweep         rds             
--------------------------------------------------------------------------------
55	-2.75000e+00	1.099721e+06	
56	-2.80000e+00	1.124452e+06	
57	-2.85000e+00	1.149042e+06	
58	-2.90000e+00	1.173485e+06	
59	-2.95000e+00	1.197769e+06	
60	-3.00000e+00	1.221876e+06	
61	-3.05000e+00	1.245783e+06	
62	-3.10000e+00	1.269453e+06	
63	-3.15000e+00	1.292839e+06	
64	-3.20000e+00	1.315876e+06	
65	-3.25000e+00	1.338479e+06	
66	-3.30000e+00	1.360542e+06	
Reset re-loads circuit ***************************

Circuit: ***************************

Doing analysis at TEMP = -40.000000 and TNOM = -40.000000


No. of Data Rows : 67
                          ***************************
                          DC transfer characteristic  Mon Jan  9 13:58:26  2023
--------------------------------------------------------------------------------
Index   v-sweep         rds             
--------------------------------------------------------------------------------
0	0.000000e+00	1.437660e+04	
1	-5.00000e-02	1.488190e+04	
2	-1.00000e-01	1.541969e+04	
3	-1.50000e-01	1.599318e+04	
4	-2.00000e-01	1.660603e+04	
5	-2.50000e-01	1.726240e+04	
6	-3.00000e-01	1.796709e+04	
7	-3.50000e-01	1.872558e+04	
8	-4.00000e-01	1.954427e+04	
9	-4.50000e-01	2.043055e+04	
10	-5.00000e-01	2.139313e+04	
11	-5.50000e-01	2.244223e+04	
12	-6.00000e-01	2.359001e+04	
13	-6.50000e-01	2.485100e+04	
14	-7.00000e-01	2.624271e+04	
15	-7.50000e-01	2.778641e+04	
16	-8.00000e-01	2.950827e+04	
17	-8.50000e-01	3.144069e+04	
18	-9.00000e-01	3.362440e+04	
19	-9.50000e-01	3.611107e+04	
20	-1.00000e+00	3.896729e+04	
21	-1.05000e+00	4.227995e+04	
22	-1.10000e+00	4.616417e+04	
23	-1.15000e+00	5.077455e+04	
24	-1.20000e+00	5.632105e+04	
25	-1.25000e+00	6.309025e+04	
26	-1.30000e+00	7.146940e+04	
27	-1.35000e+00	8.196075e+04	
28	-1.40000e+00	9.514749e+04	
29	-1.45000e+00	1.115351e+05	
30	-1.50000e+00	1.312128e+05	
31	-1.55000e+00	1.535100e+05	
32	-1.60000e+00	1.771080e+05	
33	-1.65000e+00	2.006946e+05	
34	-1.70000e+00	2.235077e+05	
35	-1.75000e+00	2.453433e+05	
36	-1.80000e+00	2.662946e+05	
37	-1.85000e+00	2.865401e+05	
38	-1.90000e+00	3.062471e+05	
39	-1.95000e+00	3.255461e+05	
40	-2.00000e+00	3.445315e+05	
41	-2.05000e+00	3.632700e+05	
42	-2.10000e+00	3.818086e+05	
43	-2.15000e+00	4.001804e+05	
44	-2.20000e+00	4.184089e+05	
45	-2.25000e+00	4.365113e+05	
46	-2.30000e+00	4.545003e+05	
47	-2.35000e+00	4.723852e+05	
48	-2.40000e+00	4.901731e+05	
49	-2.45000e+00	5.078696e+05	
50	-2.50000e+00	5.254790e+05	
51	-2.55000e+00	5.430046e+05	
52	-2.60000e+00	5.604492e+05	
53	-2.65000e+00	5.778150e+05	
54	-2.70000e+00	5.951039e+05	

Index   v-sweep         rds             
--------------------------------------------------------------------------------
55	-2.75000e+00	6.123174e+05	
56	-2.80000e+00	6.294568e+05	
57	-2.85000e+00	6.465233e+05	
58	-2.90000e+00	6.635176e+05	
59	-2.95000e+00	6.804405e+05	
60	-3.00000e+00	6.972924e+05	
61	-3.05000e+00	7.140732e+05	
62	-3.10000e+00	7.307823e+05	
63	-3.15000e+00	7.474181e+05	
64	-3.20000e+00	7.639778e+05	
65	-3.25000e+00	7.804565e+05	
66	-3.30000e+00	7.968467e+05	
Reset re-loads circuit ***************************

Circuit: ***************************

Doing analysis at TEMP = -40.000000 and TNOM = -40.000000


No. of Data Rows : 67
                          ***************************
                          DC transfer characteristic  Mon Jan  9 13:58:26  2023
--------------------------------------------------------------------------------
Index   v-sweep         rds             
--------------------------------------------------------------------------------
0	0.000000e+00	1.242068e+04	
1	-5.00000e-02	1.277002e+04	
2	-1.00000e-01	1.313693e+04	
3	-1.50000e-01	1.352276e+04	
4	-2.00000e-01	1.392898e+04	
5	-2.50000e-01	1.435726e+04	
6	-3.00000e-01	1.480942e+04	
7	-3.50000e-01	1.528750e+04	
8	-4.00000e-01	1.579378e+04	
9	-4.50000e-01	1.633082e+04	
10	-5.00000e-01	1.690148e+04	
11	-5.50000e-01	1.750900e+04	
12	-6.00000e-01	1.815705e+04	
13	-6.50000e-01	1.884980e+04	
14	-7.00000e-01	1.959202e+04	
15	-7.50000e-01	2.038917e+04	
16	-8.00000e-01	2.124754e+04	
17	-8.50000e-01	2.217443e+04	
18	-9.00000e-01	2.317832e+04	
19	-9.50000e-01	2.426918e+04	
20	-1.00000e+00	2.545874e+04	
21	-1.05000e+00	2.676091e+04	
22	-1.10000e+00	2.819236e+04	
23	-1.15000e+00	2.977316e+04	
24	-1.20000e+00	3.152768e+04	
25	-1.25000e+00	3.348583e+04	
26	-1.30000e+00	3.568460e+04	
27	-1.35000e+00	3.817024e+04	
28	-1.40000e+00	4.100110e+04	
29	-1.45000e+00	4.425154e+04	
30	-1.50000e+00	4.801700e+04	
31	-1.55000e+00	5.242057e+04	
32	-1.60000e+00	5.762045e+04	
33	-1.65000e+00	6.381655e+04	
34	-1.70000e+00	7.125021e+04	
35	-1.75000e+00	8.018389e+04	
36	-1.80000e+00	9.083918e+04	
37	-1.85000e+00	1.032803e+05	
38	-1.90000e+00	1.172870e+05	
39	-1.95000e+00	1.323440e+05	
40	-2.00000e+00	1.478241e+05	
41	-2.05000e+00	1.632327e+05	
42	-2.10000e+00	1.783141e+05	
43	-2.15000e+00	1.930026e+05	
44	-2.20000e+00	2.073295e+05	
45	-2.25000e+00	2.213565e+05	
46	-2.30000e+00	2.351446e+05	
47	-2.35000e+00	2.487435e+05	
48	-2.40000e+00	2.621913e+05	
49	-2.45000e+00	2.755157e+05	
50	-2.50000e+00	2.887370e+05	
51	-2.55000e+00	3.018701e+05	
52	-2.60000e+00	3.149257e+05	
53	-2.65000e+00	3.279119e+05	
54	-2.70000e+00	3.408347e+05	

Index   v-sweep         rds             
--------------------------------------------------------------------------------
55	-2.75000e+00	3.536986e+05	
56	-2.80000e+00	3.665072e+05	
57	-2.85000e+00	3.792631e+05	
58	-2.90000e+00	3.919685e+05	
59	-2.95000e+00	4.046251e+05	
60	-3.00000e+00	4.172343e+05	
61	-3.05000e+00	4.297972e+05	
62	-3.10000e+00	4.423147e+05	
63	-3.15000e+00	4.547876e+05	
64	-3.20000e+00	4.672166e+05	
65	-3.25000e+00	4.796021e+05	
66	-3.30000e+00	4.919446e+05	
Reset re-loads circuit ***************************

Circuit: ***************************

Note: No ".plot", ".print", or ".fourier" lines; no simulations run
