
Note: Compatibility modes selected: hs

Warning: m=xx on .subckt line will override multiplier m hierarchy!


Circuit: ***************************

Doing analysis at TEMP = -40.000000 and TNOM = -40.000000


No. of Data Rows : 67
                          ***************************
                          DC transfer characteristic  Mon Jan  9 13:58:26  2023
--------------------------------------------------------------------------------
Index   v-sweep         rds             
--------------------------------------------------------------------------------
0	0.000000e+00	1.727912e+06	
1	-5.00000e-02	1.608465e+07	
2	-1.00000e-01	1.135851e+08	
3	-1.50000e-01	2.511447e+08	
4	-2.00000e-01	3.444025e+08	
5	-2.50000e-01	4.024853e+08	
6	-3.00000e-01	4.427041e+08	
7	-3.50000e-01	4.735861e+08	
8	-4.00000e-01	4.989973e+08	
9	-4.50000e-01	5.208168e+08	
10	-5.00000e-01	5.400496e+08	
11	-5.50000e-01	5.572867e+08	
12	-6.00000e-01	5.729061e+08	
13	-6.50000e-01	5.871679e+08	
14	-7.00000e-01	6.002620e+08	
15	-7.50000e-01	6.123338e+08	
16	-8.00000e-01	6.234989e+08	
17	-8.50000e-01	6.338520e+08	
18	-9.00000e-01	6.434724e+08	
19	-9.50000e-01	6.524277e+08	
20	-1.00000e+00	6.607763e+08	
21	-1.05000e+00	6.685692e+08	
22	-1.10000e+00	6.758513e+08	
23	-1.15000e+00	6.826626e+08	
24	-1.20000e+00	6.890388e+08	
25	-1.25000e+00	6.950119e+08	
26	-1.30000e+00	7.006107e+08	
27	-1.35000e+00	7.058613e+08	
28	-1.40000e+00	7.107876e+08	
29	-1.45000e+00	7.154110e+08	
30	-1.50000e+00	7.197512e+08	
31	-1.55000e+00	7.238260e+08	
32	-1.60000e+00	7.276519e+08	
33	-1.65000e+00	7.312436e+08	
34	-1.70000e+00	7.346143e+08	
35	-1.75000e+00	7.377760e+08	
36	-1.80000e+00	7.407389e+08	
37	-1.85000e+00	7.435118e+08	
38	-1.90000e+00	7.461017e+08	
39	-1.95000e+00	7.485138e+08	
40	-2.00000e+00	7.507511e+08	
41	-2.05000e+00	7.528142e+08	
42	-2.10000e+00	7.547013e+08	
43	-2.15000e+00	7.564075e+08	
44	-2.20000e+00	7.579246e+08	
45	-2.25000e+00	7.592411e+08	
46	-2.30000e+00	7.603412e+08	
47	-2.35000e+00	7.612055e+08	
48	-2.40000e+00	7.618097e+08	
49	-2.45000e+00	7.621251e+08	
50	-2.50000e+00	7.621184e+08	
51	-2.55000e+00	7.617516e+08	
52	-2.60000e+00	7.609819e+08	
53	-2.65000e+00	7.597625e+08	
54	-2.70000e+00	7.580425e+08	

Index   v-sweep         rds             
--------------------------------------------------------------------------------
55	-2.75000e+00	7.557680e+08	
56	-2.80000e+00	7.528825e+08	
57	-2.85000e+00	7.493283e+08	
58	-2.90000e+00	7.450474e+08	
59	-2.95000e+00	7.399834e+08	
60	-3.00000e+00	7.340827e+08	
61	-3.05000e+00	7.272966e+08	
62	-3.10000e+00	7.195830e+08	
63	-3.15000e+00	7.109080e+08	
64	-3.20000e+00	7.012482e+08	
65	-3.25000e+00	6.905919e+08	
66	-3.30000e+00	6.789407e+08	
Reset re-loads circuit ***************************

Circuit: ***************************

Doing analysis at TEMP = -40.000000 and TNOM = -40.000000


No. of Data Rows : 67
                          ***************************
                          DC transfer characteristic  Mon Jan  9 13:58:26  2023
--------------------------------------------------------------------------------
Index   v-sweep         rds             
--------------------------------------------------------------------------------
0	0.000000e+00	2.507405e+04	
1	-5.00000e-02	2.890442e+04	
2	-1.00000e-01	3.403475e+04	
3	-1.50000e-01	4.124630e+04	
4	-2.00000e-01	5.206793e+04	
5	-2.50000e-01	6.983184e+04	
6	-3.00000e-01	1.026425e+05	
7	-3.50000e-01	1.707356e+05	
8	-4.00000e-01	3.108694e+05	
9	-4.50000e-01	5.332946e+05	
10	-5.00000e-01	7.778147e+05	
11	-5.50000e-01	9.921367e+05	
12	-6.00000e-01	1.170709e+06	
13	-6.50000e-01	1.323925e+06	
14	-7.00000e-01	1.460946e+06	
15	-7.50000e-01	1.587500e+06	
16	-8.00000e-01	1.706934e+06	
17	-8.50000e-01	1.821218e+06	
18	-9.00000e-01	1.931548e+06	
19	-9.50000e-01	2.038677e+06	
20	-1.00000e+00	2.143101e+06	
21	-1.05000e+00	2.245158e+06	
22	-1.10000e+00	2.345089e+06	
23	-1.15000e+00	2.443069e+06	
24	-1.20000e+00	2.539232e+06	
25	-1.25000e+00	2.633685e+06	
26	-1.30000e+00	2.726513e+06	
27	-1.35000e+00	2.817785e+06	
28	-1.40000e+00	2.907563e+06	
29	-1.45000e+00	2.995899e+06	
30	-1.50000e+00	3.082839e+06	
31	-1.55000e+00	3.168425e+06	
32	-1.60000e+00	3.252695e+06	
33	-1.65000e+00	3.335683e+06	
34	-1.70000e+00	3.417422e+06	
35	-1.75000e+00	3.497942e+06	
36	-1.80000e+00	3.577271e+06	
37	-1.85000e+00	3.655435e+06	
38	-1.90000e+00	3.732457e+06	
39	-1.95000e+00	3.808357e+06	
40	-2.00000e+00	3.883152e+06	
41	-2.05000e+00	3.956851e+06	
42	-2.10000e+00	4.029458e+06	
43	-2.15000e+00	4.100965e+06	
44	-2.20000e+00	4.171348e+06	
45	-2.25000e+00	4.240568e+06	
46	-2.30000e+00	4.308559e+06	
47	-2.35000e+00	4.375224e+06	
48	-2.40000e+00	4.440427e+06	
49	-2.45000e+00	4.503985e+06	
50	-2.50000e+00	4.565657e+06	
51	-2.55000e+00	4.625136e+06	
52	-2.60000e+00	4.682037e+06	
53	-2.65000e+00	4.735886e+06	
54	-2.70000e+00	4.786114e+06	

Index   v-sweep         rds             
--------------------------------------------------------------------------------
55	-2.75000e+00	4.832048e+06	
56	-2.80000e+00	4.872908e+06	
57	-2.85000e+00	4.907806e+06	
58	-2.90000e+00	4.935755e+06	
59	-2.95000e+00	4.955680e+06	
60	-3.00000e+00	4.966439e+06	
61	-3.05000e+00	4.966860e+06	
62	-3.10000e+00	4.955775e+06	
63	-3.15000e+00	4.932080e+06	
64	-3.20000e+00	4.894785e+06	
65	-3.25000e+00	4.843083e+06	
66	-3.30000e+00	4.776411e+06	
Reset re-loads circuit ***************************

Circuit: ***************************

Doing analysis at TEMP = -40.000000 and TNOM = -40.000000


No. of Data Rows : 67
                          ***************************
                          DC transfer characteristic  Mon Jan  9 13:58:26  2023
--------------------------------------------------------------------------------
Index   v-sweep         rds             
--------------------------------------------------------------------------------
0	0.000000e+00	1.245757e+04	
1	-5.00000e-02	1.332438e+04	
2	-1.00000e-01	1.430996e+04	
3	-1.50000e-01	1.544041e+04	
4	-2.00000e-01	1.675001e+04	
5	-2.50000e-01	1.828474e+04	
6	-3.00000e-01	2.010761e+04	
7	-3.50000e-01	2.230723e+04	
8	-4.00000e-01	2.501201e+04	
9	-4.50000e-01	2.841437e+04	
10	-5.00000e-01	3.281400e+04	
11	-5.50000e-01	3.869756e+04	
12	-6.00000e-01	4.688744e+04	
13	-6.50000e-01	5.880668e+04	
14	-7.00000e-01	7.683991e+04	
15	-7.50000e-01	1.042965e+05	
16	-8.00000e-01	1.434309e+05	
17	-8.50000e-01	1.915912e+05	
18	-9.00000e-01	2.418666e+05	
19	-9.50000e-01	2.890928e+05	
20	-1.00000e+00	3.320154e+05	
21	-1.05000e+00	3.713276e+05	
22	-1.10000e+00	4.080269e+05	
23	-1.15000e+00	4.428952e+05	
24	-1.20000e+00	4.764599e+05	
25	-1.25000e+00	5.090632e+05	
26	-1.30000e+00	5.409266e+05	
27	-1.35000e+00	5.721957e+05	
28	-1.40000e+00	6.029688e+05	
29	-1.45000e+00	6.333136e+05	
30	-1.50000e+00	6.632779e+05	
31	-1.55000e+00	6.928966e+05	
32	-1.60000e+00	7.221956e+05	
33	-1.65000e+00	7.511947e+05	
34	-1.70000e+00	7.799091e+05	
35	-1.75000e+00	8.083511e+05	
36	-1.80000e+00	8.365309e+05	
37	-1.85000e+00	8.644566e+05	
38	-1.90000e+00	8.921353e+05	
39	-1.95000e+00	9.195732e+05	
40	-2.00000e+00	9.467754e+05	
41	-2.05000e+00	9.737467e+05	
42	-2.10000e+00	1.000491e+06	
43	-2.15000e+00	1.027013e+06	
44	-2.20000e+00	1.053315e+06	
45	-2.25000e+00	1.079401e+06	
46	-2.30000e+00	1.105272e+06	
47	-2.35000e+00	1.130930e+06	
48	-2.40000e+00	1.156375e+06	
49	-2.45000e+00	1.181606e+06	
50	-2.50000e+00	1.206617e+06	
51	-2.55000e+00	1.231402e+06	
52	-2.60000e+00	1.255946e+06	
53	-2.65000e+00	1.280231e+06	
54	-2.70000e+00	1.304226e+06	

Index   v-sweep         rds             
--------------------------------------------------------------------------------
55	-2.75000e+00	1.327892e+06	
56	-2.80000e+00	1.351173e+06	
57	-2.85000e+00	1.373994e+06	
58	-2.90000e+00	1.396261e+06	
59	-2.95000e+00	1.417850e+06	
60	-3.00000e+00	1.438608e+06	
61	-3.05000e+00	1.458348e+06	
62	-3.10000e+00	1.476842e+06	
63	-3.15000e+00	1.493824e+06	
64	-3.20000e+00	1.508981e+06	
65	-3.25000e+00	1.521961e+06	
66	-3.30000e+00	1.532371e+06	
Reset re-loads circuit ***************************

Circuit: ***************************

Doing analysis at TEMP = -40.000000 and TNOM = -40.000000


No. of Data Rows : 67
                          ***************************
                          DC transfer characteristic  Mon Jan  9 13:58:26  2023
--------------------------------------------------------------------------------
Index   v-sweep         rds             
--------------------------------------------------------------------------------
0	0.000000e+00	9.015910e+03	
1	-5.00000e-02	9.433770e+03	
2	-1.00000e-01	9.887975e+03	
3	-1.50000e-01	1.038346e+04	
4	-2.00000e-01	1.092608e+04	
5	-2.50000e-01	1.152288e+04	
6	-3.00000e-01	1.218235e+04	
7	-3.50000e-01	1.291485e+04	
8	-4.00000e-01	1.373316e+04	
9	-4.50000e-01	1.465321e+04	
10	-5.00000e-01	1.569509e+04	
11	-5.50000e-01	1.688452e+04	
12	-6.00000e-01	1.825491e+04	
13	-6.50000e-01	1.985044e+04	
14	-7.00000e-01	2.173060e+04	
15	-7.50000e-01	2.397718e+04	
16	-8.00000e-01	2.670522e+04	
17	-8.50000e-01	3.008015e+04	
18	-9.00000e-01	3.434488e+04	
19	-9.50000e-01	3.986042e+04	
20	-1.00000e+00	4.715794e+04	
21	-1.05000e+00	5.697069e+04	
22	-1.10000e+00	7.013131e+04	
23	-1.15000e+00	8.713387e+04	
24	-1.20000e+00	1.074455e+05	
25	-1.25000e+00	1.294343e+05	
26	-1.30000e+00	1.513811e+05	
27	-1.35000e+00	1.723664e+05	
28	-1.40000e+00	1.922200e+05	
29	-1.45000e+00	2.111050e+05	
30	-1.50000e+00	2.292455e+05	
31	-1.55000e+00	2.468297e+05	
32	-1.60000e+00	2.639951e+05	
33	-1.65000e+00	2.808370e+05	
34	-1.70000e+00	2.974211e+05	
35	-1.75000e+00	3.137925e+05	
36	-1.80000e+00	3.299829e+05	
37	-1.85000e+00	3.460148e+05	
38	-1.90000e+00	3.619045e+05	
39	-1.95000e+00	3.776641e+05	
40	-2.00000e+00	3.933026e+05	
41	-2.05000e+00	4.088270e+05	
42	-2.10000e+00	4.242428e+05	
43	-2.15000e+00	4.395543e+05	
44	-2.20000e+00	4.547650e+05	
45	-2.25000e+00	4.698778e+05	
46	-2.30000e+00	4.848952e+05	
47	-2.35000e+00	4.998191e+05	
48	-2.40000e+00	5.146514e+05	
49	-2.45000e+00	5.293937e+05	
50	-2.50000e+00	5.440473e+05	
51	-2.55000e+00	5.586134e+05	
52	-2.60000e+00	5.730928e+05	
53	-2.65000e+00	5.874864e+05	
54	-2.70000e+00	6.017943e+05	

Index   v-sweep         rds             
--------------------------------------------------------------------------------
55	-2.75000e+00	6.160163e+05	
56	-2.80000e+00	6.301512e+05	
57	-2.85000e+00	6.441967e+05	
58	-2.90000e+00	6.581486e+05	
59	-2.95000e+00	6.720002e+05	
60	-3.00000e+00	6.857412e+05	
61	-3.05000e+00	6.993569e+05	
62	-3.10000e+00	7.128264e+05	
63	-3.15000e+00	7.261207e+05	
64	-3.20000e+00	7.392014e+05	
65	-3.25000e+00	7.520177e+05	
66	-3.30000e+00	7.645045e+05	
Reset re-loads circuit ***************************

Circuit: ***************************

Doing analysis at TEMP = -40.000000 and TNOM = -40.000000


No. of Data Rows : 67
                          ***************************
                          DC transfer characteristic  Mon Jan  9 13:58:26  2023
--------------------------------------------------------------------------------
Index   v-sweep         rds             
--------------------------------------------------------------------------------
0	0.000000e+00	7.431989e+03	
1	-5.00000e-02	7.692535e+03	
2	-1.00000e-01	7.969720e+03	
3	-1.50000e-01	8.265182e+03	
4	-2.00000e-01	8.580776e+03	
5	-2.50000e-01	8.918621e+03	
6	-3.00000e-01	9.281139e+03	
7	-3.50000e-01	9.671121e+03	
8	-4.00000e-01	1.009179e+04	
9	-4.50000e-01	1.054691e+04	
10	-5.00000e-01	1.104084e+04	
11	-5.50000e-01	1.157877e+04	
12	-6.00000e-01	1.216681e+04	
13	-6.50000e-01	1.281226e+04	
14	-7.00000e-01	1.352390e+04	
15	-7.50000e-01	1.431240e+04	
16	-8.00000e-01	1.519082e+04	
17	-8.50000e-01	1.617535e+04	
18	-9.00000e-01	1.728622e+04	
19	-9.50000e-01	1.854910e+04	
20	-1.00000e+00	1.999693e+04	
21	-1.05000e+00	2.167260e+04	
22	-1.10000e+00	2.363279e+04	
23	-1.15000e+00	2.595341e+04	
24	-1.20000e+00	2.873750e+04	
25	-1.25000e+00	3.212585e+04	
26	-1.30000e+00	3.631001e+04	
27	-1.35000e+00	4.154294e+04	
28	-1.40000e+00	4.813174e+04	
29	-1.45000e+00	5.637769e+04	
30	-1.50000e+00	6.642565e+04	
31	-1.55000e+00	7.807035e+04	
32	-1.60000e+00	9.072786e+04	
33	-1.65000e+00	1.037026e+05	
34	-1.70000e+00	1.165029e+05	
35	-1.75000e+00	1.289227e+05	
36	-1.80000e+00	1.409428e+05	
37	-1.85000e+00	1.526189e+05	
38	-1.90000e+00	1.640194e+05	
39	-1.95000e+00	1.752037e+05	
40	-2.00000e+00	1.862169e+05	
41	-2.05000e+00	1.970917e+05	
42	-2.10000e+00	2.078521e+05	
43	-2.15000e+00	2.185148e+05	
44	-2.20000e+00	2.290922e+05	
45	-2.25000e+00	2.395932e+05	
46	-2.30000e+00	2.500247e+05	
47	-2.35000e+00	2.603915e+05	
48	-2.40000e+00	2.706977e+05	
49	-2.45000e+00	2.809460e+05	
50	-2.50000e+00	2.911391e+05	
51	-2.55000e+00	3.012786e+05	
52	-2.60000e+00	3.113663e+05	
53	-2.65000e+00	3.214033e+05	
54	-2.70000e+00	3.313908e+05	

Index   v-sweep         rds             
--------------------------------------------------------------------------------
55	-2.75000e+00	3.413296e+05	
56	-2.80000e+00	3.512205e+05	
57	-2.85000e+00	3.610643e+05	
58	-2.90000e+00	3.708614e+05	
59	-2.95000e+00	3.806123e+05	
60	-3.00000e+00	3.903173e+05	
61	-3.05000e+00	3.999765e+05	
62	-3.10000e+00	4.095894e+05	
63	-3.15000e+00	4.191555e+05	
64	-3.20000e+00	4.286729e+05	
65	-3.25000e+00	4.381391e+05	
66	-3.30000e+00	4.475498e+05	
Reset re-loads circuit ***************************

Circuit: ***************************

Doing analysis at TEMP = -40.000000 and TNOM = -40.000000


No. of Data Rows : 67
                          ***************************
                          DC transfer characteristic  Mon Jan  9 13:58:26  2023
--------------------------------------------------------------------------------
Index   v-sweep         rds             
--------------------------------------------------------------------------------
0	0.000000e+00	6.439480e+03	
1	-5.00000e-02	6.619617e+03	
2	-1.00000e-01	6.808725e+03	
3	-1.50000e-01	7.007486e+03	
4	-2.00000e-01	7.216650e+03	
5	-2.50000e-01	7.437051e+03	
6	-3.00000e-01	7.669611e+03	
7	-3.50000e-01	7.915357e+03	
8	-4.00000e-01	8.175436e+03	
9	-4.50000e-01	8.451129e+03	
10	-5.00000e-01	8.743878e+03	
11	-5.50000e-01	9.055305e+03	
12	-6.00000e-01	9.387246e+03	
13	-6.50000e-01	9.741784e+03	
14	-7.00000e-01	1.012129e+04	
15	-7.50000e-01	1.052850e+04	
16	-8.00000e-01	1.096652e+04	
17	-8.50000e-01	1.143898e+04	
18	-9.00000e-01	1.195007e+04	
19	-9.50000e-01	1.250472e+04	
20	-1.00000e+00	1.310870e+04	
21	-1.05000e+00	1.376885e+04	
22	-1.10000e+00	1.449333e+04	
23	-1.15000e+00	1.529193e+04	
24	-1.20000e+00	1.617653e+04	
25	-1.25000e+00	1.716162e+04	
26	-1.30000e+00	1.826510e+04	
27	-1.35000e+00	1.950924e+04	
28	-1.40000e+00	2.092206e+04	
29	-1.45000e+00	2.253913e+04	
30	-1.50000e+00	2.440606e+04	
31	-1.55000e+00	2.658166e+04	
32	-1.60000e+00	2.914185e+04	
33	-1.65000e+00	3.218380e+04	
34	-1.70000e+00	3.582822e+04	
35	-1.75000e+00	4.021503e+04	
36	-1.80000e+00	4.548279e+04	
37	-1.85000e+00	5.172135e+04	
38	-1.90000e+00	5.890356e+04	
39	-1.95000e+00	6.684322e+04	
40	-2.00000e+00	7.524086e+04	
41	-2.05000e+00	8.380137e+04	
42	-2.10000e+00	9.232538e+04	
43	-2.15000e+00	1.007204e+05	
44	-2.20000e+00	1.089645e+05	
45	-2.25000e+00	1.170684e+05	
46	-2.30000e+00	1.250527e+05	
47	-2.35000e+00	1.329378e+05	
48	-2.40000e+00	1.407407e+05	
49	-2.45000e+00	1.484745e+05	
50	-2.50000e+00	1.561492e+05	
51	-2.55000e+00	1.637721e+05	
52	-2.60000e+00	1.713489e+05	
53	-2.65000e+00	1.788835e+05	
54	-2.70000e+00	1.863792e+05	

Index   v-sweep         rds             
--------------------------------------------------------------------------------
55	-2.75000e+00	1.938382e+05	
56	-2.80000e+00	2.012626e+05	
57	-2.85000e+00	2.086537e+05	
58	-2.90000e+00	2.160128e+05	
59	-2.95000e+00	2.233406e+05	
60	-3.00000e+00	2.306381e+05	
61	-3.05000e+00	2.379058e+05	
62	-3.10000e+00	2.451442e+05	
63	-3.15000e+00	2.523539e+05	
64	-3.20000e+00	2.595351e+05	
65	-3.25000e+00	2.666883e+05	
66	-3.30000e+00	2.738136e+05	
Reset re-loads circuit ***************************

Circuit: ***************************

Note: No ".plot", ".print", or ".fourier" lines; no simulations run
