
Note: Compatibility modes selected: hs

Warning: m=xx on .subckt line will override multiplier m hierarchy!


Circuit: ***************************

Doing analysis at TEMP = 125.000000 and TNOM = 125.000000


No. of Data Rows : 67
                          ***************************
                          DC transfer characteristic  Mon Jan  9 13:58:26  2023
--------------------------------------------------------------------------------
Index   v-sweep         rds             
--------------------------------------------------------------------------------
0	0.000000e+00	5.687933e+06	
1	-5.00000e-02	9.290606e+06	
2	-1.00000e-01	2.124369e+07	
3	-1.50000e-01	8.107726e+07	
4	-2.00000e-01	3.323510e+08	
5	-2.50000e-01	9.916727e+08	
6	-3.00000e-01	2.209040e+09	
7	-3.50000e-01	3.988397e+09	
8	-4.00000e-01	6.197635e+09	
9	-4.50000e-01	8.640400e+09	
10	-5.00000e-01	1.113237e+10	
11	-5.50000e-01	1.354215e+10	
12	-6.00000e-01	1.579595e+10	
13	-6.50000e-01	1.786397e+10	
14	-7.00000e-01	1.974378e+10	
15	-7.50000e-01	2.144725e+10	
16	-8.00000e-01	2.299220e+10	
17	-8.50000e-01	2.439772e+10	
18	-9.00000e-01	2.568193e+10	
19	-9.50000e-01	2.686100e+10	
20	-1.00000e+00	2.794891e+10	
21	-1.05000e+00	2.895755e+10	
22	-1.10000e+00	2.989696e+10	
23	-1.15000e+00	3.077557e+10	
24	-1.20000e+00	3.160049e+10	
25	-1.25000e+00	3.237772e+10	
26	-1.30000e+00	3.311234e+10	
27	-1.35000e+00	3.380867e+10	
28	-1.40000e+00	3.447040e+10	
29	-1.45000e+00	3.510073e+10	
30	-1.50000e+00	3.570240e+10	
31	-1.55000e+00	3.627781e+10	
32	-1.60000e+00	3.682904e+10	
33	-1.65000e+00	3.735793e+10	
34	-1.70000e+00	3.786608e+10	
35	-1.75000e+00	3.835487e+10	
36	-1.80000e+00	3.882553e+10	
37	-1.85000e+00	3.927908e+10	
38	-1.90000e+00	3.971639e+10	
39	-1.95000e+00	4.013811e+10	
40	-2.00000e+00	4.054474e+10	
41	-2.05000e+00	4.093652e+10	
42	-2.10000e+00	4.131348e+10	
43	-2.15000e+00	4.167536e+10	
44	-2.20000e+00	4.202159e+10	
45	-2.25000e+00	4.235126e+10	
46	-2.30000e+00	4.266308e+10	
47	-2.35000e+00	4.295530e+10	
48	-2.40000e+00	4.322573e+10	
49	-2.45000e+00	4.347165e+10	
50	-2.50000e+00	4.368984e+10	
51	-2.55000e+00	4.387649e+10	
52	-2.60000e+00	4.402730e+10	
53	-2.65000e+00	4.413741e+10	
54	-2.70000e+00	4.420150e+10	

Index   v-sweep         rds             
--------------------------------------------------------------------------------
55	-2.75000e+00	4.421387e+10	
56	-2.80000e+00	4.416851e+10	
57	-2.85000e+00	4.405929e+10	
58	-2.90000e+00	4.388012e+10	
59	-2.95000e+00	4.362516e+10	
60	-3.00000e+00	4.328909e+10	
61	-3.05000e+00	4.286733e+10	
62	-3.10000e+00	4.235631e+10	
63	-3.15000e+00	4.175377e+10	
64	-3.20000e+00	4.105890e+10	
65	-3.25000e+00	4.027259e+10	
66	-3.30000e+00	3.939747e+10	
Reset re-loads circuit ***************************

Circuit: ***************************

Doing analysis at TEMP = 125.000000 and TNOM = 125.000000


No. of Data Rows : 67
                          ***************************
                          DC transfer characteristic  Mon Jan  9 13:58:26  2023
--------------------------------------------------------------------------------
Index   v-sweep         rds             
--------------------------------------------------------------------------------
0	0.000000e+00	1.275875e+06	
1	-5.00000e-02	1.437294e+06	
2	-1.00000e-01	1.645163e+06	
3	-1.50000e-01	1.922622e+06	
4	-2.00000e-01	2.310801e+06	
5	-2.50000e-01	2.889453e+06	
6	-3.00000e-01	3.831046e+06	
7	-3.50000e-01	5.559128e+06	
8	-4.00000e-01	9.240028e+06	
9	-4.50000e-01	1.812511e+07	
10	-5.00000e-01	3.965344e+07	
11	-5.50000e-01	8.533399e+07	
12	-6.00000e-01	1.661701e+08	
13	-6.50000e-01	2.873863e+08	
14	-7.00000e-01	4.464538e+08	
15	-7.50000e-01	6.348201e+08	
16	-8.00000e-01	8.414591e+08	
17	-8.50000e-01	1.056035e+09	
18	-9.00000e-01	1.270592e+09	
19	-9.50000e-01	1.479883e+09	
20	-1.00000e+00	1.680948e+09	
21	-1.05000e+00	1.872463e+09	
22	-1.10000e+00	2.054147e+09	
23	-1.15000e+00	2.226318e+09	
24	-1.20000e+00	2.389598e+09	
25	-1.25000e+00	2.544733e+09	
26	-1.30000e+00	2.692485e+09	
27	-1.35000e+00	2.833581e+09	
28	-1.40000e+00	2.968686e+09	
29	-1.45000e+00	3.098394e+09	
30	-1.50000e+00	3.223229e+09	
31	-1.55000e+00	3.343650e+09	
32	-1.60000e+00	3.460056e+09	
33	-1.65000e+00	3.572795e+09	
34	-1.70000e+00	3.682171e+09	
35	-1.75000e+00	3.788447e+09	
36	-1.80000e+00	3.891855e+09	
37	-1.85000e+00	3.992597e+09	
38	-1.90000e+00	4.090850e+09	
39	-1.95000e+00	4.186771e+09	
40	-2.00000e+00	4.280494e+09	
41	-2.05000e+00	4.372136e+09	
42	-2.10000e+00	4.461795e+09	
43	-2.15000e+00	4.549547e+09	
44	-2.20000e+00	4.635450e+09	
45	-2.25000e+00	4.719534e+09	
46	-2.30000e+00	4.801799e+09	
47	-2.35000e+00	4.882209e+09	
48	-2.40000e+00	4.960686e+09	
49	-2.45000e+00	5.037095e+09	
50	-2.50000e+00	5.111241e+09	
51	-2.55000e+00	5.182851e+09	
52	-2.60000e+00	5.251566e+09	
53	-2.65000e+00	5.316928e+09	
54	-2.70000e+00	5.378363e+09	

Index   v-sweep         rds             
--------------------------------------------------------------------------------
55	-2.75000e+00	5.435180e+09	
56	-2.80000e+00	5.486552e+09	
57	-2.85000e+00	5.531523e+09	
58	-2.90000e+00	5.569003e+09	
59	-2.95000e+00	5.597783e+09	
60	-3.00000e+00	5.616554e+09	
61	-3.05000e+00	5.623935e+09	
62	-3.10000e+00	5.618526e+09	
63	-3.15000e+00	5.598957e+09	
64	-3.20000e+00	5.563958e+09	
65	-3.25000e+00	5.512438e+09	
66	-3.30000e+00	5.443566e+09	
Reset re-loads circuit ***************************

Circuit: ***************************

Doing analysis at TEMP = 125.000000 and TNOM = 125.000000


No. of Data Rows : 67
                          ***************************
                          DC transfer characteristic  Mon Jan  9 13:58:26  2023
--------------------------------------------------------------------------------
Index   v-sweep         rds             
--------------------------------------------------------------------------------
0	0.000000e+00	7.306040e+05	
1	-5.00000e-02	7.799554e+05	
2	-1.00000e-01	8.364312e+05	
3	-1.50000e-01	9.016899e+05	
4	-2.00000e-01	9.779457e+05	
5	-2.50000e-01	1.068221e+06	
6	-3.00000e-01	1.176747e+06	
7	-3.50000e-01	1.309627e+06	
8	-4.00000e-01	1.475980e+06	
9	-4.50000e-01	1.690008e+06	
10	-5.00000e-01	1.974950e+06	
11	-5.50000e-01	2.371122e+06	
12	-6.00000e-01	2.953355e+06	
13	-6.50000e-01	3.871083e+06	
14	-7.00000e-01	5.442918e+06	
15	-7.50000e-01	8.367089e+06	
16	-8.00000e-01	1.408726e+07	
17	-8.50000e-01	2.509700e+07	
18	-9.00000e-01	4.460816e+07	
19	-9.50000e-01	7.540607e+07	
20	-1.00000e+00	1.186530e+08	
21	-1.05000e+00	1.734666e+08	
22	-1.10000e+00	2.373908e+08	
23	-1.15000e+00	3.073031e+08	
24	-1.20000e+00	3.802293e+08	
25	-1.25000e+00	4.538027e+08	
26	-1.30000e+00	5.263822e+08	
27	-1.35000e+00	5.969680e+08	
28	-1.40000e+00	6.650421e+08	
29	-1.45000e+00	7.304122e+08	
30	-1.50000e+00	7.930864e+08	
31	-1.55000e+00	8.531858e+08	
32	-1.60000e+00	9.108871e+08	
33	-1.65000e+00	9.663873e+08	
34	-1.70000e+00	1.019884e+09	
35	-1.75000e+00	1.071562e+09	
36	-1.80000e+00	1.121595e+09	
37	-1.85000e+00	1.170134e+09	
38	-1.90000e+00	1.217315e+09	
39	-1.95000e+00	1.263260e+09	
40	-2.00000e+00	1.308073e+09	
41	-2.05000e+00	1.351847e+09	
42	-2.10000e+00	1.394661e+09	
43	-2.15000e+00	1.436588e+09	
44	-2.20000e+00	1.477689e+09	
45	-2.25000e+00	1.518019e+09	
46	-2.30000e+00	1.557624e+09	
47	-2.35000e+00	1.596545e+09	
48	-2.40000e+00	1.634817e+09	
49	-2.45000e+00	1.672467e+09	
50	-2.50000e+00	1.709514e+09	
51	-2.55000e+00	1.745971e+09	
52	-2.60000e+00	1.781838e+09	
53	-2.65000e+00	1.817103e+09	
54	-2.70000e+00	1.851737e+09	

Index   v-sweep         rds             
--------------------------------------------------------------------------------
55	-2.75000e+00	1.885692e+09	
56	-2.80000e+00	1.918897e+09	
57	-2.85000e+00	1.951248e+09	
58	-2.90000e+00	1.982608e+09	
59	-2.95000e+00	2.012799e+09	
60	-3.00000e+00	2.041594e+09	
61	-3.05000e+00	2.068714e+09	
62	-3.10000e+00	2.093820e+09	
63	-3.15000e+00	2.116512e+09	
64	-3.20000e+00	2.136327e+09	
65	-3.25000e+00	2.152741e+09	
66	-3.30000e+00	2.165177e+09	
Reset re-loads circuit ***************************

Circuit: ***************************

Doing analysis at TEMP = 125.000000 and TNOM = 125.000000


No. of Data Rows : 67
                          ***************************
                          DC transfer characteristic  Mon Jan  9 13:58:26  2023
--------------------------------------------------------------------------------
Index   v-sweep         rds             
--------------------------------------------------------------------------------
0	0.000000e+00	5.231257e+05	
1	-5.00000e-02	5.468399e+05	
2	-1.00000e-01	5.727976e+05	
3	-1.50000e-01	6.013328e+05	
4	-2.00000e-01	6.328489e+05	
5	-2.50000e-01	6.678380e+05	
6	-3.00000e-01	7.069064e+05	
7	-3.50000e-01	7.508103e+05	
8	-4.00000e-01	8.005037e+05	
9	-4.50000e-01	8.572085e+05	
10	-5.00000e-01	9.225138e+05	
11	-5.50000e-01	9.985245e+05	
12	-6.00000e-01	1.088086e+06	
13	-6.50000e-01	1.195133e+06	
14	-7.00000e-01	1.325262e+06	
15	-7.50000e-01	1.486671e+06	
16	-8.00000e-01	1.691813e+06	
17	-8.50000e-01	1.960385e+06	
18	-9.00000e-01	2.325007e+06	
19	-9.50000e-01	2.842434e+06	
20	-1.00000e+00	3.616286e+06	
21	-1.05000e+00	4.842724e+06	
22	-1.10000e+00	6.894708e+06	
23	-1.15000e+00	1.044367e+07	
24	-1.20000e+00	1.654447e+07	
25	-1.25000e+00	2.652159e+07	
26	-1.30000e+00	4.158061e+07	
27	-1.35000e+00	6.234003e+07	
28	-1.40000e+00	8.859018e+07	
29	-1.45000e+00	1.194005e+08	
30	-1.50000e+00	1.534540e+08	
31	-1.55000e+00	1.894009e+08	
32	-1.60000e+00	2.260951e+08	
33	-1.65000e+00	2.626877e+08	
34	-1.70000e+00	2.986197e+08	
35	-1.75000e+00	3.335665e+08	
36	-1.80000e+00	3.673722e+08	
37	-1.85000e+00	3.999917e+08	
38	-1.90000e+00	4.314476e+08	
39	-1.95000e+00	4.617998e+08	
40	-2.00000e+00	4.911262e+08	
41	-2.05000e+00	5.195105e+08	
42	-2.10000e+00	5.470353e+08	
43	-2.15000e+00	5.737787e+08	
44	-2.20000e+00	5.998119e+08	
45	-2.25000e+00	6.251994e+08	
46	-2.30000e+00	6.499982e+08	
47	-2.35000e+00	6.742592e+08	
48	-2.40000e+00	6.980270e+08	
49	-2.45000e+00	7.213409e+08	
50	-2.50000e+00	7.442353e+08	
51	-2.55000e+00	7.667406e+08	
52	-2.60000e+00	7.888834e+08	
53	-2.65000e+00	8.106865e+08	
54	-2.70000e+00	8.321700e+08	

Index   v-sweep         rds             
--------------------------------------------------------------------------------
55	-2.75000e+00	8.533503e+08	
56	-2.80000e+00	8.742406e+08	
57	-2.85000e+00	8.948504e+08	
58	-2.90000e+00	9.151845e+08	
59	-2.95000e+00	9.352423e+08	
60	-3.00000e+00	9.550163e+08	
61	-3.05000e+00	9.744906e+08	
62	-3.10000e+00	9.936383e+08	
63	-3.15000e+00	1.012419e+09	
64	-3.20000e+00	1.030777e+09	
65	-3.25000e+00	1.048635e+09	
66	-3.30000e+00	1.065894e+09	
Reset re-loads circuit ***************************

Circuit: ***************************

Doing analysis at TEMP = 125.000000 and TNOM = 125.000000


No. of Data Rows : 67
                          ***************************
                          DC transfer characteristic  Mon Jan  9 13:58:26  2023
--------------------------------------------------------------------------------
Index   v-sweep         rds             
--------------------------------------------------------------------------------
0	0.000000e+00	4.136205e+05	
1	-5.00000e-02	4.275479e+05	
2	-1.00000e-01	4.424414e+05	
3	-1.50000e-01	4.584053e+05	
4	-2.00000e-01	4.755592e+05	
5	-2.50000e-01	4.940411e+05	
6	-3.00000e-01	5.140114e+05	
7	-3.50000e-01	5.356573e+05	
8	-4.00000e-01	5.591985e+05	
9	-4.50000e-01	5.848952e+05	
10	-5.00000e-01	6.130571e+05	
11	-5.50000e-01	6.440561e+05	
12	-6.00000e-01	6.783427e+05	
13	-6.50000e-01	7.164678e+05	
14	-7.00000e-01	7.591120e+05	
15	-7.50000e-01	8.071259e+05	
16	-8.00000e-01	8.615866e+05	
17	-8.50000e-01	9.238771e+05	
18	-9.00000e-01	9.958021e+05	
19	-9.50000e-01	1.079759e+06	
20	-1.00000e+00	1.178999e+06	
21	-1.05000e+00	1.298028e+06	
22	-1.10000e+00	1.443262e+06	
23	-1.15000e+00	1.624100e+06	
24	-1.20000e+00	1.854763e+06	
25	-1.25000e+00	2.157552e+06	
26	-1.30000e+00	2.568738e+06	
27	-1.35000e+00	3.149423e+06	
28	-1.40000e+00	4.005275e+06	
29	-1.45000e+00	5.320097e+06	
30	-1.50000e+00	7.403748e+06	
31	-1.55000e+00	1.073546e+07	
32	-1.60000e+00	1.595074e+07	
33	-1.65000e+00	2.371785e+07	
34	-1.70000e+00	3.452552e+07	
35	-1.75000e+00	4.849834e+07	
36	-1.80000e+00	6.535057e+07	
37	-1.85000e+00	8.449005e+07	
38	-1.90000e+00	1.051945e+08	
39	-1.95000e+00	1.267704e+08	
40	-2.00000e+00	1.486484e+08	
41	-2.05000e+00	1.704138e+08	
42	-2.10000e+00	1.917954e+08	
43	-2.15000e+00	2.126364e+08	
44	-2.20000e+00	2.328617e+08	
45	-2.25000e+00	2.524503e+08	
46	-2.30000e+00	2.714147e+08	
47	-2.35000e+00	2.897862e+08	
48	-2.40000e+00	3.076052e+08	
49	-2.45000e+00	3.249154e+08	
50	-2.50000e+00	3.417601e+08	
51	-2.55000e+00	3.581805e+08	
52	-2.60000e+00	3.742145e+08	
53	-2.65000e+00	3.898964e+08	
54	-2.70000e+00	4.052569e+08	

Index   v-sweep         rds             
--------------------------------------------------------------------------------
55	-2.75000e+00	4.203235e+08	
56	-2.80000e+00	4.351203e+08	
57	-2.85000e+00	4.496686e+08	
58	-2.90000e+00	4.639874e+08	
59	-2.95000e+00	4.780930e+08	
60	-3.00000e+00	4.920001e+08	
61	-3.05000e+00	5.057211e+08	
62	-3.10000e+00	5.192665e+08	
63	-3.15000e+00	5.326452e+08	
64	-3.20000e+00	5.458635e+08	
65	-3.25000e+00	5.589255e+08	
66	-3.30000e+00	5.718323e+08	
Reset re-loads circuit ***************************

Circuit: ***************************

Doing analysis at TEMP = 125.000000 and TNOM = 125.000000


No. of Data Rows : 67
                          ***************************
                          DC transfer characteristic  Mon Jan  9 13:58:26  2023
--------------------------------------------------------------------------------
Index   v-sweep         rds             
--------------------------------------------------------------------------------
0	0.000000e+00	3.445434e+05	
1	-5.00000e-02	3.536366e+05	
2	-1.00000e-01	3.632201e+05	
3	-1.50000e-01	3.733346e+05	
4	-2.00000e-01	3.840256e+05	
5	-2.50000e-01	3.953437e+05	
6	-3.00000e-01	4.073459e+05	
7	-3.50000e-01	4.200959e+05	
8	-4.00000e-01	4.336659e+05	
9	-4.50000e-01	4.481376e+05	
10	-5.00000e-01	4.636039e+05	
11	-5.50000e-01	4.801708e+05	
12	-6.00000e-01	4.979602e+05	
13	-6.50000e-01	5.171123e+05	
14	-7.00000e-01	5.377898e+05	
15	-7.50000e-01	5.601821e+05	
16	-8.00000e-01	5.845116e+05	
17	-8.50000e-01	6.110403e+05	
18	-9.00000e-01	6.400800e+05	
19	-9.50000e-01	6.720039e+05	
20	-1.00000e+00	7.072625e+05	
21	-1.05000e+00	7.464051e+05	
22	-1.10000e+00	7.901078e+05	
23	-1.15000e+00	8.392117e+05	
24	-1.20000e+00	8.947766e+05	
25	-1.25000e+00	9.581554e+05	
26	-1.30000e+00	1.031101e+06	
27	-1.35000e+00	1.115924e+06	
28	-1.40000e+00	1.215723e+06	
29	-1.45000e+00	1.334746e+06	
30	-1.50000e+00	1.478944e+06	
31	-1.55000e+00	1.656870e+06	
32	-1.60000e+00	1.881156e+06	
33	-1.65000e+00	2.170995e+06	
34	-1.70000e+00	2.556377e+06	
35	-1.75000e+00	3.085328e+06	
36	-1.80000e+00	3.835911e+06	
37	-1.85000e+00	4.934546e+06	
38	-1.90000e+00	6.579089e+06	
39	-1.95000e+00	9.056002e+06	
40	-2.00000e+00	1.272832e+07	
41	-2.05000e+00	1.797175e+07	
42	-2.10000e+00	2.506749e+07	
43	-2.15000e+00	3.410313e+07	
44	-2.20000e+00	4.493794e+07	
45	-2.25000e+00	5.724757e+07	
46	-2.30000e+00	7.061537e+07	
47	-2.35000e+00	8.462370e+07	
48	-2.40000e+00	9.891502e+07	
49	-2.45000e+00	1.132175e+08	
50	-2.50000e+00	1.273447e+08	
51	-2.55000e+00	1.411813e+08	
52	-2.60000e+00	1.546655e+08	
53	-2.65000e+00	1.677725e+08	
54	-2.70000e+00	1.805015e+08	

Index   v-sweep         rds             
--------------------------------------------------------------------------------
55	-2.75000e+00	1.928656e+08	
56	-2.80000e+00	2.048860e+08	
57	-2.85000e+00	2.165873e+08	
58	-2.90000e+00	2.279951e+08	
59	-2.95000e+00	2.391342e+08	
60	-3.00000e+00	2.500278e+08	
61	-3.05000e+00	2.606976e+08	
62	-3.10000e+00	2.711627e+08	
63	-3.15000e+00	2.814407e+08	
64	-3.20000e+00	2.915470e+08	
65	-3.25000e+00	3.014954e+08	
66	-3.30000e+00	3.112979e+08	
Reset re-loads circuit ***************************

Circuit: ***************************

Note: No ".plot", ".print", or ".fourier" lines; no simulations run
