
Note: Compatibility modes selected: hs

Warning: m=xx on .subckt line will override multiplier m hierarchy!


Circuit: ***************************

Doing analysis at TEMP = 125.000000 and TNOM = 125.000000


No. of Data Rows : 67
                          ***************************
                          DC transfer characteristic  Mon Jan  9 13:58:27  2023
--------------------------------------------------------------------------------
Index   v-sweep         rds             
--------------------------------------------------------------------------------
0	0.000000e+00	4.367509e+05	
1	-5.00000e-02	5.912847e+05	
2	-1.00000e-01	9.000037e+05	
3	-1.50000e-01	1.702727e+06	
4	-2.00000e-01	4.395376e+06	
5	-2.50000e-01	1.189794e+07	
6	-3.00000e-01	2.303490e+07	
7	-3.50000e-01	3.270054e+07	
8	-4.00000e-01	3.949978e+07	
9	-4.50000e-01	4.431854e+07	
10	-5.00000e-01	4.800873e+07	
11	-5.50000e-01	5.105934e+07	
12	-6.00000e-01	5.372832e+07	
13	-6.50000e-01	5.615365e+07	
14	-7.00000e-01	5.841224e+07	
15	-7.50000e-01	6.054907e+07	
16	-8.00000e-01	6.259171e+07	
17	-8.50000e-01	6.455782e+07	
18	-9.00000e-01	6.645922e+07	
19	-9.50000e-01	6.830414e+07	
20	-1.00000e+00	7.009852e+07	
21	-1.05000e+00	7.184679e+07	
22	-1.10000e+00	7.355239e+07	
23	-1.15000e+00	7.521806e+07	
24	-1.20000e+00	7.684602e+07	
25	-1.25000e+00	7.843816e+07	
26	-1.30000e+00	7.999609e+07	
27	-1.35000e+00	8.152122e+07	
28	-1.40000e+00	8.301479e+07	
29	-1.45000e+00	8.447794e+07	
30	-1.50000e+00	8.591168e+07	
31	-1.55000e+00	8.731696e+07	
32	-1.60000e+00	8.869464e+07	
33	-1.65000e+00	9.004553e+07	
34	-1.70000e+00	9.137035e+07	
35	-1.75000e+00	9.266977e+07	
36	-1.80000e+00	9.394436e+07	
37	-1.85000e+00	9.519458e+07	
38	-1.90000e+00	9.642077e+07	
39	-1.95000e+00	9.762309e+07	
40	-2.00000e+00	9.880147e+07	
41	-2.05000e+00	9.995554e+07	
42	-2.10000e+00	1.010846e+08	
43	-2.15000e+00	1.021874e+08	
44	-2.20000e+00	1.032622e+08	
45	-2.25000e+00	1.043065e+08	
46	-2.30000e+00	1.053170e+08	
47	-2.35000e+00	1.062894e+08	
48	-2.40000e+00	1.072184e+08	
49	-2.45000e+00	1.080974e+08	
50	-2.50000e+00	1.089182e+08	
51	-2.55000e+00	1.096714e+08	
52	-2.60000e+00	1.103459e+08	
53	-2.65000e+00	1.109290e+08	
54	-2.70000e+00	1.114063e+08	

Index   v-sweep         rds             
--------------------------------------------------------------------------------
55	-2.75000e+00	1.117620e+08	
56	-2.80000e+00	1.119790e+08	
57	-2.85000e+00	1.120391e+08	
58	-2.90000e+00	1.119237e+08	
59	-2.95000e+00	1.116138e+08	
60	-3.00000e+00	1.110913e+08	
61	-3.05000e+00	1.103392e+08	
62	-3.10000e+00	1.093428e+08	
63	-3.15000e+00	1.080905e+08	
64	-3.20000e+00	1.065743e+08	
65	-3.25000e+00	1.047911e+08	
66	-3.30000e+00	1.027428e+08	
Reset re-loads circuit ***************************

Circuit: ***************************

Doing analysis at TEMP = 125.000000 and TNOM = 125.000000


No. of Data Rows : 67
                          ***************************
                          DC transfer characteristic  Mon Jan  9 13:58:27  2023
--------------------------------------------------------------------------------
Index   v-sweep         rds             
--------------------------------------------------------------------------------
0	0.000000e+00	1.166905e+05	
1	-5.00000e-02	1.277785e+05	
2	-1.00000e-01	1.410881e+05	
3	-1.50000e-01	1.573569e+05	
4	-2.00000e-01	1.776856e+05	
5	-2.50000e-01	2.037874e+05	
6	-3.00000e-01	2.384673e+05	
7	-3.50000e-01	2.866028e+05	
8	-4.00000e-01	3.572849e+05	
9	-4.50000e-01	4.687051e+05	
10	-5.00000e-01	6.588746e+05	
11	-5.50000e-01	1.001613e+06	
12	-6.00000e-01	1.590259e+06	
13	-6.50000e-01	2.412111e+06	
14	-7.00000e-01	3.276177e+06	
15	-7.50000e-01	4.014429e+06	
16	-8.00000e-01	4.600104e+06	
17	-8.50000e-01	5.071998e+06	
18	-9.00000e-01	5.470539e+06	
19	-9.50000e-01	5.823119e+06	
20	-1.00000e+00	6.146367e+06	
21	-1.05000e+00	6.450179e+06	
22	-1.10000e+00	6.740529e+06	
23	-1.15000e+00	7.021114e+06	
24	-1.20000e+00	7.294293e+06	
25	-1.25000e+00	7.561612e+06	
26	-1.30000e+00	7.824117e+06	
27	-1.35000e+00	8.082535e+06	
28	-1.40000e+00	8.337383e+06	
29	-1.45000e+00	8.589036e+06	
30	-1.50000e+00	8.837775e+06	
31	-1.55000e+00	9.083814e+06	
32	-1.60000e+00	9.327320e+06	
33	-1.65000e+00	9.568424e+06	
34	-1.70000e+00	9.807232e+06	
35	-1.75000e+00	1.004383e+07	
36	-1.80000e+00	1.027830e+07	
37	-1.85000e+00	1.051069e+07	
38	-1.90000e+00	1.074106e+07	
39	-1.95000e+00	1.096945e+07	
40	-2.00000e+00	1.119592e+07	
41	-2.05000e+00	1.142047e+07	
42	-2.10000e+00	1.164316e+07	
43	-2.15000e+00	1.186398e+07	
44	-2.20000e+00	1.208295e+07	
45	-2.25000e+00	1.230006e+07	
46	-2.30000e+00	1.251527e+07	
47	-2.35000e+00	1.272852e+07	
48	-2.40000e+00	1.293969e+07	
49	-2.45000e+00	1.314864e+07	
50	-2.50000e+00	1.335511e+07	
51	-2.55000e+00	1.355878e+07	
52	-2.60000e+00	1.375921e+07	
53	-2.65000e+00	1.395578e+07	
54	-2.70000e+00	1.414775e+07	

Index   v-sweep         rds             
--------------------------------------------------------------------------------
55	-2.75000e+00	1.433412e+07	
56	-2.80000e+00	1.451369e+07	
57	-2.85000e+00	1.468497e+07	
58	-2.90000e+00	1.484616e+07	
59	-2.95000e+00	1.499517e+07	
60	-3.00000e+00	1.512952e+07	
61	-3.05000e+00	1.524643e+07	
62	-3.10000e+00	1.534276e+07	
63	-3.15000e+00	1.541511e+07	
64	-3.20000e+00	1.545982e+07	
65	-3.25000e+00	1.547313e+07	
66	-3.30000e+00	1.545124e+07	
Reset re-loads circuit ***************************

Circuit: ***************************

Doing analysis at TEMP = 125.000000 and TNOM = 125.000000


No. of Data Rows : 67
                          ***************************
                          DC transfer characteristic  Mon Jan  9 13:58:27  2023
--------------------------------------------------------------------------------
Index   v-sweep         rds             
--------------------------------------------------------------------------------
0	0.000000e+00	6.931247e+04	
1	-5.00000e-02	7.313475e+04	
2	-1.00000e-01	7.737495e+04	
3	-1.50000e-01	8.210538e+04	
4	-2.00000e-01	8.741600e+04	
5	-2.50000e-01	9.342014e+04	
6	-3.00000e-01	1.002626e+05	
7	-3.50000e-01	1.081310e+05	
8	-4.00000e-01	1.172735e+05	
9	-4.50000e-01	1.280239e+05	
10	-5.00000e-01	1.408423e+05	
11	-5.50000e-01	1.563786e+05	
12	-6.00000e-01	1.755783e+05	
13	-6.50000e-01	1.998621e+05	
14	-7.00000e-01	2.314391e+05	
15	-7.50000e-01	2.738618e+05	
16	-8.00000e-01	3.329787e+05	
17	-8.50000e-01	4.183249e+05	
18	-9.00000e-01	5.439872e+05	
19	-9.50000e-01	7.246794e+05	
20	-1.00000e+00	9.609926e+05	
21	-1.05000e+00	1.225410e+06	
22	-1.10000e+00	1.478519e+06	
23	-1.15000e+00	1.698580e+06	
24	-1.20000e+00	1.884969e+06	
25	-1.25000e+00	2.045588e+06	
26	-1.30000e+00	2.188485e+06	
27	-1.35000e+00	2.319549e+06	
28	-1.40000e+00	2.442657e+06	
29	-1.45000e+00	2.560285e+06	
30	-1.50000e+00	2.674017e+06	
31	-1.55000e+00	2.784879e+06	
32	-1.60000e+00	2.893549e+06	
33	-1.65000e+00	3.000487e+06	
34	-1.70000e+00	3.106007e+06	
35	-1.75000e+00	3.210336e+06	
36	-1.80000e+00	3.313633e+06	
37	-1.85000e+00	3.416016e+06	
38	-1.90000e+00	3.517575e+06	
39	-1.95000e+00	3.618377e+06	
40	-2.00000e+00	3.718472e+06	
41	-2.05000e+00	3.817903e+06	
42	-2.10000e+00	3.916702e+06	
43	-2.15000e+00	4.014894e+06	
44	-2.20000e+00	4.112502e+06	
45	-2.25000e+00	4.209544e+06	
46	-2.30000e+00	4.306033e+06	
47	-2.35000e+00	4.401983e+06	
48	-2.40000e+00	4.497403e+06	
49	-2.45000e+00	4.592301e+06	
50	-2.50000e+00	4.686681e+06	
51	-2.55000e+00	4.780544e+06	
52	-2.60000e+00	4.873885e+06	
53	-2.65000e+00	4.966692e+06	
54	-2.70000e+00	5.058940e+06	

Index   v-sweep         rds             
--------------------------------------------------------------------------------
55	-2.75000e+00	5.150592e+06	
56	-2.80000e+00	5.241589e+06	
57	-2.85000e+00	5.331845e+06	
58	-2.90000e+00	5.421238e+06	
59	-2.95000e+00	5.509602e+06	
60	-3.00000e+00	5.596712e+06	
61	-3.05000e+00	5.682274e+06	
62	-3.10000e+00	5.765911e+06	
63	-3.15000e+00	5.847144e+06	
64	-3.20000e+00	5.925381e+06	
65	-3.25000e+00	5.999899e+06	
66	-3.30000e+00	6.069831e+06	
Reset re-loads circuit ***************************

Circuit: ***************************

Doing analysis at TEMP = 125.000000 and TNOM = 125.000000


No. of Data Rows : 67
                          ***************************
                          DC transfer characteristic  Mon Jan  9 13:58:27  2023
--------------------------------------------------------------------------------
Index   v-sweep         rds             
--------------------------------------------------------------------------------
0	0.000000e+00	5.037412e+04	
1	-5.00000e-02	5.234340e+04	
2	-1.00000e-01	5.446012e+04	
3	-1.50000e-01	5.674143e+04	
4	-2.00000e-01	5.920723e+04	
5	-2.50000e-01	6.188080e+04	
6	-3.00000e-01	6.478944e+04	
7	-3.50000e-01	6.796550e+04	
8	-4.00000e-01	7.144750e+04	
9	-4.50000e-01	7.528173e+04	
10	-5.00000e-01	7.952424e+04	
11	-5.50000e-01	8.424364e+04	
12	-6.00000e-01	8.952469e+04	
13	-6.50000e-01	9.547335e+04	
14	-7.00000e-01	1.022238e+05	
15	-7.50000e-01	1.099482e+05	
16	-8.00000e-01	1.188710e+05	
17	-8.50000e-01	1.292899e+05	
18	-9.00000e-01	1.416067e+05	
19	-9.50000e-01	1.563749e+05	
20	-1.00000e+00	1.743728e+05	
21	-1.05000e+00	1.967152e+05	
22	-1.10000e+00	2.250225e+05	
23	-1.15000e+00	2.616504e+05	
24	-1.20000e+00	3.099157e+05	
25	-1.25000e+00	3.740131e+05	
26	-1.30000e+00	4.578241e+05	
27	-1.35000e+00	5.617663e+05	
28	-1.40000e+00	6.793602e+05	
29	-1.45000e+00	7.988252e+05	
30	-1.50000e+00	9.101262e+05	
31	-1.55000e+00	1.009393e+06	
32	-1.60000e+00	1.097480e+06	
33	-1.65000e+00	1.176920e+06	
34	-1.70000e+00	1.250166e+06	
35	-1.75000e+00	1.319083e+06	
36	-1.80000e+00	1.384965e+06	
37	-1.85000e+00	1.448681e+06	
38	-1.90000e+00	1.510813e+06	
39	-1.95000e+00	1.571753e+06	
40	-2.00000e+00	1.631768e+06	
41	-2.05000e+00	1.691043e+06	
42	-2.10000e+00	1.749711e+06	
43	-2.15000e+00	1.807864e+06	
44	-2.20000e+00	1.865573e+06	
45	-2.25000e+00	1.922887e+06	
46	-2.30000e+00	1.979847e+06	
47	-2.35000e+00	2.036481e+06	
48	-2.40000e+00	2.092813e+06	
49	-2.45000e+00	2.148861e+06	
50	-2.50000e+00	2.204638e+06	
51	-2.55000e+00	2.260157e+06	
52	-2.60000e+00	2.315427e+06	
53	-2.65000e+00	2.370456e+06	
54	-2.70000e+00	2.425250e+06	

Index   v-sweep         rds             
--------------------------------------------------------------------------------
55	-2.75000e+00	2.479815e+06	
56	-2.80000e+00	2.534153e+06	
57	-2.85000e+00	2.588268e+06	
58	-2.90000e+00	2.642160e+06	
59	-2.95000e+00	2.695826e+06	
60	-3.00000e+00	2.749263e+06	
61	-3.05000e+00	2.802459e+06	
62	-3.10000e+00	2.855396e+06	
63	-3.15000e+00	2.908048e+06	
64	-3.20000e+00	2.960372e+06	
65	-3.25000e+00	3.012310e+06	
66	-3.30000e+00	3.063780e+06	
Reset re-loads circuit ***************************

Circuit: ***************************

Doing analysis at TEMP = 125.000000 and TNOM = 125.000000


No. of Data Rows : 67
                          ***************************
                          DC transfer characteristic  Mon Jan  9 13:58:27  2023
--------------------------------------------------------------------------------
Index   v-sweep         rds             
--------------------------------------------------------------------------------
0	0.000000e+00	4.041822e+04	
1	-5.00000e-02	4.165530e+04	
2	-1.00000e-01	4.296314e+04	
3	-1.50000e-01	4.434795e+04	
4	-2.00000e-01	4.581670e+04	
5	-2.50000e-01	4.737723e+04	
6	-3.00000e-01	4.903840e+04	
7	-3.50000e-01	5.081022e+04	
8	-4.00000e-01	5.270409e+04	
9	-4.50000e-01	5.473303e+04	
10	-5.00000e-01	5.691196e+04	
11	-5.50000e-01	5.925810e+04	
12	-6.00000e-01	6.179139e+04	
13	-6.50000e-01	6.453507e+04	
14	-7.00000e-01	6.751637e+04	
15	-7.50000e-01	7.076744e+04	
16	-8.00000e-01	7.432645e+04	
17	-8.50000e-01	7.823909e+04	
18	-9.00000e-01	8.256049e+04	
19	-9.50000e-01	8.735780e+04	
20	-1.00000e+00	9.271350e+04	
21	-1.05000e+00	9.873008e+04	
22	-1.10000e+00	1.055362e+05	
23	-1.15000e+00	1.132956e+05	
24	-1.20000e+00	1.222189e+05	
25	-1.25000e+00	1.325811e+05	
26	-1.30000e+00	1.447458e+05	
27	-1.35000e+00	1.591998e+05	
28	-1.40000e+00	1.766002e+05	
29	-1.45000e+00	1.978341e+05	
30	-1.50000e+00	2.240795e+05	
31	-1.55000e+00	2.568194e+05	
32	-1.60000e+00	2.976849e+05	
33	-1.65000e+00	3.479081e+05	
34	-1.70000e+00	4.072688e+05	
35	-1.75000e+00	4.731225e+05	
36	-1.80000e+00	5.408722e+05	
37	-1.85000e+00	6.061256e+05	
38	-1.90000e+00	6.665178e+05	
39	-1.95000e+00	7.217423e+05	
40	-2.00000e+00	7.725761e+05	
41	-2.05000e+00	8.200490e+05	
42	-2.10000e+00	8.650631e+05	
43	-2.15000e+00	9.083007e+05	
44	-2.20000e+00	9.502472e+05	
45	-2.25000e+00	9.912399e+05	
46	-2.30000e+00	1.031512e+06	
47	-2.35000e+00	1.071227e+06	
48	-2.40000e+00	1.110499e+06	
49	-2.45000e+00	1.149408e+06	
50	-2.50000e+00	1.188015e+06	
51	-2.55000e+00	1.226362e+06	
52	-2.60000e+00	1.264482e+06	
53	-2.65000e+00	1.302399e+06	
54	-2.70000e+00	1.340131e+06	

Index   v-sweep         rds             
--------------------------------------------------------------------------------
55	-2.75000e+00	1.377693e+06	
56	-2.80000e+00	1.415097e+06	
57	-2.85000e+00	1.452350e+06	
58	-2.90000e+00	1.489461e+06	
59	-2.95000e+00	1.526434e+06	
60	-3.00000e+00	1.563276e+06	
61	-3.05000e+00	1.599989e+06	
62	-3.10000e+00	1.636576e+06	
63	-3.15000e+00	1.673040e+06	
64	-3.20000e+00	1.709383e+06	
65	-3.25000e+00	1.745605e+06	
66	-3.30000e+00	1.781704e+06	
Reset re-loads circuit ***************************

Circuit: ***************************

Doing analysis at TEMP = 125.000000 and TNOM = 125.000000


No. of Data Rows : 67
                          ***************************
                          DC transfer characteristic  Mon Jan  9 13:58:27  2023
--------------------------------------------------------------------------------
Index   v-sweep         rds             
--------------------------------------------------------------------------------
0	0.000000e+00	3.411885e+04	
1	-5.00000e-02	3.498089e+04	
2	-1.00000e-01	3.588283e+04	
3	-1.50000e-01	3.682747e+04	
4	-2.00000e-01	3.781791e+04	
5	-2.50000e-01	3.885754e+04	
6	-3.00000e-01	3.995010e+04	
7	-3.50000e-01	4.109972e+04	
8	-4.00000e-01	4.231096e+04	
9	-4.50000e-01	4.358891e+04	
10	-5.00000e-01	4.493919e+04	
11	-5.50000e-01	4.636810e+04	
12	-6.00000e-01	4.788269e+04	
13	-6.50000e-01	4.949086e+04	
14	-7.00000e-01	5.120154e+04	
15	-7.50000e-01	5.302481e+04	
16	-8.00000e-01	5.497212e+04	
17	-8.50000e-01	5.705651e+04	
18	-9.00000e-01	5.929294e+04	
19	-9.50000e-01	6.169860e+04	
20	-1.00000e+00	6.429335e+04	
21	-1.05000e+00	6.710030e+04	
22	-1.10000e+00	7.014645e+04	
23	-1.15000e+00	7.346356e+04	
24	-1.20000e+00	7.708921e+04	
25	-1.25000e+00	8.106820e+04	
26	-1.30000e+00	8.545436e+04	
27	-1.35000e+00	9.031283e+04	
28	-1.40000e+00	9.572316e+04	
29	-1.45000e+00	1.017834e+05	
30	-1.50000e+00	1.086154e+05	
31	-1.55000e+00	1.163722e+05	
32	-1.60000e+00	1.252477e+05	
33	-1.65000e+00	1.354895e+05	
34	-1.70000e+00	1.474157e+05	
35	-1.75000e+00	1.614343e+05	
36	-1.80000e+00	1.780634e+05	
37	-1.85000e+00	1.979402e+05	
38	-1.90000e+00	2.217922e+05	
39	-1.95000e+00	2.503188e+05	
40	-2.00000e+00	2.839178e+05	
41	-2.05000e+00	3.222708e+05	
42	-2.10000e+00	3.640363e+05	
43	-2.15000e+00	4.070842e+05	
44	-2.20000e+00	4.493143e+05	
45	-2.25000e+00	4.894146e+05	
46	-2.30000e+00	5.269988e+05	
47	-2.35000e+00	5.622776e+05	
48	-2.40000e+00	5.956869e+05	
49	-2.45000e+00	6.276673e+05	
50	-2.50000e+00	6.585814e+05	
51	-2.55000e+00	6.887025e+05	
52	-2.60000e+00	7.182283e+05	
53	-2.65000e+00	7.473000e+05	
54	-2.70000e+00	7.760179e+05	

Index   v-sweep         rds             
--------------------------------------------------------------------------------
55	-2.75000e+00	8.044539e+05	
56	-2.80000e+00	8.326598e+05	
57	-2.85000e+00	8.606734e+05	
58	-2.90000e+00	8.885227e+05	
59	-2.95000e+00	9.162285e+05	
60	-3.00000e+00	9.438067e+05	
61	-3.05000e+00	9.712694e+05	
62	-3.10000e+00	9.986260e+05	
63	-3.15000e+00	1.025884e+06	
64	-3.20000e+00	1.053049e+06	
65	-3.25000e+00	1.080125e+06	
66	-3.30000e+00	1.107117e+06	
Reset re-loads circuit ***************************

Circuit: ***************************

Note: No ".plot", ".print", or ".fourier" lines; no simulations run
