
Note: Compatibility modes selected: hs

Warning: m=xx on .subckt line will override multiplier m hierarchy!


Circuit: ***************************

Doing analysis at TEMP = 25.000000 and TNOM = 25.000000


No. of Data Rows : 67
                          ***************************
                          DC transfer characteristic  Mon Jan  9 13:58:25  2023
--------------------------------------------------------------------------------
Index   v-sweep         rds             
--------------------------------------------------------------------------------
0	0.000000e+00	5.519510e+05	
1	-5.00000e-02	1.857360e+06	
2	-1.00000e-01	1.373668e+07	
3	-1.50000e-01	6.799578e+07	
4	-2.00000e-01	1.915790e+08	
5	-2.50000e-01	3.775451e+08	
6	-3.00000e-01	5.944860e+08	
7	-3.50000e-01	8.116920e+08	
8	-4.00000e-01	1.011721e+09	
9	-4.50000e-01	1.188821e+09	
10	-5.00000e-01	1.343511e+09	
11	-5.50000e-01	1.478649e+09	
12	-6.00000e-01	1.597498e+09	
13	-6.50000e-01	1.702993e+09	
14	-7.00000e-01	1.797546e+09	
15	-7.50000e-01	1.883077e+09	
16	-8.00000e-01	1.961092e+09	
17	-8.50000e-01	2.032774e+09	
18	-9.00000e-01	2.099057e+09	
19	-9.50000e-01	2.160685e+09	
20	-1.00000e+00	2.218257e+09	
21	-1.05000e+00	2.272261e+09	
22	-1.10000e+00	2.323101e+09	
23	-1.15000e+00	2.371109e+09	
24	-1.20000e+00	2.416569e+09	
25	-1.25000e+00	2.459721e+09	
26	-1.30000e+00	2.500768e+09	
27	-1.35000e+00	2.539891e+09	
28	-1.40000e+00	2.577242e+09	
29	-1.45000e+00	2.612959e+09	
30	-1.50000e+00	2.647161e+09	
31	-1.55000e+00	2.679954e+09	
32	-1.60000e+00	2.711433e+09	
33	-1.65000e+00	2.741682e+09	
34	-1.70000e+00	2.770775e+09	
35	-1.75000e+00	2.798776e+09	
36	-1.80000e+00	2.825740e+09	
37	-1.85000e+00	2.851715e+09	
38	-1.90000e+00	2.876737e+09	
39	-1.95000e+00	2.900830e+09	
40	-2.00000e+00	2.924008e+09	
41	-2.05000e+00	2.946270e+09	
42	-2.10000e+00	2.967600e+09	
43	-2.15000e+00	2.987963e+09	
44	-2.20000e+00	3.007307e+09	
45	-2.25000e+00	3.025554e+09	
46	-2.30000e+00	3.042605e+09	
47	-2.35000e+00	3.058332e+09	
48	-2.40000e+00	3.072581e+09	
49	-2.45000e+00	3.085165e+09	
50	-2.50000e+00	3.095870e+09	
51	-2.55000e+00	3.104449e+09	
52	-2.60000e+00	3.110625e+09	
53	-2.65000e+00	3.114097e+09	
54	-2.70000e+00	3.114536e+09	

Index   v-sweep         rds             
--------------------------------------------------------------------------------
55	-2.75000e+00	3.111599e+09	
56	-2.80000e+00	3.104929e+09	
57	-2.85000e+00	3.094168e+09	
58	-2.90000e+00	3.078965e+09	
59	-2.95000e+00	3.058991e+09	
60	-3.00000e+00	3.033949e+09	
61	-3.05000e+00	3.003589e+09	
62	-3.10000e+00	2.967723e+09	
63	-3.15000e+00	2.926236e+09	
64	-3.20000e+00	2.879097e+09	
65	-3.25000e+00	2.826367e+09	
66	-3.30000e+00	2.768206e+09	
Reset re-loads circuit ***************************

Circuit: ***************************

Doing analysis at TEMP = 25.000000 and TNOM = 25.000000


No. of Data Rows : 67
                          ***************************
                          DC transfer characteristic  Mon Jan  9 13:58:25  2023
--------------------------------------------------------------------------------
Index   v-sweep         rds             
--------------------------------------------------------------------------------
0	0.000000e+00	5.303672e+04	
1	-5.00000e-02	6.120369e+04	
2	-1.00000e-01	7.230782e+04	
3	-1.50000e-01	8.824239e+04	
4	-2.00000e-01	1.128797e+05	
5	-2.50000e-01	1.552288e+05	
6	-3.00000e-01	2.396209e+05	
7	-3.50000e-01	4.396850e+05	
8	-4.00000e-01	9.640171e+05	
9	-4.50000e-01	2.221684e+06	
10	-5.00000e-01	4.635146e+06	
11	-5.50000e-01	8.308769e+06	
12	-6.00000e-01	1.296184e+07	
13	-6.50000e-01	1.814465e+07	
14	-7.00000e-01	2.346415e+07	
15	-7.50000e-01	2.867131e+07	
16	-8.00000e-01	3.364533e+07	
17	-8.50000e-01	3.834746e+07	
18	-9.00000e-01	4.278180e+07	
19	-9.50000e-01	4.697091e+07	
20	-1.00000e+00	5.094291e+07	
21	-1.05000e+00	5.472540e+07	
22	-1.10000e+00	5.834312e+07	
23	-1.15000e+00	6.181723e+07	
24	-1.20000e+00	6.516550e+07	
25	-1.25000e+00	6.840271e+07	
26	-1.30000e+00	7.154109e+07	
27	-1.35000e+00	7.459078e+07	
28	-1.40000e+00	7.756026e+07	
29	-1.45000e+00	8.045661e+07	
30	-1.50000e+00	8.328580e+07	
31	-1.55000e+00	8.605291e+07	
32	-1.60000e+00	8.876226e+07	
33	-1.65000e+00	9.141759e+07	
34	-1.70000e+00	9.402214e+07	
35	-1.75000e+00	9.657871e+07	
36	-1.80000e+00	9.908979e+07	
37	-1.85000e+00	1.015575e+08	
38	-1.90000e+00	1.039838e+08	
39	-1.95000e+00	1.063701e+08	
40	-2.00000e+00	1.087179e+08	
41	-2.05000e+00	1.110282e+08	
42	-2.10000e+00	1.133014e+08	
43	-2.15000e+00	1.155379e+08	
44	-2.20000e+00	1.177372e+08	
45	-2.25000e+00	1.198981e+08	
46	-2.30000e+00	1.220186e+08	
47	-2.35000e+00	1.240953e+08	
48	-2.40000e+00	1.261235e+08	
49	-2.45000e+00	1.280970e+08	
50	-2.50000e+00	1.300071e+08	
51	-2.55000e+00	1.318429e+08	
52	-2.60000e+00	1.335909e+08	
53	-2.65000e+00	1.352344e+08	
54	-2.70000e+00	1.367531e+08	

Index   v-sweep         rds             
--------------------------------------------------------------------------------
55	-2.75000e+00	1.381235e+08	
56	-2.80000e+00	1.393183e+08	
57	-2.85000e+00	1.403070e+08	
58	-2.90000e+00	1.410557e+08	
59	-2.95000e+00	1.415282e+08	
60	-3.00000e+00	1.416869e+08	
61	-3.05000e+00	1.414942e+08	
62	-3.10000e+00	1.409139e+08	
63	-3.15000e+00	1.399137e+08	
64	-3.20000e+00	1.384668e+08	
65	-3.25000e+00	1.365545e+08	
66	-3.30000e+00	1.341680e+08	
Reset re-loads circuit ***************************

Circuit: ***************************

Doing analysis at TEMP = 25.000000 and TNOM = 25.000000


No. of Data Rows : 67
                          ***************************
                          DC transfer characteristic  Mon Jan  9 13:58:25  2023
--------------------------------------------------------------------------------
Index   v-sweep         rds             
--------------------------------------------------------------------------------
0	0.000000e+00	2.854221e+04	
1	-5.00000e-02	3.066425e+04	
2	-1.00000e-01	3.312447e+04	
3	-1.50000e-01	3.601042e+04	
4	-2.00000e-01	3.944258e+04	
5	-2.50000e-01	4.359120e+04	
6	-3.00000e-01	4.870464e+04	
7	-3.50000e-01	5.515905e+04	
8	-4.00000e-01	6.355004e+04	
9	-4.50000e-01	7.487252e+04	
10	-5.00000e-01	9.089712e+04	
11	-5.50000e-01	1.150137e+05	
12	-6.00000e-01	1.542300e+05	
13	-6.50000e-01	2.239396e+05	
14	-7.00000e-01	3.579521e+05	
15	-7.50000e-01	6.216931e+05	
16	-8.00000e-01	1.108547e+06	
17	-8.50000e-01	1.896161e+06	
18	-9.00000e-01	2.992547e+06	
19	-9.50000e-01	4.330225e+06	
20	-1.00000e+00	5.808101e+06	
21	-1.05000e+00	7.335319e+06	
22	-1.10000e+00	8.850426e+06	
23	-1.15000e+00	1.032021e+07	
24	-1.20000e+00	1.173107e+07	
25	-1.25000e+00	1.308071e+07	
26	-1.30000e+00	1.437240e+07	
27	-1.35000e+00	1.561165e+07	
28	-1.40000e+00	1.680446e+07	
29	-1.45000e+00	1.795654e+07	
30	-1.50000e+00	1.907296e+07	
31	-1.55000e+00	2.015809e+07	
32	-1.60000e+00	2.121562e+07	
33	-1.65000e+00	2.224865e+07	
34	-1.70000e+00	2.325979e+07	
35	-1.75000e+00	2.425121e+07	
36	-1.80000e+00	2.522474e+07	
37	-1.85000e+00	2.618193e+07	
38	-1.90000e+00	2.712407e+07	
39	-1.95000e+00	2.805228e+07	
40	-2.00000e+00	2.896752e+07	
41	-2.05000e+00	2.987059e+07	
42	-2.10000e+00	3.076220e+07	
43	-2.15000e+00	3.164297e+07	
44	-2.20000e+00	3.251340e+07	
45	-2.25000e+00	3.337395e+07	
46	-2.30000e+00	3.422497e+07	
47	-2.35000e+00	3.506674e+07	
48	-2.40000e+00	3.589941e+07	
49	-2.45000e+00	3.672302e+07	
50	-2.50000e+00	3.753745e+07	
51	-2.55000e+00	3.834234e+07	
52	-2.60000e+00	3.913706e+07	
53	-2.65000e+00	3.992064e+07	
54	-2.70000e+00	4.069162e+07	

Index   v-sweep         rds             
--------------------------------------------------------------------------------
55	-2.75000e+00	4.144802e+07	
56	-2.80000e+00	4.218711e+07	
57	-2.85000e+00	4.290540e+07	
58	-2.90000e+00	4.359836e+07	
59	-2.95000e+00	4.426038e+07	
60	-3.00000e+00	4.488458e+07	
61	-3.05000e+00	4.546271e+07	
62	-3.10000e+00	4.598505e+07	
63	-3.15000e+00	4.644046e+07	
64	-3.20000e+00	4.681641e+07	
65	-3.25000e+00	4.709915e+07	
66	-3.30000e+00	4.727409e+07	
Reset re-loads circuit ***************************

Circuit: ***************************

Doing analysis at TEMP = 25.000000 and TNOM = 25.000000


No. of Data Rows : 67
                          ***************************
                          DC transfer characteristic  Mon Jan  9 13:58:25  2023
--------------------------------------------------------------------------------
Index   v-sweep         rds             
--------------------------------------------------------------------------------
0	0.000000e+00	2.032148e+04	
1	-5.00000e-02	2.129803e+04	
2	-1.00000e-01	2.237224e+04	
3	-1.50000e-01	2.355952e+04	
4	-2.00000e-01	2.487869e+04	
5	-2.50000e-01	2.635297e+04	
6	-3.00000e-01	2.801137e+04	
7	-3.50000e-01	2.989057e+04	
8	-4.00000e-01	3.203768e+04	
9	-4.50000e-01	3.451409e+04	
10	-5.00000e-01	3.740139e+04	
11	-5.50000e-01	4.081025e+04	
12	-6.00000e-01	4.489443e+04	
13	-6.50000e-01	4.987351e+04	
14	-7.00000e-01	5.607117e+04	
15	-7.50000e-01	6.398239e+04	
16	-8.00000e-01	7.439639e+04	
17	-8.50000e-01	8.863200e+04	
18	-9.00000e-01	1.090050e+05	
19	-9.50000e-01	1.397729e+05	
20	-1.00000e+00	1.889817e+05	
21	-1.05000e+00	2.715735e+05	
22	-1.10000e+00	4.126414e+05	
23	-1.15000e+00	6.458827e+05	
24	-1.20000e+00	1.001398e+06	
25	-1.25000e+00	1.488079e+06	
26	-1.30000e+00	2.086878e+06	
27	-1.35000e+00	2.761013e+06	
28	-1.40000e+00	3.472109e+06	
29	-1.45000e+00	4.190549e+06	
30	-1.50000e+00	4.897852e+06	
31	-1.55000e+00	5.584593e+06	
32	-1.60000e+00	6.247283e+06	
33	-1.65000e+00	6.885783e+06	
34	-1.70000e+00	7.501603e+06	
35	-1.75000e+00	8.096905e+06	
36	-1.80000e+00	8.673977e+06	
37	-1.85000e+00	9.234980e+06	
38	-1.90000e+00	9.781847e+06	
39	-1.95000e+00	1.031625e+07	
40	-2.00000e+00	1.083964e+07	
41	-2.05000e+00	1.135321e+07	
42	-2.10000e+00	1.185799e+07	
43	-2.15000e+00	1.235486e+07	
44	-2.20000e+00	1.284454e+07	
45	-2.25000e+00	1.332766e+07	
46	-2.30000e+00	1.380475e+07	
47	-2.35000e+00	1.427624e+07	
48	-2.40000e+00	1.474255e+07	
49	-2.45000e+00	1.520398e+07	
50	-2.50000e+00	1.566084e+07	
51	-2.55000e+00	1.611336e+07	
52	-2.60000e+00	1.656175e+07	
53	-2.65000e+00	1.700617e+07	
54	-2.70000e+00	1.744676e+07	

Index   v-sweep         rds             
--------------------------------------------------------------------------------
55	-2.75000e+00	1.788358e+07	
56	-2.80000e+00	1.831665e+07	
57	-2.85000e+00	1.874590e+07	
58	-2.90000e+00	1.917115e+07	
59	-2.95000e+00	1.959211e+07	
60	-3.00000e+00	2.000828e+07	
61	-3.05000e+00	2.041895e+07	
62	-3.10000e+00	2.082312e+07	
63	-3.15000e+00	2.121945e+07	
64	-3.20000e+00	2.160615e+07	
65	-3.25000e+00	2.198094e+07	
66	-3.30000e+00	2.234093e+07	
Reset re-loads circuit ***************************

Circuit: ***************************

Doing analysis at TEMP = 25.000000 and TNOM = 25.000000


No. of Data Rows : 67
                          ***************************
                          DC transfer characteristic  Mon Jan  9 13:58:25  2023
--------------------------------------------------------------------------------
Index   v-sweep         rds             
--------------------------------------------------------------------------------
0	0.000000e+00	1.629330e+04	
1	-5.00000e-02	1.686380e+04	
2	-1.00000e-01	1.747523e+04	
3	-1.50000e-01	1.813215e+04	
4	-2.00000e-01	1.883982e+04	
5	-2.50000e-01	1.960438e+04	
6	-3.00000e-01	2.043294e+04	
7	-3.50000e-01	2.133390e+04	
8	-4.00000e-01	2.231716e+04	
9	-4.50000e-01	2.339453e+04	
10	-5.00000e-01	2.458015e+04	
11	-5.50000e-01	2.589120e+04	
12	-6.00000e-01	2.734861e+04	
13	-6.50000e-01	2.897827e+04	
14	-7.00000e-01	3.081252e+04	
15	-7.50000e-01	3.289225e+04	
16	-8.00000e-01	3.526997e+04	
17	-8.50000e-01	3.801414e+04	
18	-9.00000e-01	4.121562e+04	
19	-9.50000e-01	4.499747e+04	
20	-1.00000e+00	4.953021e+04	
21	-1.05000e+00	5.505619e+04	
22	-1.10000e+00	6.192994e+04	
23	-1.15000e+00	7.068695e+04	
24	-1.20000e+00	8.216440e+04	
25	-1.25000e+00	9.771817e+04	
26	-1.30000e+00	1.196152e+05	
27	-1.35000e+00	1.517216e+05	
28	-1.40000e+00	2.005836e+05	
29	-1.45000e+00	2.766738e+05	
30	-1.50000e+00	3.946233e+05	
31	-1.55000e+00	5.703068e+05	
32	-1.60000e+00	8.142339e+05	
33	-1.65000e+00	1.125357e+06	
34	-1.70000e+00	1.490800e+06	
35	-1.75000e+00	1.891550e+06	
36	-1.80000e+00	2.309188e+06	
37	-1.85000e+00	2.729758e+06	
38	-1.90000e+00	3.144477e+06	
39	-1.95000e+00	3.548744e+06	
40	-2.00000e+00	3.940749e+06	
41	-2.05000e+00	4.320316e+06	
42	-2.10000e+00	4.688108e+06	
43	-2.15000e+00	5.045153e+06	
44	-2.20000e+00	5.392578e+06	
45	-2.25000e+00	5.731471e+06	
46	-2.30000e+00	6.062822e+06	
47	-2.35000e+00	6.387503e+06	
48	-2.40000e+00	6.706271e+06	
49	-2.45000e+00	7.019770e+06	
50	-2.50000e+00	7.328552e+06	
51	-2.55000e+00	7.633084e+06	
52	-2.60000e+00	7.933765e+06	
53	-2.65000e+00	8.230935e+06	
54	-2.70000e+00	8.524882e+06	

Index   v-sweep         rds             
--------------------------------------------------------------------------------
55	-2.75000e+00	8.815856e+06	
56	-2.80000e+00	9.104069e+06	
57	-2.85000e+00	9.389704e+06	
58	-2.90000e+00	9.672919e+06	
59	-2.95000e+00	9.953846e+06	
60	-3.00000e+00	1.023260e+07	
61	-3.05000e+00	1.050926e+07	
62	-3.10000e+00	1.078389e+07	
63	-3.15000e+00	1.105652e+07	
64	-3.20000e+00	1.132714e+07	
65	-3.25000e+00	1.159567e+07	
66	-3.30000e+00	1.186198e+07	
Reset re-loads circuit ***************************

Circuit: ***************************

Doing analysis at TEMP = 25.000000 and TNOM = 25.000000


No. of Data Rows : 67
                          ***************************
                          DC transfer characteristic  Mon Jan  9 13:58:25  2023
--------------------------------------------------------------------------------
Index   v-sweep         rds             
--------------------------------------------------------------------------------
0	0.000000e+00	1.392991e+04	
1	-5.00000e-02	1.430872e+04	
2	-1.00000e-01	1.470842e+04	
3	-1.50000e-01	1.513079e+04	
4	-2.00000e-01	1.557780e+04	
5	-2.50000e-01	1.605169e+04	
6	-3.00000e-01	1.655495e+04	
7	-3.50000e-01	1.709039e+04	
8	-4.00000e-01	1.766120e+04	
9	-4.50000e-01	1.827101e+04	
10	-5.00000e-01	1.892395e+04	
11	-5.50000e-01	1.962475e+04	
12	-6.00000e-01	2.037887e+04	
13	-6.50000e-01	2.119264e+04	
14	-7.00000e-01	2.207341e+04	
15	-7.50000e-01	2.302979e+04	
16	-8.00000e-01	2.407195e+04	
17	-8.50000e-01	2.521194e+04	
18	-9.00000e-01	2.646416e+04	
19	-9.50000e-01	2.784602e+04	
20	-1.00000e+00	2.937864e+04	
21	-1.05000e+00	3.108802e+04	
22	-1.10000e+00	3.300642e+04	
23	-1.15000e+00	3.517440e+04	
24	-1.20000e+00	3.764361e+04	
25	-1.25000e+00	4.048079e+04	
26	-1.30000e+00	4.377361e+04	
27	-1.35000e+00	4.763928e+04	
28	-1.40000e+00	5.223771e+04	
29	-1.45000e+00	5.779196e+04	
30	-1.50000e+00	6.462074e+04	
31	-1.55000e+00	7.319143e+04	
32	-1.60000e+00	8.420790e+04	
33	-1.65000e+00	9.875745e+04	
34	-1.70000e+00	1.185535e+05	
35	-1.75000e+00	1.463157e+05	
36	-1.80000e+00	1.862892e+05	
37	-1.85000e+00	2.447245e+05	
38	-1.90000e+00	3.297662e+05	
39	-1.95000e+00	4.499182e+05	
40	-2.00000e+00	6.109338e+05	
41	-2.05000e+00	8.127744e+05	
42	-2.10000e+00	1.049052e+06	
43	-2.15000e+00	1.309438e+06	
44	-2.20000e+00	1.583123e+06	
45	-2.25000e+00	1.861260e+06	
46	-2.30000e+00	2.137791e+06	
47	-2.35000e+00	2.409184e+06	
48	-2.40000e+00	2.673747e+06	
49	-2.45000e+00	2.930959e+06	
50	-2.50000e+00	3.180965e+06	
51	-2.55000e+00	3.424245e+06	
52	-2.60000e+00	3.661410e+06	
53	-2.65000e+00	3.893097e+06	
54	-2.70000e+00	4.119910e+06	

Index   v-sweep         rds             
--------------------------------------------------------------------------------
55	-2.75000e+00	4.342399e+06	
56	-2.80000e+00	4.561045e+06	
57	-2.85000e+00	4.776268e+06	
58	-2.90000e+00	4.988430e+06	
59	-2.95000e+00	5.197842e+06	
60	-3.00000e+00	5.404767e+06	
61	-3.05000e+00	5.609434e+06	
62	-3.10000e+00	5.812037e+06	
63	-3.15000e+00	6.012743e+06	
64	-3.20000e+00	6.211696e+06	
65	-3.25000e+00	6.409019e+06	
66	-3.30000e+00	6.604819e+06	
Reset re-loads circuit ***************************

Circuit: ***************************

Note: No ".plot", ".print", or ".fourier" lines; no simulations run
