
Note: Compatibility modes selected: hs

Warning: m=xx on .subckt line will override multiplier m hierarchy!


Circuit: ***************************

Doing analysis at TEMP = 25.000000 and TNOM = 25.000000


No. of Data Rows : 67
                          ***************************
                          DC transfer characteristic  Mon Jan  9 13:58:25  2023
--------------------------------------------------------------------------------
Index   v-sweep         rds             
--------------------------------------------------------------------------------
0	0.000000e+00	2.992953e+04	
1	-5.00000e-02	8.276412e+04	
2	-1.00000e-01	4.692519e+05	
3	-1.50000e-01	1.775127e+06	
4	-2.00000e-01	3.317440e+06	
5	-2.50000e-01	4.446626e+06	
6	-3.00000e-01	5.233808e+06	
7	-3.50000e-01	5.826860e+06	
8	-4.00000e-01	6.309327e+06	
9	-4.50000e-01	6.723159e+06	
10	-5.00000e-01	7.090200e+06	
11	-5.50000e-01	7.422666e+06	
12	-6.00000e-01	7.727927e+06	
13	-6.50000e-01	8.010769e+06	
14	-7.00000e-01	8.274503e+06	
15	-7.50000e-01	8.521557e+06	
16	-8.00000e-01	8.753792e+06	
17	-8.50000e-01	8.972693e+06	
18	-9.00000e-01	9.179482e+06	
19	-9.50000e-01	9.375187e+06	
20	-1.00000e+00	9.560691e+06	
21	-1.05000e+00	9.736764e+06	
22	-1.10000e+00	9.904084e+06	
23	-1.15000e+00	1.006326e+07	
24	-1.20000e+00	1.021483e+07	
25	-1.25000e+00	1.035928e+07	
26	-1.30000e+00	1.049707e+07	
27	-1.35000e+00	1.062860e+07	
28	-1.40000e+00	1.075424e+07	
29	-1.45000e+00	1.087433e+07	
30	-1.50000e+00	1.098918e+07	
31	-1.55000e+00	1.109909e+07	
32	-1.60000e+00	1.120432e+07	
33	-1.65000e+00	1.130510e+07	
34	-1.70000e+00	1.140167e+07	
35	-1.75000e+00	1.149421e+07	
36	-1.80000e+00	1.158290e+07	
37	-1.85000e+00	1.166787e+07	
38	-1.90000e+00	1.174925e+07	
39	-1.95000e+00	1.182711e+07	
40	-2.00000e+00	1.190148e+07	
41	-2.05000e+00	1.197235e+07	
42	-2.10000e+00	1.203966e+07	
43	-2.15000e+00	1.210327e+07	
44	-2.20000e+00	1.216298e+07	
45	-2.25000e+00	1.221850e+07	
46	-2.30000e+00	1.226945e+07	
47	-2.35000e+00	1.231537e+07	
48	-2.40000e+00	1.235566e+07	
49	-2.45000e+00	1.238964e+07	
50	-2.50000e+00	1.241648e+07	
51	-2.55000e+00	1.243527e+07	
52	-2.60000e+00	1.244496e+07	
53	-2.65000e+00	1.244439e+07	
54	-2.70000e+00	1.243233e+07	

Index   v-sweep         rds             
--------------------------------------------------------------------------------
55	-2.75000e+00	1.240746e+07	
56	-2.80000e+00	1.236841e+07	
57	-2.85000e+00	1.231380e+07	
58	-2.90000e+00	1.224228e+07	
59	-2.95000e+00	1.215254e+07	
60	-3.00000e+00	1.204344e+07	
61	-3.05000e+00	1.191395e+07	
62	-3.10000e+00	1.176332e+07	
63	-3.15000e+00	1.159104e+07	
64	-3.20000e+00	1.139695e+07	
65	-3.25000e+00	1.118121e+07	
66	-3.30000e+00	1.094439e+07	
Reset re-loads circuit ***************************

Circuit: ***************************

Doing analysis at TEMP = 25.000000 and TNOM = 25.000000


No. of Data Rows : 67
                          ***************************
                          DC transfer characteristic  Mon Jan  9 13:58:25  2023
--------------------------------------------------------------------------------
Index   v-sweep         rds             
--------------------------------------------------------------------------------
0	0.000000e+00	2.527456e+03	
1	-5.00000e-02	2.855778e+03	
2	-1.00000e-01	3.276492e+03	
3	-1.50000e-01	3.834398e+03	
4	-2.00000e-01	4.607918e+03	
5	-2.50000e-01	5.745746e+03	
6	-3.00000e-01	7.557628e+03	
7	-3.50000e-01	1.075111e+04	
8	-4.00000e-01	1.697680e+04	
9	-4.50000e-01	2.922649e+04	
10	-5.00000e-01	4.909223e+04	
11	-5.50000e-01	7.249938e+04	
12	-6.00000e-01	9.427160e+04	
13	-6.50000e-01	1.129365e+05	
14	-7.00000e-01	1.290771e+05	
15	-7.50000e-01	1.435030e+05	
16	-8.00000e-01	1.567884e+05	
17	-8.50000e-01	1.692895e+05	
18	-9.00000e-01	1.812226e+05	
19	-9.50000e-01	1.927214e+05	
20	-1.00000e+00	2.038713e+05	
21	-1.05000e+00	2.147285e+05	
22	-1.10000e+00	2.253316e+05	
23	-1.15000e+00	2.357077e+05	
24	-1.20000e+00	2.458771e+05	
25	-1.25000e+00	2.558549e+05	
26	-1.30000e+00	2.656529e+05	
27	-1.35000e+00	2.752807e+05	
28	-1.40000e+00	2.847462e+05	
29	-1.45000e+00	2.940560e+05	
30	-1.50000e+00	3.032159e+05	
31	-1.55000e+00	3.122309e+05	
32	-1.60000e+00	3.211056e+05	
33	-1.65000e+00	3.298440e+05	
34	-1.70000e+00	3.384498e+05	
35	-1.75000e+00	3.469266e+05	
36	-1.80000e+00	3.552775e+05	
37	-1.85000e+00	3.635055e+05	
38	-1.90000e+00	3.716132e+05	
39	-1.95000e+00	3.796033e+05	
40	-2.00000e+00	3.874776e+05	
41	-2.05000e+00	3.952380e+05	
42	-2.10000e+00	4.028855e+05	
43	-2.15000e+00	4.104202e+05	
44	-2.20000e+00	4.178412e+05	
45	-2.25000e+00	4.251459e+05	
46	-2.30000e+00	4.323296e+05	
47	-2.35000e+00	4.393849e+05	
48	-2.40000e+00	4.463009e+05	
49	-2.45000e+00	4.530621e+05	
50	-2.50000e+00	4.596479e+05	
51	-2.55000e+00	4.660311e+05	
52	-2.60000e+00	4.721766e+05	
53	-2.65000e+00	4.780407e+05	
54	-2.70000e+00	4.835698e+05	

Index   v-sweep         rds             
--------------------------------------------------------------------------------
55	-2.75000e+00	4.886989e+05	
56	-2.80000e+00	4.933517e+05	
57	-2.85000e+00	4.974394e+05	
58	-2.90000e+00	5.008614e+05	
59	-2.95000e+00	5.035062e+05	
60	-3.00000e+00	5.052526e+05	
61	-3.05000e+00	5.059734e+05	
62	-3.10000e+00	5.055388e+05	
63	-3.15000e+00	5.038219e+05	
64	-3.20000e+00	5.007047e+05	
65	-3.25000e+00	4.960856e+05	
66	-3.30000e+00	4.898863e+05	
Reset re-loads circuit ***************************

Circuit: ***************************

Doing analysis at TEMP = 25.000000 and TNOM = 25.000000


No. of Data Rows : 67
                          ***************************
                          DC transfer characteristic  Mon Jan  9 13:58:25  2023
--------------------------------------------------------------------------------
Index   v-sweep         rds             
--------------------------------------------------------------------------------
0	0.000000e+00	1.386976e+03	
1	-5.00000e-02	1.477964e+03	
2	-1.00000e-01	1.580705e+03	
3	-1.50000e-01	1.697621e+03	
4	-2.00000e-01	1.831849e+03	
5	-2.50000e-01	1.987521e+03	
6	-3.00000e-01	2.170185e+03	
7	-3.50000e-01	2.387462e+03	
8	-4.00000e-01	2.650098e+03	
9	-4.50000e-01	2.973699e+03	
10	-5.00000e-01	3.381713e+03	
11	-5.50000e-01	3.910737e+03	
12	-6.00000e-01	4.620251e+03	
13	-6.50000e-01	5.610608e+03	
14	-7.00000e-01	7.054147e+03	
15	-7.50000e-01	9.234348e+03	
16	-8.00000e-01	1.253017e+04	
17	-8.50000e-01	1.717823e+04	
18	-9.00000e-01	2.286473e+04	
19	-9.50000e-01	2.882654e+04	
20	-1.00000e+00	3.448420e+04	
21	-1.05000e+00	3.967356e+04	
22	-1.10000e+00	4.445195e+04	
23	-1.15000e+00	4.892241e+04	
24	-1.20000e+00	5.317106e+04	
25	-1.25000e+00	5.725832e+04	
26	-1.30000e+00	6.122453e+04	
27	-1.35000e+00	6.509639e+04	
28	-1.40000e+00	6.889180e+04	
29	-1.45000e+00	7.262298e+04	
30	-1.50000e+00	7.629848e+04	
31	-1.55000e+00	7.992440e+04	
32	-1.60000e+00	8.350525e+04	
33	-1.65000e+00	8.704438e+04	
34	-1.70000e+00	9.054439e+04	
35	-1.75000e+00	9.400731e+04	
36	-1.80000e+00	9.743477e+04	
37	-1.85000e+00	1.008281e+05	
38	-1.90000e+00	1.041885e+05	
39	-1.95000e+00	1.075168e+05	
40	-2.00000e+00	1.108139e+05	
41	-2.05000e+00	1.140806e+05	
42	-2.10000e+00	1.173174e+05	
43	-2.15000e+00	1.205250e+05	
44	-2.20000e+00	1.237038e+05	
45	-2.25000e+00	1.268544e+05	
46	-2.30000e+00	1.299770e+05	
47	-2.35000e+00	1.330722e+05	
48	-2.40000e+00	1.361399e+05	
49	-2.45000e+00	1.391802e+05	
50	-2.50000e+00	1.421930e+05	
51	-2.55000e+00	1.451775e+05	
52	-2.60000e+00	1.481326e+05	
53	-2.65000e+00	1.510565e+05	
54	-2.70000e+00	1.539464e+05	

Index   v-sweep         rds             
--------------------------------------------------------------------------------
55	-2.75000e+00	1.567982e+05	
56	-2.80000e+00	1.596063e+05	
57	-2.85000e+00	1.623630e+05	
58	-2.90000e+00	1.650581e+05	
59	-2.95000e+00	1.676784e+05	
60	-3.00000e+00	1.702070e+05	
61	-3.05000e+00	1.726231e+05	
62	-3.10000e+00	1.749011e+05	
63	-3.15000e+00	1.770103e+05	
64	-3.20000e+00	1.789147e+05	
65	-3.25000e+00	1.805726e+05	
66	-3.30000e+00	1.819373e+05	
Reset re-loads circuit ***************************

Circuit: ***************************

Doing analysis at TEMP = 25.000000 and TNOM = 25.000000


No. of Data Rows : 67
                          ***************************
                          DC transfer characteristic  Mon Jan  9 13:58:25  2023
--------------------------------------------------------------------------------
Index   v-sweep         rds             
--------------------------------------------------------------------------------
0	0.000000e+00	1.015640e+03	
1	-5.00000e-02	1.060610e+03	
2	-1.00000e-01	1.109330e+03	
3	-1.50000e-01	1.162287e+03	
4	-2.00000e-01	1.220056e+03	
5	-2.50000e-01	1.283321e+03	
6	-3.00000e-01	1.352903e+03	
7	-3.50000e-01	1.429793e+03	
8	-4.00000e-01	1.515200e+03	
9	-4.50000e-01	1.610615e+03	
10	-5.00000e-01	1.717896e+03	
11	-5.50000e-01	1.839389e+03	
12	-6.00000e-01	1.978094e+03	
13	-6.50000e-01	2.137910e+03	
14	-7.00000e-01	2.323993e+03	
15	-7.50000e-01	2.543281e+03	
16	-8.00000e-01	2.805316e+03	
17	-8.50000e-01	3.123508e+03	
18	-9.00000e-01	3.517134e+03	
19	-9.50000e-01	4.014478e+03	
20	-1.00000e+00	4.657566e+03	
21	-1.05000e+00	5.508322e+03	
22	-1.10000e+00	6.652870e+03	
23	-1.15000e+00	8.191763e+03	
24	-1.20000e+00	1.019361e+04	
25	-1.25000e+00	1.261593e+04	
26	-1.30000e+00	1.528243e+04	
27	-1.35000e+00	1.798503e+04	
28	-1.40000e+00	2.059554e+04	
29	-1.45000e+00	2.307685e+04	
30	-1.50000e+00	2.543955e+04	
31	-1.55000e+00	2.770733e+04	
32	-1.60000e+00	2.990233e+04	
33	-1.65000e+00	3.204155e+04	
34	-1.70000e+00	3.413721e+04	
35	-1.75000e+00	3.619787e+04	
36	-1.80000e+00	3.822954e+04	
37	-1.85000e+00	4.023648e+04	
38	-1.90000e+00	4.222175e+04	
39	-1.95000e+00	4.418758e+04	
40	-2.00000e+00	4.613563e+04	
41	-2.05000e+00	4.806718e+04	
42	-2.10000e+00	4.998318e+04	
43	-2.15000e+00	5.188441e+04	
44	-2.20000e+00	5.377148e+04	
45	-2.25000e+00	5.564490e+04	
46	-2.30000e+00	5.750507e+04	
47	-2.35000e+00	5.935234e+04	
48	-2.40000e+00	6.118702e+04	
49	-2.45000e+00	6.300935e+04	
50	-2.50000e+00	6.481958e+04	
51	-2.55000e+00	6.661789e+04	
52	-2.60000e+00	6.840445e+04	
53	-2.65000e+00	7.017942e+04	
54	-2.70000e+00	7.194288e+04	

Index   v-sweep         rds             
--------------------------------------------------------------------------------
55	-2.75000e+00	7.369490e+04	
56	-2.80000e+00	7.543544e+04	
57	-2.85000e+00	7.716436e+04	
58	-2.90000e+00	7.888136e+04	
59	-2.95000e+00	8.058587e+04	
60	-3.00000e+00	8.227699e+04	
61	-3.05000e+00	8.395335e+04	
62	-3.10000e+00	8.561296e+04	
63	-3.15000e+00	8.725297e+04	
64	-3.20000e+00	8.886949e+04	
65	-3.25000e+00	9.045729e+04	
66	-3.30000e+00	9.200952e+04	
Reset re-loads circuit ***************************

Circuit: ***************************

Doing analysis at TEMP = 25.000000 and TNOM = 25.000000


No. of Data Rows : 67
                          ***************************
                          DC transfer characteristic  Mon Jan  9 13:58:25  2023
--------------------------------------------------------------------------------
Index   v-sweep         rds             
--------------------------------------------------------------------------------
0	0.000000e+00	8.345788e+02	
1	-5.00000e-02	8.625610e+02	
2	-1.00000e-01	8.922597e+02	
3	-1.50000e-01	9.238368e+02	
4	-2.00000e-01	9.574752e+02	
5	-2.50000e-01	9.933823e+02	
6	-3.00000e-01	1.031795e+03	
7	-3.50000e-01	1.072982e+03	
8	-4.00000e-01	1.117256e+03	
9	-4.50000e-01	1.164974e+03	
10	-5.00000e-01	1.216552e+03	
11	-5.50000e-01	1.272478e+03	
12	-6.00000e-01	1.333321e+03	
13	-6.50000e-01	1.399756e+03	
14	-7.00000e-01	1.472589e+03	
15	-7.50000e-01	1.552784e+03	
16	-8.00000e-01	1.641510e+03	
17	-8.50000e-01	1.740194e+03	
18	-9.00000e-01	1.850599e+03	
19	-9.50000e-01	1.974923e+03	
20	-1.00000e+00	2.115942e+03	
21	-1.05000e+00	2.277204e+03	
22	-1.10000e+00	2.463312e+03	
23	-1.15000e+00	2.680318e+03	
24	-1.20000e+00	2.936297e+03	
25	-1.25000e+00	3.242170e+03	
26	-1.30000e+00	3.612846e+03	
27	-1.35000e+00	4.068700e+03	
28	-1.40000e+00	4.637088e+03	
29	-1.45000e+00	5.352717e+03	
30	-1.50000e+00	6.253798e+03	
31	-1.55000e+00	7.369190e+03	
32	-1.60000e+00	8.696288e+03	
33	-1.65000e+00	1.018596e+04	
34	-1.70000e+00	1.175835e+04	
35	-1.75000e+00	1.334093e+04	
36	-1.80000e+00	1.489205e+04	
37	-1.85000e+00	1.639810e+04	
38	-1.90000e+00	1.786053e+04	
39	-1.95000e+00	1.928596e+04	
40	-2.00000e+00	2.068142e+04	
41	-2.05000e+00	2.205279e+04	
42	-2.10000e+00	2.340458e+04	
43	-2.15000e+00	2.474013e+04	
44	-2.20000e+00	2.606186e+04	
45	-2.25000e+00	2.737155e+04	
46	-2.30000e+00	2.867054e+04	
47	-2.35000e+00	2.995979e+04	
48	-2.40000e+00	3.124006e+04	
49	-2.45000e+00	3.251192e+04	
50	-2.50000e+00	3.377580e+04	
51	-2.55000e+00	3.503208e+04	
52	-2.60000e+00	3.628102e+04	
53	-2.65000e+00	3.752286e+04	
54	-2.70000e+00	3.875780e+04	

Index   v-sweep         rds             
--------------------------------------------------------------------------------
55	-2.75000e+00	3.998599e+04	
56	-2.80000e+00	4.120757e+04	
57	-2.85000e+00	4.242266e+04	
58	-2.90000e+00	4.363137e+04	
59	-2.95000e+00	4.483377e+04	
60	-3.00000e+00	4.602995e+04	
61	-3.05000e+00	4.721995e+04	
62	-3.10000e+00	4.840380e+04	
63	-3.15000e+00	4.958147e+04	
64	-3.20000e+00	5.075290e+04	
65	-3.25000e+00	5.191791e+04	
66	-3.30000e+00	5.307620e+04	
Reset re-loads circuit ***************************

Circuit: ***************************

Doing analysis at TEMP = 25.000000 and TNOM = 25.000000


No. of Data Rows : 67
                          ***************************
                          DC transfer characteristic  Mon Jan  9 13:58:25  2023
--------------------------------------------------------------------------------
Index   v-sweep         rds             
--------------------------------------------------------------------------------
0	0.000000e+00	7.311615e+02	
1	-5.00000e-02	7.509405e+02	
2	-1.00000e-01	7.716782e+02	
3	-1.50000e-01	7.934453e+02	
4	-2.00000e-01	8.163199e+02	
5	-2.50000e-01	8.403881e+02	
6	-3.00000e-01	8.657452e+02	
7	-3.50000e-01	8.924968e+02	
8	-4.00000e-01	9.207605e+02	
9	-4.50000e-01	9.506675e+02	
10	-5.00000e-01	9.823644e+02	
11	-5.50000e-01	1.016016e+03	
12	-6.00000e-01	1.051808e+03	
13	-6.50000e-01	1.089950e+03	
14	-7.00000e-01	1.130680e+03	
15	-7.50000e-01	1.174270e+03	
16	-8.00000e-01	1.221030e+03	
17	-8.50000e-01	1.271317e+03	
18	-9.00000e-01	1.325544e+03	
19	-9.50000e-01	1.384191e+03	
20	-1.00000e+00	1.447817e+03	
21	-1.05000e+00	1.517080e+03	
22	-1.10000e+00	1.592761e+03	
23	-1.15000e+00	1.675788e+03	
24	-1.20000e+00	1.767275e+03	
25	-1.25000e+00	1.868573e+03	
26	-1.30000e+00	1.981329e+03	
27	-1.35000e+00	2.107575e+03	
28	-1.40000e+00	2.249840e+03	
29	-1.45000e+00	2.411303e+03	
30	-1.50000e+00	2.596003e+03	
31	-1.55000e+00	2.809118e+03	
32	-1.60000e+00	3.057342e+03	
33	-1.65000e+00	3.349353e+03	
34	-1.70000e+00	3.696358e+03	
35	-1.75000e+00	4.112525e+03	
36	-1.80000e+00	4.614878e+03	
37	-1.85000e+00	5.221644e+03	
38	-1.90000e+00	5.947692e+03	
39	-1.95000e+00	6.796670e+03	
40	-2.00000e+00	7.753643e+03	
41	-2.05000e+00	8.786005e+03	
42	-2.10000e+00	9.855340e+03	
43	-2.15000e+00	1.093106e+04	
44	-2.20000e+00	1.199584e+04	
45	-2.25000e+00	1.304308e+04	
46	-2.30000e+00	1.407216e+04	
47	-2.35000e+00	1.508491e+04	
48	-2.40000e+00	1.608371e+04	
49	-2.45000e+00	1.707075e+04	
50	-2.50000e+00	1.804786e+04	
51	-2.55000e+00	1.901641e+04	
52	-2.60000e+00	1.997750e+04	
53	-2.65000e+00	2.093191e+04	
54	-2.70000e+00	2.188028e+04	

Index   v-sweep         rds             
--------------------------------------------------------------------------------
55	-2.75000e+00	2.282305e+04	
56	-2.80000e+00	2.376060e+04	
57	-2.85000e+00	2.469321e+04	
58	-2.90000e+00	2.562110e+04	
59	-2.95000e+00	2.654444e+04	
60	-3.00000e+00	2.746339e+04	
61	-3.05000e+00	2.837805e+04	
62	-3.10000e+00	2.928853e+04	
63	-3.15000e+00	3.019491e+04	
64	-3.20000e+00	3.109726e+04	
65	-3.25000e+00	3.199564e+04	
66	-3.30000e+00	3.289011e+04	
Reset re-loads circuit ***************************

Circuit: ***************************

Note: No ".plot", ".print", or ".fourier" lines; no simulations run
