
Note: Compatibility modes selected: hs

Warning: m=xx on .subckt line will override multiplier m hierarchy!


Circuit: ***************************

Doing analysis at TEMP = -40.000000 and TNOM = -40.000000


No. of Data Rows : 67
                          ***************************
                          DC transfer characteristic  Mon Jan  9 13:58:26  2023
--------------------------------------------------------------------------------
Index   v-sweep         rds             
--------------------------------------------------------------------------------
0	0.000000e+00	3.177628e+06	
1	-5.00000e-02	2.918055e+07	
2	-1.00000e-01	2.438992e+08	
3	-1.50000e-01	7.026531e+08	
4	-2.00000e-01	1.162982e+09	
5	-2.50000e-01	1.515065e+09	
6	-3.00000e-01	1.777680e+09	
7	-3.50000e-01	1.983513e+09	
8	-4.00000e-01	2.153903e+09	
9	-4.50000e-01	2.301056e+09	
10	-5.00000e-01	2.431974e+09	
11	-5.50000e-01	2.550843e+09	
12	-6.00000e-01	2.660295e+09	
13	-6.50000e-01	2.762076e+09	
14	-7.00000e-01	2.857398e+09	
15	-7.50000e-01	2.947145e+09	
16	-8.00000e-01	3.031987e+09	
17	-8.50000e-01	3.112447e+09	
18	-9.00000e-01	3.188948e+09	
19	-9.50000e-01	3.261843e+09	
20	-1.00000e+00	3.331425e+09	
21	-1.05000e+00	3.397950e+09	
22	-1.10000e+00	3.461640e+09	
23	-1.15000e+00	3.522689e+09	
24	-1.20000e+00	3.581271e+09	
25	-1.25000e+00	3.637543e+09	
26	-1.30000e+00	3.691645e+09	
27	-1.35000e+00	3.743707e+09	
28	-1.40000e+00	3.793843e+09	
29	-1.45000e+00	3.842162e+09	
30	-1.50000e+00	3.888761e+09	
31	-1.55000e+00	3.933730e+09	
32	-1.60000e+00	3.977152e+09	
33	-1.65000e+00	4.019100e+09	
34	-1.70000e+00	4.059642e+09	
35	-1.75000e+00	4.098836e+09	
36	-1.80000e+00	4.136733e+09	
37	-1.85000e+00	4.173373e+09	
38	-1.90000e+00	4.208785e+09	
39	-1.95000e+00	4.242984e+09	
40	-2.00000e+00	4.275972e+09	
41	-2.05000e+00	4.307731e+09	
42	-2.10000e+00	4.338223e+09	
43	-2.15000e+00	4.367386e+09	
44	-2.20000e+00	4.395134e+09	
45	-2.25000e+00	4.421347e+09	
46	-2.30000e+00	4.445874e+09	
47	-2.35000e+00	4.468528e+09	
48	-2.40000e+00	4.489083e+09	
49	-2.45000e+00	4.507273e+09	
50	-2.50000e+00	4.522790e+09	
51	-2.55000e+00	4.535284e+09	
52	-2.60000e+00	4.544366e+09	
53	-2.65000e+00	4.549610e+09	
54	-2.70000e+00	4.550557e+09	

Index   v-sweep         rds             
--------------------------------------------------------------------------------
55	-2.75000e+00	4.546725e+09	
56	-2.80000e+00	4.537617e+09	
57	-2.85000e+00	4.522730e+09	
58	-2.90000e+00	4.501574e+09	
59	-2.95000e+00	4.473685e+09	
60	-3.00000e+00	4.438644e+09	
61	-3.05000e+00	4.396095e+09	
62	-3.10000e+00	4.345762e+09	
63	-3.15000e+00	4.287469e+09	
64	-3.20000e+00	4.221154e+09	
65	-3.25000e+00	4.146880e+09	
66	-3.30000e+00	4.064844e+09	
Reset re-loads circuit ***************************

Circuit: ***************************

Doing analysis at TEMP = -40.000000 and TNOM = -40.000000


No. of Data Rows : 67
                          ***************************
                          DC transfer characteristic  Mon Jan  9 13:58:26  2023
--------------------------------------------------------------------------------
Index   v-sweep         rds             
--------------------------------------------------------------------------------
0	0.000000e+00	9.396108e+04	
1	-5.00000e-02	1.096948e+05	
2	-1.00000e-01	1.315519e+05	
3	-1.50000e-01	1.638583e+05	
4	-2.00000e-01	2.159497e+05	
5	-2.50000e-01	3.109525e+05	
6	-3.00000e-01	5.140832e+05	
7	-3.50000e-01	1.005670e+06	
8	-4.00000e-01	2.098569e+06	
9	-4.50000e-01	3.854319e+06	
10	-5.00000e-01	5.851159e+06	
11	-5.50000e-01	7.708461e+06	
12	-6.00000e-01	9.329991e+06	
13	-6.50000e-01	1.075365e+07	
14	-7.00000e-01	1.203615e+07	
15	-7.50000e-01	1.322130e+07	
16	-8.00000e-01	1.433846e+07	
17	-8.50000e-01	1.540666e+07	
18	-9.00000e-01	1.643828e+07	
19	-9.50000e-01	1.744156e+07	
20	-1.00000e+00	1.842204e+07	
21	-1.05000e+00	1.938361e+07	
22	-1.10000e+00	2.032902e+07	
23	-1.15000e+00	2.126028e+07	
24	-1.20000e+00	2.217888e+07	
25	-1.25000e+00	2.308596e+07	
26	-1.30000e+00	2.398239e+07	
27	-1.35000e+00	2.486888e+07	
28	-1.40000e+00	2.574599e+07	
29	-1.45000e+00	2.661417e+07	
30	-1.50000e+00	2.747381e+07	
31	-1.55000e+00	2.832522e+07	
32	-1.60000e+00	2.916868e+07	
33	-1.65000e+00	3.000442e+07	
34	-1.70000e+00	3.083267e+07	
35	-1.75000e+00	3.165359e+07	
36	-1.80000e+00	3.246734e+07	
37	-1.85000e+00	3.327406e+07	
38	-1.90000e+00	3.407384e+07	
39	-1.95000e+00	3.486675e+07	
40	-2.00000e+00	3.565281e+07	
41	-2.05000e+00	3.643196e+07	
42	-2.10000e+00	3.720405e+07	
43	-2.15000e+00	3.796881e+07	
44	-2.20000e+00	3.872577e+07	
45	-2.25000e+00	3.947424e+07	
46	-2.30000e+00	4.021325e+07	
47	-2.35000e+00	4.094141e+07	
48	-2.40000e+00	4.165688e+07	
49	-2.45000e+00	4.235723e+07	
50	-2.50000e+00	4.303934e+07	
51	-2.55000e+00	4.369929e+07	
52	-2.60000e+00	4.433220e+07	
53	-2.65000e+00	4.493216e+07	
54	-2.70000e+00	4.549214e+07	

Index   v-sweep         rds             
--------------------------------------------------------------------------------
55	-2.75000e+00	4.600387e+07	
56	-2.80000e+00	4.645787e+07	
57	-2.85000e+00	4.684349e+07	
58	-2.90000e+00	4.714901e+07	
59	-2.95000e+00	4.736186e+07	
60	-3.00000e+00	4.746900e+07	
61	-3.05000e+00	4.745731e+07	
62	-3.10000e+00	4.731423e+07	
63	-3.15000e+00	4.702841e+07	
64	-3.20000e+00	4.659043e+07	
65	-3.25000e+00	4.599357e+07	
66	-3.30000e+00	4.523449e+07	
Reset re-loads circuit ***************************

Circuit: ***************************

Doing analysis at TEMP = -40.000000 and TNOM = -40.000000


No. of Data Rows : 67
                          ***************************
                          DC transfer characteristic  Mon Jan  9 13:58:26  2023
--------------------------------------------------------------------------------
Index   v-sweep         rds             
--------------------------------------------------------------------------------
0	0.000000e+00	4.617766e+04	
1	-5.00000e-02	4.960145e+04	
2	-1.00000e-01	5.355159e+04	
3	-1.50000e-01	5.815910e+04	
4	-2.00000e-01	6.360217e+04	
5	-2.50000e-01	7.012924e+04	
6	-3.00000e-01	7.809690e+04	
7	-3.50000e-01	8.803460e+04	
8	-4.00000e-01	1.007606e+05	
9	-4.50000e-01	1.175999e+05	
10	-5.00000e-01	1.408176e+05	
11	-5.50000e-01	1.745195e+05	
12	-6.00000e-01	2.265572e+05	
13	-6.50000e-01	3.122346e+05	
14	-7.00000e-01	4.588906e+05	
15	-7.50000e-01	7.009060e+05	
16	-8.00000e-01	1.048146e+06	
17	-8.50000e-01	1.459368e+06	
18	-9.00000e-01	1.876151e+06	
19	-9.50000e-01	2.266008e+06	
20	-1.00000e+00	2.622962e+06	
21	-1.05000e+00	2.952103e+06	
22	-1.10000e+00	3.260302e+06	
23	-1.15000e+00	3.553239e+06	
24	-1.20000e+00	3.835031e+06	
25	-1.25000e+00	4.108537e+06	
26	-1.30000e+00	4.375729e+06	
27	-1.35000e+00	4.637975e+06	
28	-1.40000e+00	4.896241e+06	
29	-1.45000e+00	5.151218e+06	
30	-1.50000e+00	5.403407e+06	
31	-1.55000e+00	5.653181e+06	
32	-1.60000e+00	5.900822e+06	
33	-1.65000e+00	6.146543e+06	
34	-1.70000e+00	6.390511e+06	
35	-1.75000e+00	6.632857e+06	
36	-1.80000e+00	6.873687e+06	
37	-1.85000e+00	7.113084e+06	
38	-1.90000e+00	7.351119e+06	
39	-1.95000e+00	7.587848e+06	
40	-2.00000e+00	7.823319e+06	
41	-2.05000e+00	8.057572e+06	
42	-2.10000e+00	8.290642e+06	
43	-2.15000e+00	8.522556e+06	
44	-2.20000e+00	8.753336e+06	
45	-2.25000e+00	8.982997e+06	
46	-2.30000e+00	9.211546e+06	
47	-2.35000e+00	9.438978e+06	
48	-2.40000e+00	9.665270e+06	
49	-2.45000e+00	9.890378e+06	
50	-2.50000e+00	1.011422e+07	
51	-2.55000e+00	1.033668e+07	
52	-2.60000e+00	1.055758e+07	
53	-2.65000e+00	1.077664e+07	
54	-2.70000e+00	1.099350e+07	

Index   v-sweep         rds             
--------------------------------------------------------------------------------
55	-2.75000e+00	1.120766e+07	
56	-2.80000e+00	1.141846e+07	
57	-2.85000e+00	1.162504e+07	
58	-2.90000e+00	1.182630e+07	
59	-2.95000e+00	1.202087e+07	
60	-3.00000e+00	1.220707e+07	
61	-3.05000e+00	1.238285e+07	
62	-3.10000e+00	1.254580e+07	
63	-3.15000e+00	1.269311e+07	
64	-3.20000e+00	1.282159e+07	
65	-3.25000e+00	1.292768e+07	
66	-3.30000e+00	1.300752e+07	
Reset re-loads circuit ***************************

Circuit: ***************************

Doing analysis at TEMP = -40.000000 and TNOM = -40.000000


No. of Data Rows : 67
                          ***************************
                          DC transfer characteristic  Mon Jan  9 13:58:26  2023
--------------------------------------------------------------------------------
Index   v-sweep         rds             
--------------------------------------------------------------------------------
0	0.000000e+00	3.279768e+04	
1	-5.00000e-02	3.437933e+04	
2	-1.00000e-01	3.611282e+04	
3	-1.50000e-01	3.802107e+04	
4	-2.00000e-01	4.013185e+04	
5	-2.50000e-01	4.247914e+04	
6	-3.00000e-01	4.510491e+04	
7	-3.50000e-01	4.806170e+04	
8	-4.00000e-01	5.141603e+04	
9	-4.50000e-01	5.525346e+04	
10	-5.00000e-01	5.968578e+04	
11	-5.50000e-01	6.486178e+04	
12	-6.00000e-01	7.098362e+04	
13	-6.50000e-01	7.833259e+04	
14	-7.00000e-01	8.731051e+04	
15	-7.50000e-01	9.850880e+04	
16	-8.00000e-01	1.128267e+05	
17	-8.50000e-01	1.316785e+05	
18	-9.00000e-01	1.573559e+05	
19	-9.50000e-01	1.936303e+05	
20	-1.00000e+00	2.465539e+05	
21	-1.05000e+00	3.247491e+05	
22	-1.10000e+00	4.369238e+05	
23	-1.15000e+00	5.848153e+05	
24	-1.20000e+00	7.578026e+05	
25	-1.25000e+00	9.388969e+05	
26	-1.30000e+00	1.115482e+06	
27	-1.35000e+00	1.282578e+06	
28	-1.40000e+00	1.440029e+06	
29	-1.45000e+00	1.589439e+06	
30	-1.50000e+00	1.732617e+06	
31	-1.55000e+00	1.871075e+06	
32	-1.60000e+00	2.005952e+06	
33	-1.65000e+00	2.138077e+06	
34	-1.70000e+00	2.268048e+06	
35	-1.75000e+00	2.396293e+06	
36	-1.80000e+00	2.523127e+06	
37	-1.85000e+00	2.648780e+06	
38	-1.90000e+00	2.773424e+06	
39	-1.95000e+00	2.897189e+06	
40	-2.00000e+00	3.020176e+06	
41	-2.05000e+00	3.142462e+06	
42	-2.10000e+00	3.264107e+06	
43	-2.15000e+00	3.385160e+06	
44	-2.20000e+00	3.505661e+06	
45	-2.25000e+00	3.625640e+06	
46	-2.30000e+00	3.745124e+06	
47	-2.35000e+00	3.864133e+06	
48	-2.40000e+00	3.982686e+06	
49	-2.45000e+00	4.100798e+06	
50	-2.50000e+00	4.218481e+06	
51	-2.55000e+00	4.335744e+06	
52	-2.60000e+00	4.452593e+06	
53	-2.65000e+00	4.569031e+06	
54	-2.70000e+00	4.685054e+06	

Index   v-sweep         rds             
--------------------------------------------------------------------------------
55	-2.75000e+00	4.800654e+06	
56	-2.80000e+00	4.915807e+06	
57	-2.85000e+00	5.030479e+06	
58	-2.90000e+00	5.144612e+06	
59	-2.95000e+00	5.258119e+06	
60	-3.00000e+00	5.370876e+06	
61	-3.05000e+00	5.482708e+06	
62	-3.10000e+00	5.593376e+06	
63	-3.15000e+00	5.702560e+06	
64	-3.20000e+00	5.809843e+06	
65	-3.25000e+00	5.914686e+06	
66	-3.30000e+00	6.016413e+06	
Reset re-loads circuit ***************************

Circuit: ***************************

Doing analysis at TEMP = -40.000000 and TNOM = -40.000000


No. of Data Rows : 67
                          ***************************
                          DC transfer characteristic  Mon Jan  9 13:58:26  2023
--------------------------------------------------------------------------------
Index   v-sweep         rds             
--------------------------------------------------------------------------------
0	0.000000e+00	2.598686e+04	
1	-5.00000e-02	2.689916e+04	
2	-1.00000e-01	2.787352e+04	
3	-1.50000e-01	2.891649e+04	
4	-2.00000e-01	3.003558e+04	
5	-2.50000e-01	3.123939e+04	
6	-3.00000e-01	3.253792e+04	
7	-3.50000e-01	3.394277e+04	
8	-4.00000e-01	3.546753e+04	
9	-4.50000e-01	3.712819e+04	
10	-5.00000e-01	3.894373e+04	
11	-5.50000e-01	4.093679e+04	
12	-6.00000e-01	4.313468e+04	
13	-6.50000e-01	4.557054e+04	
14	-7.00000e-01	4.828508e+04	
15	-7.50000e-01	5.132876e+04	
16	-8.00000e-01	5.476490e+04	
17	-8.50000e-01	5.867402e+04	
18	-9.00000e-01	6.315996e+04	
19	-9.50000e-01	6.835879e+04	
20	-1.00000e+00	7.445197e+04	
21	-1.05000e+00	8.168616e+04	
22	-1.10000e+00	9.040365e+04	
23	-1.15000e+00	1.010897e+05	
24	-1.20000e+00	1.144464e+05	
25	-1.25000e+00	1.315070e+05	
26	-1.30000e+00	1.537985e+05	
27	-1.35000e+00	1.835322e+05	
28	-1.40000e+00	2.236769e+05	
29	-1.45000e+00	2.775165e+05	
30	-1.50000e+00	3.471658e+05	
31	-1.55000e+00	4.314617e+05	
32	-1.60000e+00	5.254801e+05	
33	-1.65000e+00	6.229945e+05	
34	-1.70000e+00	7.194080e+05	
35	-1.75000e+00	8.126002e+05	
36	-1.80000e+00	9.021718e+05	
37	-1.85000e+00	9.885022e+05	
38	-1.90000e+00	1.072180e+06	
39	-1.95000e+00	1.153763e+06	
40	-2.00000e+00	1.233705e+06	
41	-2.05000e+00	1.312355e+06	
42	-2.10000e+00	1.389977e+06	
43	-2.15000e+00	1.466766e+06	
44	-2.20000e+00	1.542867e+06	
45	-2.25000e+00	1.618390e+06	
46	-2.30000e+00	1.693420e+06	
47	-2.35000e+00	1.768019e+06	
48	-2.40000e+00	1.842236e+06	
49	-2.45000e+00	1.916112e+06	
50	-2.50000e+00	1.989676e+06	
51	-2.55000e+00	2.062953e+06	
52	-2.60000e+00	2.135962e+06	
53	-2.65000e+00	2.208720e+06	
54	-2.70000e+00	2.281239e+06	

Index   v-sweep         rds             
--------------------------------------------------------------------------------
55	-2.75000e+00	2.353531e+06	
56	-2.80000e+00	2.425605e+06	
57	-2.85000e+00	2.497468e+06	
58	-2.90000e+00	2.569126e+06	
59	-2.95000e+00	2.640583e+06	
60	-3.00000e+00	2.711842e+06	
61	-3.05000e+00	2.782904e+06	
62	-3.10000e+00	2.853765e+06	
63	-3.15000e+00	2.924418e+06	
64	-3.20000e+00	2.994848e+06	
65	-3.25000e+00	3.065031e+06	
66	-3.30000e+00	3.134928e+06	
Reset re-loads circuit ***************************

Circuit: ***************************

Doing analysis at TEMP = -40.000000 and TNOM = -40.000000


No. of Data Rows : 67
                          ***************************
                          DC transfer characteristic  Mon Jan  9 13:58:26  2023
--------------------------------------------------------------------------------
Index   v-sweep         rds             
--------------------------------------------------------------------------------
0	0.000000e+00	2.246935e+04	
1	-5.00000e-02	2.309358e+04	
2	-1.00000e-01	2.375081e+04	
3	-1.50000e-01	2.444372e+04	
4	-2.00000e-01	2.517528e+04	
5	-2.50000e-01	2.594882e+04	
6	-3.00000e-01	2.676804e+04	
7	-3.50000e-01	2.763711e+04	
8	-4.00000e-01	2.856070e+04	
9	-4.50000e-01	2.954410e+04	
10	-5.00000e-01	3.059329e+04	
11	-5.50000e-01	3.171510e+04	
12	-6.00000e-01	3.291732e+04	
13	-6.50000e-01	3.420887e+04	
14	-7.00000e-01	3.560010e+04	
15	-7.50000e-01	3.710295e+04	
16	-8.00000e-01	3.873138e+04	
17	-8.50000e-01	4.050178e+04	
18	-9.00000e-01	4.243348e+04	
19	-9.50000e-01	4.454949e+04	
20	-1.00000e+00	4.687738e+04	
21	-1.05000e+00	4.945049e+04	
22	-1.10000e+00	5.230946e+04	
23	-1.15000e+00	5.550435e+04	
24	-1.20000e+00	5.909746e+04	
25	-1.25000e+00	6.316727e+04	
26	-1.30000e+00	6.781388e+04	
27	-1.35000e+00	7.316668e+04	
28	-1.40000e+00	7.939543e+04	
29	-1.45000e+00	8.672614e+04	
30	-1.50000e+00	9.546431e+04	
31	-1.55000e+00	1.060283e+05	
32	-1.60000e+00	1.189964e+05	
33	-1.65000e+00	1.351670e+05	
34	-1.70000e+00	1.556213e+05	
35	-1.75000e+00	1.817410e+05	
36	-1.80000e+00	2.150697e+05	
37	-1.85000e+00	2.568579e+05	
38	-1.90000e+00	3.072926e+05	
39	-1.95000e+00	3.649161e+05	
40	-2.00000e+00	4.269797e+05	
41	-2.05000e+00	4.906211e+05	
42	-2.10000e+00	5.538339e+05	
43	-2.15000e+00	6.156474e+05	
44	-2.20000e+00	6.758111e+05	
45	-2.25000e+00	7.344315e+05	
46	-2.30000e+00	7.917379e+05	
47	-2.35000e+00	8.479702e+05	
48	-2.40000e+00	9.033369e+05	
49	-2.45000e+00	9.580059e+05	
50	-2.50000e+00	1.012108e+06	
51	-2.55000e+00	1.065744e+06	
52	-2.60000e+00	1.118990e+06	
53	-2.65000e+00	1.171907e+06	
54	-2.70000e+00	1.224538e+06	

Index   v-sweep         rds             
--------------------------------------------------------------------------------
55	-2.75000e+00	1.276920e+06	
56	-2.80000e+00	1.329081e+06	
57	-2.85000e+00	1.381042e+06	
58	-2.90000e+00	1.432821e+06	
59	-2.95000e+00	1.484432e+06	
60	-3.00000e+00	1.535887e+06	
61	-3.05000e+00	1.587194e+06	
62	-3.10000e+00	1.638362e+06	
63	-3.15000e+00	1.689396e+06	
64	-3.20000e+00	1.740303e+06	
65	-3.25000e+00	1.791086e+06	
66	-3.30000e+00	1.841749e+06	
Reset re-loads circuit ***************************

Circuit: ***************************

Note: No ".plot", ".print", or ".fourier" lines; no simulations run
