
Note: Compatibility modes selected: hs

Warning: m=xx on .subckt line will override multiplier m hierarchy!


Circuit: ***************************

Doing analysis at TEMP = 25.000000 and TNOM = 25.000000


No. of Data Rows : 67
                          ***************************
                          DC transfer characteristic  Mon Jan  9 13:58:25  2023
--------------------------------------------------------------------------------
Index   v-sweep         rds             
--------------------------------------------------------------------------------
0	0.000000e+00	6.016230e+04	
1	-5.00000e-02	1.896514e+05	
2	-1.00000e-01	1.279234e+06	
3	-1.50000e-01	5.505366e+06	
4	-2.00000e-01	1.216895e+07	
5	-2.50000e-01	1.856377e+07	
6	-3.00000e-01	2.371873e+07	
7	-3.50000e-01	2.781530e+07	
8	-4.00000e-01	3.118981e+07	
9	-4.50000e-01	3.408465e+07	
10	-5.00000e-01	3.665032e+07	
11	-5.50000e-01	3.897877e+07	
12	-6.00000e-01	4.112747e+07	
13	-6.50000e-01	4.313372e+07	
14	-7.00000e-01	4.502273e+07	
15	-7.50000e-01	4.681222e+07	
16	-8.00000e-01	4.851516e+07	
17	-8.50000e-01	5.014137e+07	
18	-9.00000e-01	5.169852e+07	
19	-9.50000e-01	5.319280e+07	
20	-1.00000e+00	5.462928e+07	
21	-1.05000e+00	5.601227e+07	
22	-1.10000e+00	5.734543e+07	
23	-1.15000e+00	5.863197e+07	
24	-1.20000e+00	5.987473e+07	
25	-1.25000e+00	6.107621e+07	
26	-1.30000e+00	6.223870e+07	
27	-1.35000e+00	6.336425e+07	
28	-1.40000e+00	6.445473e+07	
29	-1.45000e+00	6.551188e+07	
30	-1.50000e+00	6.653727e+07	
31	-1.55000e+00	6.753236e+07	
32	-1.60000e+00	6.849848e+07	
33	-1.65000e+00	6.943684e+07	
34	-1.70000e+00	7.034851e+07	
35	-1.75000e+00	7.123445e+07	
36	-1.80000e+00	7.209543e+07	
37	-1.85000e+00	7.293204e+07	
38	-1.90000e+00	7.374465e+07	
39	-1.95000e+00	7.453332e+07	
40	-2.00000e+00	7.529781e+07	
41	-2.05000e+00	7.603747e+07	
42	-2.10000e+00	7.675114e+07	
43	-2.15000e+00	7.743712e+07	
44	-2.20000e+00	7.809306e+07	
45	-2.25000e+00	7.871585e+07	
46	-2.30000e+00	7.930153e+07	
47	-2.35000e+00	7.984523e+07	
48	-2.40000e+00	8.034109e+07	
49	-2.45000e+00	8.078217e+07	
50	-2.50000e+00	8.116046e+07	
51	-2.55000e+00	8.146687e+07	
52	-2.60000e+00	8.169130e+07	
53	-2.65000e+00	8.182272e+07	
54	-2.70000e+00	8.184937e+07	

Index   v-sweep         rds             
--------------------------------------------------------------------------------
55	-2.75000e+00	8.175898e+07	
56	-2.80000e+00	8.153914e+07	
57	-2.85000e+00	8.117763e+07	
58	-2.90000e+00	8.066296e+07	
59	-2.95000e+00	7.998483e+07	
60	-3.00000e+00	7.913470e+07	
61	-3.05000e+00	7.810635e+07	
62	-3.10000e+00	7.689635e+07	
63	-3.15000e+00	7.550453e+07	
64	-3.20000e+00	7.393423e+07	
65	-3.25000e+00	7.219251e+07	
66	-3.30000e+00	7.029006e+07	
Reset re-loads circuit ***************************

Circuit: ***************************

Doing analysis at TEMP = 25.000000 and TNOM = 25.000000


No. of Data Rows : 67
                          ***************************
                          DC transfer characteristic  Mon Jan  9 13:58:25  2023
--------------------------------------------------------------------------------
Index   v-sweep         rds             
--------------------------------------------------------------------------------
0	0.000000e+00	5.216753e+03	
1	-5.00000e-02	5.957811e+03	
2	-1.00000e-01	6.937037e+03	
3	-1.50000e-01	8.289050e+03	
4	-2.00000e-01	1.026908e+04	
5	-2.50000e-01	1.341407e+04	
6	-3.00000e-01	1.900068e+04	
7	-3.50000e-01	3.041049e+04	
8	-4.00000e-01	5.638251e+04	
9	-4.50000e-01	1.121065e+05	
10	-5.00000e-01	2.036310e+05	
11	-5.50000e-01	3.135648e+05	
12	-6.00000e-01	4.208563e+05	
13	-6.50000e-01	5.170840e+05	
14	-7.00000e-01	6.024062e+05	
15	-7.50000e-01	6.793183e+05	
16	-8.00000e-01	7.501690e+05	
17	-8.50000e-01	8.166759e+05	
18	-9.00000e-01	8.800097e+05	
19	-9.50000e-01	9.409567e+05	
20	-1.00000e+00	1.000049e+06	
21	-1.05000e+00	1.057654e+06	
22	-1.10000e+00	1.114028e+06	
23	-1.15000e+00	1.169356e+06	
24	-1.20000e+00	1.223773e+06	
25	-1.25000e+00	1.277381e+06	
26	-1.30000e+00	1.330257e+06	
27	-1.35000e+00	1.382460e+06	
28	-1.40000e+00	1.434037e+06	
29	-1.45000e+00	1.485028e+06	
30	-1.50000e+00	1.535463e+06	
31	-1.55000e+00	1.585368e+06	
32	-1.60000e+00	1.634765e+06	
33	-1.65000e+00	1.683672e+06	
34	-1.70000e+00	1.732105e+06	
35	-1.75000e+00	1.780078e+06	
36	-1.80000e+00	1.827604e+06	
37	-1.85000e+00	1.874693e+06	
38	-1.90000e+00	1.921353e+06	
39	-1.95000e+00	1.967592e+06	
40	-2.00000e+00	2.013413e+06	
41	-2.05000e+00	2.058817e+06	
42	-2.10000e+00	2.103802e+06	
43	-2.15000e+00	2.148357e+06	
44	-2.20000e+00	2.192463e+06	
45	-2.25000e+00	2.236089e+06	
46	-2.30000e+00	2.279190e+06	
47	-2.35000e+00	2.321700e+06	
48	-2.40000e+00	2.363526e+06	
49	-2.45000e+00	2.404545e+06	
50	-2.50000e+00	2.444596e+06	
51	-2.55000e+00	2.483468e+06	
52	-2.60000e+00	2.520900e+06	
53	-2.65000e+00	2.556566e+06	
54	-2.70000e+00	2.590074e+06	

Index   v-sweep         rds             
--------------------------------------------------------------------------------
55	-2.75000e+00	2.620954e+06	
56	-2.80000e+00	2.648660e+06	
57	-2.85000e+00	2.672570e+06	
58	-2.90000e+00	2.691986e+06	
59	-2.95000e+00	2.706152e+06	
60	-3.00000e+00	2.714264e+06	
61	-3.05000e+00	2.715507e+06	
62	-3.10000e+00	2.709078e+06	
63	-3.15000e+00	2.694239e+06	
64	-3.20000e+00	2.670357e+06	
65	-3.25000e+00	2.636955e+06	
66	-3.30000e+00	2.593763e+06	
Reset re-loads circuit ***************************

Circuit: ***************************

Doing analysis at TEMP = 25.000000 and TNOM = 25.000000


No. of Data Rows : 67
                          ***************************
                          DC transfer characteristic  Mon Jan  9 13:58:25  2023
--------------------------------------------------------------------------------
Index   v-sweep         rds             
--------------------------------------------------------------------------------
0	0.000000e+00	2.801580e+03	
1	-5.00000e-02	2.995329e+03	
2	-1.00000e-01	3.216777e+03	
3	-1.50000e-01	3.472303e+03	
4	-2.00000e-01	3.770396e+03	
5	-2.50000e-01	4.122603e+03	
6	-3.00000e-01	4.545022e+03	
7	-3.50000e-01	5.060754e+03	
8	-4.00000e-01	5.704086e+03	
9	-4.50000e-01	6.527953e+03	
10	-5.00000e-01	7.617940e+03	
11	-5.50000e-01	9.119888e+03	
12	-6.00000e-01	1.129676e+04	
13	-6.50000e-01	1.464718e+04	
14	-7.00000e-01	2.013188e+04	
15	-7.50000e-01	2.945381e+04	
16	-8.00000e-01	4.480763e+04	
17	-8.50000e-01	6.710548e+04	
18	-9.00000e-01	9.419261e+04	
19	-9.50000e-01	1.224043e+05	
20	-1.00000e+00	1.493004e+05	
21	-1.05000e+00	1.741467e+05	
22	-1.10000e+00	1.970964e+05	
23	-1.15000e+00	2.185422e+05	
24	-1.20000e+00	2.388551e+05	
25	-1.25000e+00	2.583221e+05	
26	-1.30000e+00	2.771507e+05	
27	-1.35000e+00	2.954881e+05	
28	-1.40000e+00	3.134383e+05	
29	-1.45000e+00	3.310758e+05	
30	-1.50000e+00	3.484544e+05	
31	-1.55000e+00	3.656138e+05	
32	-1.60000e+00	3.825835e+05	
33	-1.65000e+00	3.993859e+05	
34	-1.70000e+00	4.160382e+05	
35	-1.75000e+00	4.325537e+05	
36	-1.80000e+00	4.489432e+05	
37	-1.85000e+00	4.652151e+05	
38	-1.90000e+00	4.813763e+05	
39	-1.95000e+00	4.974324e+05	
40	-2.00000e+00	5.133883e+05	
41	-2.05000e+00	5.292477e+05	
42	-2.10000e+00	5.450140e+05	
43	-2.15000e+00	5.606901e+05	
44	-2.20000e+00	5.762781e+05	
45	-2.25000e+00	5.917799e+05	
46	-2.30000e+00	6.071969e+05	
47	-2.35000e+00	6.225295e+05	
48	-2.40000e+00	6.377775e+05	
49	-2.45000e+00	6.529392e+05	
50	-2.50000e+00	6.680110e+05	
51	-2.55000e+00	6.829868e+05	
52	-2.60000e+00	6.978570e+05	
53	-2.65000e+00	7.126069e+05	
54	-2.70000e+00	7.272157e+05	

Index   v-sweep         rds             
--------------------------------------------------------------------------------
55	-2.75000e+00	7.416544e+05	
56	-2.80000e+00	7.558835e+05	
57	-2.85000e+00	7.698509e+05	
58	-2.90000e+00	7.834887e+05	
59	-2.95000e+00	7.967107e+05	
60	-3.00000e+00	8.094092e+05	
61	-3.05000e+00	8.214523e+05	
62	-3.10000e+00	8.326813e+05	
63	-3.15000e+00	8.429092e+05	
64	-3.20000e+00	8.519202e+05	
65	-3.25000e+00	8.594707e+05	
66	-3.30000e+00	8.652927e+05	
Reset re-loads circuit ***************************

Circuit: ***************************

Doing analysis at TEMP = 25.000000 and TNOM = 25.000000


No. of Data Rows : 67
                          ***************************
                          DC transfer characteristic  Mon Jan  9 13:58:25  2023
--------------------------------------------------------------------------------
Index   v-sweep         rds             
--------------------------------------------------------------------------------
0	0.000000e+00	2.016728e+03	
1	-5.00000e-02	2.108429e+03	
2	-1.00000e-01	2.208436e+03	
3	-1.50000e-01	2.317929e+03	
4	-2.00000e-01	2.438323e+03	
5	-2.50000e-01	2.571327e+03	
6	-3.00000e-01	2.719027e+03	
7	-3.50000e-01	2.883994e+03	
8	-4.00000e-01	3.069434e+03	
9	-4.50000e-01	3.279395e+03	
10	-5.00000e-01	3.519060e+03	
11	-5.50000e-01	3.795173e+03	
12	-6.00000e-01	4.116662e+03	
13	-6.50000e-01	4.495588e+03	
14	-7.00000e-01	4.948618e+03	
15	-7.50000e-01	5.499376e+03	
16	-8.00000e-01	6.182319e+03	
17	-8.50000e-01	7.049314e+03	
18	-9.00000e-01	8.181056e+03	
19	-9.50000e-01	9.707074e+03	
20	-1.00000e+00	1.183965e+04	
21	-1.05000e+00	1.492386e+04	
22	-1.10000e+00	1.947942e+04	
23	-1.15000e+00	2.613044e+04	
24	-1.20000e+00	3.526116e+04	
25	-1.25000e+00	4.654212e+04	
26	-1.30000e+00	5.896755e+04	
27	-1.35000e+00	7.150130e+04	
28	-1.40000e+00	8.354928e+04	
29	-1.45000e+00	9.493756e+04	
30	-1.50000e+00	1.057085e+05	
31	-1.55000e+00	1.159716e+05	
32	-1.60000e+00	1.258374e+05	
33	-1.65000e+00	1.353961e+05	
34	-1.70000e+00	1.447168e+05	
35	-1.75000e+00	1.538505e+05	
36	-1.80000e+00	1.628346e+05	
37	-1.85000e+00	1.716966e+05	
38	-1.90000e+00	1.804570e+05	
39	-1.95000e+00	1.891312e+05	
40	-2.00000e+00	1.977307e+05	
41	-2.05000e+00	2.062646e+05	
42	-2.10000e+00	2.147398e+05	
43	-2.15000e+00	2.231617e+05	
44	-2.20000e+00	2.315347e+05	
45	-2.25000e+00	2.398623e+05	
46	-2.30000e+00	2.481473e+05	
47	-2.35000e+00	2.563921e+05	
48	-2.40000e+00	2.645986e+05	
49	-2.45000e+00	2.727683e+05	
50	-2.50000e+00	2.809027e+05	
51	-2.55000e+00	2.890028e+05	
52	-2.60000e+00	2.970695e+05	
53	-2.65000e+00	3.051035e+05	
54	-2.70000e+00	3.131051e+05	

Index   v-sweep         rds             
--------------------------------------------------------------------------------
55	-2.75000e+00	3.210742e+05	
56	-2.80000e+00	3.290102e+05	
57	-2.85000e+00	3.369118e+05	
58	-2.90000e+00	3.447764e+05	
59	-2.95000e+00	3.526001e+05	
60	-3.00000e+00	3.603765e+05	
61	-3.05000e+00	3.680967e+05	
62	-3.10000e+00	3.757478e+05	
63	-3.15000e+00	3.833122e+05	
64	-3.20000e+00	3.907662e+05	
65	-3.25000e+00	3.980785e+05	
66	-3.30000e+00	4.052091e+05	
Reset re-loads circuit ***************************

Circuit: ***************************

Doing analysis at TEMP = 25.000000 and TNOM = 25.000000


No. of Data Rows : 67
                          ***************************
                          DC transfer characteristic  Mon Jan  9 13:58:25  2023
--------------------------------------------------------------------------------
Index   v-sweep         rds             
--------------------------------------------------------------------------------
0	0.000000e+00	1.629208e+03	
1	-5.00000e-02	1.683941e+03	
2	-1.00000e-01	1.742252e+03	
3	-1.50000e-01	1.804503e+03	
4	-2.00000e-01	1.871105e+03	
5	-2.50000e-01	1.942532e+03	
6	-3.00000e-01	2.019325e+03	
7	-3.50000e-01	2.102112e+03	
8	-4.00000e-01	2.191622e+03	
9	-4.50000e-01	2.288706e+03	
10	-5.00000e-01	2.394367e+03	
11	-5.50000e-01	2.509791e+03	
12	-6.00000e-01	2.636392e+03	
13	-6.50000e-01	2.775872e+03	
14	-7.00000e-01	2.930294e+03	
15	-7.50000e-01	3.102184e+03	
16	-8.00000e-01	3.294669e+03	
17	-8.50000e-01	3.511661e+03	
18	-9.00000e-01	3.758122e+03	
19	-9.50000e-01	4.040431e+03	
20	-1.00000e+00	4.366917e+03	
21	-1.05000e+00	4.748647e+03	
22	-1.10000e+00	5.200601e+03	
23	-1.15000e+00	5.743478e+03	
24	-1.20000e+00	6.406498e+03	
25	-1.25000e+00	7.231808e+03	
26	-1.30000e+00	8.281356e+03	
27	-1.35000e+00	9.647203e+03	
28	-1.40000e+00	1.146512e+04	
29	-1.45000e+00	1.392620e+04	
30	-1.50000e+00	1.726715e+04	
31	-1.55000e+00	2.170235e+04	
32	-1.60000e+00	2.728376e+04	
33	-1.65000e+00	3.378878e+04	
34	-1.70000e+00	4.079339e+04	
35	-1.75000e+00	4.788702e+04	
36	-1.80000e+00	5.481651e+04	
37	-1.85000e+00	6.148529e+04	
38	-1.90000e+00	6.788959e+04	
39	-1.95000e+00	7.406334e+04	
40	-2.00000e+00	8.004853e+04	
41	-2.05000e+00	8.588325e+04	
42	-2.10000e+00	9.159840e+04	
43	-2.15000e+00	9.721796e+04	
44	-2.20000e+00	1.027602e+05	
45	-2.25000e+00	1.082388e+05	
46	-2.30000e+00	1.136643e+05	
47	-2.35000e+00	1.190446e+05	
48	-2.40000e+00	1.243859e+05	
49	-2.45000e+00	1.296930e+05	
50	-2.50000e+00	1.349695e+05	
51	-2.55000e+00	1.402184e+05	
52	-2.60000e+00	1.454421e+05	
53	-2.65000e+00	1.506425e+05	
54	-2.70000e+00	1.558211e+05	

Index   v-sweep         rds             
--------------------------------------------------------------------------------
55	-2.75000e+00	1.609792e+05	
56	-2.80000e+00	1.661178e+05	
57	-2.85000e+00	1.712379e+05	
58	-2.90000e+00	1.763401e+05	
59	-2.95000e+00	1.814251e+05	
60	-3.00000e+00	1.864933e+05	
61	-3.05000e+00	1.915449e+05	
62	-3.10000e+00	1.965803e+05	
63	-3.15000e+00	2.015991e+05	
64	-3.20000e+00	2.066010e+05	
65	-3.25000e+00	2.115850e+05	
66	-3.30000e+00	2.165494e+05	
Reset re-loads circuit ***************************

Circuit: ***************************

Doing analysis at TEMP = 25.000000 and TNOM = 25.000000


No. of Data Rows : 67
                          ***************************
                          DC transfer characteristic  Mon Jan  9 13:58:25  2023
--------------------------------------------------------------------------------
Index   v-sweep         rds             
--------------------------------------------------------------------------------
0	0.000000e+00	1.406391e+03	
1	-5.00000e-02	1.443683e+03	
2	-1.00000e-01	1.482866e+03	
3	-1.50000e-01	1.524086e+03	
4	-2.00000e-01	1.567508e+03	
5	-2.50000e-01	1.613311e+03	
6	-3.00000e-01	1.661696e+03	
7	-3.50000e-01	1.712888e+03	
8	-4.00000e-01	1.767138e+03	
9	-4.50000e-01	1.824727e+03	
10	-5.00000e-01	1.885973e+03	
11	-5.50000e-01	1.951236e+03	
12	-6.00000e-01	2.020922e+03	
13	-6.50000e-01	2.095497e+03	
14	-7.00000e-01	2.175492e+03	
15	-7.50000e-01	2.261519e+03	
16	-8.00000e-01	2.354286e+03	
17	-8.50000e-01	2.454615e+03	
18	-9.00000e-01	2.563466e+03	
19	-9.50000e-01	2.681971e+03	
20	-1.00000e+00	2.811468e+03	
21	-1.05000e+00	2.953555e+03	
22	-1.10000e+00	3.110153e+03	
23	-1.15000e+00	3.283591e+03	
24	-1.20000e+00	3.476720e+03	
25	-1.25000e+00	3.693065e+03	
26	-1.30000e+00	3.937036e+03	
27	-1.35000e+00	4.214211e+03	
28	-1.40000e+00	4.531740e+03	
29	-1.45000e+00	4.898923e+03	
30	-1.50000e+00	5.328029e+03	
31	-1.55000e+00	5.835498e+03	
32	-1.60000e+00	6.443691e+03	
33	-1.65000e+00	7.183427e+03	
34	-1.70000e+00	8.097525e+03	
35	-1.75000e+00	9.245346e+03	
36	-1.80000e+00	1.070732e+04	
37	-1.85000e+00	1.258576e+04	
38	-1.90000e+00	1.499366e+04	
39	-1.95000e+00	1.802017e+04	
40	-2.00000e+00	2.167538e+04	
41	-2.05000e+00	2.585169e+04	
42	-2.10000e+00	3.035112e+04	
43	-2.15000e+00	3.496737e+04	
44	-2.20000e+00	3.955297e+04	
45	-2.25000e+00	4.403342e+04	
46	-2.30000e+00	4.838686e+04	
47	-2.35000e+00	5.261897e+04	
48	-2.40000e+00	5.674591e+04	
49	-2.45000e+00	6.078552e+04	
50	-2.50000e+00	6.475385e+04	
51	-2.55000e+00	6.866414e+04	
52	-2.60000e+00	7.252690e+04	
53	-2.65000e+00	7.635032e+04	
54	-2.70000e+00	8.014074e+04	

Index   v-sweep         rds             
--------------------------------------------------------------------------------
55	-2.75000e+00	8.390311e+04	
56	-2.80000e+00	8.764125e+04	
57	-2.85000e+00	9.135818e+04	
58	-2.90000e+00	9.505627e+04	
59	-2.95000e+00	9.873742e+04	
60	-3.00000e+00	1.024031e+05	
61	-3.05000e+00	1.060546e+05	
62	-3.10000e+00	1.096930e+05	
63	-3.15000e+00	1.133189e+05	
64	-3.20000e+00	1.169331e+05	
65	-3.25000e+00	1.205362e+05	
66	-3.30000e+00	1.241287e+05	
Reset re-loads circuit ***************************

Circuit: ***************************

Note: No ".plot", ".print", or ".fourier" lines; no simulations run
