
Note: Compatibility modes selected: hs

Warning: m=xx on .subckt line will override multiplier m hierarchy!


Circuit: ***************************

Doing analysis at TEMP = -40.000000 and TNOM = -40.000000


No. of Data Rows : 67
                          ***************************
                          DC transfer characteristic  Mon Jan  9 13:58:25  2023
--------------------------------------------------------------------------------
Index   v-sweep         rds             
--------------------------------------------------------------------------------
0	0.000000e+00	1.723316e+06	
1	-5.00000e-02	2.047785e+07	
2	-1.00000e-01	1.886526e+08	
3	-1.50000e-01	6.788188e+08	
4	-2.00000e-01	1.474010e+09	
5	-2.50000e-01	2.399687e+09	
6	-3.00000e-01	3.292069e+09	
7	-3.50000e-01	4.073805e+09	
8	-4.00000e-01	4.731971e+09	
9	-4.50000e-01	5.280954e+09	
10	-5.00000e-01	5.741336e+09	
11	-5.50000e-01	6.131883e+09	
12	-6.00000e-01	6.467618e+09	
13	-6.50000e-01	6.760013e+09	
14	-7.00000e-01	7.017708e+09	
15	-7.50000e-01	7.247220e+09	
16	-8.00000e-01	7.453512e+09	
17	-8.50000e-01	7.640405e+09	
18	-9.00000e-01	7.810886e+09	
19	-9.50000e-01	7.967319e+09	
20	-1.00000e+00	8.111603e+09	
21	-1.05000e+00	8.245284e+09	
22	-1.10000e+00	8.369632e+09	
23	-1.15000e+00	8.485705e+09	
24	-1.20000e+00	8.594395e+09	
25	-1.25000e+00	8.696455e+09	
26	-1.30000e+00	8.792534e+09	
27	-1.35000e+00	8.883188e+09	
28	-1.40000e+00	8.968903e+09	
29	-1.45000e+00	9.050101e+09	
30	-1.50000e+00	9.127154e+09	
31	-1.55000e+00	9.200391e+09	
32	-1.60000e+00	9.270100e+09	
33	-1.65000e+00	9.336538e+09	
34	-1.70000e+00	9.399928e+09	
35	-1.75000e+00	9.460468e+09	
36	-1.80000e+00	9.518327e+09	
37	-1.85000e+00	9.573647e+09	
38	-1.90000e+00	9.626541e+09	
39	-1.95000e+00	9.677097e+09	
40	-2.00000e+00	9.725367e+09	
41	-2.05000e+00	9.771374e+09	
42	-2.10000e+00	9.815101e+09	
43	-2.15000e+00	9.856493e+09	
44	-2.20000e+00	9.895451e+09	
45	-2.25000e+00	9.931826e+09	
46	-2.30000e+00	9.965420e+09	
47	-2.35000e+00	9.995981e+09	
48	-2.40000e+00	1.002319e+10	
49	-2.45000e+00	1.004669e+10	
50	-2.50000e+00	1.006604e+10	
51	-2.55000e+00	1.008074e+10	
52	-2.60000e+00	1.009023e+10	
53	-2.65000e+00	1.009392e+10	
54	-2.70000e+00	1.009112e+10	

Index   v-sweep         rds             
--------------------------------------------------------------------------------
55	-2.75000e+00	1.008114e+10	
56	-2.80000e+00	1.006324e+10	
57	-2.85000e+00	1.003665e+10	
58	-2.90000e+00	1.000060e+10	
59	-2.95000e+00	9.954336e+09	
60	-3.00000e+00	9.897140e+09	
61	-3.05000e+00	9.828339e+09	
62	-3.10000e+00	9.747341e+09	
63	-3.15000e+00	9.653654e+09	
64	-3.20000e+00	9.546908e+09	
65	-3.25000e+00	9.426874e+09	
66	-3.30000e+00	9.293485e+09	
Reset re-loads circuit ***************************

Circuit: ***************************

Doing analysis at TEMP = -40.000000 and TNOM = -40.000000


No. of Data Rows : 67
                          ***************************
                          DC transfer characteristic  Mon Jan  9 13:58:25  2023
--------------------------------------------------------------------------------
Index   v-sweep         rds             
--------------------------------------------------------------------------------
0	0.000000e+00	4.643895e+04	
1	-5.00000e-02	5.497057e+04	
2	-1.00000e-01	6.727794e+04	
3	-1.50000e-01	8.647363e+04	
4	-2.00000e-01	1.200034e+05	
5	-2.50000e-01	1.889821e+05	
6	-3.00000e-01	3.623056e+05	
7	-3.50000e-01	8.503845e+05	
8	-4.00000e-01	2.074782e+06	
9	-4.50000e-01	4.442379e+06	
10	-5.00000e-01	8.002109e+06	
11	-5.50000e-01	1.243593e+07	
12	-6.00000e-01	1.730964e+07	
13	-6.50000e-01	2.227586e+07	
14	-7.00000e-01	2.712848e+07	
15	-7.50000e-01	3.177292e+07	
16	-8.00000e-01	3.618127e+07	
17	-8.50000e-01	4.035885e+07	
18	-9.00000e-01	4.432475e+07	
19	-9.50000e-01	4.810189e+07	
20	-1.00000e+00	5.171259e+07	
21	-1.05000e+00	5.517680e+07	
22	-1.10000e+00	5.851164e+07	
23	-1.15000e+00	6.173160e+07	
24	-1.20000e+00	6.484877e+07	
25	-1.25000e+00	6.787330e+07	
26	-1.30000e+00	7.081367e+07	
27	-1.35000e+00	7.367703e+07	
28	-1.40000e+00	7.646945e+07	
29	-1.45000e+00	7.919610e+07	
30	-1.50000e+00	8.186142e+07	
31	-1.55000e+00	8.446926e+07	
32	-1.60000e+00	8.702297e+07	
33	-1.65000e+00	8.952549e+07	
34	-1.70000e+00	9.197942e+07	
35	-1.75000e+00	9.438706e+07	
36	-1.80000e+00	9.675044e+07	
37	-1.85000e+00	9.907136e+07	
38	-1.90000e+00	1.013514e+08	
39	-1.95000e+00	1.035917e+08	
40	-2.00000e+00	1.057935e+08	
41	-2.05000e+00	1.079574e+08	
42	-2.10000e+00	1.100836e+08	
43	-2.15000e+00	1.121718e+08	
44	-2.20000e+00	1.142211e+08	
45	-2.25000e+00	1.162298e+08	
46	-2.30000e+00	1.181949e+08	
47	-2.35000e+00	1.201123e+08	
48	-2.40000e+00	1.219763e+08	
49	-2.45000e+00	1.237793e+08	
50	-2.50000e+00	1.255116e+08	
51	-2.55000e+00	1.271610e+08	
52	-2.60000e+00	1.287125e+08	
53	-2.65000e+00	1.301481e+08	
54	-2.70000e+00	1.314465e+08	

Index   v-sweep         rds             
--------------------------------------------------------------------------------
55	-2.75000e+00	1.325834e+08	
56	-2.80000e+00	1.335310e+08	
57	-2.85000e+00	1.342592e+08	
58	-2.90000e+00	1.347351e+08	
59	-2.95000e+00	1.349246e+08	
60	-3.00000e+00	1.347936e+08	
61	-3.05000e+00	1.343088e+08	
62	-3.10000e+00	1.334401e+08	
63	-3.15000e+00	1.321622e+08	
64	-3.20000e+00	1.304566e+08	
65	-3.25000e+00	1.283134e+08	
66	-3.30000e+00	1.257331e+08	
Reset re-loads circuit ***************************

Circuit: ***************************

Doing analysis at TEMP = -40.000000 and TNOM = -40.000000


No. of Data Rows : 67
                          ***************************
                          DC transfer characteristic  Mon Jan  9 13:58:26  2023
--------------------------------------------------------------------------------
Index   v-sweep         rds             
--------------------------------------------------------------------------------
0	0.000000e+00	2.339191e+04	
1	-5.00000e-02	2.529030e+04	
2	-1.00000e-01	2.752092e+04	
3	-1.50000e-01	3.017896e+04	
4	-2.00000e-01	3.339956e+04	
5	-2.50000e-01	3.738090e+04	
6	-3.00000e-01	4.242510e+04	
7	-3.50000e-01	4.901467e+04	
8	-4.00000e-01	5.796445e+04	
9	-4.50000e-01	7.074618e+04	
10	-5.00000e-01	9.023348e+04	
11	-5.50000e-01	1.225208e+05	
12	-6.00000e-01	1.813967e+05	
13	-6.50000e-01	2.978682e+05	
14	-7.00000e-01	5.318019e+05	
15	-7.50000e-01	9.643340e+05	
16	-8.00000e-01	1.653357e+06	
17	-8.50000e-01	2.591068e+06	
18	-9.00000e-01	3.711708e+06	
19	-9.50000e-01	4.932496e+06	
20	-1.00000e+00	6.185734e+06	
21	-1.05000e+00	7.428434e+06	
22	-1.10000e+00	8.638342e+06	
23	-1.15000e+00	9.806629e+06	
24	-1.20000e+00	1.093188e+07	
25	-1.25000e+00	1.201627e+07	
26	-1.30000e+00	1.306337e+07	
27	-1.35000e+00	1.407709e+07	
28	-1.40000e+00	1.506114e+07	
29	-1.45000e+00	1.601886e+07	
30	-1.50000e+00	1.695311e+07	
31	-1.55000e+00	1.786637e+07	
32	-1.60000e+00	1.876071e+07	
33	-1.65000e+00	1.963790e+07	
34	-1.70000e+00	2.049942e+07	
35	-1.75000e+00	2.134655e+07	
36	-1.80000e+00	2.218035e+07	
37	-1.85000e+00	2.300174e+07	
38	-1.90000e+00	2.381153e+07	
39	-1.95000e+00	2.461038e+07	
40	-2.00000e+00	2.539890e+07	
41	-2.05000e+00	2.617761e+07	
42	-2.10000e+00	2.694695e+07	
43	-2.15000e+00	2.770730e+07	
44	-2.20000e+00	2.845902e+07	
45	-2.25000e+00	2.920235e+07	
46	-2.30000e+00	2.993750e+07	
47	-2.35000e+00	3.066459e+07	
48	-2.40000e+00	3.138361e+07	
49	-2.45000e+00	3.209445e+07	
50	-2.50000e+00	3.279677e+07	
51	-2.55000e+00	3.349004e+07	
52	-2.60000e+00	3.417339e+07	
53	-2.65000e+00	3.484558e+07	
54	-2.70000e+00	3.550488e+07	

Index   v-sweep         rds             
--------------------------------------------------------------------------------
55	-2.75000e+00	3.614898e+07	
56	-2.80000e+00	3.677486e+07	
57	-2.85000e+00	3.737868e+07	
58	-2.90000e+00	3.795563e+07	
59	-2.95000e+00	3.849986e+07	
60	-3.00000e+00	3.900432e+07	
61	-3.05000e+00	3.946078e+07	
62	-3.10000e+00	3.985976e+07	
63	-3.15000e+00	4.019060e+07	
64	-3.20000e+00	4.044167e+07	
65	-3.25000e+00	4.060057e+07	
66	-3.30000e+00	4.065459e+07	
Reset re-loads circuit ***************************

Circuit: ***************************

Doing analysis at TEMP = -40.000000 and TNOM = -40.000000


No. of Data Rows : 67
                          ***************************
                          DC transfer characteristic  Mon Jan  9 13:58:26  2023
--------------------------------------------------------------------------------
Index   v-sweep         rds             
--------------------------------------------------------------------------------
0	0.000000e+00	1.640567e+04	
1	-5.00000e-02	1.724369e+04	
2	-1.00000e-01	1.817093e+04	
3	-1.50000e-01	1.920243e+04	
4	-2.00000e-01	2.035677e+04	
5	-2.50000e-01	2.165726e+04	
6	-3.00000e-01	2.313343e+04	
7	-3.50000e-01	2.482335e+04	
8	-4.00000e-01	2.677685e+04	
9	-4.50000e-01	2.906046e+04	
10	-5.00000e-01	3.176490e+04	
11	-5.50000e-01	3.501701e+04	
12	-6.00000e-01	3.899931e+04	
13	-6.50000e-01	4.398328e+04	
14	-7.00000e-01	5.038861e+04	
15	-7.50000e-01	5.889331e+04	
16	-8.00000e-01	7.064827e+04	
17	-8.50000e-01	8.771117e+04	
18	-9.00000e-01	1.139367e+05	
19	-9.50000e-01	1.567180e+05	
20	-1.00000e+00	2.297896e+05	
21	-1.05000e+00	3.555427e+05	
22	-1.10000e+00	5.617230e+05	
23	-1.15000e+00	8.689064e+05	
24	-1.20000e+00	1.277311e+06	
25	-1.25000e+00	1.766347e+06	
26	-1.30000e+00	2.306077e+06	
27	-1.35000e+00	2.869044e+06	
28	-1.40000e+00	3.435725e+06	
29	-1.45000e+00	3.994586e+06	
30	-1.50000e+00	4.539956e+06	
31	-1.55000e+00	5.069786e+06	
32	-1.60000e+00	5.584013e+06	
33	-1.65000e+00	6.083530e+06	
34	-1.70000e+00	6.569614e+06	
35	-1.75000e+00	7.043618e+06	
36	-1.80000e+00	7.506825e+06	
37	-1.85000e+00	7.960393e+06	
38	-1.90000e+00	8.405334e+06	
39	-1.95000e+00	8.842521e+06	
40	-2.00000e+00	9.272703e+06	
41	-2.05000e+00	9.696514e+06	
42	-2.10000e+00	1.011450e+07	
43	-2.15000e+00	1.052712e+07	
44	-2.20000e+00	1.093478e+07	
45	-2.25000e+00	1.133781e+07	
46	-2.30000e+00	1.173651e+07	
47	-2.35000e+00	1.213113e+07	
48	-2.40000e+00	1.252190e+07	
49	-2.45000e+00	1.290900e+07	
50	-2.50000e+00	1.329260e+07	
51	-2.55000e+00	1.367284e+07	
52	-2.60000e+00	1.404982e+07	
53	-2.65000e+00	1.442362e+07	
54	-2.70000e+00	1.479427e+07	

Index   v-sweep         rds             
--------------------------------------------------------------------------------
55	-2.75000e+00	1.516178e+07	
56	-2.80000e+00	1.552605e+07	
57	-2.85000e+00	1.588693e+07	
58	-2.90000e+00	1.624412e+07	
59	-2.95000e+00	1.659720e+07	
60	-3.00000e+00	1.694554e+07	
61	-3.05000e+00	1.728827e+07	
62	-3.10000e+00	1.762423e+07	
63	-3.15000e+00	1.795189e+07	
64	-3.20000e+00	1.826929e+07	
65	-3.25000e+00	1.857398e+07	
66	-3.30000e+00	1.886294e+07	
Reset re-loads circuit ***************************

Circuit: ***************************

Doing analysis at TEMP = -40.000000 and TNOM = -40.000000


No. of Data Rows : 67
                          ***************************
                          DC transfer characteristic  Mon Jan  9 13:58:26  2023
--------------------------------------------------------------------------------
Index   v-sweep         rds             
--------------------------------------------------------------------------------
0	0.000000e+00	1.313228e+04	
1	-5.00000e-02	1.361494e+04	
2	-1.00000e-01	1.413395e+04	
3	-1.50000e-01	1.469354e+04	
4	-2.00000e-01	1.529868e+04	
5	-2.50000e-01	1.595517e+04	
6	-3.00000e-01	1.666980e+04	
7	-3.50000e-01	1.745067e+04	
8	-4.00000e-01	1.830741e+04	
9	-4.50000e-01	1.925163e+04	
10	-5.00000e-01	2.029741e+04	
11	-5.50000e-01	2.146202e+04	
12	-6.00000e-01	2.276689e+04	
13	-6.50000e-01	2.423886e+04	
14	-7.00000e-01	2.591207e+04	
15	-7.50000e-01	2.783055e+04	
16	-8.00000e-01	3.005204e+04	
17	-8.50000e-01	3.265369e+04	
18	-9.00000e-01	3.574079e+04	
19	-9.50000e-01	3.946049e+04	
20	-1.00000e+00	4.402403e+04	
21	-1.05000e+00	4.974405e+04	
22	-1.10000e+00	5.709904e+04	
23	-1.15000e+00	6.684811e+04	
24	-1.20000e+00	8.023990e+04	
25	-1.25000e+00	9.939187e+04	
26	-1.30000e+00	1.279461e+05	
27	-1.35000e+00	1.720373e+05	
28	-1.40000e+00	2.411728e+05	
29	-1.45000e+00	3.476710e+05	
30	-1.50000e+00	5.030053e+05	
31	-1.55000e+00	7.120712e+05	
32	-1.60000e+00	9.699969e+05	
33	-1.65000e+00	1.264448e+06	
34	-1.70000e+00	1.580960e+06	
35	-1.75000e+00	1.907191e+06	
36	-1.80000e+00	2.234541e+06	
37	-1.85000e+00	2.557896e+06	
38	-1.90000e+00	2.874676e+06	
39	-1.95000e+00	3.183899e+06	
40	-2.00000e+00	3.485486e+06	
41	-2.05000e+00	3.779814e+06	
42	-2.10000e+00	4.067458e+06	
43	-2.15000e+00	4.349047e+06	
44	-2.20000e+00	4.625193e+06	
45	-2.25000e+00	4.896456e+06	
46	-2.30000e+00	5.163332e+06	
47	-2.35000e+00	5.426257e+06	
48	-2.40000e+00	5.685606e+06	
49	-2.45000e+00	5.941701e+06	
50	-2.50000e+00	6.194820e+06	
51	-2.55000e+00	6.445202e+06	
52	-2.60000e+00	6.693050e+06	
53	-2.65000e+00	6.938543e+06	
54	-2.70000e+00	7.181832e+06	

Index   v-sweep         rds             
--------------------------------------------------------------------------------
55	-2.75000e+00	7.423050e+06	
56	-2.80000e+00	7.662311e+06	
57	-2.85000e+00	7.899714e+06	
58	-2.90000e+00	8.135342e+06	
59	-2.95000e+00	8.369262e+06	
60	-3.00000e+00	8.601526e+06	
61	-3.05000e+00	8.832164e+06	
62	-3.10000e+00	9.061179e+06	
63	-3.15000e+00	9.288542e+06	
64	-3.20000e+00	9.514175e+06	
65	-3.25000e+00	9.737942e+06	
66	-3.30000e+00	9.959625e+06	
Reset re-loads circuit ***************************

Circuit: ***************************

Doing analysis at TEMP = -40.000000 and TNOM = -40.000000


No. of Data Rows : 67
                          ***************************
                          DC transfer characteristic  Mon Jan  9 13:58:26  2023
--------------------------------------------------------------------------------
Index   v-sweep         rds             
--------------------------------------------------------------------------------
0	0.000000e+00	1.127382e+04	
1	-5.00000e-02	1.159327e+04	
2	-1.00000e-01	1.193104e+04	
3	-1.50000e-01	1.228877e+04	
4	-2.00000e-01	1.266828e+04	
5	-2.50000e-01	1.307161e+04	
6	-3.00000e-01	1.350109e+04	
7	-3.50000e-01	1.395933e+04	
8	-4.00000e-01	1.444934e+04	
9	-4.50000e-01	1.497451e+04	
10	-5.00000e-01	1.553879e+04	
11	-5.50000e-01	1.614669e+04	
12	-6.00000e-01	1.680347e+04	
13	-6.50000e-01	1.751528e+04	
14	-7.00000e-01	1.828931e+04	
15	-7.50000e-01	1.913409e+04	
16	-8.00000e-01	2.005975e+04	
17	-8.50000e-01	2.107845e+04	
18	-9.00000e-01	2.220494e+04	
19	-9.50000e-01	2.345719e+04	
20	-1.00000e+00	2.485742e+04	
21	-1.05000e+00	2.643334e+04	
22	-1.10000e+00	2.821999e+04	
23	-1.15000e+00	3.026226e+04	
24	-1.20000e+00	3.261858e+04	
25	-1.25000e+00	3.536628e+04	
26	-1.30000e+00	3.860970e+04	
27	-1.35000e+00	4.249262e+04	
28	-1.40000e+00	4.721782e+04	
29	-1.45000e+00	5.307867e+04	
30	-1.50000e+00	6.051117e+04	
31	-1.55000e+00	7.018103e+04	
32	-1.60000e+00	8.312974e+04	
33	-1.65000e+00	1.010129e+05	
34	-1.70000e+00	1.264578e+05	
35	-1.75000e+00	1.634922e+05	
36	-1.80000e+00	2.177697e+05	
37	-1.85000e+00	2.959841e+05	
38	-1.90000e+00	4.039465e+05	
39	-1.95000e+00	5.439456e+05	
40	-2.00000e+00	7.133076e+05	
41	-2.05000e+00	9.053973e+05	
42	-2.10000e+00	1.112151e+06	
43	-2.15000e+00	1.326324e+06	
44	-2.20000e+00	1.542558e+06	
45	-2.25000e+00	1.757432e+06	
46	-2.30000e+00	1.969044e+06	
47	-2.35000e+00	2.176519e+06	
48	-2.40000e+00	2.379608e+06	
49	-2.45000e+00	2.578401e+06	
50	-2.50000e+00	2.773164e+06	
51	-2.55000e+00	2.964228e+06	
52	-2.60000e+00	3.151936e+06	
53	-2.65000e+00	3.336617e+06	
54	-2.70000e+00	3.518571e+06	

Index   v-sweep         rds             
--------------------------------------------------------------------------------
55	-2.75000e+00	3.698064e+06	
56	-2.80000e+00	3.875329e+06	
57	-2.85000e+00	4.050569e+06	
58	-2.90000e+00	4.223961e+06	
59	-2.95000e+00	4.395655e+06	
60	-3.00000e+00	4.565784e+06	
61	-3.05000e+00	4.734460e+06	
62	-3.10000e+00	4.901783e+06	
63	-3.15000e+00	5.067838e+06	
64	-3.20000e+00	5.232698e+06	
65	-3.25000e+00	5.396428e+06	
66	-3.30000e+00	5.559081e+06	
Reset re-loads circuit ***************************

Circuit: ***************************

Note: No ".plot", ".print", or ".fourier" lines; no simulations run
