
Note: Compatibility modes selected: hs

Warning: m=xx on .subckt line will override multiplier m hierarchy!


Circuit: ***************************

Doing analysis at TEMP = -40.000000 and TNOM = -40.000000


No. of Data Rows : 67
                          ***************************
                          DC transfer characteristic  Mon Jan  9 13:58:26  2023
--------------------------------------------------------------------------------
Index   v-sweep         rds             
--------------------------------------------------------------------------------
0	0.000000e+00	4.599390e+07	
1	-5.00000e-02	4.483371e+08	
2	-1.00000e-01	4.276818e+09	
3	-1.50000e-01	1.671855e+10	
4	-2.00000e-01	3.987696e+10	
5	-2.50000e-01	7.122674e+10	
6	-3.00000e-01	1.058578e+11	
7	-3.50000e-01	1.395095e+11	
8	-4.00000e-01	1.698377e+11	
9	-4.50000e-01	1.961106e+11	
10	-5.00000e-01	2.184861e+11	
11	-5.50000e-01	2.374715e+11	
12	-6.00000e-01	2.536388e+11	
13	-6.50000e-01	2.675077e+11	
14	-7.00000e-01	2.795115e+11	
15	-7.50000e-01	2.899979e+11	
16	-8.00000e-01	2.992420e+11	
17	-8.50000e-01	3.074603e+11	
18	-9.00000e-01	3.148235e+11	
19	-9.50000e-01	3.214672e+11	
20	-1.00000e+00	3.274998e+11	
21	-1.05000e+00	3.330087e+11	
22	-1.10000e+00	3.380652e+11	
23	-1.15000e+00	3.427277e+11	
24	-1.20000e+00	3.470446e+11	
25	-1.25000e+00	3.510564e+11	
26	-1.30000e+00	3.547973e+11	
27	-1.35000e+00	3.582961e+11	
28	-1.40000e+00	3.615777e+11	
29	-1.45000e+00	3.646632e+11	
30	-1.50000e+00	3.675711e+11	
31	-1.55000e+00	3.703174e+11	
32	-1.60000e+00	3.729160e+11	
33	-1.65000e+00	3.753791e+11	
34	-1.70000e+00	3.777174e+11	
35	-1.75000e+00	3.799401e+11	
36	-1.80000e+00	3.820552e+11	
37	-1.85000e+00	3.840696e+11	
38	-1.90000e+00	3.859889e+11	
39	-1.95000e+00	3.878175e+11	
40	-2.00000e+00	3.895589e+11	
41	-2.05000e+00	3.912149e+11	
42	-2.10000e+00	3.927865e+11	
43	-2.15000e+00	3.942729e+11	
44	-2.20000e+00	3.956721e+11	
45	-2.25000e+00	3.969803e+11	
46	-2.30000e+00	3.981921e+11	
47	-2.35000e+00	3.993002e+11	
48	-2.40000e+00	4.002955e+11	
49	-2.45000e+00	4.011668e+11	
50	-2.50000e+00	4.019012e+11	
51	-2.55000e+00	4.024833e+11	
52	-2.60000e+00	4.028960e+11	
53	-2.65000e+00	4.031201e+11	
54	-2.70000e+00	4.031349e+11	

Index   v-sweep         rds             
--------------------------------------------------------------------------------
55	-2.75000e+00	4.029178e+11	
56	-2.80000e+00	4.024448e+11	
57	-2.85000e+00	4.016912e+11	
58	-2.90000e+00	4.006314e+11	
59	-2.95000e+00	3.992397e+11	
60	-3.00000e+00	3.974911e+11	
61	-3.05000e+00	3.953613e+11	
62	-3.10000e+00	3.928278e+11	
63	-3.15000e+00	3.898705e+11	
64	-3.20000e+00	3.864723e+11	
65	-3.25000e+00	3.826200e+11	
66	-3.30000e+00	3.783044e+11	
Reset re-loads circuit ***************************

Circuit: ***************************

Doing analysis at TEMP = -40.000000 and TNOM = -40.000000


No. of Data Rows : 67
                          ***************************
                          DC transfer characteristic  Mon Jan  9 13:58:26  2023
--------------------------------------------------------------------------------
Index   v-sweep         rds             
--------------------------------------------------------------------------------
0	0.000000e+00	1.801466e+06	
1	-5.00000e-02	2.131759e+06	
2	-1.00000e-01	2.608225e+06	
3	-1.50000e-01	3.351381e+06	
4	-2.00000e-01	4.649670e+06	
5	-2.50000e-01	7.322647e+06	
6	-3.00000e-01	1.406400e+07	
7	-3.50000e-01	3.330723e+07	
8	-4.00000e-01	8.325191e+07	
9	-4.50000e-01	1.859629e+08	
10	-5.00000e-01	3.543499e+08	
11	-5.50000e-01	5.859716e+08	
12	-6.00000e-01	8.665171e+08	
13	-6.50000e-01	1.177385e+09	
14	-7.00000e-01	1.501759e+09	
15	-7.50000e-01	1.827274e+09	
16	-8.00000e-01	2.146114e+09	
17	-8.50000e-01	2.454009e+09	
18	-9.00000e-01	2.749068e+09	
19	-9.50000e-01	3.030844e+09	
20	-1.00000e+00	3.299685e+09	
21	-1.05000e+00	3.556335e+09	
22	-1.10000e+00	3.801696e+09	
23	-1.15000e+00	4.036697e+09	
24	-1.20000e+00	4.262227e+09	
25	-1.25000e+00	4.479103e+09	
26	-1.30000e+00	4.688061e+09	
27	-1.35000e+00	4.889758e+09	
28	-1.40000e+00	5.084773e+09	
29	-1.45000e+00	5.273616e+09	
30	-1.50000e+00	5.456741e+09	
31	-1.55000e+00	5.634544e+09	
32	-1.60000e+00	5.807379e+09	
33	-1.65000e+00	5.975559e+09	
34	-1.70000e+00	6.139364e+09	
35	-1.75000e+00	6.299043e+09	
36	-1.80000e+00	6.454818e+09	
37	-1.85000e+00	6.606887e+09	
38	-1.90000e+00	6.755427e+09	
39	-1.95000e+00	6.900591e+09	
40	-2.00000e+00	7.042508e+09	
41	-2.05000e+00	7.181284e+09	
42	-2.10000e+00	7.316993e+09	
43	-2.15000e+00	7.449676e+09	
44	-2.20000e+00	7.579333e+09	
45	-2.25000e+00	7.705910e+09	
46	-2.30000e+00	7.829295e+09	
47	-2.35000e+00	7.949299e+09	
48	-2.40000e+00	8.065645e+09	
49	-2.45000e+00	8.177953e+09	
50	-2.50000e+00	8.285721e+09	
51	-2.55000e+00	8.388309e+09	
52	-2.60000e+00	8.484925e+09	
53	-2.65000e+00	8.574610e+09	
54	-2.70000e+00	8.656229e+09	

Index   v-sweep         rds             
--------------------------------------------------------------------------------
55	-2.75000e+00	8.728465e+09	
56	-2.80000e+00	8.789822e+09	
57	-2.85000e+00	8.838638e+09	
58	-2.90000e+00	8.873112e+09	
59	-2.95000e+00	8.891339e+09	
60	-3.00000e+00	8.891366e+09	
61	-3.05000e+00	8.871262e+09	
62	-3.10000e+00	8.829205e+09	
63	-3.15000e+00	8.763574e+09	
64	-3.20000e+00	8.673054e+09	
65	-3.25000e+00	8.556739e+09	
66	-3.30000e+00	8.414223e+09	
Reset re-loads circuit ***************************

Circuit: ***************************

Doing analysis at TEMP = -40.000000 and TNOM = -40.000000


No. of Data Rows : 67
                          ***************************
                          DC transfer characteristic  Mon Jan  9 13:58:26  2023
--------------------------------------------------------------------------------
Index   v-sweep         rds             
--------------------------------------------------------------------------------
0	0.000000e+00	8.847567e+05	
1	-5.00000e-02	9.573465e+05	
2	-1.00000e-01	1.042842e+06	
3	-1.50000e-01	1.145006e+06	
4	-2.00000e-01	1.269210e+06	
5	-2.50000e-01	1.423383e+06	
6	-3.00000e-01	1.619713e+06	
7	-3.50000e-01	1.877857e+06	
8	-4.00000e-01	2.231422e+06	
9	-4.50000e-01	2.742046e+06	
10	-5.00000e-01	3.532365e+06	
11	-5.50000e-01	4.868307e+06	
12	-6.00000e-01	7.365760e+06	
13	-6.50000e-01	1.243990e+07	
14	-7.00000e-01	2.289631e+07	
15	-7.50000e-01	4.282332e+07	
16	-8.00000e-01	7.602729e+07	
17	-8.50000e-01	1.241153e+08	
18	-9.00000e-01	1.859005e+08	
19	-9.50000e-01	2.582637e+08	
20	-1.00000e+00	3.374931e+08	
21	-1.05000e+00	4.202755e+08	
22	-1.10000e+00	5.041178e+08	
23	-1.15000e+00	5.873615e+08	
24	-1.20000e+00	6.690175e+08	
25	-1.25000e+00	7.485669e+08	
26	-1.30000e+00	8.257939e+08	
27	-1.35000e+00	9.006651e+08	
28	-1.40000e+00	9.732492e+08	
29	-1.45000e+00	1.043666e+09	
30	-1.50000e+00	1.112058e+09	
31	-1.55000e+00	1.178570e+09	
32	-1.60000e+00	1.243344e+09	
33	-1.65000e+00	1.306510e+09	
34	-1.70000e+00	1.368187e+09	
35	-1.75000e+00	1.428484e+09	
36	-1.80000e+00	1.487497e+09	
37	-1.85000e+00	1.545312e+09	
38	-1.90000e+00	1.602004e+09	
39	-1.95000e+00	1.657641e+09	
40	-2.00000e+00	1.712285e+09	
41	-2.05000e+00	1.765988e+09	
42	-2.10000e+00	1.818799e+09	
43	-2.15000e+00	1.870761e+09	
44	-2.20000e+00	1.921909e+09	
45	-2.25000e+00	1.972277e+09	
46	-2.30000e+00	2.021891e+09	
47	-2.35000e+00	2.070770e+09	
48	-2.40000e+00	2.118927e+09	
49	-2.45000e+00	2.166364e+09	
50	-2.50000e+00	2.213073e+09	
51	-2.55000e+00	2.259028e+09	
52	-2.60000e+00	2.304186e+09	
53	-2.65000e+00	2.348480e+09	
54	-2.70000e+00	2.391811e+09	

Index   v-sweep         rds             
--------------------------------------------------------------------------------
55	-2.75000e+00	2.434047e+09	
56	-2.80000e+00	2.475014e+09	
57	-2.85000e+00	2.514486e+09	
58	-2.90000e+00	2.552182e+09	
59	-2.95000e+00	2.587759e+09	
60	-3.00000e+00	2.620802e+09	
61	-3.05000e+00	2.650826e+09	
62	-3.10000e+00	2.677273e+09	
63	-3.15000e+00	2.699514e+09	
64	-3.20000e+00	2.716859e+09	
65	-3.25000e+00	2.728569e+09	
66	-3.30000e+00	2.733880e+09	
Reset re-loads circuit ***************************

Circuit: ***************************

Doing analysis at TEMP = -40.000000 and TNOM = -40.000000


No. of Data Rows : 67
                          ***************************
                          DC transfer characteristic  Mon Jan  9 13:58:26  2023
--------------------------------------------------------------------------------
Index   v-sweep         rds             
--------------------------------------------------------------------------------
0	0.000000e+00	6.031902e+05	
1	-5.00000e-02	6.346346e+05	
2	-1.00000e-01	6.695179e+05	
3	-1.50000e-01	7.084360e+05	
4	-2.00000e-01	7.521306e+05	
5	-2.50000e-01	8.015366e+05	
6	-3.00000e-01	8.578490e+05	
7	-3.50000e-01	9.226194e+05	
8	-4.00000e-01	9.978987e+05	
9	-4.50000e-01	1.086454e+06	
10	-5.00000e-01	1.192105e+06	
11	-5.50000e-01	1.320270e+06	
12	-6.00000e-01	1.478878e+06	
13	-6.50000e-01	1.679958e+06	
14	-7.00000e-01	1.942545e+06	
15	-7.50000e-01	2.298250e+06	
16	-8.00000e-01	2.802470e+06	
17	-8.50000e-01	3.557816e+06	
18	-9.00000e-01	4.763449e+06	
19	-9.50000e-01	6.812353e+06	
20	-1.00000e+00	1.044393e+07	
21	-1.05000e+00	1.686099e+07	
22	-1.10000e+00	2.757375e+07	
23	-1.15000e+00	4.386216e+07	
24	-1.20000e+00	6.619990e+07	
25	-1.25000e+00	9.409186e+07	
26	-1.30000e+00	1.263651e+08	
27	-1.35000e+00	1.616211e+08	
28	-1.40000e+00	1.985826e+08	
29	-1.45000e+00	2.362558e+08	
30	-1.50000e+00	2.739500e+08	
31	-1.55000e+00	3.112284e+08	
32	-1.60000e+00	3.478403e+08	
33	-1.65000e+00	3.836609e+08	
34	-1.70000e+00	4.186450e+08	
35	-1.75000e+00	4.527949e+08	
36	-1.80000e+00	4.861398e+08	
37	-1.85000e+00	5.187219e+08	
38	-1.90000e+00	5.505893e+08	
39	-1.95000e+00	5.817906e+08	
40	-2.00000e+00	6.123724e+08	
41	-2.05000e+00	6.423784e+08	
42	-2.10000e+00	6.718487e+08	
43	-2.15000e+00	7.008194e+08	
44	-2.20000e+00	7.293231e+08	
45	-2.25000e+00	7.573889e+08	
46	-2.30000e+00	7.850429e+08	
47	-2.35000e+00	8.123083e+08	
48	-2.40000e+00	8.392060e+08	
49	-2.45000e+00	8.657543e+08	
50	-2.50000e+00	8.919694e+08	
51	-2.55000e+00	9.178655e+08	
52	-2.60000e+00	9.434543e+08	
53	-2.65000e+00	9.687451e+08	
54	-2.70000e+00	9.937442e+08	

Index   v-sweep         rds             
--------------------------------------------------------------------------------
55	-2.75000e+00	1.018454e+09	
56	-2.80000e+00	1.042873e+09	
57	-2.85000e+00	1.066992e+09	
58	-2.90000e+00	1.090795e+09	
59	-2.95000e+00	1.114255e+09	
60	-3.00000e+00	1.137334e+09	
61	-3.05000e+00	1.159976e+09	
62	-3.10000e+00	1.182108e+09	
63	-3.15000e+00	1.203632e+09	
64	-3.20000e+00	1.224425e+09	
65	-3.25000e+00	1.244330e+09	
66	-3.30000e+00	1.263159e+09	
Reset re-loads circuit ***************************

Circuit: ***************************

Doing analysis at TEMP = -40.000000 and TNOM = -40.000000


No. of Data Rows : 67
                          ***************************
                          DC transfer characteristic  Mon Jan  9 13:58:26  2023
--------------------------------------------------------------------------------
Index   v-sweep         rds             
--------------------------------------------------------------------------------
0	0.000000e+00	4.641060e+05	
1	-5.00000e-02	4.814586e+05	
2	-1.00000e-01	5.001497e+05	
3	-1.50000e-01	5.203403e+05	
4	-2.00000e-01	5.422182e+05	
5	-2.50000e-01	5.660040e+05	
6	-3.00000e-01	5.919584e+05	
7	-3.50000e-01	6.203917e+05	
8	-4.00000e-01	6.516764e+05	
9	-4.50000e-01	6.862631e+05	
10	-5.00000e-01	7.247027e+05	
11	-5.50000e-01	7.676751e+05	
12	-6.00000e-01	8.160295e+05	
13	-6.50000e-01	8.708402e+05	
14	-7.00000e-01	9.334854e+05	
15	-7.50000e-01	1.005762e+06	
16	-8.00000e-01	1.090056e+06	
17	-8.50000e-01	1.189599e+06	
18	-9.00000e-01	1.308872e+06	
19	-9.50000e-01	1.454249e+06	
20	-1.00000e+00	1.635078e+06	
21	-1.05000e+00	1.865531e+06	
22	-1.10000e+00	2.167897e+06	
23	-1.15000e+00	2.578655e+06	
24	-1.20000e+00	3.159833e+06	
25	-1.25000e+00	4.020181e+06	
26	-1.30000e+00	5.352159e+06	
27	-1.35000e+00	7.485742e+06	
28	-1.40000e+00	1.093484e+07	
29	-1.45000e+00	1.636829e+07	
30	-1.50000e+00	2.444216e+07	
31	-1.55000e+00	3.555074e+07	
32	-1.60000e+00	4.966725e+07	
33	-1.65000e+00	6.637811e+07	
34	-1.70000e+00	8.505427e+07	
35	-1.75000e+00	1.050360e+08	
36	-1.80000e+00	1.257532e+08	
37	-1.85000e+00	1.467725e+08	
38	-1.90000e+00	1.677935e+08	
39	-1.95000e+00	1.886246e+08	
40	-2.00000e+00	2.091538e+08	
41	-2.05000e+00	2.293229e+08	
42	-2.10000e+00	2.491088e+08	
43	-2.15000e+00	2.685099e+08	
44	-2.20000e+00	2.875369e+08	
45	-2.25000e+00	3.062071e+08	
46	-2.30000e+00	3.245409e+08	
47	-2.35000e+00	3.425595e+08	
48	-2.40000e+00	3.602835e+08	
49	-2.45000e+00	3.777327e+08	
50	-2.50000e+00	3.949252e+08	
51	-2.55000e+00	4.118776e+08	
52	-2.60000e+00	4.286049e+08	
53	-2.65000e+00	4.451208e+08	
54	-2.70000e+00	4.614375e+08	

Index   v-sweep         rds             
--------------------------------------------------------------------------------
55	-2.75000e+00	4.775658e+08	
56	-2.80000e+00	4.935155e+08	
57	-2.85000e+00	5.092952e+08	
58	-2.90000e+00	5.249124e+08	
59	-2.95000e+00	5.403735e+08	
60	-3.00000e+00	5.556837e+08	
61	-3.05000e+00	5.708463e+08	
62	-3.10000e+00	5.858632e+08	
63	-3.15000e+00	6.007334e+08	
64	-3.20000e+00	6.154531e+08	
65	-3.25000e+00	6.300140e+08	
66	-3.30000e+00	6.444025e+08	
Reset re-loads circuit ***************************

Circuit: ***************************

Doing analysis at TEMP = -40.000000 and TNOM = -40.000000


No. of Data Rows : 67
                          ***************************
                          DC transfer characteristic  Mon Jan  9 13:58:26  2023
--------------------------------------------------------------------------------
Index   v-sweep         rds             
--------------------------------------------------------------------------------
0	0.000000e+00	3.853353e+05	
1	-5.00000e-02	3.964533e+05	
2	-1.00000e-01	4.082263e+05	
3	-1.50000e-01	4.207138e+05	
4	-2.00000e-01	4.339831e+05	
5	-2.50000e-01	4.481097e+05	
6	-3.00000e-01	4.631795e+05	
7	-3.50000e-01	4.792903e+05	
8	-4.00000e-01	4.965536e+05	
9	-4.50000e-01	5.150975e+05	
10	-5.00000e-01	5.350701e+05	
11	-5.50000e-01	5.566427e+05	
12	-6.00000e-01	5.800155e+05	
13	-6.50000e-01	6.054232e+05	
14	-7.00000e-01	6.331433e+05	
15	-7.50000e-01	6.635059e+05	
16	-8.00000e-01	6.969066e+05	
17	-8.50000e-01	7.338243e+05	
18	-9.00000e-01	7.748433e+05	
19	-9.50000e-01	8.206841e+05	
20	-1.00000e+00	8.722456e+05	
21	-1.05000e+00	9.306624e+05	
22	-1.10000e+00	9.973876e+05	
23	-1.15000e+00	1.074310e+06	
24	-1.20000e+00	1.163927e+06	
25	-1.25000e+00	1.269607e+06	
26	-1.30000e+00	1.395986e+06	
27	-1.35000e+00	1.549605e+06	
28	-1.40000e+00	1.739934e+06	
29	-1.45000e+00	1.981082e+06	
30	-1.50000e+00	2.294708e+06	
31	-1.55000e+00	2.715050e+06	
32	-1.60000e+00	3.297581e+06	
33	-1.65000e+00	4.133321e+06	
34	-1.70000e+00	5.370033e+06	
35	-1.75000e+00	7.236013e+06	
36	-1.80000e+00	1.004876e+07	
37	-1.85000e+00	1.417811e+07	
38	-1.90000e+00	1.994968e+07	
39	-1.95000e+00	2.752889e+07	
40	-2.00000e+00	3.685954e+07	
41	-2.05000e+00	4.769264e+07	
42	-2.10000e+00	5.967467e+07	
43	-2.15000e+00	7.243920e+07	
44	-2.20000e+00	8.566727e+07	
45	-2.25000e+00	9.911178e+07	
46	-2.30000e+00	1.125973e+08	
47	-2.35000e+00	1.260079e+08	
48	-2.40000e+00	1.392726e+08	
49	-2.45000e+00	1.523518e+08	
50	-2.50000e+00	1.652266e+08	
51	-2.55000e+00	1.778918e+08	
52	-2.60000e+00	1.903500e+08	
53	-2.65000e+00	2.026086e+08	
54	-2.70000e+00	2.146773e+08	

Index   v-sweep         rds             
--------------------------------------------------------------------------------
55	-2.75000e+00	2.265668e+08	
56	-2.80000e+00	2.382881e+08	
57	-2.85000e+00	2.498516e+08	
58	-2.90000e+00	2.612675e+08	
59	-2.95000e+00	2.725448e+08	
60	-3.00000e+00	2.836921e+08	
61	-3.05000e+00	2.947169e+08	
62	-3.10000e+00	3.056264e+08	
63	-3.15000e+00	3.164266e+08	
64	-3.20000e+00	3.271232e+08	
65	-3.25000e+00	3.377211e+08	
66	-3.30000e+00	3.482245e+08	
Reset re-loads circuit ***************************

Circuit: ***************************

Note: No ".plot", ".print", or ".fourier" lines; no simulations run
