
Note: Compatibility modes selected: hs

Warning: m=xx on .subckt line will override multiplier m hierarchy!


Circuit: ***************************

Doing analysis at TEMP = -40.000000 and TNOM = -40.000000


No. of Data Rows : 67
                          ***************************
                          DC transfer characteristic  Mon Jan  9 13:58:26  2023
--------------------------------------------------------------------------------
Index   v-sweep         rds             
--------------------------------------------------------------------------------
0	0.000000e+00	2.028276e+06	
1	-5.00000e-02	2.081638e+07	
2	-1.00000e-01	1.712855e+08	
3	-1.50000e-01	4.791149e+08	
4	-2.00000e-01	7.801594e+08	
5	-2.50000e-01	1.007984e+09	
6	-3.00000e-01	1.177314e+09	
7	-3.50000e-01	1.309832e+09	
8	-4.00000e-01	1.419392e+09	
9	-4.50000e-01	1.513872e+09	
10	-5.00000e-01	1.597789e+09	
11	-5.50000e-01	1.673849e+09	
12	-6.00000e-01	1.743757e+09	
13	-6.50000e-01	1.808649e+09	
14	-7.00000e-01	1.869316e+09	
15	-7.50000e-01	1.926337e+09	
16	-8.00000e-01	1.980152e+09	
17	-8.50000e-01	2.031106e+09	
18	-9.00000e-01	2.079479e+09	
19	-9.50000e-01	2.125503e+09	
20	-1.00000e+00	2.169374e+09	
21	-1.05000e+00	2.211260e+09	
22	-1.10000e+00	2.251307e+09	
23	-1.15000e+00	2.289645e+09	
24	-1.20000e+00	2.326389e+09	
25	-1.25000e+00	2.361643e+09	
26	-1.30000e+00	2.395498e+09	
27	-1.35000e+00	2.428041e+09	
28	-1.40000e+00	2.459347e+09	
29	-1.45000e+00	2.489487e+09	
30	-1.50000e+00	2.518525e+09	
31	-1.55000e+00	2.546521e+09	
32	-1.60000e+00	2.573527e+09	
33	-1.65000e+00	2.599594e+09	
34	-1.70000e+00	2.624764e+09	
35	-1.75000e+00	2.649077e+09	
36	-1.80000e+00	2.672564e+09	
37	-1.85000e+00	2.695254e+09	
38	-1.90000e+00	2.717164e+09	
39	-1.95000e+00	2.738306e+09	
40	-2.00000e+00	2.758681e+09	
41	-2.05000e+00	2.778279e+09	
42	-2.10000e+00	2.797077e+09	
43	-2.15000e+00	2.815038e+09	
44	-2.20000e+00	2.832107e+09	
45	-2.25000e+00	2.848211e+09	
46	-2.30000e+00	2.863255e+09	
47	-2.35000e+00	2.877125e+09	
48	-2.40000e+00	2.889679e+09	
49	-2.45000e+00	2.900751e+09	
50	-2.50000e+00	2.910152e+09	
51	-2.55000e+00	2.917664e+09	
52	-2.60000e+00	2.923046e+09	
53	-2.65000e+00	2.926032e+09	
54	-2.70000e+00	2.926338e+09	

Index   v-sweep         rds             
--------------------------------------------------------------------------------
55	-2.75000e+00	2.923664e+09	
56	-2.80000e+00	2.917700e+09	
57	-2.85000e+00	2.908134e+09	
58	-2.90000e+00	2.894660e+09	
59	-2.95000e+00	2.876985e+09	
60	-3.00000e+00	2.854847e+09	
61	-3.05000e+00	2.828019e+09	
62	-3.10000e+00	2.796323e+09	
63	-3.15000e+00	2.759641e+09	
64	-3.20000e+00	2.717926e+09	
65	-3.25000e+00	2.671206e+09	
66	-3.30000e+00	2.619590e+09	
Reset re-loads circuit ***************************

Circuit: ***************************

Doing analysis at TEMP = -40.000000 and TNOM = -40.000000


No. of Data Rows : 67
                          ***************************
                          DC transfer characteristic  Mon Jan  9 13:58:26  2023
--------------------------------------------------------------------------------
Index   v-sweep         rds             
--------------------------------------------------------------------------------
0	0.000000e+00	4.817639e+04	
1	-5.00000e-02	5.628514e+04	
2	-1.00000e-01	6.756761e+04	
3	-1.50000e-01	8.428105e+04	
4	-2.00000e-01	1.113167e+05	
5	-2.50000e-01	1.608544e+05	
6	-3.00000e-01	2.674008e+05	
7	-3.50000e-01	5.262100e+05	
8	-4.00000e-01	1.099648e+06	
9	-4.50000e-01	2.013725e+06	
10	-5.00000e-01	3.047164e+06	
11	-5.50000e-01	4.006189e+06	
12	-6.00000e-01	4.843384e+06	
13	-6.50000e-01	5.578838e+06	
14	-7.00000e-01	6.241753e+06	
15	-7.50000e-01	6.854593e+06	
16	-8.00000e-01	7.432407e+06	
17	-8.50000e-01	7.984960e+06	
18	-9.00000e-01	8.518615e+06	
19	-9.50000e-01	9.037595e+06	
20	-1.00000e+00	9.544766e+06	
21	-1.05000e+00	1.004212e+07	
22	-1.10000e+00	1.053108e+07	
23	-1.15000e+00	1.101269e+07	
24	-1.20000e+00	1.148771e+07	
25	-1.25000e+00	1.195673e+07	
26	-1.30000e+00	1.242021e+07	
27	-1.35000e+00	1.287850e+07	
28	-1.40000e+00	1.333191e+07	
29	-1.45000e+00	1.378066e+07	
30	-1.50000e+00	1.422496e+07	
31	-1.55000e+00	1.466497e+07	
32	-1.60000e+00	1.510084e+07	
33	-1.65000e+00	1.553269e+07	
34	-1.70000e+00	1.596062e+07	
35	-1.75000e+00	1.638473e+07	
36	-1.80000e+00	1.680511e+07	
37	-1.85000e+00	1.722181e+07	
38	-1.90000e+00	1.763490e+07	
39	-1.95000e+00	1.804441e+07	
40	-2.00000e+00	1.845035e+07	
41	-2.05000e+00	1.885268e+07	
42	-2.10000e+00	1.925133e+07	
43	-2.15000e+00	1.964616e+07	
44	-2.20000e+00	2.003691e+07	
45	-2.25000e+00	2.042323e+07	
46	-2.30000e+00	2.080461e+07	
47	-2.35000e+00	2.118032e+07	
48	-2.40000e+00	2.154939e+07	
49	-2.45000e+00	2.191057e+07	
50	-2.50000e+00	2.226222e+07	
51	-2.55000e+00	2.260228e+07	
52	-2.60000e+00	2.292822e+07	
53	-2.65000e+00	2.323695e+07	
54	-2.70000e+00	2.352481e+07	

Index   v-sweep         rds             
--------------------------------------------------------------------------------
55	-2.75000e+00	2.378749e+07	
56	-2.80000e+00	2.402006e+07	
57	-2.85000e+00	2.421698e+07	
58	-2.90000e+00	2.437216e+07	
59	-2.95000e+00	2.447910e+07	
60	-3.00000e+00	2.453102e+07	
61	-3.05000e+00	2.452116e+07	
62	-3.10000e+00	2.444304e+07	
63	-3.15000e+00	2.429082e+07	
64	-3.20000e+00	2.405970e+07	
65	-3.25000e+00	2.374629e+07	
66	-3.30000e+00	2.334895e+07	
Reset re-loads circuit ***************************

Circuit: ***************************

Doing analysis at TEMP = -40.000000 and TNOM = -40.000000


No. of Data Rows : 67
                          ***************************
                          DC transfer characteristic  Mon Jan  9 13:58:26  2023
--------------------------------------------------------------------------------
Index   v-sweep         rds             
--------------------------------------------------------------------------------
0	0.000000e+00	2.430677e+04	
1	-5.00000e-02	2.614762e+04	
2	-1.00000e-01	2.827808e+04	
3	-1.50000e-01	3.077205e+04	
4	-2.00000e-01	3.373077e+04	
5	-2.50000e-01	3.729658e+04	
6	-3.00000e-01	4.167580e+04	
7	-3.50000e-01	4.717837e+04	
8	-4.00000e-01	5.429000e+04	
9	-4.50000e-01	6.381052e+04	
10	-5.00000e-01	7.713390e+04	
11	-5.50000e-01	9.684132e+04	
12	-6.00000e-01	1.279627e+05	
13	-6.50000e-01	1.803369e+05	
14	-7.00000e-01	2.708247e+05	
15	-7.50000e-01	4.174719e+05	
16	-8.00000e-01	6.189843e+05	
17	-8.50000e-01	8.470067e+05	
18	-9.00000e-01	1.071387e+06	
19	-9.50000e-01	1.278690e+06	
20	-1.00000e+00	1.468060e+06	
21	-1.05000e+00	1.642963e+06	
22	-1.10000e+00	1.807147e+06	
23	-1.15000e+00	1.963546e+06	
24	-1.20000e+00	2.114247e+06	
25	-1.25000e+00	2.260691e+06	
26	-1.30000e+00	2.403871e+06	
27	-1.35000e+00	2.544478e+06	
28	-1.40000e+00	2.683001e+06	
29	-1.45000e+00	2.819790e+06	
30	-1.50000e+00	2.955103e+06	
31	-1.55000e+00	3.089131e+06	
32	-1.60000e+00	3.222016e+06	
33	-1.65000e+00	3.353871e+06	
34	-1.70000e+00	3.484782e+06	
35	-1.75000e+00	3.614816e+06	
36	-1.80000e+00	3.744029e+06	
37	-1.85000e+00	3.872465e+06	
38	-1.90000e+00	4.000160e+06	
39	-1.95000e+00	4.127144e+06	
40	-2.00000e+00	4.253443e+06	
41	-2.05000e+00	4.379078e+06	
42	-2.10000e+00	4.504067e+06	
43	-2.15000e+00	4.628424e+06	
44	-2.20000e+00	4.752160e+06	
45	-2.25000e+00	4.875283e+06	
46	-2.30000e+00	4.997796e+06	
47	-2.35000e+00	5.119693e+06	
48	-2.40000e+00	5.240960e+06	
49	-2.45000e+00	5.361568e+06	
50	-2.50000e+00	5.481469e+06	
51	-2.55000e+00	5.600590e+06	
52	-2.60000e+00	5.718819e+06	
53	-2.65000e+00	5.836001e+06	
54	-2.70000e+00	5.951920e+06	

Index   v-sweep         rds             
--------------------------------------------------------------------------------
55	-2.75000e+00	6.066282e+06	
56	-2.80000e+00	6.178704e+06	
57	-2.85000e+00	6.288688e+06	
58	-2.90000e+00	6.395603e+06	
59	-2.95000e+00	6.498662e+06	
60	-3.00000e+00	6.596906e+06	
61	-3.05000e+00	6.689180e+06	
62	-3.10000e+00	6.774124e+06	
63	-3.15000e+00	6.850167e+06	
64	-3.20000e+00	6.915531e+06	
65	-3.25000e+00	6.968252e+06	
66	-3.30000e+00	7.006218e+06	
Reset re-loads circuit ***************************

Circuit: ***************************

Doing analysis at TEMP = -40.000000 and TNOM = -40.000000


No. of Data Rows : 67
                          ***************************
                          DC transfer characteristic  Mon Jan  9 13:58:26  2023
--------------------------------------------------------------------------------
Index   v-sweep         rds             
--------------------------------------------------------------------------------
0	0.000000e+00	1.709251e+04	
1	-5.00000e-02	1.791906e+04	
2	-1.00000e-01	1.882519e+04	
3	-1.50000e-01	1.982293e+04	
4	-2.00000e-01	2.092688e+04	
5	-2.50000e-01	2.215492e+04	
6	-3.00000e-01	2.352916e+04	
7	-3.50000e-01	2.507727e+04	
8	-4.00000e-01	2.683432e+04	
9	-4.50000e-01	2.884547e+04	
10	-5.00000e-01	3.116978e+04	
11	-5.50000e-01	3.388595e+04	
12	-6.00000e-01	3.710104e+04	
13	-6.50000e-01	4.096425e+04	
14	-7.00000e-01	4.568910e+04	
15	-7.50000e-01	5.159049e+04	
16	-8.00000e-01	5.914838e+04	
17	-8.50000e-01	6.911949e+04	
18	-9.00000e-01	8.273365e+04	
19	-9.50000e-01	1.020197e+05	
20	-1.00000e+00	1.302381e+05	
21	-1.05000e+00	1.720259e+05	
22	-1.10000e+00	2.320171e+05	
23	-1.15000e+00	3.110128e+05	
24	-1.20000e+00	4.031703e+05	
25	-1.25000e+00	4.993567e+05	
26	-1.30000e+00	5.928916e+05	
27	-1.35000e+00	6.811976e+05	
28	-1.40000e+00	7.642534e+05	
29	-1.45000e+00	8.429519e+05	
30	-1.50000e+00	9.182823e+05	
31	-1.55000e+00	9.910651e+05	
32	-1.60000e+00	1.061918e+06	
33	-1.65000e+00	1.131289e+06	
34	-1.70000e+00	1.199500e+06	
35	-1.75000e+00	1.266784e+06	
36	-1.80000e+00	1.333310e+06	
37	-1.85000e+00	1.399204e+06	
38	-1.90000e+00	1.464557e+06	
39	-1.95000e+00	1.529440e+06	
40	-2.00000e+00	1.593907e+06	
41	-2.05000e+00	1.658000e+06	
42	-2.10000e+00	1.721751e+06	
43	-2.15000e+00	1.785188e+06	
44	-2.20000e+00	1.848330e+06	
45	-2.25000e+00	1.911195e+06	
46	-2.30000e+00	1.973796e+06	
47	-2.35000e+00	2.036146e+06	
48	-2.40000e+00	2.098254e+06	
49	-2.45000e+00	2.160128e+06	
50	-2.50000e+00	2.221775e+06	
51	-2.55000e+00	2.283198e+06	
52	-2.60000e+00	2.344403e+06	
53	-2.65000e+00	2.405390e+06	
54	-2.70000e+00	2.466157e+06	

Index   v-sweep         rds             
--------------------------------------------------------------------------------
55	-2.75000e+00	2.526700e+06	
56	-2.80000e+00	2.587006e+06	
57	-2.85000e+00	2.647056e+06	
58	-2.90000e+00	2.706819e+06	
59	-2.95000e+00	2.766250e+06	
60	-3.00000e+00	2.825280e+06	
61	-3.05000e+00	2.883818e+06	
62	-3.10000e+00	2.941734e+06	
63	-3.15000e+00	2.998858e+06	
64	-3.20000e+00	3.054967e+06	
65	-3.25000e+00	3.109774e+06	
66	-3.30000e+00	3.162919e+06	
Reset re-loads circuit ***************************

Circuit: ***************************

Doing analysis at TEMP = -40.000000 and TNOM = -40.000000


No. of Data Rows : 67
                          ***************************
                          DC transfer characteristic  Mon Jan  9 13:58:26  2023
--------------------------------------------------------------------------------
Index   v-sweep         rds             
--------------------------------------------------------------------------------
0	0.000000e+00	1.380535e+04	
1	-5.00000e-02	1.429489e+04	
2	-1.00000e-01	1.481811e+04	
3	-1.50000e-01	1.537862e+04	
4	-2.00000e-01	1.598054e+04	
5	-2.50000e-01	1.662861e+04	
6	-3.00000e-01	1.732835e+04	
7	-3.50000e-01	1.808618e+04	
8	-4.00000e-01	1.890962e+04	
9	-4.50000e-01	1.980758e+04	
10	-5.00000e-01	2.079060e+04	
11	-5.50000e-01	2.187134e+04	
12	-6.00000e-01	2.306509e+04	
13	-6.50000e-01	2.439048e+04	
14	-7.00000e-01	2.587044e+04	
15	-7.50000e-01	2.753355e+04	
16	-8.00000e-01	2.941582e+04	
17	-8.50000e-01	3.156322e+04	
18	-9.00000e-01	3.403541e+04	
19	-9.50000e-01	3.691101e+04	
20	-1.00000e+00	4.029556e+04	
21	-1.05000e+00	4.433362e+04	
22	-1.10000e+00	4.922741e+04	
23	-1.15000e+00	5.526613e+04	
24	-1.20000e+00	6.287200e+04	
25	-1.25000e+00	7.267093e+04	
26	-1.30000e+00	8.559210e+04	
27	-1.35000e+00	1.029747e+05	
28	-1.40000e+00	1.265738e+05	
29	-1.45000e+00	1.581958e+05	
30	-1.50000e+00	1.987036e+05	
31	-1.55000e+00	2.468762e+05	
32	-1.60000e+00	2.995405e+05	
33	-1.65000e+00	3.532482e+05	
34	-1.70000e+00	4.057469e+05	
35	-1.75000e+00	4.561572e+05	
36	-1.80000e+00	5.044400e+05	
37	-1.85000e+00	5.508924e+05	
38	-1.90000e+00	5.958748e+05	
39	-1.95000e+00	6.397068e+05	
40	-2.00000e+00	6.826420e+05	
41	-2.05000e+00	7.248726e+05	
42	-2.10000e+00	7.665420e+05	
43	-2.15000e+00	8.077567e+05	
44	-2.20000e+00	8.485962e+05	
45	-2.25000e+00	8.891203e+05	
46	-2.30000e+00	9.293742e+05	
47	-2.35000e+00	9.693928e+05	
48	-2.40000e+00	1.009203e+06	
49	-2.45000e+00	1.048826e+06	
50	-2.50000e+00	1.088278e+06	
51	-2.55000e+00	1.127574e+06	
52	-2.60000e+00	1.166723e+06	
53	-2.65000e+00	1.205734e+06	
54	-2.70000e+00	1.244616e+06	

Index   v-sweep         rds             
--------------------------------------------------------------------------------
55	-2.75000e+00	1.283373e+06	
56	-2.80000e+00	1.322011e+06	
57	-2.85000e+00	1.360533e+06	
58	-2.90000e+00	1.398944e+06	
59	-2.95000e+00	1.437245e+06	
60	-3.00000e+00	1.475437e+06	
61	-3.05000e+00	1.513521e+06	
62	-3.10000e+00	1.551494e+06	
63	-3.15000e+00	1.589352e+06	
64	-3.20000e+00	1.627085e+06	
65	-3.25000e+00	1.664678e+06	
66	-3.30000e+00	1.702109e+06	
Reset re-loads circuit ***************************

Circuit: ***************************

Doing analysis at TEMP = -40.000000 and TNOM = -40.000000


No. of Data Rows : 67
                          ***************************
                          DC transfer characteristic  Mon Jan  9 13:58:26  2023
--------------------------------------------------------------------------------
Index   v-sweep         rds             
--------------------------------------------------------------------------------
0	0.000000e+00	1.196331e+04	
1	-5.00000e-02	1.229659e+04	
2	-1.00000e-01	1.264755e+04	
3	-1.50000e-01	1.301764e+04	
4	-2.00000e-01	1.340847e+04	
5	-2.50000e-01	1.382182e+04	
6	-3.00000e-01	1.425971e+04	
7	-3.50000e-01	1.472436e+04	
8	-4.00000e-01	1.521830e+04	
9	-4.50000e-01	1.574440e+04	
10	-5.00000e-01	1.630588e+04	
11	-5.50000e-01	1.690644e+04	
12	-6.00000e-01	1.755029e+04	
13	-6.50000e-01	1.824226e+04	
14	-7.00000e-01	1.898796e+04	
15	-7.50000e-01	1.979388e+04	
16	-8.00000e-01	2.066759e+04	
17	-8.50000e-01	2.161800e+04	
18	-9.00000e-01	2.265563e+04	
19	-9.50000e-01	2.379302e+04	
20	-1.00000e+00	2.504521e+04	
21	-1.05000e+00	2.643041e+04	
22	-1.10000e+00	2.797087e+04	
23	-1.15000e+00	2.969402e+04	
24	-1.20000e+00	3.163408e+04	
25	-1.25000e+00	3.383424e+04	
26	-1.30000e+00	3.634971e+04	
27	-1.35000e+00	3.925205e+04	
28	-1.40000e+00	4.263540e+04	
29	-1.45000e+00	4.662549e+04	
30	-1.50000e+00	5.139283e+04	
31	-1.55000e+00	5.717178e+04	
32	-1.60000e+00	6.428737e+04	
33	-1.65000e+00	7.318997e+04	
34	-1.70000e+00	8.449077e+04	
35	-1.75000e+00	9.897056e+04	
36	-1.80000e+00	1.174962e+05	
37	-1.85000e+00	1.407526e+05	
38	-1.90000e+00	1.687973e+05	
39	-1.95000e+00	2.007436e+05	
40	-2.00000e+00	2.349947e+05	
41	-2.05000e+00	2.699317e+05	
42	-2.10000e+00	3.044535e+05	
43	-2.15000e+00	3.380548e+05	
44	-2.20000e+00	3.706323e+05	
45	-2.25000e+00	4.022750e+05	
46	-2.30000e+00	4.331326e+05	
47	-2.35000e+00	4.633543e+05	
48	-2.40000e+00	4.930671e+05	
49	-2.45000e+00	5.223720e+05	
50	-2.50000e+00	5.513475e+05	
51	-2.55000e+00	5.800532e+05	
52	-2.60000e+00	6.085348e+05	
53	-2.65000e+00	6.368272e+05	
54	-2.70000e+00	6.649573e+05	

Index   v-sweep         rds             
--------------------------------------------------------------------------------
55	-2.75000e+00	6.929460e+05	
56	-2.80000e+00	7.208095e+05	
57	-2.85000e+00	7.485608e+05	
58	-2.90000e+00	7.762101e+05	
59	-2.95000e+00	8.037658e+05	
60	-3.00000e+00	8.312343e+05	
61	-3.05000e+00	8.586214e+05	
62	-3.10000e+00	8.859314e+05	
63	-3.15000e+00	9.131680e+05	
64	-3.20000e+00	9.403344e+05	
65	-3.25000e+00	9.674329e+05	
66	-3.30000e+00	9.944657e+05	
Reset re-loads circuit ***************************

Circuit: ***************************

Note: No ".plot", ".print", or ".fourier" lines; no simulations run
