
Note: Compatibility modes selected: hs

Warning: m=xx on .subckt line will override multiplier m hierarchy!


Circuit: ***************************

Doing analysis at TEMP = -40.000000 and TNOM = -40.000000


No. of Data Rows : 67
                          ***************************
                          DC transfer characteristic  Mon Jan  9 13:58:25  2023
--------------------------------------------------------------------------------
Index   v-sweep         rds             
--------------------------------------------------------------------------------
0	0.000000e+00	2.573438e+05	
1	-5.00000e-02	2.296126e+06	
2	-1.00000e-01	1.616033e+07	
3	-1.50000e-01	3.603080e+07	
4	-2.00000e-01	4.999768e+07	
5	-2.50000e-01	5.907192e+07	
6	-3.00000e-01	6.555841e+07	
7	-3.50000e-01	7.063220e+07	
8	-4.00000e-01	7.484369e+07	
9	-4.50000e-01	7.846961e+07	
10	-5.00000e-01	8.166335e+07	
11	-5.50000e-01	8.451829e+07	
12	-6.00000e-01	8.709611e+07	
13	-6.50000e-01	8.944040e+07	
14	-7.00000e-01	9.158370e+07	
15	-7.50000e-01	9.355131e+07	
16	-8.00000e-01	9.536357e+07	
17	-8.50000e-01	9.703724e+07	
18	-9.00000e-01	9.858640e+07	
19	-9.50000e-01	1.000231e+08	
20	-1.00000e+00	1.013576e+08	
21	-1.05000e+00	1.025990e+08	
22	-1.10000e+00	1.037553e+08	
23	-1.15000e+00	1.048334e+08	
24	-1.20000e+00	1.058397e+08	
25	-1.25000e+00	1.067796e+08	
26	-1.30000e+00	1.076583e+08	
27	-1.35000e+00	1.084801e+08	
28	-1.40000e+00	1.092493e+08	
29	-1.45000e+00	1.099694e+08	
30	-1.50000e+00	1.106438e+08	
31	-1.55000e+00	1.112756e+08	
32	-1.60000e+00	1.118675e+08	
33	-1.65000e+00	1.124220e+08	
34	-1.70000e+00	1.129414e+08	
35	-1.75000e+00	1.134276e+08	
36	-1.80000e+00	1.138823e+08	
37	-1.85000e+00	1.143070e+08	
38	-1.90000e+00	1.147029e+08	
39	-1.95000e+00	1.150708e+08	
40	-2.00000e+00	1.154113e+08	
41	-2.05000e+00	1.157245e+08	
42	-2.10000e+00	1.160102e+08	
43	-2.15000e+00	1.162675e+08	
44	-2.20000e+00	1.164952e+08	
45	-2.25000e+00	1.166915e+08	
46	-2.30000e+00	1.168538e+08	
47	-2.35000e+00	1.169791e+08	
48	-2.40000e+00	1.170636e+08	
49	-2.45000e+00	1.171026e+08	
50	-2.50000e+00	1.170908e+08	
51	-2.55000e+00	1.170223e+08	
52	-2.60000e+00	1.168903e+08	
53	-2.65000e+00	1.166873e+08	
54	-2.70000e+00	1.164053e+08	

Index   v-sweep         rds             
--------------------------------------------------------------------------------
55	-2.75000e+00	1.160358e+08	
56	-2.80000e+00	1.155699e+08	
57	-2.85000e+00	1.149986e+08	
58	-2.90000e+00	1.143126e+08	
59	-2.95000e+00	1.135034e+08	
60	-3.00000e+00	1.125625e+08	
61	-3.05000e+00	1.114825e+08	
62	-3.10000e+00	1.102570e+08	
63	-3.15000e+00	1.088810e+08	
64	-3.20000e+00	1.073512e+08	
65	-3.25000e+00	1.056661e+08	
66	-3.30000e+00	1.038265e+08	
Reset re-loads circuit ***************************

Circuit: ***************************

Doing analysis at TEMP = -40.000000 and TNOM = -40.000000


No. of Data Rows : 67
                          ***************************
                          DC transfer characteristic  Mon Jan  9 13:58:26  2023
--------------------------------------------------------------------------------
Index   v-sweep         rds             
--------------------------------------------------------------------------------
0	0.000000e+00	4.568268e+03	
1	-5.00000e-02	5.276917e+03	
2	-1.00000e-01	6.229006e+03	
3	-1.50000e-01	7.572878e+03	
4	-2.00000e-01	9.601014e+03	
5	-2.50000e-01	1.295641e+04	
6	-3.00000e-01	1.921225e+04	
7	-3.50000e-01	3.224984e+04	
8	-4.00000e-01	5.865180e+04	
9	-4.50000e-01	9.927676e+04	
10	-5.00000e-01	1.434913e+05	
11	-5.50000e-01	1.831683e+05	
12	-6.00000e-01	2.174615e+05	
13	-6.50000e-01	2.478279e+05	
14	-7.00000e-01	2.755776e+05	
15	-7.50000e-01	3.015508e+05	
16	-8.00000e-01	3.262528e+05	
17	-8.50000e-01	3.499895e+05	
18	-9.00000e-01	3.729520e+05	
19	-9.50000e-01	3.952645e+05	
20	-1.00000e+00	4.170109e+05	
21	-1.05000e+00	4.382506e+05	
22	-1.10000e+00	4.590268e+05	
23	-1.15000e+00	4.793724e+05	
24	-1.20000e+00	4.993134e+05	
25	-1.25000e+00	5.188708e+05	
26	-1.30000e+00	5.380621e+05	
27	-1.35000e+00	5.569022e+05	
28	-1.40000e+00	5.754042e+05	
29	-1.45000e+00	5.935798e+05	
30	-1.50000e+00	6.114393e+05	
31	-1.55000e+00	6.289925e+05	
32	-1.60000e+00	6.462480e+05	
33	-1.65000e+00	6.632142e+05	
34	-1.70000e+00	6.798986e+05	
35	-1.75000e+00	6.963086e+05	
36	-1.80000e+00	7.124509e+05	
37	-1.85000e+00	7.283316e+05	
38	-1.90000e+00	7.439566e+05	
39	-1.95000e+00	7.593308e+05	
40	-2.00000e+00	7.744583e+05	
41	-2.05000e+00	7.893418e+05	
42	-2.10000e+00	8.039824e+05	
43	-2.15000e+00	8.183787e+05	
44	-2.20000e+00	8.325263e+05	
45	-2.25000e+00	8.464164e+05	
46	-2.30000e+00	8.600350e+05	
47	-2.35000e+00	8.733610e+05	
48	-2.40000e+00	8.863650e+05	
49	-2.45000e+00	8.990069e+05	
50	-2.50000e+00	9.112346e+05	
51	-2.55000e+00	9.229810e+05	
52	-2.60000e+00	9.341623e+05	
53	-2.65000e+00	9.446762e+05	
54	-2.70000e+00	9.543995e+05	

Index   v-sweep         rds             
--------------------------------------------------------------------------------
55	-2.75000e+00	9.631873e+05	
56	-2.80000e+00	9.708723e+05	
57	-2.85000e+00	9.772654e+05	
58	-2.90000e+00	9.821571e+05	
59	-2.95000e+00	9.853214e+05	
60	-3.00000e+00	9.865211e+05	
61	-3.05000e+00	9.855153e+05	
62	-3.10000e+00	9.820688e+05	
63	-3.15000e+00	9.759637e+05	
64	-3.20000e+00	9.670123e+05	
65	-3.25000e+00	9.550708e+05	
66	-3.30000e+00	9.400518e+05	
Reset re-loads circuit ***************************

Circuit: ***************************

Doing analysis at TEMP = -40.000000 and TNOM = -40.000000


No. of Data Rows : 67
                          ***************************
                          DC transfer characteristic  Mon Jan  9 13:58:26  2023
--------------------------------------------------------------------------------
Index   v-sweep         rds             
--------------------------------------------------------------------------------
0	0.000000e+00	2.350250e+03	
1	-5.00000e-02	2.520331e+03	
2	-1.00000e-01	2.714567e+03	
3	-1.50000e-01	2.938468e+03	
4	-2.00000e-01	3.199350e+03	
5	-2.50000e-01	3.507130e+03	
6	-3.00000e-01	3.875585e+03	
7	-3.50000e-01	4.324383e+03	
8	-4.00000e-01	4.882533e+03	
9	-4.50000e-01	5.594411e+03	
10	-5.00000e-01	6.530770e+03	
11	-5.50000e-01	7.809393e+03	
12	-6.00000e-01	9.633726e+03	
13	-6.50000e-01	1.235745e+04	
14	-7.00000e-01	1.654473e+04	
15	-7.50000e-01	2.283434e+04	
16	-8.00000e-01	3.132143e+04	
17	-8.50000e-01	4.107074e+04	
18	-9.00000e-01	5.087091e+04	
19	-9.50000e-01	6.011879e+04	
20	-1.00000e+00	6.874859e+04	
21	-1.05000e+00	7.687939e+04	
22	-1.10000e+00	8.464031e+04	
23	-1.15000e+00	9.212819e+04	
24	-1.20000e+00	9.940884e+04	
25	-1.25000e+00	1.065260e+05	
26	-1.30000e+00	1.135088e+05	
27	-1.35000e+00	1.203772e+05	
28	-1.40000e+00	1.271450e+05	
29	-1.45000e+00	1.338223e+05	
30	-1.50000e+00	1.404161e+05	
31	-1.55000e+00	1.469321e+05	
32	-1.60000e+00	1.533746e+05	
33	-1.65000e+00	1.597467e+05	
34	-1.70000e+00	1.660514e+05	
35	-1.75000e+00	1.722908e+05	
36	-1.80000e+00	1.784669e+05	
37	-1.85000e+00	1.845814e+05	
38	-1.90000e+00	1.906357e+05	
39	-1.95000e+00	1.966311e+05	
40	-2.00000e+00	2.025688e+05	
41	-2.05000e+00	2.084498e+05	
42	-2.10000e+00	2.142752e+05	
43	-2.15000e+00	2.200459e+05	
44	-2.20000e+00	2.257626e+05	
45	-2.25000e+00	2.314260e+05	
46	-2.30000e+00	2.370367e+05	
47	-2.35000e+00	2.425949e+05	
48	-2.40000e+00	2.481005e+05	
49	-2.45000e+00	2.535530e+05	
50	-2.50000e+00	2.589510e+05	
51	-2.55000e+00	2.642921e+05	
52	-2.60000e+00	2.695728e+05	
53	-2.65000e+00	2.747872e+05	
54	-2.70000e+00	2.799276e+05	

Index   v-sweep         rds             
--------------------------------------------------------------------------------
55	-2.75000e+00	2.849827e+05	
56	-2.80000e+00	2.899377e+05	
57	-2.85000e+00	2.947729e+05	
58	-2.90000e+00	2.994630e+05	
59	-2.95000e+00	3.039761e+05	
60	-3.00000e+00	3.082727e+05	
61	-3.05000e+00	3.123049e+05	
62	-3.10000e+00	3.160157e+05	
63	-3.15000e+00	3.193383e+05	
64	-3.20000e+00	3.221965e+05	
65	-3.25000e+00	3.245052e+05	
66	-3.30000e+00	3.261716e+05	
Reset re-loads circuit ***************************

Circuit: ***************************

Doing analysis at TEMP = -40.000000 and TNOM = -40.000000


No. of Data Rows : 67
                          ***************************
                          DC transfer characteristic  Mon Jan  9 13:58:26  2023
--------------------------------------------------------------------------------
Index   v-sweep         rds             
--------------------------------------------------------------------------------
0	0.000000e+00	1.689798e+03	
1	-5.00000e-02	1.770308e+03	
2	-1.00000e-01	1.857966e+03	
3	-1.50000e-01	1.953761e+03	
4	-2.00000e-01	2.058876e+03	
5	-2.50000e-01	2.174732e+03	
6	-3.00000e-01	2.303054e+03	
7	-3.50000e-01	2.445959e+03	
8	-4.00000e-01	2.606065e+03	
9	-4.50000e-01	2.786658e+03	
10	-5.00000e-01	2.991908e+03	
11	-5.50000e-01	3.227190e+03	
12	-6.00000e-01	3.499545e+03	
13	-6.50000e-01	3.818358e+03	
14	-7.00000e-01	4.196401e+03	
15	-7.50000e-01	4.651425e+03	
16	-8.00000e-01	5.208683e+03	
17	-8.50000e-01	5.904932e+03	
18	-9.00000e-01	6.794669e+03	
19	-9.50000e-01	7.959152e+03	
20	-1.00000e+00	9.516276e+03	
21	-1.05000e+00	1.161998e+04	
22	-1.10000e+00	1.441858e+04	
23	-1.15000e+00	1.794560e+04	
24	-1.20000e+00	2.202342e+04	
25	-1.25000e+00	2.634350e+04	
26	-1.30000e+00	3.065716e+04	
27	-1.35000e+00	3.485255e+04	
28	-1.40000e+00	3.891052e+04	
29	-1.45000e+00	4.284780e+04	
30	-1.50000e+00	4.668756e+04	
31	-1.55000e+00	5.044965e+04	
32	-1.60000e+00	5.414901e+04	
33	-1.65000e+00	5.779635e+04	
34	-1.70000e+00	6.139931e+04	
35	-1.75000e+00	6.496332e+04	
36	-1.80000e+00	6.849233e+04	
37	-1.85000e+00	7.198925e+04	
38	-1.90000e+00	7.545626e+04	
39	-1.95000e+00	7.889502e+04	
40	-2.00000e+00	8.230685e+04	
41	-2.05000e+00	8.569277e+04	
42	-2.10000e+00	8.905362e+04	
43	-2.15000e+00	9.239012e+04	
44	-2.20000e+00	9.570285e+04	
45	-2.25000e+00	9.899231e+04	
46	-2.30000e+00	1.022590e+05	
47	-2.35000e+00	1.055032e+05	
48	-2.40000e+00	1.087253e+05	
49	-2.45000e+00	1.119256e+05	
50	-2.50000e+00	1.151045e+05	
51	-2.55000e+00	1.182621e+05	
52	-2.60000e+00	1.213986e+05	
53	-2.65000e+00	1.245143e+05	
54	-2.70000e+00	1.276089e+05	

Index   v-sweep         rds             
--------------------------------------------------------------------------------
55	-2.75000e+00	1.306825e+05	
56	-2.80000e+00	1.337347e+05	
57	-2.85000e+00	1.367647e+05	
58	-2.90000e+00	1.397712e+05	
59	-2.95000e+00	1.427523e+05	
60	-3.00000e+00	1.457053e+05	
61	-3.05000e+00	1.486258e+05	
62	-3.10000e+00	1.515082e+05	
63	-3.15000e+00	1.543446e+05	
64	-3.20000e+00	1.571247e+05	
65	-3.25000e+00	1.598350e+05	
66	-3.30000e+00	1.624584e+05	
Reset re-loads circuit ***************************

Circuit: ***************************

Doing analysis at TEMP = -40.000000 and TNOM = -40.000000


No. of Data Rows : 67
                          ***************************
                          DC transfer characteristic  Mon Jan  9 13:58:26  2023
--------------------------------------------------------------------------------
Index   v-sweep         rds             
--------------------------------------------------------------------------------
0	0.000000e+00	1.389009e+03	
1	-5.00000e-02	1.438723e+03	
2	-1.00000e-01	1.491648e+03	
3	-1.50000e-01	1.548104e+03	
4	-2.00000e-01	1.608453e+03	
5	-2.50000e-01	1.673109e+03	
6	-3.00000e-01	1.742547e+03	
7	-3.50000e-01	1.817316e+03	
8	-4.00000e-01	1.898048e+03	
9	-4.50000e-01	1.985484e+03	
10	-5.00000e-01	2.080488e+03	
11	-5.50000e-01	2.184083e+03	
12	-6.00000e-01	2.297481e+03	
13	-6.50000e-01	2.422135e+03	
14	-7.00000e-01	2.559796e+03	
15	-7.50000e-01	2.712599e+03	
16	-8.00000e-01	2.883165e+03	
17	-8.50000e-01	3.074756e+03	
18	-9.00000e-01	3.291468e+03	
19	-9.50000e-01	3.538519e+03	
20	-1.00000e+00	3.822642e+03	
21	-1.05000e+00	4.152651e+03	
22	-1.10000e+00	4.540258e+03	
23	-1.15000e+00	5.001247e+03	
24	-1.20000e+00	5.557133e+03	
25	-1.25000e+00	6.237392e+03	
26	-1.30000e+00	7.081974e+03	
27	-1.35000e+00	8.142765e+03	
28	-1.40000e+00	9.480011e+03	
29	-1.45000e+00	1.114649e+04	
30	-1.50000e+00	1.315606e+04	
31	-1.55000e+00	1.545577e+04	
32	-1.60000e+00	1.793883e+04	
33	-1.65000e+00	2.049632e+04	
34	-1.70000e+00	2.305643e+04	
35	-1.75000e+00	2.558661e+04	
36	-1.80000e+00	2.807807e+04	
37	-1.85000e+00	3.053227e+04	
38	-1.90000e+00	3.295368e+04	
39	-1.95000e+00	3.534690e+04	
40	-2.00000e+00	3.771580e+04	
41	-2.05000e+00	4.006338e+04	
42	-2.10000e+00	4.239190e+04	
43	-2.15000e+00	4.470308e+04	
44	-2.20000e+00	4.699820e+04	
45	-2.25000e+00	4.927825e+04	
46	-2.30000e+00	5.154397e+04	
47	-2.35000e+00	5.379597e+04	
48	-2.40000e+00	5.603472e+04	
49	-2.45000e+00	5.826059e+04	
50	-2.50000e+00	6.047391e+04	
51	-2.55000e+00	6.267494e+04	
52	-2.60000e+00	6.486390e+04	
53	-2.65000e+00	6.704099e+04	
54	-2.70000e+00	6.920638e+04	

Index   v-sweep         rds             
--------------------------------------------------------------------------------
55	-2.75000e+00	7.136022e+04	
56	-2.80000e+00	7.350264e+04	
57	-2.85000e+00	7.563376e+04	
58	-2.90000e+00	7.775368e+04	
59	-2.95000e+00	7.986247e+04	
60	-3.00000e+00	8.196017e+04	
61	-3.05000e+00	8.404675e+04	
62	-3.10000e+00	8.612208e+04	
63	-3.15000e+00	8.818590e+04	
64	-3.20000e+00	9.023774e+04	
65	-3.25000e+00	9.227680e+04	
66	-3.30000e+00	9.430185e+04	
Reset re-loads circuit ***************************

Circuit: ***************************

Doing analysis at TEMP = -40.000000 and TNOM = -40.000000


No. of Data Rows : 67
                          ***************************
                          DC transfer characteristic  Mon Jan  9 13:58:26  2023
--------------------------------------------------------------------------------
Index   v-sweep         rds             
--------------------------------------------------------------------------------
0	0.000000e+00	1.215806e+03	
1	-5.00000e-02	1.250628e+03	
2	-1.00000e-01	1.287209e+03	
3	-1.50000e-01	1.325684e+03	
4	-2.00000e-01	1.366203e+03	
5	-2.50000e-01	1.408932e+03	
6	-3.00000e-01	1.454056e+03	
7	-3.50000e-01	1.501778e+03	
8	-4.00000e-01	1.552330e+03	
9	-4.50000e-01	1.605967e+03	
10	-5.00000e-01	1.662980e+03	
11	-5.50000e-01	1.723696e+03	
12	-6.00000e-01	1.788484e+03	
13	-6.50000e-01	1.857765e+03	
14	-7.00000e-01	1.932022e+03	
15	-7.50000e-01	2.011807e+03	
16	-8.00000e-01	2.097756e+03	
17	-8.50000e-01	2.190610e+03	
18	-9.00000e-01	2.291228e+03	
19	-9.50000e-01	2.400623e+03	
20	-1.00000e+00	2.519985e+03	
21	-1.05000e+00	2.650733e+03	
22	-1.10000e+00	2.794564e+03	
23	-1.15000e+00	2.953526e+03	
24	-1.20000e+00	3.130114e+03	
25	-1.25000e+00	3.327392e+03	
26	-1.30000e+00	3.549163e+03	
27	-1.35000e+00	3.800190e+03	
28	-1.40000e+00	4.086507e+03	
29	-1.45000e+00	4.415831e+03	
30	-1.50000e+00	4.798115e+03	
31	-1.55000e+00	5.246262e+03	
32	-1.60000e+00	5.776966e+03	
33	-1.65000e+00	6.411483e+03	
34	-1.70000e+00	7.175732e+03	
35	-1.75000e+00	8.098370e+03	
36	-1.80000e+00	9.204765e+03	
37	-1.85000e+00	1.050595e+04	
38	-1.90000e+00	1.198730e+04	
39	-1.95000e+00	1.360789e+04	
40	-2.00000e+00	1.531529e+04	
41	-2.05000e+00	1.706417e+04	
42	-2.10000e+00	1.882504e+04	
43	-2.15000e+00	2.058254e+04	
44	-2.20000e+00	2.233014e+04	
45	-2.25000e+00	2.406582e+04	
46	-2.30000e+00	2.578948e+04	
47	-2.35000e+00	2.750169e+04	
48	-2.40000e+00	2.920323e+04	
49	-2.45000e+00	3.089478e+04	
50	-2.50000e+00	3.257695e+04	
51	-2.55000e+00	3.425023e+04	
52	-2.60000e+00	3.591500e+04	
53	-2.65000e+00	3.757159e+04	
54	-2.70000e+00	3.922023e+04	

Index   v-sweep         rds             
--------------------------------------------------------------------------------
55	-2.75000e+00	4.086114e+04	
56	-2.80000e+00	4.249447e+04	
57	-2.85000e+00	4.412038e+04	
58	-2.90000e+00	4.573897e+04	
59	-2.95000e+00	4.735036e+04	
60	-3.00000e+00	4.895461e+04	
61	-3.05000e+00	5.055182e+04	
62	-3.10000e+00	5.214205e+04	
63	-3.15000e+00	5.372536e+04	
64	-3.20000e+00	5.530180e+04	
65	-3.25000e+00	5.687142e+04	
66	-3.30000e+00	5.843425e+04	
Reset re-loads circuit ***************************

Circuit: ***************************

Note: No ".plot", ".print", or ".fourier" lines; no simulations run
