
Note: Compatibility modes selected: hs

Warning: m=xx on .subckt line will override multiplier m hierarchy!


Circuit: ***************************

Doing analysis at TEMP = 25.000000 and TNOM = 25.000000


No. of Data Rows : 67
                          ***************************
                          DC transfer characteristic  Mon Jan  9 13:58:25  2023
--------------------------------------------------------------------------------
Index   v-sweep         rds             
--------------------------------------------------------------------------------
0	0.000000e+00	9.039335e+06	
1	-5.00000e-02	2.553760e+07	
2	-1.00000e-01	1.602450e+08	
3	-1.50000e-01	8.323683e+08	
4	-2.00000e-01	2.486563e+09	
5	-2.50000e-01	5.100673e+09	
6	-3.00000e-01	8.242635e+09	
7	-3.50000e-01	1.144321e+10	
8	-4.00000e-01	1.441995e+10	
9	-4.50000e-01	1.707236e+10	
10	-5.00000e-01	1.940135e+10	
11	-5.50000e-01	2.144685e+10	
12	-6.00000e-01	2.325637e+10	
13	-6.50000e-01	2.487291e+10	
14	-7.00000e-01	2.633184e+10	
15	-7.50000e-01	2.766113e+10	
16	-8.00000e-01	2.888260e+10	
17	-8.50000e-01	3.001326e+10	
18	-9.00000e-01	3.106648e+10	
19	-9.50000e-01	3.205284e+10	
20	-1.00000e+00	3.298079e+10	
21	-1.05000e+00	3.385722e+10	
22	-1.10000e+00	3.468775e+10	
23	-1.15000e+00	3.547707e+10	
24	-1.20000e+00	3.622910e+10	
25	-1.25000e+00	3.694717e+10	
26	-1.30000e+00	3.763415e+10	
27	-1.35000e+00	3.829250e+10	
28	-1.40000e+00	3.892438e+10	
29	-1.45000e+00	3.953168e+10	
30	-1.50000e+00	4.011609e+10	
31	-1.55000e+00	4.067907e+10	
32	-1.60000e+00	4.122197e+10	
33	-1.65000e+00	4.174595e+10	
34	-1.70000e+00	4.225206e+10	
35	-1.75000e+00	4.274122e+10	
36	-1.80000e+00	4.321421e+10	
37	-1.85000e+00	4.367167e+10	
38	-1.90000e+00	4.411412e+10	
39	-1.95000e+00	4.454190e+10	
40	-2.00000e+00	4.495516e+10	
41	-2.05000e+00	4.535385e+10	
42	-2.10000e+00	4.573767e+10	
43	-2.15000e+00	4.610604e+10	
44	-2.20000e+00	4.645807e+10	
45	-2.25000e+00	4.679250e+10	
46	-2.30000e+00	4.710769e+10	
47	-2.35000e+00	4.740157e+10	
48	-2.40000e+00	4.767156e+10	
49	-2.45000e+00	4.791463e+10	
50	-2.50000e+00	4.812722e+10	
51	-2.55000e+00	4.830525e+10	
52	-2.60000e+00	4.844413e+10	
53	-2.65000e+00	4.853883e+10	
54	-2.70000e+00	4.858387e+10	

Index   v-sweep         rds             
--------------------------------------------------------------------------------
55	-2.75000e+00	4.857349e+10	
56	-2.80000e+00	4.850171e+10	
57	-2.85000e+00	4.836248e+10	
58	-2.90000e+00	4.814990e+10	
59	-2.95000e+00	4.785839e+10	
60	-3.00000e+00	4.748294e+10	
61	-3.05000e+00	4.701934e+10	
62	-3.10000e+00	4.646439e+10	
63	-3.15000e+00	4.581619e+10	
64	-3.20000e+00	4.507425e+10	
65	-3.25000e+00	4.423969e+10	
66	-3.30000e+00	4.331528e+10	
Reset re-loads circuit ***************************

Circuit: ***************************

Doing analysis at TEMP = 25.000000 and TNOM = 25.000000


No. of Data Rows : 67
                          ***************************
                          DC transfer characteristic  Mon Jan  9 13:58:25  2023
--------------------------------------------------------------------------------
Index   v-sweep         rds             
--------------------------------------------------------------------------------
0	0.000000e+00	1.054355e+06	
1	-5.00000e-02	1.214199e+06	
2	-1.00000e-01	1.430519e+06	
3	-1.50000e-01	1.738973e+06	
4	-2.00000e-01	2.211603e+06	
5	-2.50000e-01	3.013372e+06	
6	-3.00000e-01	4.581625e+06	
7	-3.50000e-01	8.222581e+06	
8	-4.00000e-01	1.766971e+07	
9	-4.50000e-01	4.050375e+07	
10	-5.00000e-01	8.489430e+07	
11	-5.50000e-01	1.529426e+08	
12	-6.00000e-01	2.390447e+08	
13	-6.50000e-01	3.342974e+08	
14	-7.00000e-01	4.311491e+08	
15	-7.50000e-01	5.250656e+08	
16	-8.00000e-01	6.140567e+08	
17	-8.50000e-01	6.976654e+08	
18	-9.00000e-01	7.761754e+08	
19	-9.50000e-01	8.501483e+08	
20	-1.00000e+00	9.201952e+08	
21	-1.05000e+00	9.868801e+08	
22	-1.10000e+00	1.050689e+09	
23	-1.15000e+00	1.112025e+09	
24	-1.20000e+00	1.171222e+09	
25	-1.25000e+00	1.228549e+09	
26	-1.30000e+00	1.284227e+09	
27	-1.35000e+00	1.338436e+09	
28	-1.40000e+00	1.391325e+09	
29	-1.45000e+00	1.443017e+09	
30	-1.50000e+00	1.493615e+09	
31	-1.55000e+00	1.543204e+09	
32	-1.60000e+00	1.591858e+09	
33	-1.65000e+00	1.639638e+09	
34	-1.70000e+00	1.686598e+09	
35	-1.75000e+00	1.732785e+09	
36	-1.80000e+00	1.778238e+09	
37	-1.85000e+00	1.822992e+09	
38	-1.90000e+00	1.867078e+09	
39	-1.95000e+00	1.910521e+09	
40	-2.00000e+00	1.953341e+09	
41	-2.05000e+00	1.995554e+09	
42	-2.10000e+00	2.037171e+09	
43	-2.15000e+00	2.078192e+09	
44	-2.20000e+00	2.118611e+09	
45	-2.25000e+00	2.158409e+09	
46	-2.30000e+00	2.197550e+09	
47	-2.35000e+00	2.235981e+09	
48	-2.40000e+00	2.273625e+09	
49	-2.45000e+00	2.310376e+09	
50	-2.50000e+00	2.346095e+09	
51	-2.55000e+00	2.380602e+09	
52	-2.60000e+00	2.413670e+09	
53	-2.65000e+00	2.445021e+09	
54	-2.70000e+00	2.474319e+09	

Index   v-sweep         rds             
--------------------------------------------------------------------------------
55	-2.75000e+00	2.501169e+09	
56	-2.80000e+00	2.525109e+09	
57	-2.85000e+00	2.545618e+09	
58	-2.90000e+00	2.562117e+09	
59	-2.95000e+00	2.573978e+09	
60	-3.00000e+00	2.580539e+09	
61	-3.05000e+00	2.581127e+09	
62	-3.10000e+00	2.575082e+09	
63	-3.15000e+00	2.561791e+09	
64	-3.20000e+00	2.540722e+09	
65	-3.25000e+00	2.511466e+09	
66	-3.30000e+00	2.473769e+09	
Reset re-loads circuit ***************************

Circuit: ***************************

Doing analysis at TEMP = 25.000000 and TNOM = 25.000000


No. of Data Rows : 67
                          ***************************
                          DC transfer characteristic  Mon Jan  9 13:58:25  2023
--------------------------------------------------------------------------------
Index   v-sweep         rds             
--------------------------------------------------------------------------------
0	0.000000e+00	5.573751e+05	
1	-5.00000e-02	5.988808e+05	
2	-1.00000e-01	6.470158e+05	
3	-1.50000e-01	7.035009e+05	
4	-2.00000e-01	7.707050e+05	
5	-2.50000e-01	8.519794e+05	
6	-3.00000e-01	9.522171e+05	
7	-3.50000e-01	1.078838e+06	
8	-4.00000e-01	1.243607e+06	
9	-4.50000e-01	1.466212e+06	
10	-5.00000e-01	1.781757e+06	
11	-5.50000e-01	2.257600e+06	
12	-6.00000e-01	3.033245e+06	
13	-6.50000e-01	4.415192e+06	
14	-7.00000e-01	7.073524e+06	
15	-7.50000e-01	1.228578e+07	
16	-8.00000e-01	2.181222e+07	
17	-8.50000e-01	3.698107e+07	
18	-9.00000e-01	5.768168e+07	
19	-9.50000e-01	8.241047e+07	
20	-1.00000e+00	1.091958e+08	
21	-1.05000e+00	1.364159e+08	
22	-1.10000e+00	1.630709e+08	
23	-1.15000e+00	1.886861e+08	
24	-1.20000e+00	2.131186e+08	
25	-1.25000e+00	2.363987e+08	
26	-1.30000e+00	2.586313e+08	
27	-1.35000e+00	2.799426e+08	
28	-1.40000e+00	3.004558e+08	
29	-1.45000e+00	3.202808e+08	
30	-1.50000e+00	3.395115e+08	
31	-1.55000e+00	3.582269e+08	
32	-1.60000e+00	3.764920e+08	
33	-1.65000e+00	3.943609e+08	
34	-1.70000e+00	4.118780e+08	
35	-1.75000e+00	4.290802e+08	
36	-1.80000e+00	4.459981e+08	
37	-1.85000e+00	4.626573e+08	
38	-1.90000e+00	4.790793e+08	
39	-1.95000e+00	4.952822e+08	
40	-2.00000e+00	5.112815e+08	
41	-2.05000e+00	5.270903e+08	
42	-2.10000e+00	5.427200e+08	
43	-2.15000e+00	5.581801e+08	
44	-2.20000e+00	5.734791e+08	
45	-2.25000e+00	5.886237e+08	
46	-2.30000e+00	6.036196e+08	
47	-2.35000e+00	6.184709e+08	
48	-2.40000e+00	6.331802e+08	
49	-2.45000e+00	6.477477e+08	
50	-2.50000e+00	6.621712e+08	
51	-2.55000e+00	6.764448e+08	
52	-2.60000e+00	6.905583e+08	
53	-2.65000e+00	7.044956e+08	
54	-2.70000e+00	7.182333e+08	

Index   v-sweep         rds             
--------------------------------------------------------------------------------
55	-2.75000e+00	7.317389e+08	
56	-2.80000e+00	7.449688e+08	
57	-2.85000e+00	7.578659e+08	
58	-2.90000e+00	7.703573e+08	
59	-2.95000e+00	7.823519e+08	
60	-3.00000e+00	7.937379e+08	
61	-3.05000e+00	8.043810e+08	
62	-3.10000e+00	8.141229e+08	
63	-3.15000e+00	8.227806e+08	
64	-3.20000e+00	8.301475e+08	
65	-3.25000e+00	8.359956e+08	
66	-3.30000e+00	8.400799e+08	
Reset re-loads circuit ***************************

Circuit: ***************************

Doing analysis at TEMP = 25.000000 and TNOM = 25.000000


No. of Data Rows : 67
                          ***************************
                          DC transfer characteristic  Mon Jan  9 13:58:25  2023
--------------------------------------------------------------------------------
Index   v-sweep         rds             
--------------------------------------------------------------------------------
0	0.000000e+00	3.845617e+05	
1	-5.00000e-02	4.031339e+05	
2	-1.00000e-01	4.235741e+05	
3	-1.50000e-01	4.461786e+05	
4	-2.00000e-01	4.713098e+05	
5	-2.50000e-01	4.994157e+05	
6	-3.00000e-01	5.310567e+05	
7	-3.50000e-01	5.669423e+05	
8	-4.00000e-01	6.079852e+05	
9	-4.50000e-01	6.553776e+05	
10	-5.00000e-01	7.107074e+05	
11	-5.50000e-01	7.761340e+05	
12	-6.00000e-01	8.546665e+05	
13	-6.50000e-01	9.506168e+05	
14	-7.00000e-01	1.070367e+06	
15	-7.50000e-01	1.223721e+06	
16	-8.00000e-01	1.426392e+06	
17	-8.50000e-01	1.704787e+06	
18	-9.00000e-01	2.105526e+06	
19	-9.50000e-01	2.714647e+06	
20	-1.00000e+00	3.694545e+06	
21	-1.05000e+00	5.343130e+06	
22	-1.10000e+00	8.144774e+06	
23	-1.15000e+00	1.270748e+07	
24	-1.20000e+00	1.949617e+07	
25	-1.25000e+00	2.852275e+07	
26	-1.30000e+00	3.930656e+07	
27	-1.35000e+00	5.113315e+07	
28	-1.40000e+00	6.334791e+07	
29	-1.45000e+00	7.549784e+07	
30	-1.50000e+00	8.733237e+07	
31	-1.55000e+00	9.874581e+07	
32	-1.60000e+00	1.097179e+08	
33	-1.65000e+00	1.202714e+08	
34	-1.70000e+00	1.304469e+08	
35	-1.75000e+00	1.402891e+08	
36	-1.80000e+00	1.498409e+08	
37	-1.85000e+00	1.591404e+08	
38	-1.90000e+00	1.682204e+08	
39	-1.95000e+00	1.771087e+08	
40	-2.00000e+00	1.858287e+08	
41	-2.05000e+00	1.943997e+08	
42	-2.10000e+00	2.028379e+08	
43	-2.15000e+00	2.111570e+08	
44	-2.20000e+00	2.193682e+08	
45	-2.25000e+00	2.274811e+08	
46	-2.30000e+00	2.355039e+08	
47	-2.35000e+00	2.434433e+08	
48	-2.40000e+00	2.513053e+08	
49	-2.45000e+00	2.590948e+08	
50	-2.50000e+00	2.668162e+08	
51	-2.55000e+00	2.744730e+08	
52	-2.60000e+00	2.820683e+08	
53	-2.65000e+00	2.896045e+08	
54	-2.70000e+00	2.970835e+08	

Index   v-sweep         rds             
--------------------------------------------------------------------------------
55	-2.75000e+00	3.045061e+08	
56	-2.80000e+00	3.118724e+08	
57	-2.85000e+00	3.191812e+08	
58	-2.90000e+00	3.264297e+08	
59	-2.95000e+00	3.336127e+08	
60	-3.00000e+00	3.407225e+08	
61	-3.05000e+00	3.477477e+08	
62	-3.10000e+00	3.546724e+08	
63	-3.15000e+00	3.614753e+08	
64	-3.20000e+00	3.681283e+08	
65	-3.25000e+00	3.745954e+08	
66	-3.30000e+00	3.808311e+08	
Reset re-loads circuit ***************************

Circuit: ***************************

Doing analysis at TEMP = 25.000000 and TNOM = 25.000000


No. of Data Rows : 67
                          ***************************
                          DC transfer characteristic  Mon Jan  9 13:58:25  2023
--------------------------------------------------------------------------------
Index   v-sweep         rds             
--------------------------------------------------------------------------------
0	0.000000e+00	2.994508e+05	
1	-5.00000e-02	3.100462e+05	
2	-1.00000e-01	3.214101e+05	
3	-1.50000e-01	3.336291e+05	
4	-2.00000e-01	3.468035e+05	
5	-2.50000e-01	3.610499e+05	
6	-3.00000e-01	3.765045e+05	
7	-3.50000e-01	3.933277e+05	
8	-4.00000e-01	4.117093e+05	
9	-4.50000e-01	4.318763e+05	
10	-5.00000e-01	4.541014e+05	
11	-5.50000e-01	4.787160e+05	
12	-6.00000e-01	5.061263e+05	
13	-6.50000e-01	5.368356e+05	
14	-7.00000e-01	5.714751e+05	
15	-7.50000e-01	6.108468e+05	
16	-8.00000e-01	6.559849e+05	
17	-8.50000e-01	7.082452e+05	
18	-9.00000e-01	7.694381e+05	
19	-9.50000e-01	8.420323e+05	
20	-1.00000e+00	9.294745e+05	
21	-1.05000e+00	1.036707e+06	
22	-1.10000e+00	1.171028e+06	
23	-1.15000e+00	1.343583e+06	
24	-1.20000e+00	1.571984e+06	
25	-1.25000e+00	1.885057e+06	
26	-1.30000e+00	2.331334e+06	
27	-1.35000e+00	2.993502e+06	
28	-1.40000e+00	4.009149e+06	
29	-1.45000e+00	5.588384e+06	
30	-1.50000e+00	7.998348e+06	
31	-1.55000e+00	1.147946e+07	
32	-1.60000e+00	1.611763e+07	
33	-1.65000e+00	2.177668e+07	
34	-1.70000e+00	2.815730e+07	
35	-1.75000e+00	3.492414e+07	
36	-1.80000e+00	4.180337e+07	
37	-1.85000e+00	4.861545e+07	
38	-1.90000e+00	5.526372e+07	
39	-1.95000e+00	6.170854e+07	
40	-2.00000e+00	6.794379e+07	
41	-2.05000e+00	7.398052e+07	
42	-2.10000e+00	7.983702e+07	
43	-2.15000e+00	8.553351e+07	
44	-2.20000e+00	9.108944e+07	
45	-2.25000e+00	9.652233e+07	
46	-2.30000e+00	1.018475e+08	
47	-2.35000e+00	1.070780e+08	
48	-2.40000e+00	1.122250e+08	
49	-2.45000e+00	1.172977e+08	
50	-2.50000e+00	1.223042e+08	
51	-2.55000e+00	1.272509e+08	
52	-2.60000e+00	1.321436e+08	
53	-2.65000e+00	1.369870e+08	
54	-2.70000e+00	1.417851e+08	

Index   v-sweep         rds             
--------------------------------------------------------------------------------
55	-2.75000e+00	1.465413e+08	
56	-2.80000e+00	1.512587e+08	
57	-2.85000e+00	1.559397e+08	
58	-2.90000e+00	1.605865e+08	
59	-2.95000e+00	1.652009e+08	
60	-3.00000e+00	1.697844e+08	
61	-3.05000e+00	1.743381e+08	
62	-3.10000e+00	1.788627e+08	
63	-3.15000e+00	1.833583e+08	
64	-3.20000e+00	1.878247e+08	
65	-3.25000e+00	1.922603e+08	
66	-3.30000e+00	1.966628e+08	
Reset re-loads circuit ***************************

Circuit: ***************************

Doing analysis at TEMP = 25.000000 and TNOM = 25.000000


No. of Data Rows : 67
                          ***************************
                          DC transfer characteristic  Mon Jan  9 13:58:25  2023
--------------------------------------------------------------------------------
Index   v-sweep         rds             
--------------------------------------------------------------------------------
0	0.000000e+00	2.485205e+05	
1	-5.00000e-02	2.553798e+05	
2	-1.00000e-01	2.626230e+05	
3	-1.50000e-01	2.702834e+05	
4	-2.00000e-01	2.783979e+05	
5	-2.50000e-01	2.870082e+05	
6	-3.00000e-01	2.961613e+05	
7	-3.50000e-01	3.059099e+05	
8	-4.00000e-01	3.163142e+05	
9	-4.50000e-01	3.274426e+05	
10	-5.00000e-01	3.393733e+05	
11	-5.50000e-01	3.521962e+05	
12	-6.00000e-01	3.660154e+05	
13	-6.50000e-01	3.809513e+05	
14	-7.00000e-01	3.971448e+05	
15	-7.50000e-01	4.147616e+05	
16	-8.00000e-01	4.339974e+05	
17	-8.50000e-01	4.550858e+05	
18	-9.00000e-01	4.783071e+05	
19	-9.50000e-01	5.040009e+05	
20	-1.00000e+00	5.325828e+05	
21	-1.05000e+00	5.645662e+05	
22	-1.10000e+00	6.005928e+05	
23	-1.15000e+00	6.414749e+05	
24	-1.20000e+00	6.882549e+05	
25	-1.25000e+00	7.422920e+05	
26	-1.30000e+00	8.053883e+05	
27	-1.35000e+00	8.799799e+05	
28	-1.40000e+00	9.694301e+05	
29	-1.45000e+00	1.078492e+06	
30	-1.50000e+00	1.214053e+06	
31	-1.55000e+00	1.386362e+06	
32	-1.60000e+00	1.611070e+06	
33	-1.65000e+00	1.912617e+06	
34	-1.70000e+00	2.329658e+06	
35	-1.75000e+00	2.922892e+06	
36	-1.80000e+00	3.783598e+06	
37	-1.85000e+00	5.035811e+06	
38	-1.90000e+00	6.818418e+06	
39	-1.95000e+00	9.238663e+06	
40	-2.00000e+00	1.231660e+07	
41	-2.05000e+00	1.596398e+07	
42	-2.10000e+00	2.001761e+07	
43	-2.15000e+00	2.429902e+07	
44	-2.20000e+00	2.866017e+07	
45	-2.25000e+00	3.300016e+07	
46	-2.30000e+00	3.726114e+07	
47	-2.35000e+00	4.141633e+07	
48	-2.40000e+00	4.545828e+07	
49	-2.45000e+00	4.939013e+07	
50	-2.50000e+00	5.322015e+07	
51	-2.55000e+00	5.695842e+07	
52	-2.60000e+00	6.061520e+07	
53	-2.65000e+00	6.420003e+07	
54	-2.70000e+00	6.772143e+07	

Index   v-sweep         rds             
--------------------------------------------------------------------------------
55	-2.75000e+00	7.118684e+07	
56	-2.80000e+00	7.460264e+07	
57	-2.85000e+00	7.797429e+07	
58	-2.90000e+00	8.130641e+07	
59	-2.95000e+00	8.460296e+07	
60	-3.00000e+00	8.786727e+07	
61	-3.05000e+00	9.110220e+07	
62	-3.10000e+00	9.431019e+07	
63	-3.15000e+00	9.749333e+07	
64	-3.20000e+00	1.006534e+08	
65	-3.25000e+00	1.037920e+08	
66	-3.30000e+00	1.069103e+08	
Reset re-loads circuit ***************************

Circuit: ***************************

Note: No ".plot", ".print", or ".fourier" lines; no simulations run
