
Note: Compatibility modes selected: hs

Warning: m=xx on .subckt line will override multiplier m hierarchy!


Circuit: ***************************

Doing analysis at TEMP = 25.000000 and TNOM = 25.000000


No. of Data Rows : 67
                          ***************************
                          DC transfer characteristic  Mon Jan  9 13:58:25  2023
--------------------------------------------------------------------------------
Index   v-sweep         rds             
--------------------------------------------------------------------------------
0	0.000000e+00	4.728926e+05	
1	-5.00000e-02	1.071570e+06	
2	-1.00000e-01	4.712484e+06	
3	-1.50000e-01	1.993176e+07	
4	-2.00000e-01	4.235689e+07	
5	-2.50000e-01	5.960854e+07	
6	-3.00000e-01	7.100619e+07	
7	-3.50000e-01	7.904104e+07	
8	-4.00000e-01	8.528079e+07	
9	-4.50000e-01	9.050074e+07	
10	-5.00000e-01	9.508519e+07	
11	-5.50000e-01	9.923583e+07	
12	-6.00000e-01	1.030660e+08	
13	-6.50000e-01	1.066440e+08	
14	-7.00000e-01	1.100134e+08	
15	-7.50000e-01	1.132041e+08	
16	-8.00000e-01	1.162374e+08	
17	-8.50000e-01	1.191295e+08	
18	-9.00000e-01	1.218931e+08	
19	-9.50000e-01	1.245383e+08	
20	-1.00000e+00	1.270737e+08	
21	-1.05000e+00	1.295068e+08	
22	-1.10000e+00	1.318438e+08	
23	-1.15000e+00	1.340905e+08	
24	-1.20000e+00	1.362520e+08	
25	-1.25000e+00	1.383328e+08	
26	-1.30000e+00	1.403373e+08	
27	-1.35000e+00	1.422691e+08	
28	-1.40000e+00	1.441319e+08	
29	-1.45000e+00	1.459289e+08	
30	-1.50000e+00	1.476633e+08	
31	-1.55000e+00	1.493378e+08	
32	-1.60000e+00	1.509550e+08	
33	-1.65000e+00	1.525175e+08	
34	-1.70000e+00	1.540273e+08	
35	-1.75000e+00	1.554866e+08	
36	-1.80000e+00	1.568969e+08	
37	-1.85000e+00	1.582598e+08	
38	-1.90000e+00	1.595763e+08	
39	-1.95000e+00	1.608470e+08	
40	-2.00000e+00	1.620721e+08	
41	-2.05000e+00	1.632513e+08	
42	-2.10000e+00	1.643833e+08	
43	-2.15000e+00	1.654661e+08	
44	-2.20000e+00	1.664970e+08	
45	-2.25000e+00	1.674717e+08	
46	-2.30000e+00	1.683852e+08	
47	-2.35000e+00	1.692307e+08	
48	-2.40000e+00	1.700001e+08	
49	-2.45000e+00	1.706838e+08	
50	-2.50000e+00	1.712703e+08	
51	-2.55000e+00	1.717466e+08	
52	-2.60000e+00	1.720979e+08	
53	-2.65000e+00	1.723078e+08	
54	-2.70000e+00	1.723583e+08	

Index   v-sweep         rds             
--------------------------------------------------------------------------------
55	-2.75000e+00	1.722306e+08	
56	-2.80000e+00	1.719045e+08	
57	-2.85000e+00	1.713597e+08	
58	-2.90000e+00	1.705760e+08	
59	-2.95000e+00	1.695338e+08	
60	-3.00000e+00	1.682150e+08	
61	-3.05000e+00	1.666039e+08	
62	-3.10000e+00	1.646878e+08	
63	-3.15000e+00	1.624576e+08	
64	-3.20000e+00	1.599092e+08	
65	-3.25000e+00	1.570432e+08	
66	-3.30000e+00	1.538659e+08	
Reset re-loads circuit ***************************

Circuit: ***************************

Doing analysis at TEMP = 25.000000 and TNOM = 25.000000


No. of Data Rows : 67
                          ***************************
                          DC transfer characteristic  Mon Jan  9 13:58:25  2023
--------------------------------------------------------------------------------
Index   v-sweep         rds             
--------------------------------------------------------------------------------
0	0.000000e+00	5.357986e+04	
1	-5.00000e-02	6.022571e+04	
2	-1.00000e-01	6.865909e+04	
3	-1.50000e-01	7.970369e+04	
4	-2.00000e-01	9.476691e+04	
5	-2.50000e-01	1.164380e+05	
6	-3.00000e-01	1.499206e+05	
7	-3.50000e-01	2.066998e+05	
8	-4.00000e-01	3.135347e+05	
9	-4.50000e-01	5.251430e+05	
10	-5.00000e-01	8.957087e+05	
11	-5.50000e-01	1.372264e+06	
12	-6.00000e-01	1.824907e+06	
13	-6.50000e-01	2.196225e+06	
14	-7.00000e-01	2.497237e+06	
15	-7.50000e-01	2.751719e+06	
16	-8.00000e-01	2.977122e+06	
17	-8.50000e-01	3.184036e+06	
18	-9.00000e-01	3.378654e+06	
19	-9.50000e-01	3.564643e+06	
20	-1.00000e+00	3.744236e+06	
21	-1.05000e+00	3.918841e+06	
22	-1.10000e+00	4.089376e+06	
23	-1.15000e+00	4.256461e+06	
24	-1.20000e+00	4.420526e+06	
25	-1.25000e+00	4.581881e+06	
26	-1.30000e+00	4.740756e+06	
27	-1.35000e+00	4.897324e+06	
28	-1.40000e+00	5.051720e+06	
29	-1.45000e+00	5.204052e+06	
30	-1.50000e+00	5.354410e+06	
31	-1.55000e+00	5.502867e+06	
32	-1.60000e+00	5.649486e+06	
33	-1.65000e+00	5.794322e+06	
34	-1.70000e+00	5.937422e+06	
35	-1.75000e+00	6.078831e+06	
36	-1.80000e+00	6.218587e+06	
37	-1.85000e+00	6.356725e+06	
38	-1.90000e+00	6.493277e+06	
39	-1.95000e+00	6.628270e+06	
40	-2.00000e+00	6.761728e+06	
41	-2.05000e+00	6.893668e+06	
42	-2.10000e+00	7.024100e+06	
43	-2.15000e+00	7.153020e+06	
44	-2.20000e+00	7.280413e+06	
45	-2.25000e+00	7.406238e+06	
46	-2.30000e+00	7.530428e+06	
47	-2.35000e+00	7.652878e+06	
48	-2.40000e+00	7.773435e+06	
49	-2.45000e+00	7.891882e+06	
50	-2.50000e+00	8.007929e+06	
51	-2.55000e+00	8.121190e+06	
52	-2.60000e+00	8.231172e+06	
53	-2.65000e+00	8.337249e+06	
54	-2.70000e+00	8.438650e+06	

Index   v-sweep         rds             
--------------------------------------------------------------------------------
55	-2.75000e+00	8.534436e+06	
56	-2.80000e+00	8.623489e+06	
57	-2.85000e+00	8.704497e+06	
58	-2.90000e+00	8.775953e+06	
59	-2.95000e+00	8.836157e+06	
60	-3.00000e+00	8.883230e+06	
61	-3.05000e+00	8.915150e+06	
62	-3.10000e+00	8.929792e+06	
63	-3.15000e+00	8.924996e+06	
64	-3.20000e+00	8.898651e+06	
65	-3.25000e+00	8.848790e+06	
66	-3.30000e+00	8.773706e+06	
Reset re-loads circuit ***************************

Circuit: ***************************

Doing analysis at TEMP = 25.000000 and TNOM = 25.000000


No. of Data Rows : 67
                          ***************************
                          DC transfer characteristic  Mon Jan  9 13:58:25  2023
--------------------------------------------------------------------------------
Index   v-sweep         rds             
--------------------------------------------------------------------------------
0	0.000000e+00	2.973352e+04	
1	-5.00000e-02	3.164132e+04	
2	-1.00000e-01	3.379243e+04	
3	-1.50000e-01	3.623640e+04	
4	-2.00000e-01	3.903712e+04	
5	-2.50000e-01	4.227846e+04	
6	-3.00000e-01	4.607258e+04	
7	-3.50000e-01	5.057285e+04	
8	-4.00000e-01	5.599433e+04	
9	-4.50000e-01	6.264742e+04	
10	-5.00000e-01	7.099513e+04	
11	-5.50000e-01	8.175444e+04	
12	-6.00000e-01	9.608120e+04	
13	-6.50000e-01	1.159129e+05	
14	-7.00000e-01	1.445788e+05	
15	-7.50000e-01	1.876670e+05	
16	-8.00000e-01	2.531930e+05	
17	-8.50000e-01	3.476027e+05	
18	-9.00000e-01	4.659888e+05	
19	-9.50000e-01	5.903410e+05	
20	-1.00000e+00	7.046514e+05	
21	-1.05000e+00	8.042440e+05	
22	-1.10000e+00	8.913583e+05	
23	-1.15000e+00	9.695915e+05	
24	-1.20000e+00	1.041822e+06	
25	-1.25000e+00	1.109986e+06	
26	-1.30000e+00	1.175324e+06	
27	-1.35000e+00	1.238622e+06	
28	-1.40000e+00	1.300390e+06	
29	-1.45000e+00	1.360959e+06	
30	-1.50000e+00	1.420556e+06	
31	-1.55000e+00	1.479334e+06	
32	-1.60000e+00	1.537404e+06	
33	-1.65000e+00	1.594844e+06	
34	-1.70000e+00	1.651714e+06	
35	-1.75000e+00	1.708056e+06	
36	-1.80000e+00	1.763904e+06	
37	-1.85000e+00	1.819286e+06	
38	-1.90000e+00	1.874222e+06	
39	-1.95000e+00	1.928729e+06	
40	-2.00000e+00	1.982821e+06	
41	-2.05000e+00	2.036512e+06	
42	-2.10000e+00	2.089809e+06	
43	-2.15000e+00	2.142723e+06	
44	-2.20000e+00	2.195261e+06	
45	-2.25000e+00	2.247429e+06	
46	-2.30000e+00	2.299232e+06	
47	-2.35000e+00	2.350675e+06	
48	-2.40000e+00	2.401759e+06	
49	-2.45000e+00	2.452485e+06	
50	-2.50000e+00	2.502849e+06	
51	-2.55000e+00	2.552842e+06	
52	-2.60000e+00	2.602449e+06	
53	-2.65000e+00	2.651644e+06	
54	-2.70000e+00	2.700390e+06	

Index   v-sweep         rds             
--------------------------------------------------------------------------------
55	-2.75000e+00	2.748632e+06	
56	-2.80000e+00	2.796292e+06	
57	-2.85000e+00	2.843266e+06	
58	-2.90000e+00	2.889413e+06	
59	-2.95000e+00	2.934552e+06	
60	-3.00000e+00	2.978449e+06	
61	-3.05000e+00	3.020815e+06	
62	-3.10000e+00	3.061291e+06	
63	-3.15000e+00	3.099445e+06	
64	-3.20000e+00	3.134761e+06	
65	-3.25000e+00	3.166642e+06	
66	-3.30000e+00	3.194402e+06	
Reset re-loads circuit ***************************

Circuit: ***************************

Doing analysis at TEMP = 25.000000 and TNOM = 25.000000


No. of Data Rows : 67
                          ***************************
                          DC transfer characteristic  Mon Jan  9 13:58:25  2023
--------------------------------------------------------------------------------
Index   v-sweep         rds             
--------------------------------------------------------------------------------
0	0.000000e+00	2.112120e+04	
1	-5.00000e-02	2.202521e+04	
2	-1.00000e-01	2.300281e+04	
3	-1.50000e-01	2.406333e+04	
4	-2.00000e-01	2.521774e+04	
5	-2.50000e-01	2.647905e+04	
6	-3.00000e-01	2.786275e+04	
7	-3.50000e-01	2.938750e+04	
8	-4.00000e-01	3.107593e+04	
9	-4.50000e-01	3.295576e+04	
10	-5.00000e-01	3.506132e+04	
11	-5.50000e-01	3.743561e+04	
12	-6.00000e-01	4.013321e+04	
13	-6.50000e-01	4.322436e+04	
14	-7.00000e-01	4.680095e+04	
15	-7.50000e-01	5.098530e+04	
16	-8.00000e-01	5.594338e+04	
17	-8.50000e-01	6.190526e+04	
18	-9.00000e-01	6.919681e+04	
19	-9.50000e-01	7.828964e+04	
20	-1.00000e+00	8.987793e+04	
21	-1.05000e+00	1.049874e+05	
22	-1.10000e+00	1.250924e+05	
23	-1.15000e+00	1.521036e+05	
24	-1.20000e+00	1.878493e+05	
25	-1.25000e+00	2.326294e+05	
26	-1.30000e+00	2.836808e+05	
27	-1.35000e+00	3.360344e+05	
28	-1.40000e+00	3.856261e+05	
29	-1.45000e+00	4.309506e+05	
30	-1.50000e+00	4.723047e+05	
31	-1.55000e+00	5.105777e+05	
32	-1.60000e+00	5.466206e+05	
33	-1.65000e+00	5.810766e+05	
34	-1.70000e+00	6.143919e+05	
35	-1.75000e+00	6.468678e+05	
36	-1.80000e+00	6.787070e+05	
37	-1.85000e+00	7.100473e+05	
38	-1.90000e+00	7.409838e+05	
39	-1.95000e+00	7.715831e+05	
40	-2.00000e+00	8.018928e+05	
41	-2.05000e+00	8.319477e+05	
42	-2.10000e+00	8.617735e+05	
43	-2.15000e+00	8.913894e+05	
44	-2.20000e+00	9.208104e+05	
45	-2.25000e+00	9.500478e+05	
46	-2.30000e+00	9.791110e+05	
47	-2.35000e+00	1.008007e+06	
48	-2.40000e+00	1.036742e+06	
49	-2.45000e+00	1.065321e+06	
50	-2.50000e+00	1.093748e+06	
51	-2.55000e+00	1.122026e+06	
52	-2.60000e+00	1.150158e+06	
53	-2.65000e+00	1.178146e+06	
54	-2.70000e+00	1.205994e+06	

Index   v-sweep         rds             
--------------------------------------------------------------------------------
55	-2.75000e+00	1.233700e+06	
56	-2.80000e+00	1.261267e+06	
57	-2.85000e+00	1.288692e+06	
58	-2.90000e+00	1.315972e+06	
59	-2.95000e+00	1.343103e+06	
60	-3.00000e+00	1.370074e+06	
61	-3.05000e+00	1.396871e+06	
62	-3.10000e+00	1.423472e+06	
63	-3.15000e+00	1.449845e+06	
64	-3.20000e+00	1.475945e+06	
65	-3.25000e+00	1.501714e+06	
66	-3.30000e+00	1.527070e+06	
Reset re-loads circuit ***************************

Circuit: ***************************

Doing analysis at TEMP = 25.000000 and TNOM = 25.000000


No. of Data Rows : 67
                          ***************************
                          DC transfer characteristic  Mon Jan  9 13:58:25  2023
--------------------------------------------------------------------------------
Index   v-sweep         rds             
--------------------------------------------------------------------------------
0	0.000000e+00	1.727740e+04	
1	-5.00000e-02	1.784296e+04	
2	-1.00000e-01	1.844280e+04	
3	-1.50000e-01	1.908010e+04	
4	-2.00000e-01	1.975847e+04	
5	-2.50000e-01	2.048200e+04	
6	-3.00000e-01	2.125533e+04	
7	-3.50000e-01	2.208376e+04	
8	-4.00000e-01	2.297337e+04	
9	-4.50000e-01	2.393116e+04	
10	-5.00000e-01	2.496525e+04	
11	-5.50000e-01	2.608511e+04	
12	-6.00000e-01	2.730180e+04	
13	-6.50000e-01	2.862839e+04	
14	-7.00000e-01	3.008042e+04	
15	-7.50000e-01	3.167645e+04	
16	-8.00000e-01	3.343890e+04	
17	-8.50000e-01	3.539504e+04	
18	-9.00000e-01	3.757839e+04	
19	-9.50000e-01	4.003061e+04	
20	-1.00000e+00	4.280399e+04	
21	-1.05000e+00	4.596506e+04	
22	-1.10000e+00	4.959957e+04	
23	-1.15000e+00	5.381956e+04	
24	-1.20000e+00	5.877356e+04	
25	-1.25000e+00	6.466109e+04	
26	-1.30000e+00	7.175313e+04	
27	-1.35000e+00	8.041913e+04	
28	-1.40000e+00	9.115760e+04	
29	-1.45000e+00	1.046137e+05	
30	-1.50000e+00	1.215355e+05	
31	-1.55000e+00	1.425731e+05	
32	-1.60000e+00	1.678412e+05	
33	-1.65000e+00	1.964461e+05	
34	-1.70000e+00	2.265654e+05	
35	-1.75000e+00	2.563058e+05	
36	-1.80000e+00	2.845300e+05	
37	-1.85000e+00	3.109528e+05	
38	-1.90000e+00	3.357721e+05	
39	-1.95000e+00	3.593284e+05	
40	-2.00000e+00	3.819385e+05	
41	-2.05000e+00	4.038488e+05	
42	-2.10000e+00	4.252374e+05	
43	-2.15000e+00	4.462296e+05	
44	-2.20000e+00	4.669130e+05	
45	-2.25000e+00	4.873492e+05	
46	-2.30000e+00	5.075817e+05	
47	-2.35000e+00	5.276418e+05	
48	-2.40000e+00	5.475526e+05	
49	-2.45000e+00	5.673309e+05	
50	-2.50000e+00	5.869894e+05	
51	-2.55000e+00	6.065378e+05	
52	-2.60000e+00	6.259836e+05	
53	-2.65000e+00	6.453327e+05	
54	-2.70000e+00	6.645897e+05	

Index   v-sweep         rds             
--------------------------------------------------------------------------------
55	-2.75000e+00	6.837584e+05	
56	-2.80000e+00	7.028417e+05	
57	-2.85000e+00	7.218423e+05	
58	-2.90000e+00	7.407621e+05	
59	-2.95000e+00	7.596029e+05	
60	-3.00000e+00	7.783661e+05	
61	-3.05000e+00	7.970528e+05	
62	-3.10000e+00	8.156635e+05	
63	-3.15000e+00	8.341985e+05	
64	-3.20000e+00	8.526573e+05	
65	-3.25000e+00	8.710381e+05	
66	-3.30000e+00	8.893377e+05	
Reset re-loads circuit ***************************

Circuit: ***************************

Doing analysis at TEMP = 25.000000 and TNOM = 25.000000


No. of Data Rows : 67
                          ***************************
                          DC transfer characteristic  Mon Jan  9 13:58:25  2023
--------------------------------------------------------------------------------
Index   v-sweep         rds             
--------------------------------------------------------------------------------
0	0.000000e+00	1.502008e+04	
1	-5.00000e-02	1.541965e+04	
2	-1.00000e-01	1.583850e+04	
3	-1.50000e-01	1.627806e+04	
4	-2.00000e-01	1.673989e+04	
5	-2.50000e-01	1.722573e+04	
6	-3.00000e-01	1.773746e+04	
7	-3.50000e-01	1.827723e+04	
8	-4.00000e-01	1.884736e+04	
9	-4.50000e-01	1.945050e+04	
10	-5.00000e-01	2.008958e+04	
11	-5.50000e-01	2.076789e+04	
12	-6.00000e-01	2.148914e+04	
13	-6.50000e-01	2.225751e+04	
14	-7.00000e-01	2.307777e+04	
15	-7.50000e-01	2.395533e+04	
16	-8.00000e-01	2.489638e+04	
17	-8.50000e-01	2.590804e+04	
18	-9.00000e-01	2.699851e+04	
19	-9.50000e-01	2.817735e+04	
20	-1.00000e+00	2.945568e+04	
21	-1.05000e+00	3.084658e+04	
22	-1.10000e+00	3.236552e+04	
23	-1.15000e+00	3.403088e+04	
24	-1.20000e+00	3.586472e+04	
25	-1.25000e+00	3.789373e+04	
26	-1.30000e+00	4.015042e+04	
27	-1.35000e+00	4.267480e+04	
28	-1.40000e+00	4.551656e+04	
29	-1.45000e+00	4.873807e+04	
30	-1.50000e+00	5.241832e+04	
31	-1.55000e+00	5.665836e+04	
32	-1.60000e+00	6.158837e+04	
33	-1.65000e+00	6.737670e+04	
34	-1.70000e+00	7.424007e+04	
35	-1.75000e+00	8.245210e+04	
36	-1.80000e+00	9.234121e+04	
37	-1.85000e+00	1.042589e+05	
38	-1.90000e+00	1.184873e+05	
39	-1.95000e+00	1.350700e+05	
40	-2.00000e+00	1.536309e+05	
41	-2.05000e+00	1.733666e+05	
42	-2.10000e+00	1.933273e+05	
43	-2.15000e+00	2.127904e+05	
44	-2.20000e+00	2.314205e+05	
45	-2.25000e+00	2.491869e+05	
46	-2.30000e+00	2.662059e+05	
47	-2.35000e+00	2.826299e+05	
48	-2.40000e+00	2.985965e+05	
49	-2.45000e+00	3.142140e+05	
50	-2.50000e+00	3.295632e+05	
51	-2.55000e+00	3.447023e+05	
52	-2.60000e+00	3.596736e+05	
53	-2.65000e+00	3.745073e+05	
54	-2.70000e+00	3.892255e+05	

Index   v-sweep         rds             
--------------------------------------------------------------------------------
55	-2.75000e+00	4.038444e+05	
56	-2.80000e+00	4.183761e+05	
57	-2.85000e+00	4.328296e+05	
58	-2.90000e+00	4.472118e+05	
59	-2.95000e+00	4.615281e+05	
60	-3.00000e+00	4.757825e+05	
61	-3.05000e+00	4.899783e+05	
62	-3.10000e+00	5.041183e+05	
63	-3.15000e+00	5.182043e+05	
64	-3.20000e+00	5.322383e+05	
65	-3.25000e+00	5.462216e+05	
66	-3.30000e+00	5.601553e+05	
Reset re-loads circuit ***************************

Circuit: ***************************

Note: No ".plot", ".print", or ".fourier" lines; no simulations run
