
Note: Compatibility modes selected: hs

Warning: m=xx on .subckt line will override multiplier m hierarchy!


Circuit: ***************************

Doing analysis at TEMP = -40.000000 and TNOM = -40.000000


No. of Data Rows : 67
                          ***************************
                          DC transfer characteristic  Mon Jan  9 13:58:25  2023
--------------------------------------------------------------------------------
Index   v-sweep         rds             
--------------------------------------------------------------------------------
0	0.000000e+00	3.335302e+06	
1	-5.00000e-02	4.007681e+07	
2	-1.00000e-01	3.755507e+08	
3	-1.50000e-01	1.413004e+09	
4	-2.00000e-01	3.280843e+09	
5	-2.50000e-01	5.741290e+09	
6	-3.00000e-01	8.394459e+09	
7	-3.50000e-01	1.091818e+10	
8	-4.00000e-01	1.315068e+10	
9	-4.50000e-01	1.505353e+10	
10	-5.00000e-01	1.665123e+10	
11	-5.50000e-01	1.798987e+10	
12	-6.00000e-01	1.911698e+10	
13	-6.50000e-01	2.007400e+10	
14	-7.00000e-01	2.089461e+10	
15	-7.50000e-01	2.160537e+10	
16	-8.00000e-01	2.222701e+10	
17	-8.50000e-01	2.277566e+10	
18	-9.00000e-01	2.326393e+10	
19	-9.50000e-01	2.370175e+10	
20	-1.00000e+00	2.409701e+10	
21	-1.05000e+00	2.445602e+10	
22	-1.10000e+00	2.478390e+10	
23	-1.15000e+00	2.508483e+10	
24	-1.20000e+00	2.536225e+10	
25	-1.25000e+00	2.561901e+10	
26	-1.30000e+00	2.585752e+10	
27	-1.35000e+00	2.607980e+10	
28	-1.40000e+00	2.628758e+10	
29	-1.45000e+00	2.648233e+10	
30	-1.50000e+00	2.666532e+10	
31	-1.55000e+00	2.683765e+10	
32	-1.60000e+00	2.700028e+10	
33	-1.65000e+00	2.715403e+10	
34	-1.70000e+00	2.729965e+10	
35	-1.75000e+00	2.743774e+10	
36	-1.80000e+00	2.756885e+10	
37	-1.85000e+00	2.769344e+10	
38	-1.90000e+00	2.781189e+10	
39	-1.95000e+00	2.792449e+10	
40	-2.00000e+00	2.803147e+10	
41	-2.05000e+00	2.813297e+10	
42	-2.10000e+00	2.822903e+10	
43	-2.15000e+00	2.831961e+10	
44	-2.20000e+00	2.840458e+10	
45	-2.25000e+00	2.848368e+10	
46	-2.30000e+00	2.855657e+10	
47	-2.35000e+00	2.862276e+10	
48	-2.40000e+00	2.868166e+10	
49	-2.45000e+00	2.873254e+10	
50	-2.50000e+00	2.877455e+10	
51	-2.55000e+00	2.880670e+10	
52	-2.60000e+00	2.882786e+10	
53	-2.65000e+00	2.883680e+10	
54	-2.70000e+00	2.883215e+10	

Index   v-sweep         rds             
--------------------------------------------------------------------------------
55	-2.75000e+00	2.881245e+10	
56	-2.80000e+00	2.877613e+10	
57	-2.85000e+00	2.872158e+10	
58	-2.90000e+00	2.864711e+10	
59	-2.95000e+00	2.855103e+10	
60	-3.00000e+00	2.843169e+10	
61	-3.05000e+00	2.828745e+10	
62	-3.10000e+00	2.811680e+10	
63	-3.15000e+00	2.791835e+10	
64	-3.20000e+00	2.769091e+10	
65	-3.25000e+00	2.743348e+10	
66	-3.30000e+00	2.714535e+10	
Reset re-loads circuit ***************************

Circuit: ***************************

Doing analysis at TEMP = -40.000000 and TNOM = -40.000000


No. of Data Rows : 67
                          ***************************
                          DC transfer characteristic  Mon Jan  9 13:58:25  2023
--------------------------------------------------------------------------------
Index   v-sweep         rds             
--------------------------------------------------------------------------------
0	0.000000e+00	9.302915e+04	
1	-5.00000e-02	1.103403e+05	
2	-1.00000e-01	1.354481e+05	
3	-1.50000e-01	1.749179e+05	
4	-2.00000e-01	2.446912e+05	
5	-2.50000e-01	3.908657e+05	
6	-3.00000e-01	7.669239e+05	
7	-3.50000e-01	1.849446e+06	
8	-4.00000e-01	4.636422e+06	
9	-4.50000e-01	1.030033e+07	
10	-5.00000e-01	1.951524e+07	
11	-5.50000e-01	3.215494e+07	
12	-6.00000e-01	4.747142e+07	
13	-6.50000e-01	6.447877e+07	
14	-7.00000e-01	8.226924e+07	
15	-7.50000e-01	1.001605e+08	
16	-8.00000e-01	1.177101e+08	
17	-8.50000e-01	1.346682e+08	
18	-9.00000e-01	1.509177e+08	
19	-9.50000e-01	1.664242e+08	
20	-1.00000e+00	1.812007e+08	
21	-1.05000e+00	1.952845e+08	
22	-1.10000e+00	2.087235e+08	
23	-1.15000e+00	2.215687e+08	
24	-1.20000e+00	2.338695e+08	
25	-1.25000e+00	2.456718e+08	
26	-1.30000e+00	2.570177e+08	
27	-1.35000e+00	2.679447e+08	
28	-1.40000e+00	2.784861e+08	
29	-1.45000e+00	2.886715e+08	
30	-1.50000e+00	2.985272e+08	
31	-1.55000e+00	3.080764e+08	
32	-1.60000e+00	3.173398e+08	
33	-1.65000e+00	3.263357e+08	
34	-1.70000e+00	3.350806e+08	
35	-1.75000e+00	3.435891e+08	
36	-1.80000e+00	3.518743e+08	
37	-1.85000e+00	3.599480e+08	
38	-1.90000e+00	3.678205e+08	
39	-1.95000e+00	3.755008e+08	
40	-2.00000e+00	3.829968e+08	
41	-2.05000e+00	3.903145e+08	
42	-2.10000e+00	3.974586e+08	
43	-2.15000e+00	4.044316e+08	
44	-2.20000e+00	4.112335e+08	
45	-2.25000e+00	4.178616e+08	
46	-2.30000e+00	4.243096e+08	
47	-2.35000e+00	4.305670e+08	
48	-2.40000e+00	4.366184e+08	
49	-2.45000e+00	4.424424e+08	
50	-2.50000e+00	4.480110e+08	
51	-2.55000e+00	4.532885e+08	
52	-2.60000e+00	4.582308e+08	
53	-2.65000e+00	4.627847e+08	
54	-2.70000e+00	4.668872e+08	

Index   v-sweep         rds             
--------------------------------------------------------------------------------
55	-2.75000e+00	4.704657e+08	
56	-2.80000e+00	4.734380e+08	
57	-2.85000e+00	4.757133e+08	
58	-2.90000e+00	4.771935e+08	
59	-2.95000e+00	4.777757e+08	
60	-3.00000e+00	4.773552e+08	
61	-3.05000e+00	4.758296e+08	
62	-3.10000e+00	4.731036e+08	
63	-3.15000e+00	4.690941e+08	
64	-3.20000e+00	4.637358e+08	
65	-3.25000e+00	4.569870e+08	
66	-3.30000e+00	4.488340e+08	
Reset re-loads circuit ***************************

Circuit: ***************************

Doing analysis at TEMP = -40.000000 and TNOM = -40.000000


No. of Data Rows : 67
                          ***************************
                          DC transfer characteristic  Mon Jan  9 13:58:25  2023
--------------------------------------------------------------------------------
Index   v-sweep         rds             
--------------------------------------------------------------------------------
0	0.000000e+00	4.684698e+04	
1	-5.00000e-02	5.069241e+04	
2	-1.00000e-01	5.522175e+04	
3	-1.50000e-01	6.063446e+04	
4	-2.00000e-01	6.721530e+04	
5	-2.50000e-01	7.538473e+04	
6	-3.00000e-01	8.578908e+04	
7	-3.50000e-01	9.947099e+04	
8	-4.00000e-01	1.182137e+05	
9	-4.50000e-01	1.452886e+05	
10	-5.00000e-01	1.872082e+05	
11	-5.50000e-01	2.581061e+05	
12	-6.00000e-01	3.907615e+05	
13	-6.50000e-01	6.607085e+05	
14	-7.00000e-01	1.218616e+06	
15	-7.50000e-01	2.287084e+06	
16	-8.00000e-01	4.080348e+06	
17	-8.50000e-01	6.701039e+06	
18	-9.00000e-01	1.010147e+07	
19	-9.50000e-01	1.412201e+07	
20	-1.00000e+00	1.856054e+07	
21	-1.05000e+00	2.322867e+07	
22	-1.10000e+00	2.797924e+07	
23	-1.15000e+00	3.271072e+07	
24	-1.20000e+00	3.736011e+07	
25	-1.25000e+00	4.189253e+07	
26	-1.30000e+00	4.629189e+07	
27	-1.35000e+00	5.055379e+07	
28	-1.40000e+00	5.468062e+07	
29	-1.45000e+00	5.867841e+07	
30	-1.50000e+00	6.255488e+07	
31	-1.55000e+00	6.631832e+07	
32	-1.60000e+00	6.997687e+07	
33	-1.65000e+00	7.353828e+07	
34	-1.70000e+00	7.700964e+07	
35	-1.75000e+00	8.039742e+07	
36	-1.80000e+00	8.370745e+07	
37	-1.85000e+00	8.694492e+07	
38	-1.90000e+00	9.011450e+07	
39	-1.95000e+00	9.322034e+07	
40	-2.00000e+00	9.626615e+07	
41	-2.05000e+00	9.925525e+07	
42	-2.10000e+00	1.021906e+08	
43	-2.15000e+00	1.050748e+08	
44	-2.20000e+00	1.079102e+08	
45	-2.25000e+00	1.106987e+08	
46	-2.30000e+00	1.134421e+08	
47	-2.35000e+00	1.161415e+08	
48	-2.40000e+00	1.187978e+08	
49	-2.45000e+00	1.214112e+08	
50	-2.50000e+00	1.239813e+08	
51	-2.55000e+00	1.265066e+08	
52	-2.60000e+00	1.289846e+08	
53	-2.65000e+00	1.314115e+08	
54	-2.70000e+00	1.337816e+08	

Index   v-sweep         rds             
--------------------------------------------------------------------------------
55	-2.75000e+00	1.360871e+08	
56	-2.80000e+00	1.383178e+08	
57	-2.85000e+00	1.404607e+08	
58	-2.90000e+00	1.424994e+08	
59	-2.95000e+00	1.444139e+08	
60	-3.00000e+00	1.461802e+08	
61	-3.05000e+00	1.477702e+08	
62	-3.10000e+00	1.491517e+08	
63	-3.15000e+00	1.502886e+08	
64	-3.20000e+00	1.511415e+08	
65	-3.25000e+00	1.516682e+08	
66	-3.30000e+00	1.518257e+08	
Reset re-loads circuit ***************************

Circuit: ***************************

Doing analysis at TEMP = -40.000000 and TNOM = -40.000000


No. of Data Rows : 67
                          ***************************
                          DC transfer characteristic  Mon Jan  9 13:58:25  2023
--------------------------------------------------------------------------------
Index   v-sweep         rds             
--------------------------------------------------------------------------------
0	0.000000e+00	3.277220e+04	
1	-5.00000e-02	3.446053e+04	
2	-1.00000e-01	3.633121e+04	
3	-1.50000e-01	3.841539e+04	
4	-2.00000e-01	4.075180e+04	
5	-2.50000e-01	4.338906e+04	
6	-3.00000e-01	4.638911e+04	
7	-3.50000e-01	4.983208e+04	
8	-4.00000e-01	5.382341e+04	
9	-4.50000e-01	5.850464e+04	
10	-5.00000e-01	6.407004e+04	
11	-5.50000e-01	7.079334e+04	
12	-6.00000e-01	7.907191e+04	
13	-6.50000e-01	8.950309e+04	
14	-7.00000e-01	1.030220e+05	
15	-7.50000e-01	1.211625e+05	
16	-8.00000e-01	1.465758e+05	
17	-8.50000e-01	1.841048e+05	
18	-9.00000e-01	2.430500e+05	
19	-9.50000e-01	3.417495e+05	
20	-1.00000e+00	5.153830e+05	
21	-1.05000e+00	8.240813e+05	
22	-1.10000e+00	1.350200e+06	
23	-1.15000e+00	2.174540e+06	
24	-1.20000e+00	3.342640e+06	
25	-1.25000e+00	4.846569e+06	
26	-1.30000e+00	6.632664e+06	
27	-1.35000e+00	8.624399e+06	
28	-1.40000e+00	1.074458e+07	
29	-1.45000e+00	1.292863e+07	
30	-1.50000e+00	1.512893e+07	
31	-1.55000e+00	1.731363e+07	
32	-1.60000e+00	1.946330e+07	
33	-1.65000e+00	2.156733e+07	
34	-1.70000e+00	2.362096e+07	
35	-1.75000e+00	2.562308e+07	
36	-1.80000e+00	2.757473e+07	
37	-1.85000e+00	2.947812e+07	
38	-1.90000e+00	3.133603e+07	
39	-1.95000e+00	3.315139e+07	
40	-2.00000e+00	3.492713e+07	
41	-2.05000e+00	3.666604e+07	
42	-2.10000e+00	3.837068e+07	
43	-2.15000e+00	4.004341e+07	
44	-2.20000e+00	4.168635e+07	
45	-2.25000e+00	4.330142e+07	
46	-2.30000e+00	4.489033e+07	
47	-2.35000e+00	4.645462e+07	
48	-2.40000e+00	4.799566e+07	
49	-2.45000e+00	4.951467e+07	
50	-2.50000e+00	5.101274e+07	
51	-2.55000e+00	5.249080e+07	
52	-2.60000e+00	5.394967e+07	
53	-2.65000e+00	5.538999e+07	
54	-2.70000e+00	5.681222e+07	

Index   v-sweep         rds             
--------------------------------------------------------------------------------
55	-2.75000e+00	5.821663e+07	
56	-2.80000e+00	5.960318e+07	
57	-2.85000e+00	6.097149e+07	
58	-2.90000e+00	6.232071e+07	
59	-2.95000e+00	6.364942e+07	
60	-3.00000e+00	6.495546e+07	
61	-3.05000e+00	6.623575e+07	
62	-3.10000e+00	6.748610e+07	
63	-3.15000e+00	6.870099e+07	
64	-3.20000e+00	6.987332e+07	
65	-3.25000e+00	7.099419e+07	
66	-3.30000e+00	7.205265e+07	
Reset re-loads circuit ***************************

Circuit: ***************************

Doing analysis at TEMP = -40.000000 and TNOM = -40.000000


No. of Data Rows : 67
                          ***************************
                          DC transfer characteristic  Mon Jan  9 13:58:25  2023
--------------------------------------------------------------------------------
Index   v-sweep         rds             
--------------------------------------------------------------------------------
0	0.000000e+00	2.621845e+04	
1	-5.00000e-02	2.718933e+04	
2	-1.00000e-01	2.823437e+04	
3	-1.50000e-01	2.936239e+04	
4	-2.00000e-01	3.058368e+04	
5	-2.50000e-01	3.191030e+04	
6	-3.00000e-01	3.335646e+04	
7	-3.50000e-01	3.493907e+04	
8	-4.00000e-01	3.667836e+04	
9	-4.50000e-01	3.859879e+04	
10	-5.00000e-01	4.073012e+04	
11	-5.50000e-01	4.310903e+04	
12	-6.00000e-01	4.578117e+04	
13	-6.50000e-01	4.880409e+04	
14	-7.00000e-01	5.225135e+04	
15	-7.50000e-01	5.621844e+04	
16	-8.00000e-01	6.083147e+04	
17	-8.50000e-01	6.626036e+04	
18	-9.00000e-01	7.273916e+04	
19	-9.50000e-01	8.059855e+04	
20	-1.00000e+00	9.031930e+04	
21	-1.05000e+00	1.026235e+05	
22	-1.10000e+00	1.186356e+05	
23	-1.15000e+00	1.401758e+05	
24	-1.20000e+00	1.703093e+05	
25	-1.25000e+00	2.143749e+05	
26	-1.30000e+00	2.818375e+05	
27	-1.35000e+00	3.892059e+05	
28	-1.40000e+00	5.632707e+05	
29	-1.45000e+00	8.415641e+05	
30	-1.50000e+00	1.265646e+06	
31	-1.55000e+00	1.867443e+06	
32	-1.60000e+00	2.656713e+06	
33	-1.65000e+00	3.618094e+06	
34	-1.70000e+00	4.718190e+06	
35	-1.75000e+00	5.916662e+06	
36	-1.80000e+00	7.175385e+06	
37	-1.85000e+00	8.463352e+06	
38	-1.90000e+00	9.757907e+06	
39	-1.95000e+00	1.104387e+07	
40	-2.00000e+00	1.231189e+07	
41	-2.05000e+00	1.355679e+07	
42	-2.10000e+00	1.477615e+07	
43	-2.15000e+00	1.596935e+07	
44	-2.20000e+00	1.713683e+07	
45	-2.25000e+00	1.827963e+07	
46	-2.30000e+00	1.939909e+07	
47	-2.35000e+00	2.049665e+07	
48	-2.40000e+00	2.157376e+07	
49	-2.45000e+00	2.263183e+07	
50	-2.50000e+00	2.367215e+07	
51	-2.55000e+00	2.469592e+07	
52	-2.60000e+00	2.570424e+07	
53	-2.65000e+00	2.669808e+07	
54	-2.70000e+00	2.767833e+07	

Index   v-sweep         rds             
--------------------------------------------------------------------------------
55	-2.75000e+00	2.864578e+07	
56	-2.80000e+00	2.960115e+07	
57	-2.85000e+00	3.054507e+07	
58	-2.90000e+00	3.147807e+07	
59	-2.95000e+00	3.240065e+07	
60	-3.00000e+00	3.331319e+07	
61	-3.05000e+00	3.421598e+07	
62	-3.10000e+00	3.510919e+07	
63	-3.15000e+00	3.599285e+07	
64	-3.20000e+00	3.686679e+07	
65	-3.25000e+00	3.773057e+07	
66	-3.30000e+00	3.858346e+07	
Reset re-loads circuit ***************************

Circuit: ***************************

Doing analysis at TEMP = -40.000000 and TNOM = -40.000000


No. of Data Rows : 67
                          ***************************
                          DC transfer characteristic  Mon Jan  9 13:58:25  2023
--------------------------------------------------------------------------------
Index   v-sweep         rds             
--------------------------------------------------------------------------------
0	0.000000e+00	2.246759e+04	
1	-5.00000e-02	2.310761e+04	
2	-1.00000e-01	2.378487e+04	
3	-1.50000e-01	2.450269e+04	
4	-2.00000e-01	2.526485e+04	
5	-2.50000e-01	2.607558e+04	
6	-3.00000e-01	2.693966e+04	
7	-3.50000e-01	2.786255e+04	
8	-4.00000e-01	2.885046e+04	
9	-4.50000e-01	2.991049e+04	
10	-5.00000e-01	3.105085e+04	
11	-5.50000e-01	3.228100e+04	
12	-6.00000e-01	3.361199e+04	
13	-6.50000e-01	3.505671e+04	
14	-7.00000e-01	3.663037e+04	
15	-7.50000e-01	3.835102e+04	
16	-8.00000e-01	4.024019e+04	
17	-8.50000e-01	4.232385e+04	
18	-9.00000e-01	4.463357e+04	
19	-9.50000e-01	4.720809e+04	
20	-1.00000e+00	5.009548e+04	
21	-1.05000e+00	5.335612e+04	
22	-1.10000e+00	5.706679e+04	
23	-1.15000e+00	6.132665e+04	
24	-1.20000e+00	6.626579e+04	
25	-1.25000e+00	7.205808e+04	
26	-1.30000e+00	7.894059e+04	
27	-1.35000e+00	8.724407e+04	
28	-1.40000e+00	9.744166e+04	
29	-1.45000e+00	1.102292e+05	
30	-1.50000e+00	1.266604e+05	
31	-1.55000e+00	1.483801e+05	
32	-1.60000e+00	1.780273e+05	
33	-1.65000e+00	2.199214e+05	
34	-1.70000e+00	2.811542e+05	
35	-1.75000e+00	3.730613e+05	
36	-1.80000e+00	5.124995e+05	
37	-1.85000e+00	7.214269e+05	
38	-1.90000e+00	1.023067e+06	
39	-1.95000e+00	1.435019e+06	
40	-2.00000e+00	1.962908e+06	
41	-2.05000e+00	2.598525e+06	
42	-2.10000e+00	3.323110e+06	
43	-2.15000e+00	4.113135e+06	
44	-2.20000e+00	4.945544e+06	
45	-2.25000e+00	5.800891e+06	
46	-2.30000e+00	6.664430e+06	
47	-2.35000e+00	7.525885e+06	
48	-2.40000e+00	8.378624e+06	
49	-2.45000e+00	9.218721e+06	
50	-2.50000e+00	1.004413e+07	
51	-2.55000e+00	1.085405e+07	
52	-2.60000e+00	1.164846e+07	
53	-2.65000e+00	1.242780e+07	
54	-2.70000e+00	1.319276e+07	

Index   v-sweep         rds             
--------------------------------------------------------------------------------
55	-2.75000e+00	1.394416e+07	
56	-2.80000e+00	1.468286e+07	
57	-2.85000e+00	1.540968e+07	
58	-2.90000e+00	1.612544e+07	
59	-2.95000e+00	1.683088e+07	
60	-3.00000e+00	1.752667e+07	
61	-3.05000e+00	1.821344e+07	
62	-3.10000e+00	1.889175e+07	
63	-3.15000e+00	1.956210e+07	
64	-3.20000e+00	2.022496e+07	
65	-3.25000e+00	2.088071e+07	
66	-3.30000e+00	2.152972e+07	
Reset re-loads circuit ***************************

Circuit: ***************************

Note: No ".plot", ".print", or ".fourier" lines; no simulations run
