
Note: Compatibility modes selected: hs

Warning: m=xx on .subckt line will override multiplier m hierarchy!


Circuit: ***************************

Doing analysis at TEMP = 25.000000 and TNOM = 25.000000


No. of Data Rows : 67
                          ***************************
                          DC transfer characteristic  Mon Jan  9 13:58:25  2023
--------------------------------------------------------------------------------
Index   v-sweep         rds             
--------------------------------------------------------------------------------
0	0.000000e+00	5.618057e+04	
1	-5.00000e-02	1.480758e+05	
2	-1.00000e-01	7.973979e+05	
3	-1.50000e-01	3.100905e+06	
4	-2.00000e-01	5.945246e+06	
5	-2.50000e-01	8.054486e+06	
6	-3.00000e-01	9.519552e+06	
7	-3.50000e-01	1.061680e+07	
8	-4.00000e-01	1.150590e+07	
9	-4.50000e-01	1.226707e+07	
10	-5.00000e-01	1.294186e+07	
11	-5.50000e-01	1.355330e+07	
12	-6.00000e-01	1.411519e+07	
13	-6.50000e-01	1.463639e+07	
14	-7.00000e-01	1.512299e+07	
15	-7.50000e-01	1.557942e+07	
16	-8.00000e-01	1.600906e+07	
17	-8.50000e-01	1.641458e+07	
18	-9.00000e-01	1.679818e+07	
19	-9.50000e-01	1.716170e+07	
20	-1.00000e+00	1.750672e+07	
21	-1.05000e+00	1.783462e+07	
22	-1.10000e+00	1.814662e+07	
23	-1.15000e+00	1.844379e+07	
24	-1.20000e+00	1.872710e+07	
25	-1.25000e+00	1.899745e+07	
26	-1.30000e+00	1.925561e+07	
27	-1.35000e+00	1.950233e+07	
28	-1.40000e+00	1.973826e+07	
29	-1.45000e+00	1.996403e+07	
30	-1.50000e+00	2.018019e+07	
31	-1.55000e+00	2.038726e+07	
32	-1.60000e+00	2.058573e+07	
33	-1.65000e+00	2.077603e+07	
34	-1.70000e+00	2.095855e+07	
35	-1.75000e+00	2.113365e+07	
36	-1.80000e+00	2.130164e+07	
37	-1.85000e+00	2.146277e+07	
38	-1.90000e+00	2.161726e+07	
39	-1.95000e+00	2.176524e+07	
40	-2.00000e+00	2.190676e+07	
41	-2.05000e+00	2.204182e+07	
42	-2.10000e+00	2.217028e+07	
43	-2.15000e+00	2.229189e+07	
44	-2.20000e+00	2.240627e+07	
45	-2.25000e+00	2.251290e+07	
46	-2.30000e+00	2.261107e+07	
47	-2.35000e+00	2.269990e+07	
48	-2.40000e+00	2.277831e+07	
49	-2.45000e+00	2.284500e+07	
50	-2.50000e+00	2.289846e+07	
51	-2.55000e+00	2.293695e+07	
52	-2.60000e+00	2.295854e+07	
53	-2.65000e+00	2.296107e+07	
54	-2.70000e+00	2.294222e+07	

Index   v-sweep         rds             
--------------------------------------------------------------------------------
55	-2.75000e+00	2.289953e+07	
56	-2.80000e+00	2.283043e+07	
57	-2.85000e+00	2.273235e+07	
58	-2.90000e+00	2.260274e+07	
59	-2.95000e+00	2.243917e+07	
60	-3.00000e+00	2.223945e+07	
61	-3.05000e+00	2.200170e+07	
62	-3.10000e+00	2.172447e+07	
63	-3.15000e+00	2.140682e+07	
64	-3.20000e+00	2.104843e+07	
65	-3.25000e+00	2.064962e+07	
66	-3.30000e+00	2.021145e+07	
Reset re-loads circuit ***************************

Circuit: ***************************

Doing analysis at TEMP = 25.000000 and TNOM = 25.000000


No. of Data Rows : 67
                          ***************************
                          DC transfer characteristic  Mon Jan  9 13:58:25  2023
--------------------------------------------------------------------------------
Index   v-sweep         rds             
--------------------------------------------------------------------------------
0	0.000000e+00	5.016933e+03	
1	-5.00000e-02	5.654535e+03	
2	-1.00000e-01	6.467146e+03	
3	-1.50000e-01	7.537265e+03	
4	-2.00000e-01	9.007365e+03	
5	-2.50000e-01	1.114303e+04	
6	-3.00000e-01	1.448631e+04	
7	-3.50000e-01	2.025067e+04	
8	-4.00000e-01	3.125807e+04	
9	-4.50000e-01	5.294801e+04	
10	-5.00000e-01	8.949929e+04	
11	-5.50000e-01	1.347120e+05	
12	-6.00000e-01	1.778789e+05	
13	-6.50000e-01	2.149871e+05	
14	-7.00000e-01	2.468598e+05	
15	-7.50000e-01	2.751325e+05	
16	-8.00000e-01	3.010237e+05	
17	-8.50000e-01	3.252965e+05	
18	-9.00000e-01	3.484141e+05	
19	-9.50000e-01	3.706609e+05	
20	-1.00000e+00	3.922170e+05	
21	-1.05000e+00	4.132001e+05	
22	-1.10000e+00	4.336900e+05	
23	-1.15000e+00	4.537430e+05	
24	-1.20000e+00	4.733997e+05	
25	-1.25000e+00	4.926907e+05	
26	-1.30000e+00	5.116398e+05	
27	-1.35000e+00	5.302658e+05	
28	-1.40000e+00	5.485842e+05	
29	-1.45000e+00	5.666078e+05	
30	-1.50000e+00	5.843478e+05	
31	-1.55000e+00	6.018138e+05	
32	-1.60000e+00	6.190144e+05	
33	-1.65000e+00	6.359575e+05	
34	-1.70000e+00	6.526499e+05	
35	-1.75000e+00	6.690983e+05	
36	-1.80000e+00	6.853086e+05	
37	-1.85000e+00	7.012864e+05	
38	-1.90000e+00	7.170367e+05	
39	-1.95000e+00	7.325642e+05	
40	-2.00000e+00	7.478728e+05	
41	-2.05000e+00	7.629657e+05	
42	-2.10000e+00	7.778450e+05	
43	-2.15000e+00	7.925112e+05	
44	-2.20000e+00	8.069626e+05	
45	-2.25000e+00	8.211947e+05	
46	-2.30000e+00	8.351990e+05	
47	-2.35000e+00	8.489622e+05	
48	-2.40000e+00	8.624642e+05	
49	-2.45000e+00	8.756768e+05	
50	-2.50000e+00	8.885619e+05	
51	-2.55000e+00	9.010689e+05	
52	-2.60000e+00	9.131332e+05	
53	-2.65000e+00	9.246730e+05	
54	-2.70000e+00	9.355880e+05	

Index   v-sweep         rds             
--------------------------------------------------------------------------------
55	-2.75000e+00	9.457565e+05	
56	-2.80000e+00	9.550346e+05	
57	-2.85000e+00	9.632546e+05	
58	-2.90000e+00	9.702256e+05	
59	-2.95000e+00	9.757347e+05	
60	-3.00000e+00	9.795501e+05	
61	-3.05000e+00	9.814264e+05	
62	-3.10000e+00	9.811115e+05	
63	-3.15000e+00	9.783568e+05	
64	-3.20000e+00	9.729286e+05	
65	-3.25000e+00	9.646216e+05	
66	-3.30000e+00	9.532736e+05	
Reset re-loads circuit ***************************

Circuit: ***************************

Doing analysis at TEMP = 25.000000 and TNOM = 25.000000


No. of Data Rows : 67
                          ***************************
                          DC transfer characteristic  Mon Jan  9 13:58:25  2023
--------------------------------------------------------------------------------
Index   v-sweep         rds             
--------------------------------------------------------------------------------
0	0.000000e+00	2.805682e+03	
1	-5.00000e-02	2.989085e+03	
2	-1.00000e-01	3.196108e+03	
3	-1.50000e-01	3.431607e+03	
4	-2.00000e-01	3.701864e+03	
5	-2.50000e-01	4.015143e+03	
6	-3.00000e-01	4.382534e+03	
7	-3.50000e-01	4.819254e+03	
8	-4.00000e-01	5.346730e+03	
9	-4.50000e-01	5.996038e+03	
10	-5.00000e-01	6.813784e+03	
11	-5.50000e-01	7.872580e+03	
12	-6.00000e-01	9.290208e+03	
13	-6.50000e-01	1.126505e+04	
14	-7.00000e-01	1.413774e+04	
15	-7.50000e-01	1.847087e+04	
16	-8.00000e-01	2.502843e+04	
17	-8.50000e-01	3.431979e+04	
18	-9.00000e-01	4.575962e+04	
19	-9.50000e-01	5.779829e+04	
20	-1.00000e+00	6.921354e+04	
21	-1.05000e+00	7.964569e+04	
22	-1.10000e+00	8.921190e+04	
23	-1.15000e+00	9.813108e+04	
24	-1.20000e+00	1.065868e+05	
25	-1.25000e+00	1.147078e+05	
26	-1.30000e+00	1.225797e+05	
27	-1.35000e+00	1.302590e+05	
28	-1.40000e+00	1.377834e+05	
29	-1.45000e+00	1.451785e+05	
30	-1.50000e+00	1.524623e+05	
31	-1.55000e+00	1.596474e+05	
32	-1.60000e+00	1.667431e+05	
33	-1.65000e+00	1.737564e+05	
34	-1.70000e+00	1.806926e+05	
35	-1.75000e+00	1.875559e+05	
36	-1.80000e+00	1.943496e+05	
37	-1.85000e+00	2.010763e+05	
38	-1.90000e+00	2.077385e+05	
39	-1.95000e+00	2.143379e+05	
40	-2.00000e+00	2.208763e+05	
41	-2.05000e+00	2.273551e+05	
42	-2.10000e+00	2.337755e+05	
43	-2.15000e+00	2.401388e+05	
44	-2.20000e+00	2.464459e+05	
45	-2.25000e+00	2.526978e+05	
46	-2.30000e+00	2.588952e+05	
47	-2.35000e+00	2.650388e+05	
48	-2.40000e+00	2.711288e+05	
49	-2.45000e+00	2.771654e+05	
50	-2.50000e+00	2.831480e+05	
51	-2.55000e+00	2.890754e+05	
52	-2.60000e+00	2.949456e+05	
53	-2.65000e+00	3.007549e+05	
54	-2.70000e+00	3.064979e+05	

Index   v-sweep         rds             
--------------------------------------------------------------------------------
55	-2.75000e+00	3.121669e+05	
56	-2.80000e+00	3.177507e+05	
57	-2.85000e+00	3.232346e+05	
58	-2.90000e+00	3.285986e+05	
59	-2.95000e+00	3.338172e+05	
60	-3.00000e+00	3.388576e+05	
61	-3.05000e+00	3.436791e+05	
62	-3.10000e+00	3.482317e+05	
63	-3.15000e+00	3.524557e+05	
64	-3.20000e+00	3.562806e+05	
65	-3.25000e+00	3.596248e+05	
66	-3.30000e+00	3.623967e+05	
Reset re-loads circuit ***************************

Circuit: ***************************

Doing analysis at TEMP = 25.000000 and TNOM = 25.000000


No. of Data Rows : 67
                          ***************************
                          DC transfer characteristic  Mon Jan  9 13:58:25  2023
--------------------------------------------------------------------------------
Index   v-sweep         rds             
--------------------------------------------------------------------------------
0	0.000000e+00	2.050495e+03	
1	-5.00000e-02	2.140902e+03	
2	-1.00000e-01	2.238822e+03	
3	-1.50000e-01	2.345227e+03	
4	-2.00000e-01	2.461266e+03	
5	-2.50000e-01	2.588302e+03	
6	-3.00000e-01	2.727970e+03	
7	-3.50000e-01	2.882244e+03	
8	-4.00000e-01	3.053530e+03	
9	-4.50000e-01	3.244792e+03	
10	-5.00000e-01	3.459721e+03	
11	-5.50000e-01	3.702968e+03	
12	-6.00000e-01	3.980482e+03	
13	-6.50000e-01	4.299977e+03	
14	-7.00000e-01	4.671638e+03	
15	-7.50000e-01	5.109153e+03	
16	-8.00000e-01	5.631308e+03	
17	-8.50000e-01	6.264452e+03	
18	-9.00000e-01	7.046384e+03	
19	-9.50000e-01	8.032462e+03	
20	-1.00000e+00	9.304862e+03	
21	-1.05000e+00	1.098482e+04	
22	-1.10000e+00	1.324206e+04	
23	-1.15000e+00	1.627873e+04	
24	-1.20000e+00	2.024271e+04	
25	-1.25000e+00	2.506804e+04	
26	-1.30000e+00	3.041048e+04	
27	-1.35000e+00	3.583962e+04	
28	-1.40000e+00	4.107893e+04	
29	-1.45000e+00	4.604435e+04	
30	-1.50000e+00	5.075689e+04	
31	-1.55000e+00	5.526742e+04	
32	-1.60000e+00	5.962394e+04	
33	-1.65000e+00	6.386340e+04	
34	-1.70000e+00	6.801223e+04	
35	-1.75000e+00	7.208892e+04	
36	-1.80000e+00	7.610639e+04	
37	-1.85000e+00	8.007375e+04	
38	-1.90000e+00	8.399752e+04	
39	-1.95000e+00	8.788243e+04	
40	-2.00000e+00	9.173201e+04	
41	-2.05000e+00	9.554890e+04	
42	-2.10000e+00	9.933515e+04	
43	-2.15000e+00	1.030923e+05	
44	-2.20000e+00	1.068217e+05	
45	-2.25000e+00	1.105244e+05	
46	-2.30000e+00	1.142012e+05	
47	-2.35000e+00	1.178527e+05	
48	-2.40000e+00	1.214797e+05	
49	-2.45000e+00	1.250826e+05	
50	-2.50000e+00	1.286619e+05	
51	-2.55000e+00	1.322180e+05	
52	-2.60000e+00	1.357512e+05	
53	-2.65000e+00	1.392618e+05	
54	-2.70000e+00	1.427501e+05	

Index   v-sweep         rds             
--------------------------------------------------------------------------------
55	-2.75000e+00	1.462161e+05	
56	-2.80000e+00	1.496598e+05	
57	-2.85000e+00	1.530809e+05	
58	-2.90000e+00	1.564789e+05	
59	-2.95000e+00	1.598526e+05	
60	-3.00000e+00	1.632005e+05	
61	-3.05000e+00	1.665200e+05	
62	-3.10000e+00	1.698071e+05	
63	-3.15000e+00	1.730565e+05	
64	-3.20000e+00	1.762609e+05	
65	-3.25000e+00	1.794101e+05	
66	-3.30000e+00	1.824911e+05	
Reset re-loads circuit ***************************

Circuit: ***************************

Doing analysis at TEMP = 25.000000 and TNOM = 25.000000


No. of Data Rows : 67
                          ***************************
                          DC transfer characteristic  Mon Jan  9 13:58:25  2023
--------------------------------------------------------------------------------
Index   v-sweep         rds             
--------------------------------------------------------------------------------
0	0.000000e+00	1.691110e+03	
1	-5.00000e-02	1.747761e+03	
2	-1.00000e-01	1.807889e+03	
3	-1.50000e-01	1.871823e+03	
4	-2.00000e-01	1.939933e+03	
5	-2.50000e-01	2.012640e+03	
6	-3.00000e-01	2.090423e+03	
7	-3.50000e-01	2.173831e+03	
8	-4.00000e-01	2.263493e+03	
9	-4.50000e-01	2.360137e+03	
10	-5.00000e-01	2.464606e+03	
11	-5.50000e-01	2.577889e+03	
12	-6.00000e-01	2.701142e+03	
13	-6.50000e-01	2.835737e+03	
14	-7.00000e-01	2.983306e+03	
15	-7.50000e-01	3.145810e+03	
16	-8.00000e-01	3.325622e+03	
17	-8.50000e-01	3.525642e+03	
18	-9.00000e-01	3.749451e+03	
19	-9.50000e-01	4.001517e+03	
20	-1.00000e+00	4.287485e+03	
21	-1.05000e+00	4.614572e+03	
22	-1.10000e+00	4.992141e+03	
23	-1.15000e+00	5.432511e+03	
24	-1.20000e+00	5.952127e+03	
25	-1.25000e+00	6.573236e+03	
26	-1.30000e+00	7.326226e+03	
27	-1.35000e+00	8.252646e+03	
28	-1.40000e+00	9.408302e+03	
29	-1.45000e+00	1.086401e+04	
30	-1.50000e+00	1.269763e+04	
31	-1.55000e+00	1.496755e+04	
32	-1.60000e+00	1.766690e+04	
33	-1.65000e+00	2.069232e+04	
34	-1.70000e+00	2.387721e+04	
35	-1.75000e+00	2.707155e+04	
36	-1.80000e+00	3.019090e+04	
37	-1.85000e+00	3.320965e+04	
38	-1.90000e+00	3.613323e+04	
39	-1.95000e+00	3.897719e+04	
40	-2.00000e+00	4.175739e+04	
41	-2.05000e+00	4.448686e+04	
42	-2.10000e+00	4.717547e+04	
43	-2.15000e+00	4.983047e+04	
44	-2.20000e+00	5.245713e+04	
45	-2.25000e+00	5.505929e+04	
46	-2.30000e+00	5.763977e+04	
47	-2.35000e+00	6.020067e+04	
48	-2.40000e+00	6.274358e+04	
49	-2.45000e+00	6.526971e+04	
50	-2.50000e+00	6.778001e+04	
51	-2.55000e+00	7.027521e+04	
52	-2.60000e+00	7.275592e+04	
53	-2.65000e+00	7.522261e+04	
54	-2.70000e+00	7.767569e+04	

Index   v-sweep         rds             
--------------------------------------------------------------------------------
55	-2.75000e+00	8.011549e+04	
56	-2.80000e+00	8.254230e+04	
57	-2.85000e+00	8.495635e+04	
58	-2.90000e+00	8.735786e+04	
59	-2.95000e+00	8.974701e+04	
60	-3.00000e+00	9.212392e+04	
61	-3.05000e+00	9.448873e+04	
62	-3.10000e+00	9.684146e+04	
63	-3.15000e+00	9.918210e+04	
64	-3.20000e+00	1.015105e+05	
65	-3.25000e+00	1.038263e+05	
66	-3.30000e+00	1.061289e+05	
Reset re-loads circuit ***************************

Circuit: ***************************

Doing analysis at TEMP = 25.000000 and TNOM = 25.000000


No. of Data Rows : 67
                          ***************************
                          DC transfer characteristic  Mon Jan  9 13:58:25  2023
--------------------------------------------------------------------------------
Index   v-sweep         rds             
--------------------------------------------------------------------------------
0	0.000000e+00	1.465690e+03	
1	-5.00000e-02	1.505043e+03	
2	-1.00000e-01	1.546289e+03	
3	-1.50000e-01	1.589568e+03	
4	-2.00000e-01	1.635033e+03	
5	-2.50000e-01	1.682851e+03	
6	-3.00000e-01	1.733210e+03	
7	-3.50000e-01	1.786316e+03	
8	-4.00000e-01	1.842399e+03	
9	-4.50000e-01	1.901714e+03	
10	-5.00000e-01	1.964548e+03	
11	-5.50000e-01	2.031222e+03	
12	-6.00000e-01	2.102096e+03	
13	-6.50000e-01	2.177579e+03	
14	-7.00000e-01	2.258132e+03	
15	-7.50000e-01	2.344282e+03	
16	-8.00000e-01	2.436631e+03	
17	-8.50000e-01	2.535868e+03	
18	-9.00000e-01	2.642790e+03	
19	-9.50000e-01	2.758322e+03	
20	-1.00000e+00	2.883540e+03	
21	-1.05000e+00	3.019710e+03	
22	-1.10000e+00	3.168325e+03	
23	-1.15000e+00	3.331159e+03	
24	-1.20000e+00	3.510340e+03	
25	-1.25000e+00	3.708435e+03	
26	-1.30000e+00	3.928570e+03	
27	-1.35000e+00	4.174589e+03	
28	-1.40000e+00	4.451257e+03	
29	-1.45000e+00	4.764549e+03	
30	-1.50000e+00	5.122026e+03	
31	-1.55000e+00	5.533351e+03	
32	-1.60000e+00	6.010973e+03	
33	-1.65000e+00	6.571009e+03	
34	-1.70000e+00	7.234269e+03	
35	-1.75000e+00	8.027205e+03	
36	-1.80000e+00	8.982051e+03	
37	-1.85000e+00	1.013453e+04	
38	-1.90000e+00	1.151650e+04	
39	-1.95000e+00	1.314178e+04	
40	-2.00000e+00	1.499011e+04	
41	-2.05000e+00	1.700348e+04	
42	-2.10000e+00	1.910511e+04	
43	-2.15000e+00	2.122824e+04	
44	-2.20000e+00	2.333205e+04	
45	-2.25000e+00	2.539957e+04	
46	-2.30000e+00	2.742813e+04	
47	-2.35000e+00	2.942132e+04	
48	-2.40000e+00	3.138437e+04	
49	-2.45000e+00	3.332225e+04	
50	-2.50000e+00	3.523906e+04	
51	-2.55000e+00	3.713799e+04	
52	-2.60000e+00	3.902148e+04	
53	-2.65000e+00	4.089135e+04	
54	-2.70000e+00	4.274898e+04	

Index   v-sweep         rds             
--------------------------------------------------------------------------------
55	-2.75000e+00	4.459543e+04	
56	-2.80000e+00	4.643149e+04	
57	-2.85000e+00	4.825779e+04	
58	-2.90000e+00	5.007482e+04	
59	-2.95000e+00	5.188296e+04	
60	-3.00000e+00	5.368253e+04	
61	-3.05000e+00	5.547377e+04	
62	-3.10000e+00	5.725691e+04	
63	-3.15000e+00	5.903211e+04	
64	-3.20000e+00	6.079953e+04	
65	-3.25000e+00	6.255928e+04	
66	-3.30000e+00	6.431149e+04	
Reset re-loads circuit ***************************

Circuit: ***************************

Note: No ".plot", ".print", or ".fourier" lines; no simulations run
