
Note: Compatibility modes selected: hs

Warning: m=xx on .subckt line will override multiplier m hierarchy!


Circuit: ***************************

Doing analysis at TEMP = -40.000000 and TNOM = -40.000000


No. of Data Rows : 67
                          ***************************
                          DC transfer characteristic  Mon Jan  9 13:58:25  2023
--------------------------------------------------------------------------------
Index   v-sweep         rds             
--------------------------------------------------------------------------------
0	0.000000e+00	1.634319e+06	
1	-5.00000e-02	1.950009e+07	
2	-1.00000e-01	1.828548e+08	
3	-1.50000e-01	6.887403e+08	
4	-2.00000e-01	1.600319e+09	
5	-2.50000e-01	2.802004e+09	
6	-3.00000e-01	4.098801e+09	
7	-3.50000e-01	5.333290e+09	
8	-4.00000e-01	6.426162e+09	
9	-4.50000e-01	7.358329e+09	
10	-5.00000e-01	8.141504e+09	
11	-5.50000e-01	8.798062e+09	
12	-6.00000e-01	9.351145e+09	
13	-6.50000e-01	9.820959e+09	
14	-7.00000e-01	1.022395e+10	
15	-7.50000e-01	1.057311e+10	
16	-8.00000e-01	1.087856e+10	
17	-8.50000e-01	1.114821e+10	
18	-9.00000e-01	1.138822e+10	
19	-9.50000e-01	1.160348e+10	
20	-1.00000e+00	1.179783e+10	
21	-1.05000e+00	1.197438e+10	
22	-1.10000e+00	1.213563e+10	
23	-1.15000e+00	1.228365e+10	
24	-1.20000e+00	1.242010e+10	
25	-1.25000e+00	1.254641e+10	
26	-1.30000e+00	1.266374e+10	
27	-1.35000e+00	1.277309e+10	
28	-1.40000e+00	1.287531e+10	
29	-1.45000e+00	1.297113e+10	
30	-1.50000e+00	1.306116e+10	
31	-1.55000e+00	1.314595e+10	
32	-1.60000e+00	1.322596e+10	
33	-1.65000e+00	1.330162e+10	
34	-1.70000e+00	1.337326e+10	
35	-1.75000e+00	1.344121e+10	
36	-1.80000e+00	1.350572e+10	
37	-1.85000e+00	1.356703e+10	
38	-1.90000e+00	1.362531e+10	
39	-1.95000e+00	1.368072e+10	
40	-2.00000e+00	1.373336e+10	
41	-2.05000e+00	1.378331e+10	
42	-2.10000e+00	1.383058e+10	
43	-2.15000e+00	1.387516e+10	
44	-2.20000e+00	1.391697e+10	
45	-2.25000e+00	1.395591e+10	
46	-2.30000e+00	1.399178e+10	
47	-2.35000e+00	1.402437e+10	
48	-2.40000e+00	1.405337e+10	
49	-2.45000e+00	1.407843e+10	
50	-2.50000e+00	1.409913e+10	
51	-2.55000e+00	1.411498e+10	
52	-2.60000e+00	1.412544e+10	
53	-2.65000e+00	1.412989e+10	
54	-2.70000e+00	1.412767e+10	

Index   v-sweep         rds             
--------------------------------------------------------------------------------
55	-2.75000e+00	1.411804e+10	
56	-2.80000e+00	1.410026e+10	
57	-2.85000e+00	1.407351e+10	
58	-2.90000e+00	1.403698e+10	
59	-2.95000e+00	1.398984e+10	
60	-3.00000e+00	1.393126e+10	
61	-3.05000e+00	1.386046e+10	
62	-3.10000e+00	1.377668e+10	
63	-3.15000e+00	1.367925e+10	
64	-3.20000e+00	1.356757e+10	
65	-3.25000e+00	1.344118e+10	
66	-3.30000e+00	1.329970e+10	
Reset re-loads circuit ***************************

Circuit: ***************************

Doing analysis at TEMP = -40.000000 and TNOM = -40.000000


No. of Data Rows : 67
                          ***************************
                          DC transfer characteristic  Mon Jan  9 13:58:25  2023
--------------------------------------------------------------------------------
Index   v-sweep         rds             
--------------------------------------------------------------------------------
0	0.000000e+00	4.620846e+04	
1	-5.00000e-02	5.479965e+04	
2	-1.00000e-01	6.725610e+04	
3	-1.50000e-01	8.682846e+04	
4	-2.00000e-01	1.214029e+05	
5	-2.50000e-01	1.937592e+05	
6	-3.00000e-01	3.796847e+05	
7	-3.50000e-01	9.146236e+05	
8	-4.00000e-01	2.292483e+06	
9	-4.50000e-01	5.094645e+06	
10	-5.00000e-01	9.656047e+06	
11	-5.50000e-01	1.591495e+07	
12	-6.00000e-01	2.350128e+07	
13	-6.50000e-01	3.192697e+07	
14	-7.00000e-01	4.074253e+07	
15	-7.50000e-01	4.960997e+07	
16	-8.00000e-01	5.831000e+07	
17	-8.50000e-01	6.671860e+07	
18	-9.00000e-01	7.477752e+07	
19	-9.50000e-01	8.246946e+07	
20	-1.00000e+00	8.980057e+07	
21	-1.05000e+00	9.678915e+07	
22	-1.10000e+00	1.034588e+08	
23	-1.15000e+00	1.098345e+08	
24	-1.20000e+00	1.159406e+08	
25	-1.25000e+00	1.218000e+08	
26	-1.30000e+00	1.274332e+08	
27	-1.35000e+00	1.328588e+08	
28	-1.40000e+00	1.380934e+08	
29	-1.45000e+00	1.431515e+08	
30	-1.50000e+00	1.480461e+08	
31	-1.55000e+00	1.527887e+08	
32	-1.60000e+00	1.573895e+08	
33	-1.65000e+00	1.618576e+08	
34	-1.70000e+00	1.662012e+08	
35	-1.75000e+00	1.704275e+08	
36	-1.80000e+00	1.745430e+08	
37	-1.85000e+00	1.785535e+08	
38	-1.90000e+00	1.824641e+08	
39	-1.95000e+00	1.862793e+08	
40	-2.00000e+00	1.900031e+08	
41	-2.05000e+00	1.936383e+08	
42	-2.10000e+00	1.971873e+08	
43	-2.15000e+00	2.006514e+08	
44	-2.20000e+00	2.040306e+08	
45	-2.25000e+00	2.073235e+08	
46	-2.30000e+00	2.105270e+08	
47	-2.35000e+00	2.136359e+08	
48	-2.40000e+00	2.166426e+08	
49	-2.45000e+00	2.195365e+08	
50	-2.50000e+00	2.223036e+08	
51	-2.55000e+00	2.249264e+08	
52	-2.60000e+00	2.273829e+08	
53	-2.65000e+00	2.296468e+08	
54	-2.70000e+00	2.316867e+08	

Index   v-sweep         rds             
--------------------------------------------------------------------------------
55	-2.75000e+00	2.334668e+08	
56	-2.80000e+00	2.349462e+08	
57	-2.85000e+00	2.360799e+08	
58	-2.90000e+00	2.368192e+08	
59	-2.95000e+00	2.371130e+08	
60	-3.00000e+00	2.369093e+08	
61	-3.05000e+00	2.361574e+08	
62	-3.10000e+00	2.348098e+08	
63	-3.15000e+00	2.328253e+08	
64	-3.20000e+00	2.301714e+08	
65	-3.25000e+00	2.268272e+08	
66	-3.30000e+00	2.227860e+08	
Reset re-loads circuit ***************************

Circuit: ***************************

Doing analysis at TEMP = -40.000000 and TNOM = -40.000000


No. of Data Rows : 67
                          ***************************
                          DC transfer characteristic  Mon Jan  9 13:58:25  2023
--------------------------------------------------------------------------------
Index   v-sweep         rds             
--------------------------------------------------------------------------------
0	0.000000e+00	2.330221e+04	
1	-5.00000e-02	2.521332e+04	
2	-1.00000e-01	2.746400e+04	
3	-1.50000e-01	3.015317e+04	
4	-2.00000e-01	3.342202e+04	
5	-2.50000e-01	3.747894e+04	
6	-3.00000e-01	4.264407e+04	
7	-3.50000e-01	4.943361e+04	
8	-4.00000e-01	5.872968e+04	
9	-4.50000e-01	7.214919e+04	
10	-5.00000e-01	9.290756e+04	
11	-5.50000e-01	1.279749e+05	
12	-6.00000e-01	1.935040e+05	
13	-6.50000e-01	3.267218e+05	
14	-7.00000e-01	6.020151e+05	
15	-7.50000e-01	1.129629e+06	
16	-8.00000e-01	2.016112e+06	
17	-8.50000e-01	3.312964e+06	
18	-9.00000e-01	4.997100e+06	
19	-9.50000e-01	6.989690e+06	
20	-1.00000e+00	9.190590e+06	
21	-1.05000e+00	1.150632e+07	
22	-1.10000e+00	1.386374e+07	
23	-1.15000e+00	1.621237e+07	
24	-1.20000e+00	1.852081e+07	
25	-1.25000e+00	2.077165e+07	
26	-1.30000e+00	2.295680e+07	
27	-1.35000e+00	2.507400e+07	
28	-1.40000e+00	2.712438e+07	
29	-1.45000e+00	2.911088e+07	
30	-1.50000e+00	3.103729e+07	
31	-1.55000e+00	3.290770e+07	
32	-1.60000e+00	3.472612e+07	
33	-1.65000e+00	3.649638e+07	
34	-1.70000e+00	3.822198e+07	
35	-1.75000e+00	3.990612e+07	
36	-1.80000e+00	4.155168e+07	
37	-1.85000e+00	4.316124e+07	
38	-1.90000e+00	4.473710e+07	
39	-1.95000e+00	4.628132e+07	
40	-2.00000e+00	4.779573e+07	
41	-2.05000e+00	4.928199e+07	
42	-2.10000e+00	5.074154e+07	
43	-2.15000e+00	5.217570e+07	
44	-2.20000e+00	5.358561e+07	
45	-2.25000e+00	5.497225e+07	
46	-2.30000e+00	5.633644e+07	
47	-2.35000e+00	5.767881e+07	
48	-2.40000e+00	5.899977e+07	
49	-2.45000e+00	6.029942e+07	
50	-2.50000e+00	6.157754e+07	
51	-2.55000e+00	6.283343e+07	
52	-2.60000e+00	6.406587e+07	
53	-2.65000e+00	6.527291e+07	
54	-2.70000e+00	6.645175e+07	

Index   v-sweep         rds             
--------------------------------------------------------------------------------
55	-2.75000e+00	6.759857e+07	
56	-2.80000e+00	6.870830e+07	
57	-2.85000e+00	6.977448e+07	
58	-2.90000e+00	7.078897e+07	
59	-2.95000e+00	7.174187e+07	
60	-3.00000e+00	7.262129e+07	
61	-3.05000e+00	7.341330e+07	
62	-3.10000e+00	7.410190e+07	
63	-3.15000e+00	7.466916e+07	
64	-3.20000e+00	7.509548e+07	
65	-3.25000e+00	7.536001e+07	
66	-3.30000e+00	7.544132e+07	
Reset re-loads circuit ***************************

Circuit: ***************************

Doing analysis at TEMP = -40.000000 and TNOM = -40.000000


No. of Data Rows : 67
                          ***************************
                          DC transfer characteristic  Mon Jan  9 13:58:25  2023
--------------------------------------------------------------------------------
Index   v-sweep         rds             
--------------------------------------------------------------------------------
0	0.000000e+00	1.633607e+04	
1	-5.00000e-02	1.717766e+04	
2	-1.00000e-01	1.811013e+04	
3	-1.50000e-01	1.914903e+04	
4	-2.00000e-01	2.031364e+04	
5	-2.50000e-01	2.162821e+04	
6	-3.00000e-01	2.312360e+04	
7	-3.50000e-01	2.483976e+04	
8	-4.00000e-01	2.682923e+04	
9	-4.50000e-01	2.916255e+04	
10	-5.00000e-01	3.193655e+04	
11	-5.50000e-01	3.528763e+04	
12	-6.00000e-01	3.941382e+04	
13	-6.50000e-01	4.461280e+04	
14	-7.00000e-01	5.135055e+04	
15	-7.50000e-01	6.039134e+04	
16	-8.00000e-01	7.305611e+04	
17	-8.50000e-01	9.175774e+04	
18	-9.00000e-01	1.211293e+05	
19	-9.50000e-01	1.703054e+05	
20	-1.00000e+00	2.568072e+05	
21	-1.05000e+00	4.105777e+05	
22	-1.10000e+00	6.726147e+05	
23	-1.15000e+00	1.083120e+06	
24	-1.20000e+00	1.664720e+06	
25	-1.25000e+00	2.413425e+06	
26	-1.30000e+00	3.302512e+06	
27	-1.35000e+00	4.293914e+06	
28	-1.40000e+00	5.349250e+06	
29	-1.45000e+00	6.436427e+06	
30	-1.50000e+00	7.531772e+06	
31	-1.55000e+00	8.619454e+06	
32	-1.60000e+00	9.689808e+06	
33	-1.65000e+00	1.073755e+07	
34	-1.70000e+00	1.176031e+07	
35	-1.75000e+00	1.275751e+07	
36	-1.80000e+00	1.372967e+07	
37	-1.85000e+00	1.467787e+07	
38	-1.90000e+00	1.560348e+07	
39	-1.95000e+00	1.650795e+07	
40	-2.00000e+00	1.739275e+07	
41	-2.05000e+00	1.825923e+07	
42	-2.10000e+00	1.910868e+07	
43	-2.15000e+00	1.994226e+07	
44	-2.20000e+00	2.076102e+07	
45	-2.25000e+00	2.156593e+07	
46	-2.30000e+00	2.235781e+07	
47	-2.35000e+00	2.313745e+07	
48	-2.40000e+00	2.390552e+07	
49	-2.45000e+00	2.466262e+07	
50	-2.50000e+00	2.540929e+07	
51	-2.55000e+00	2.614600e+07	
52	-2.60000e+00	2.687316e+07	
53	-2.65000e+00	2.759107e+07	
54	-2.70000e+00	2.829999e+07	

Index   v-sweep         rds             
--------------------------------------------------------------------------------
55	-2.75000e+00	2.900002e+07	
56	-2.80000e+00	2.969115e+07	
57	-2.85000e+00	3.037320e+07	
58	-2.90000e+00	3.104574e+07	
59	-2.95000e+00	3.170806e+07	
60	-3.00000e+00	3.235909e+07	
61	-3.05000e+00	3.299730e+07	
62	-3.10000e+00	3.362059e+07	
63	-3.15000e+00	3.422622e+07	
64	-3.20000e+00	3.481065e+07	
65	-3.25000e+00	3.536945e+07	
66	-3.30000e+00	3.589716e+07	
Reset re-loads circuit ***************************

Circuit: ***************************

Doing analysis at TEMP = -40.000000 and TNOM = -40.000000


No. of Data Rows : 67
                          ***************************
                          DC transfer characteristic  Mon Jan  9 13:58:25  2023
--------------------------------------------------------------------------------
Index   v-sweep         rds             
--------------------------------------------------------------------------------
0	0.000000e+00	1.306900e+04	
1	-5.00000e-02	1.355251e+04	
2	-1.00000e-01	1.407290e+04	
3	-1.50000e-01	1.463458e+04	
4	-2.00000e-01	1.524265e+04	
5	-2.50000e-01	1.590309e+04	
6	-3.00000e-01	1.662298e+04	
7	-3.50000e-01	1.741071e+04	
8	-4.00000e-01	1.827632e+04	
9	-4.50000e-01	1.923195e+04	
10	-5.00000e-01	2.029238e+04	
11	-5.50000e-01	2.147581e+04	
12	-6.00000e-01	2.280486e+04	
13	-6.50000e-01	2.430809e+04	
14	-7.00000e-01	2.602193e+04	
15	-7.50000e-01	2.799370e+04	
16	-8.00000e-01	3.028585e+04	
17	-8.50000e-01	3.298245e+04	
18	-9.00000e-01	3.619925e+04	
19	-9.50000e-01	4.009965e+04	
20	-1.00000e+00	4.492106e+04	
21	-1.05000e+00	5.101964e+04	
22	-1.10000e+00	5.894943e+04	
23	-1.15000e+00	6.960634e+04	
24	-1.20000e+00	8.449705e+04	
25	-1.25000e+00	1.062434e+05	
26	-1.30000e+00	1.394913e+05	
27	-1.35000e+00	1.923481e+05	
28	-1.40000e+00	2.779995e+05	
29	-1.45000e+00	4.149948e+05	
30	-1.50000e+00	6.240088e+05	
31	-1.55000e+00	9.211016e+05	
32	-1.60000e+00	1.311420e+06	
33	-1.65000e+00	1.787603e+06	
34	-1.70000e+00	2.333212e+06	
35	-1.75000e+00	2.928235e+06	
36	-1.80000e+00	3.553677e+06	
37	-1.85000e+00	4.194042e+06	
38	-1.90000e+00	4.837977e+06	
39	-1.95000e+00	5.477858e+06	
40	-2.00000e+00	6.108973e+06	
41	-2.05000e+00	6.728696e+06	
42	-2.10000e+00	7.335800e+06	
43	-2.15000e+00	7.929949e+06	
44	-2.20000e+00	8.511343e+06	
45	-2.25000e+00	9.080485e+06	
46	-2.30000e+00	9.638033e+06	
47	-2.35000e+00	1.018470e+07	
48	-2.40000e+00	1.072121e+07	
49	-2.45000e+00	1.124824e+07	
50	-2.50000e+00	1.176645e+07	
51	-2.55000e+00	1.227643e+07	
52	-2.60000e+00	1.277872e+07	
53	-2.65000e+00	1.327381e+07	
54	-2.70000e+00	1.376214e+07	

Index   v-sweep         rds             
--------------------------------------------------------------------------------
55	-2.75000e+00	1.424409e+07	
56	-2.80000e+00	1.472004e+07	
57	-2.85000e+00	1.519028e+07	
58	-2.90000e+00	1.565509e+07	
59	-2.95000e+00	1.611471e+07	
60	-3.00000e+00	1.656933e+07	
61	-3.05000e+00	1.701910e+07	
62	-3.10000e+00	1.746411e+07	
63	-3.15000e+00	1.790437e+07	
64	-3.20000e+00	1.833979e+07	
65	-3.25000e+00	1.877017e+07	
66	-3.30000e+00	1.919514e+07	
Reset re-loads circuit ***************************

Circuit: ***************************

Doing analysis at TEMP = -40.000000 and TNOM = -40.000000


No. of Data Rows : 67
                          ***************************
                          DC transfer characteristic  Mon Jan  9 13:58:25  2023
--------------------------------------------------------------------------------
Index   v-sweep         rds             
--------------------------------------------------------------------------------
0	0.000000e+00	1.121488e+04	
1	-5.00000e-02	1.153421e+04	
2	-1.00000e-01	1.187211e+04	
3	-1.50000e-01	1.223023e+04	
4	-2.00000e-01	1.261047e+04	
5	-2.50000e-01	1.301492e+04	
6	-3.00000e-01	1.344597e+04	
7	-3.50000e-01	1.390635e+04	
8	-4.00000e-01	1.439913e+04	
9	-4.50000e-01	1.492787e+04	
10	-5.00000e-01	1.549665e+04	
11	-5.50000e-01	1.611019e+04	
12	-6.00000e-01	1.677398e+04	
13	-6.50000e-01	1.749445e+04	
14	-7.00000e-01	1.827918e+04	
15	-7.50000e-01	1.913713e+04	
16	-8.00000e-01	2.007905e+04	
17	-8.50000e-01	2.111785e+04	
18	-9.00000e-01	2.226924e+04	
19	-9.50000e-01	2.355250e+04	
20	-1.00000e+00	2.499155e+04	
21	-1.05000e+00	2.661641e+04	
22	-1.10000e+00	2.846527e+04	
23	-1.15000e+00	3.058742e+04	
24	-1.20000e+00	3.304751e+04	
25	-1.25000e+00	3.593190e+04	
26	-1.30000e+00	3.935834e+04	
27	-1.35000e+00	4.349100e+04	
28	-1.40000e+00	4.856460e+04	
29	-1.45000e+00	5.492418e+04	
30	-1.50000e+00	6.309199e+04	
31	-1.55000e+00	7.388264e+04	
32	-1.60000e+00	8.860243e+04	
33	-1.65000e+00	1.093886e+05	
34	-1.70000e+00	1.397500e+05	
35	-1.75000e+00	1.852977e+05	
36	-1.80000e+00	2.543867e+05	
37	-1.85000e+00	3.579257e+05	
38	-1.90000e+00	5.074947e+05	
39	-1.95000e+00	7.119267e+05	
40	-2.00000e+00	9.741252e+05	
41	-2.05000e+00	1.290099e+06	
42	-2.10000e+00	1.650567e+06	
43	-2.15000e+00	2.043833e+06	
44	-2.20000e+00	2.458401e+06	
45	-2.25000e+00	2.884558e+06	
46	-2.30000e+00	3.314927e+06	
47	-2.35000e+00	3.744358e+06	
48	-2.40000e+00	4.169523e+06	
49	-2.45000e+00	4.588445e+06	
50	-2.50000e+00	5.000090e+06	
51	-2.55000e+00	5.404049e+06	
52	-2.60000e+00	5.800300e+06	
53	-2.65000e+00	6.189058e+06	
54	-2.70000e+00	6.570665e+06	

Index   v-sweep         rds             
--------------------------------------------------------------------------------
55	-2.75000e+00	6.945524e+06	
56	-2.80000e+00	7.314056e+06	
57	-2.85000e+00	7.676679e+06	
58	-2.90000e+00	8.033788e+06	
59	-2.95000e+00	8.385754e+06	
60	-3.00000e+00	8.732915e+06	
61	-3.05000e+00	9.075580e+06	
62	-3.10000e+00	9.414029e+06	
63	-3.15000e+00	9.748514e+06	
64	-3.20000e+00	1.007926e+07	
65	-3.25000e+00	1.040647e+07	
66	-3.30000e+00	1.073031e+07	
Reset re-loads circuit ***************************

Circuit: ***************************

Note: No ".plot", ".print", or ".fourier" lines; no simulations run
