
Note: Compatibility modes selected: hs

Warning: m=xx on .subckt line will override multiplier m hierarchy!


Circuit: ***************************

Doing analysis at TEMP = -40.000000 and TNOM = -40.000000


No. of Data Rows : 67
                          ***************************
                          DC transfer characteristic  Mon Jan  9 13:58:26  2023
--------------------------------------------------------------------------------
Index   v-sweep         rds             
--------------------------------------------------------------------------------
0	0.000000e+00	2.663358e+07	
1	-5.00000e-02	2.762327e+08	
2	-1.00000e-01	2.577921e+09	
3	-1.50000e-01	9.496151e+09	
4	-2.00000e-01	2.090190e+10	
5	-2.50000e-01	3.429304e+10	
6	-3.00000e-01	4.727341e+10	
7	-3.50000e-01	5.870384e+10	
8	-4.00000e-01	6.838771e+10	
9	-4.50000e-01	7.652616e+10	
10	-5.00000e-01	8.340996e+10	
11	-5.50000e-01	8.930384e+10	
12	-6.00000e-01	9.441912e+10	
13	-6.50000e-01	9.891681e+10	
14	-7.00000e-01	1.029180e+11	
15	-7.50000e-01	1.065138e+11	
16	-8.00000e-01	1.097738e+11	
17	-8.50000e-01	1.127514e+11	
18	-9.00000e-01	1.154885e+11	
19	-9.50000e-01	1.180184e+11	
20	-1.00000e+00	1.203678e+11	
21	-1.05000e+00	1.225586e+11	
22	-1.10000e+00	1.246088e+11	
23	-1.15000e+00	1.265335e+11	
24	-1.20000e+00	1.283455e+11	
25	-1.25000e+00	1.300556e+11	
26	-1.30000e+00	1.316732e+11	
27	-1.35000e+00	1.332065e+11	
28	-1.40000e+00	1.346624e+11	
29	-1.45000e+00	1.360472e+11	
30	-1.50000e+00	1.373665e+11	
31	-1.55000e+00	1.386250e+11	
32	-1.60000e+00	1.398272e+11	
33	-1.65000e+00	1.409767e+11	
34	-1.70000e+00	1.420772e+11	
35	-1.75000e+00	1.431314e+11	
36	-1.80000e+00	1.441420e+11	
37	-1.85000e+00	1.451112e+11	
38	-1.90000e+00	1.460407e+11	
39	-1.95000e+00	1.469319e+11	
40	-2.00000e+00	1.477854e+11	
41	-2.05000e+00	1.486018e+11	
42	-2.10000e+00	1.493806e+11	
43	-2.15000e+00	1.501211e+11	
44	-2.20000e+00	1.508215e+11	
45	-2.25000e+00	1.514796e+11	
46	-2.30000e+00	1.520922e+11	
47	-2.35000e+00	1.526552e+11	
48	-2.40000e+00	1.531637e+11	
49	-2.45000e+00	1.536115e+11	
50	-2.50000e+00	1.539918e+11	
51	-2.55000e+00	1.542966e+11	
52	-2.60000e+00	1.545169e+11	
53	-2.65000e+00	1.546429e+11	
54	-2.70000e+00	1.546637e+11	

Index   v-sweep         rds             
--------------------------------------------------------------------------------
55	-2.75000e+00	1.545679e+11	
56	-2.80000e+00	1.543436e+11	
57	-2.85000e+00	1.539784e+11	
58	-2.90000e+00	1.534599e+11	
59	-2.95000e+00	1.527758e+11	
60	-3.00000e+00	1.519146e+11	
61	-3.05000e+00	1.508655e+11	
62	-3.10000e+00	1.496191e+11	
63	-3.15000e+00	1.481677e+11	
64	-3.20000e+00	1.465055e+11	
65	-3.25000e+00	1.446292e+11	
66	-3.30000e+00	1.425383e+11	
Reset re-loads circuit ***************************

Circuit: ***************************

Doing analysis at TEMP = -40.000000 and TNOM = -40.000000


No. of Data Rows : 67
                          ***************************
                          DC transfer characteristic  Mon Jan  9 13:58:26  2023
--------------------------------------------------------------------------------
Index   v-sweep         rds             
--------------------------------------------------------------------------------
0	0.000000e+00	9.093441e+05	
1	-5.00000e-02	1.074314e+06	
2	-1.00000e-01	1.311231e+06	
3	-1.50000e-01	1.678368e+06	
4	-2.00000e-01	2.313473e+06	
5	-2.50000e-01	3.601479e+06	
6	-3.00000e-01	6.783967e+06	
7	-3.50000e-01	1.567114e+07	
8	-4.00000e-01	3.806018e+07	
9	-4.50000e-01	8.156540e+07	
10	-5.00000e-01	1.468253e+08	
11	-5.50000e-01	2.273917e+08	
12	-6.00000e-01	3.149131e+08	
13	-6.50000e-01	4.030778e+08	
14	-7.00000e-01	4.884205e+08	
15	-7.50000e-01	5.695529e+08	
16	-8.00000e-01	6.462334e+08	
17	-8.50000e-01	7.187384e+08	
18	-9.00000e-01	7.875231e+08	
19	-9.50000e-01	8.530634e+08	
20	-1.00000e+00	9.157926e+08	
21	-1.05000e+00	9.760821e+08	
22	-1.10000e+00	1.034242e+09	
23	-1.15000e+00	1.090528e+09	
24	-1.20000e+00	1.145149e+09	
25	-1.25000e+00	1.198279e+09	
26	-1.30000e+00	1.250061e+09	
27	-1.35000e+00	1.300612e+09	
28	-1.40000e+00	1.350034e+09	
29	-1.45000e+00	1.398410e+09	
30	-1.50000e+00	1.445811e+09	
31	-1.55000e+00	1.492299e+09	
32	-1.60000e+00	1.537928e+09	
33	-1.65000e+00	1.582743e+09	
34	-1.70000e+00	1.626785e+09	
35	-1.75000e+00	1.670090e+09	
36	-1.80000e+00	1.712689e+09	
37	-1.85000e+00	1.754610e+09	
38	-1.90000e+00	1.795877e+09	
39	-1.95000e+00	1.836508e+09	
40	-2.00000e+00	1.876520e+09	
41	-2.05000e+00	1.915923e+09	
42	-2.10000e+00	1.954718e+09	
43	-2.15000e+00	1.992900e+09	
44	-2.20000e+00	2.030454e+09	
45	-2.25000e+00	2.067350e+09	
46	-2.30000e+00	2.103539e+09	
47	-2.35000e+00	2.138954e+09	
48	-2.40000e+00	2.173500e+09	
49	-2.45000e+00	2.207054e+09	
50	-2.50000e+00	2.239454e+09	
51	-2.55000e+00	2.270497e+09	
52	-2.60000e+00	2.299936e+09	
53	-2.65000e+00	2.327471e+09	
54	-2.70000e+00	2.352746e+09	

Index   v-sweep         rds             
--------------------------------------------------------------------------------
55	-2.75000e+00	2.375350e+09	
56	-2.80000e+00	2.394817e+09	
57	-2.85000e+00	2.410628e+09	
58	-2.90000e+00	2.422220e+09	
59	-2.95000e+00	2.429000e+09	
60	-3.00000e+00	2.430359e+09	
61	-3.05000e+00	2.425700e+09	
62	-3.10000e+00	2.414463e+09	
63	-3.15000e+00	2.396155e+09	
64	-3.20000e+00	2.370389e+09	
65	-3.25000e+00	2.336912e+09	
66	-3.30000e+00	2.295635e+09	
Reset re-loads circuit ***************************

Circuit: ***************************

Doing analysis at TEMP = -40.000000 and TNOM = -40.000000


No. of Data Rows : 67
                          ***************************
                          DC transfer characteristic  Mon Jan  9 13:58:26  2023
--------------------------------------------------------------------------------
Index   v-sweep         rds             
--------------------------------------------------------------------------------
0	0.000000e+00	4.473581e+05	
1	-5.00000e-02	4.837773e+05	
2	-1.00000e-01	5.265946e+05	
3	-1.50000e-01	5.776510e+05	
4	-2.00000e-01	6.395638e+05	
5	-2.50000e-01	7.161770e+05	
6	-3.00000e-01	8.133624e+05	
7	-3.50000e-01	9.405190e+05	
8	-4.00000e-01	1.113565e+06	
9	-4.50000e-01	1.361348e+06	
10	-5.00000e-01	1.740401e+06	
11	-5.50000e-01	2.371027e+06	
12	-6.00000e-01	3.525558e+06	
13	-6.50000e-01	5.811879e+06	
14	-7.00000e-01	1.037582e+07	
15	-7.50000e-01	1.868619e+07	
16	-8.00000e-01	3.163180e+07	
17	-8.50000e-01	4.880852e+07	
18	-9.00000e-01	6.884106e+07	
19	-9.50000e-01	9.021633e+07	
20	-1.00000e+00	1.118138e+08	
21	-1.05000e+00	1.329917e+08	
22	-1.10000e+00	1.534625e+08	
23	-1.15000e+00	1.731464e+08	
24	-1.20000e+00	1.920669e+08	
25	-1.25000e+00	2.102904e+08	
26	-1.30000e+00	2.278951e+08	
27	-1.35000e+00	2.449568e+08	
28	-1.40000e+00	2.615434e+08	
29	-1.45000e+00	2.777131e+08	
30	-1.50000e+00	2.935149e+08	
31	-1.55000e+00	3.089900e+08	
32	-1.60000e+00	3.241724e+08	
33	-1.65000e+00	3.390909e+08	
34	-1.70000e+00	3.537691e+08	
35	-1.75000e+00	3.682270e+08	
36	-1.80000e+00	3.824817e+08	
37	-1.85000e+00	3.965474e+08	
38	-1.90000e+00	4.104363e+08	
39	-1.95000e+00	4.241590e+08	
40	-2.00000e+00	4.377246e+08	
41	-2.05000e+00	4.511409e+08	
42	-2.10000e+00	4.644147e+08	
43	-2.15000e+00	4.775519e+08	
44	-2.20000e+00	4.905573e+08	
45	-2.25000e+00	5.034350e+08	
46	-2.30000e+00	5.161877e+08	
47	-2.35000e+00	5.288170e+08	
48	-2.40000e+00	5.413228e+08	
49	-2.45000e+00	5.537027e+08	
50	-2.50000e+00	5.659514e+08	
51	-2.55000e+00	5.780600e+08	
52	-2.60000e+00	5.900148e+08	
53	-2.65000e+00	6.017957e+08	
54	-2.70000e+00	6.133754e+08	

Index   v-sweep         rds             
--------------------------------------------------------------------------------
55	-2.75000e+00	6.247170e+08	
56	-2.80000e+00	6.357724e+08	
57	-2.85000e+00	6.464806e+08	
58	-2.90000e+00	6.567649e+08	
59	-2.95000e+00	6.665320e+08	
60	-3.00000e+00	6.756695e+08	
61	-3.05000e+00	6.840451e+08	
62	-3.10000e+00	6.915062e+08	
63	-3.15000e+00	6.978805e+08	
64	-3.20000e+00	7.029782e+08	
65	-3.25000e+00	7.065952e+08	
66	-3.30000e+00	7.085197e+08	
Reset re-loads circuit ***************************

Circuit: ***************************

Doing analysis at TEMP = -40.000000 and TNOM = -40.000000


No. of Data Rows : 67
                          ***************************
                          DC transfer characteristic  Mon Jan  9 13:58:26  2023
--------------------------------------------------------------------------------
Index   v-sweep         rds             
--------------------------------------------------------------------------------
0	0.000000e+00	3.032214e+05	
1	-5.00000e-02	3.188213e+05	
2	-1.00000e-01	3.360950e+05	
3	-1.50000e-01	3.553269e+05	
4	-2.00000e-01	3.768693e+05	
5	-2.50000e-01	4.011643e+05	
6	-3.00000e-01	4.287742e+05	
7	-3.50000e-01	4.604246e+05	
8	-4.00000e-01	4.970683e+05	
9	-4.50000e-01	5.399811e+05	
10	-5.00000e-01	5.909087e+05	
11	-5.50000e-01	6.523022e+05	
12	-6.00000e-01	7.277046e+05	
13	-6.50000e-01	8.224150e+05	
14	-7.00000e-01	9.446764e+05	
15	-7.50000e-01	1.107901e+06	
16	-8.00000e-01	1.335031e+06	
17	-8.50000e-01	1.667385e+06	
18	-9.00000e-01	2.182715e+06	
19	-9.50000e-01	3.029603e+06	
20	-1.00000e+00	4.478360e+06	
21	-1.05000e+00	6.947448e+06	
22	-1.10000e+00	1.090305e+07	
23	-1.15000e+00	1.660582e+07	
24	-1.20000e+00	2.392073e+07	
25	-1.25000e+00	3.239643e+07	
26	-1.30000e+00	4.150534e+07	
27	-1.35000e+00	5.082375e+07	
28	-1.40000e+00	6.008294e+07	
29	-1.45000e+00	6.914298e+07	
30	-1.50000e+00	7.794768e+07	
31	-1.55000e+00	8.648752e+07	
32	-1.60000e+00	9.477577e+07	
33	-1.65000e+00	1.028349e+08	
34	-1.70000e+00	1.106896e+08	
35	-1.75000e+00	1.183634e+08	
36	-1.80000e+00	1.258775e+08	
37	-1.85000e+00	1.332502e+08	
38	-1.90000e+00	1.404971e+08	
39	-1.95000e+00	1.476316e+08	
40	-2.00000e+00	1.546648e+08	
41	-2.05000e+00	1.616061e+08	
42	-2.10000e+00	1.684634e+08	
43	-2.15000e+00	1.752436e+08	
44	-2.20000e+00	1.819524e+08	
45	-2.25000e+00	1.885947e+08	
46	-2.30000e+00	1.951746e+08	
47	-2.35000e+00	2.016958e+08	
48	-2.40000e+00	2.081615e+08	
49	-2.45000e+00	2.145743e+08	
50	-2.50000e+00	2.209365e+08	
51	-2.55000e+00	2.272499e+08	
52	-2.60000e+00	2.335162e+08	
53	-2.65000e+00	2.397363e+08	
54	-2.70000e+00	2.459105e+08	

Index   v-sweep         rds             
--------------------------------------------------------------------------------
55	-2.75000e+00	2.520385e+08	
56	-2.80000e+00	2.581190e+08	
57	-2.85000e+00	2.641490e+08	
58	-2.90000e+00	2.701242e+08	
59	-2.95000e+00	2.760375e+08	
60	-3.00000e+00	2.818792e+08	
61	-3.05000e+00	2.876356e+08	
62	-3.10000e+00	2.932886e+08	
63	-3.15000e+00	2.988145e+08	
64	-3.20000e+00	3.041828e+08	
65	-3.25000e+00	3.093556e+08	
66	-3.30000e+00	3.142860e+08	
Reset re-loads circuit ***************************

Circuit: ***************************

Doing analysis at TEMP = -40.000000 and TNOM = -40.000000


No. of Data Rows : 67
                          ***************************
                          DC transfer characteristic  Mon Jan  9 13:58:26  2023
--------------------------------------------------------------------------------
Index   v-sweep         rds             
--------------------------------------------------------------------------------
0	0.000000e+00	2.349123e+05	
1	-5.00000e-02	2.436455e+05	
2	-1.00000e-01	2.530438e+05	
3	-1.50000e-01	2.631862e+05	
4	-2.00000e-01	2.741647e+05	
5	-2.50000e-01	2.860869e+05	
6	-3.00000e-01	2.990800e+05	
7	-3.50000e-01	3.132948e+05	
8	-4.00000e-01	3.289118e+05	
9	-4.50000e-01	3.461490e+05	
10	-5.00000e-01	3.652716e+05	
11	-5.50000e-01	3.866062e+05	
12	-6.00000e-01	4.105587e+05	
13	-6.50000e-01	4.376405e+05	
14	-7.00000e-01	4.685045e+05	
15	-7.50000e-01	5.039970e+05	
16	-8.00000e-01	5.452341e+05	
17	-8.50000e-01	5.937170e+05	
18	-9.00000e-01	6.515088e+05	
19	-9.50000e-01	7.215168e+05	
20	-1.00000e+00	8.079536e+05	
21	-1.05000e+00	9.171183e+05	
22	-1.10000e+00	1.058759e+06	
23	-1.15000e+00	1.248520e+06	
24	-1.20000e+00	1.512382e+06	
25	-1.25000e+00	1.894626e+06	
26	-1.30000e+00	2.470894e+06	
27	-1.35000e+00	3.364895e+06	
28	-1.40000e+00	4.755671e+06	
29	-1.45000e+00	6.846107e+06	
30	-1.50000e+00	9.777657e+06	
31	-1.55000e+00	1.354360e+07	
32	-1.60000e+00	1.798382e+07	
33	-1.65000e+00	2.286354e+07	
34	-1.70000e+00	2.796171e+07	
35	-1.75000e+00	3.311637e+07	
36	-1.80000e+00	3.822856e+07	
37	-1.85000e+00	4.324724e+07	
38	-1.90000e+00	4.815193e+07	
39	-1.95000e+00	5.293942e+07	
40	-2.00000e+00	5.761512e+07	
41	-2.05000e+00	6.218817e+07	
42	-2.10000e+00	6.666873e+07	
43	-2.15000e+00	7.106669e+07	
44	-2.20000e+00	7.539104e+07	
45	-2.25000e+00	7.964973e+07	
46	-2.30000e+00	8.384963e+07	
47	-2.35000e+00	8.799664e+07	
48	-2.40000e+00	9.209579e+07	
49	-2.45000e+00	9.615136e+07	
50	-2.50000e+00	1.001670e+08	
51	-2.55000e+00	1.041459e+08	
52	-2.60000e+00	1.080907e+08	
53	-2.65000e+00	1.120036e+08	
54	-2.70000e+00	1.158867e+08	

Index   v-sweep         rds             
--------------------------------------------------------------------------------
55	-2.75000e+00	1.197417e+08	
56	-2.80000e+00	1.235701e+08	
57	-2.85000e+00	1.273730e+08	
58	-2.90000e+00	1.311517e+08	
59	-2.95000e+00	1.349068e+08	
60	-3.00000e+00	1.386390e+08	
61	-3.05000e+00	1.423485e+08	
62	-3.10000e+00	1.460352e+08	
63	-3.15000e+00	1.496984e+08	
64	-3.20000e+00	1.533368e+08	
65	-3.25000e+00	1.569480e+08	
66	-3.30000e+00	1.605284e+08	
Reset re-loads circuit ***************************

Circuit: ***************************

Doing analysis at TEMP = -40.000000 and TNOM = -40.000000


No. of Data Rows : 67
                          ***************************
                          DC transfer characteristic  Mon Jan  9 13:58:26  2023
--------------------------------------------------------------------------------
Index   v-sweep         rds             
--------------------------------------------------------------------------------
0	0.000000e+00	1.955892e+05	
1	-5.00000e-02	2.012198e+05	
2	-1.00000e-01	2.071787e+05	
3	-1.50000e-01	2.134952e+05	
4	-2.00000e-01	2.202028e+05	
5	-2.50000e-01	2.273387e+05	
6	-3.00000e-01	2.349454e+05	
7	-3.50000e-01	2.430710e+05	
8	-4.00000e-01	2.517704e+05	
9	-4.50000e-01	2.611067e+05	
10	-5.00000e-01	2.711522e+05	
11	-5.50000e-01	2.819911e+05	
12	-6.00000e-01	2.937208e+05	
13	-6.50000e-01	3.064560e+05	
14	-7.00000e-01	3.203314e+05	
15	-7.50000e-01	3.355070e+05	
16	-8.00000e-01	3.521741e+05	
17	-8.50000e-01	3.705633e+05	
18	-9.00000e-01	3.909551e+05	
19	-9.50000e-01	4.136942e+05	
20	-1.00000e+00	4.392082e+05	
21	-1.05000e+00	4.680350e+05	
22	-1.10000e+00	5.008592e+05	
23	-1.15000e+00	5.385653e+05	
24	-1.20000e+00	5.823151e+05	
25	-1.25000e+00	6.336623e+05	
26	-1.30000e+00	6.947270e+05	
27	-1.35000e+00	7.684677e+05	
28	-1.40000e+00	8.591147e+05	
29	-1.45000e+00	9.728776e+05	
30	-1.50000e+00	1.119121e+06	
31	-1.55000e+00	1.312327e+06	
32	-1.60000e+00	1.575338e+06	
33	-1.65000e+00	1.944348e+06	
34	-1.70000e+00	2.475424e+06	
35	-1.75000e+00	3.249455e+06	
36	-1.80000e+00	4.367130e+06	
37	-1.85000e+00	5.923632e+06	
38	-1.90000e+00	7.966966e+06	
39	-1.95000e+00	1.046846e+07	
40	-2.00000e+00	1.333210e+07	
41	-2.05000e+00	1.643385e+07	
42	-2.10000e+00	1.965998e+07	
43	-2.15000e+00	2.292617e+07	
44	-2.20000e+00	2.617890e+07	
45	-2.25000e+00	2.938875e+07	
46	-2.30000e+00	3.254231e+07	
47	-2.35000e+00	3.563566e+07	
48	-2.40000e+00	3.867009e+07	
49	-2.45000e+00	4.164933e+07	
50	-2.50000e+00	4.457809e+07	
51	-2.55000e+00	4.746121e+07	
52	-2.60000e+00	5.030329e+07	
53	-2.65000e+00	5.310846e+07	
54	-2.70000e+00	5.588041e+07	

Index   v-sweep         rds             
--------------------------------------------------------------------------------
55	-2.75000e+00	5.862232e+07	
56	-2.80000e+00	6.133698e+07	
57	-2.85000e+00	6.402675e+07	
58	-2.90000e+00	6.669369e+07	
59	-2.95000e+00	6.933957e+07	
60	-3.00000e+00	7.196591e+07	
61	-3.05000e+00	7.457402e+07	
62	-3.10000e+00	7.716505e+07	
63	-3.15000e+00	7.973997e+07	
64	-3.20000e+00	8.229964e+07	
65	-3.25000e+00	8.484477e+07	
66	-3.30000e+00	8.737596e+07	
Reset re-loads circuit ***************************

Circuit: ***************************

Note: No ".plot", ".print", or ".fourier" lines; no simulations run
