
Note: Compatibility modes selected: hs

Warning: m=xx on .subckt line will override multiplier m hierarchy!


Circuit: ***************************

Doing analysis at TEMP = -40.000000 and TNOM = -40.000000


No. of Data Rows : 67
                          ***************************
                          DC transfer characteristic  Mon Jan  9 13:58:26  2023
--------------------------------------------------------------------------------
Index   v-sweep         rds             
--------------------------------------------------------------------------------
0	0.000000e+00	2.638674e+07	
1	-5.00000e-02	2.808132e+08	
2	-1.00000e-01	2.664991e+09	
3	-1.50000e-01	1.027513e+10	
4	-2.00000e-01	2.431819e+10	
5	-2.50000e-01	4.323204e+10	
6	-3.00000e-01	6.403311e+10	
7	-3.50000e-01	8.414449e+10	
8	-4.00000e-01	1.021624e+11	
9	-4.50000e-01	1.176667e+11	
10	-5.00000e-01	1.307766e+11	
11	-5.50000e-01	1.418184e+11	
12	-6.00000e-01	1.511526e+11	
13	-6.50000e-01	1.591028e+11	
14	-7.00000e-01	1.659371e+11	
15	-7.50000e-01	1.718691e+11	
16	-8.00000e-01	1.770669e+11	
17	-8.50000e-01	1.816620e+11	
18	-9.00000e-01	1.857576e+11	
19	-9.50000e-01	1.894352e+11	
20	-1.00000e+00	1.927597e+11	
21	-1.05000e+00	1.957832e+11	
22	-1.10000e+00	1.985479e+11	
23	-1.15000e+00	2.010882e+11	
24	-1.20000e+00	2.034326e+11	
25	-1.25000e+00	2.056048e+11	
26	-1.30000e+00	2.076247e+11	
27	-1.35000e+00	2.095090e+11	
28	-1.40000e+00	2.112720e+11	
29	-1.45000e+00	2.129260e+11	
30	-1.50000e+00	2.144815e+11	
31	-1.55000e+00	2.159477e+11	
32	-1.60000e+00	2.173324e+11	
33	-1.65000e+00	2.186427e+11	
34	-1.70000e+00	2.198845e+11	
35	-1.75000e+00	2.210631e+11	
36	-1.80000e+00	2.221829e+11	
37	-1.85000e+00	2.232478e+11	
38	-1.90000e+00	2.242608e+11	
39	-1.95000e+00	2.252246e+11	
40	-2.00000e+00	2.261408e+11	
41	-2.05000e+00	2.270106e+11	
42	-2.10000e+00	2.278344e+11	
43	-2.15000e+00	2.286117e+11	
44	-2.20000e+00	2.293413e+11	
45	-2.25000e+00	2.300210e+11	
46	-2.30000e+00	2.306477e+11	
47	-2.35000e+00	2.312172e+11	
48	-2.40000e+00	2.317245e+11	
49	-2.45000e+00	2.321631e+11	
50	-2.50000e+00	2.325257e+11	
51	-2.55000e+00	2.328036e+11	
52	-2.60000e+00	2.329873e+11	
53	-2.65000e+00	2.330660e+11	
54	-2.70000e+00	2.330279e+11	

Index   v-sweep         rds             
--------------------------------------------------------------------------------
55	-2.75000e+00	2.328603e+11	
56	-2.80000e+00	2.325499e+11	
57	-2.85000e+00	2.320827e+11	
58	-2.90000e+00	2.314443e+11	
59	-2.95000e+00	2.306205e+11	
60	-3.00000e+00	2.295969e+11	
61	-3.05000e+00	2.283599e+11	
62	-3.10000e+00	2.268970e+11	
63	-3.15000e+00	2.251966e+11	
64	-3.20000e+00	2.232490e+11	
65	-3.25000e+00	2.210465e+11	
66	-3.30000e+00	2.185839e+11	
Reset re-loads circuit ***************************

Circuit: ***************************

Doing analysis at TEMP = -40.000000 and TNOM = -40.000000


No. of Data Rows : 67
                          ***************************
                          DC transfer characteristic  Mon Jan  9 13:58:26  2023
--------------------------------------------------------------------------------
Index   v-sweep         rds             
--------------------------------------------------------------------------------
0	0.000000e+00	9.401564e+05	
1	-5.00000e-02	1.117151e+06	
2	-1.00000e-01	1.374998e+06	
3	-1.50000e-01	1.782956e+06	
4	-2.00000e-01	2.511184e+06	
5	-2.50000e-01	4.058763e+06	
6	-3.00000e-01	8.103538e+06	
7	-3.50000e-01	1.981122e+07	
8	-4.00000e-01	4.971216e+07	
9	-4.50000e-01	1.097842e+08	
10	-5.00000e-01	2.066064e+08	
11	-5.50000e-01	3.385195e+08	
12	-6.00000e-01	4.976031e+08	
13	-6.50000e-01	6.736355e+08	
14	-7.00000e-01	8.572954e+08	
15	-7.50000e-01	1.041625e+09	
16	-8.00000e-01	1.222145e+09	
17	-8.50000e-01	1.396354e+09	
18	-9.00000e-01	1.563104e+09	
19	-9.50000e-01	1.722088e+09	
20	-1.00000e+00	1.873475e+09	
21	-1.05000e+00	2.017676e+09	
22	-1.10000e+00	2.155207e+09	
23	-1.15000e+00	2.286606e+09	
24	-1.20000e+00	2.412393e+09	
25	-1.25000e+00	2.533052e+09	
26	-1.30000e+00	2.649019e+09	
27	-1.35000e+00	2.760687e+09	
28	-1.40000e+00	2.868401e+09	
29	-1.45000e+00	2.972470e+09	
30	-1.50000e+00	3.073164e+09	
31	-1.55000e+00	3.170725e+09	
32	-1.60000e+00	3.265364e+09	
33	-1.65000e+00	3.357272e+09	
34	-1.70000e+00	3.446618e+09	
35	-1.75000e+00	3.533552e+09	
36	-1.80000e+00	3.618210e+09	
37	-1.85000e+00	3.700710e+09	
38	-1.90000e+00	3.781160e+09	
39	-1.95000e+00	3.859651e+09	
40	-2.00000e+00	3.936263e+09	
41	-2.05000e+00	4.011057e+09	
42	-2.10000e+00	4.084080e+09	
43	-2.15000e+00	4.155354e+09	
44	-2.20000e+00	4.224881e+09	
45	-2.25000e+00	4.292627e+09	
46	-2.30000e+00	4.358526e+09	
47	-2.35000e+00	4.422465e+09	
48	-2.40000e+00	4.484281e+09	
49	-2.45000e+00	4.543751e+09	
50	-2.50000e+00	4.600578e+09	
51	-2.55000e+00	4.654390e+09	
52	-2.60000e+00	4.704725e+09	
53	-2.65000e+00	4.751028e+09	
54	-2.70000e+00	4.792644e+09	

Index   v-sweep         rds             
--------------------------------------------------------------------------------
55	-2.75000e+00	4.828817e+09	
56	-2.80000e+00	4.858694e+09	
57	-2.85000e+00	4.881332e+09	
58	-2.90000e+00	4.895718e+09	
59	-2.95000e+00	4.900790e+09	
60	-3.00000e+00	4.895471e+09	
61	-3.05000e+00	4.878712e+09	
62	-3.10000e+00	4.849538e+09	
63	-3.15000e+00	4.807108e+09	
64	-3.20000e+00	4.750772e+09	
65	-3.25000e+00	4.680121e+09	
66	-3.30000e+00	4.595043e+09	
Reset re-loads circuit ***************************

Circuit: ***************************

Doing analysis at TEMP = -40.000000 and TNOM = -40.000000


No. of Data Rows : 67
                          ***************************
                          DC transfer characteristic  Mon Jan  9 13:58:26  2023
--------------------------------------------------------------------------------
Index   v-sweep         rds             
--------------------------------------------------------------------------------
0	0.000000e+00	4.631964e+05	
1	-5.00000e-02	5.015740e+05	
2	-1.00000e-01	5.468490e+05	
3	-1.50000e-01	6.010558e+05	
4	-2.00000e-01	6.671103e+05	
5	-2.50000e-01	7.493368e+05	
6	-3.00000e-01	8.544187e+05	
7	-3.50000e-01	9.932087e+05	
8	-4.00000e-01	1.184418e+06	
9	-4.50000e-01	1.462714e+06	
10	-5.00000e-01	1.897906e+06	
11	-5.50000e-01	2.643303e+06	
12	-6.00000e-01	4.057338e+06	
13	-6.50000e-01	6.962873e+06	
14	-7.00000e-01	1.296561e+07	
15	-7.50000e-01	2.434811e+07	
16	-8.00000e-01	4.319225e+07	
17	-8.50000e-01	7.037587e+07	
18	-9.00000e-01	1.052735e+08	
19	-9.50000e-01	1.461994e+08	
20	-1.00000e+00	1.911088e+08	
21	-1.05000e+00	2.381373e+08	
22	-1.10000e+00	2.858501e+08	
23	-1.15000e+00	3.332697e+08	
24	-1.20000e+00	3.797976e+08	
25	-1.25000e+00	4.251085e+08	
26	-1.30000e+00	4.690585e+08	
27	-1.35000e+00	5.116149e+08	
28	-1.40000e+00	5.528094e+08	
29	-1.45000e+00	5.927074e+08	
30	-1.50000e+00	6.313897e+08	
31	-1.55000e+00	6.689412e+08	
32	-1.60000e+00	7.054451e+08	
33	-1.65000e+00	7.409796e+08	
34	-1.70000e+00	7.756163e+08	
35	-1.75000e+00	8.094203e+08	
36	-1.80000e+00	8.424501e+08	
37	-1.85000e+00	8.747578e+08	
38	-1.90000e+00	9.063900e+08	
39	-1.95000e+00	9.373884e+08	
40	-2.00000e+00	9.677899e+08	
41	-2.05000e+00	9.976278e+08	
42	-2.10000e+00	1.026931e+09	
43	-2.15000e+00	1.055727e+09	
44	-2.20000e+00	1.084037e+09	
45	-2.25000e+00	1.111881e+09	
46	-2.30000e+00	1.139276e+09	
47	-2.35000e+00	1.166234e+09	
48	-2.40000e+00	1.192762e+09	
49	-2.45000e+00	1.218862e+09	
50	-2.50000e+00	1.244529e+09	
51	-2.55000e+00	1.269746e+09	
52	-2.60000e+00	1.294487e+09	
53	-2.65000e+00	1.318711e+09	
54	-2.70000e+00	1.342360e+09	

Index   v-sweep         rds             
--------------------------------------------------------------------------------
55	-2.75000e+00	1.365351e+09	
56	-2.80000e+00	1.387580e+09	
57	-2.85000e+00	1.408912e+09	
58	-2.90000e+00	1.429178e+09	
59	-2.95000e+00	1.448172e+09	
60	-3.00000e+00	1.465648e+09	
61	-3.05000e+00	1.481320e+09	
62	-3.10000e+00	1.494859e+09	
63	-3.15000e+00	1.505898e+09	
64	-3.20000e+00	1.514036e+09	
65	-3.25000e+00	1.518851e+09	
66	-3.30000e+00	1.519908e+09	
Reset re-loads circuit ***************************

Circuit: ***************************

Doing analysis at TEMP = -40.000000 and TNOM = -40.000000


No. of Data Rows : 67
                          ***************************
                          DC transfer characteristic  Mon Jan  9 13:58:26  2023
--------------------------------------------------------------------------------
Index   v-sweep         rds             
--------------------------------------------------------------------------------
0	0.000000e+00	3.184606e+05	
1	-5.00000e-02	3.350529e+05	
2	-1.00000e-01	3.534592e+05	
3	-1.50000e-01	3.739937e+05	
4	-2.00000e-01	3.970476e+05	
5	-2.50000e-01	4.231139e+05	
6	-3.00000e-01	4.528223e+05	
7	-3.50000e-01	4.869909e+05	
8	-4.00000e-01	5.267006e+05	
9	-4.50000e-01	5.734096e+05	
10	-5.00000e-01	6.291308e+05	
11	-5.50000e-01	6.967188e+05	
12	-6.00000e-01	7.803500e+05	
13	-6.50000e-01	8.863592e+05	
14	-7.00000e-01	1.024769e+06	
15	-7.50000e-01	1.212220e+06	
16	-8.00000e-01	1.477875e+06	
17	-8.50000e-01	1.875774e+06	
18	-9.00000e-01	2.510941e+06	
19	-9.50000e-01	3.591305e+06	
20	-1.00000e+00	5.510948e+06	
21	-1.05000e+00	8.920156e+06	
22	-1.10000e+00	1.465755e+07	
23	-1.15000e+00	2.347411e+07	
24	-1.20000e+00	3.571163e+07	
25	-1.25000e+00	5.117868e+07	
26	-1.30000e+00	6.927412e+07	
27	-1.35000e+00	8.922410e+07	
28	-1.40000e+00	1.102859e+08	
29	-1.45000e+00	1.318579e+08	
30	-1.50000e+00	1.535069e+08	
31	-1.55000e+00	1.749490e+08	
32	-1.60000e+00	1.960152e+08	
33	-1.65000e+00	2.166163e+08	
34	-1.70000e+00	2.367152e+08	
35	-1.75000e+00	2.563071e+08	
36	-1.80000e+00	2.754057e+08	
37	-1.85000e+00	2.940346e+08	
38	-1.90000e+00	3.122219e+08	
39	-1.95000e+00	3.299970e+08	
40	-2.00000e+00	3.473885e+08	
41	-2.05000e+00	3.644234e+08	
42	-2.10000e+00	3.811267e+08	
43	-2.15000e+00	3.975210e+08	
44	-2.20000e+00	4.136271e+08	
45	-2.25000e+00	4.294631e+08	
46	-2.30000e+00	4.450458e+08	
47	-2.35000e+00	4.603897e+08	
48	-2.40000e+00	4.755082e+08	
49	-2.45000e+00	4.904129e+08	
50	-2.50000e+00	5.051142e+08	
51	-2.55000e+00	5.196211e+08	
52	-2.60000e+00	5.339411e+08	
53	-2.65000e+00	5.480803e+08	
54	-2.70000e+00	5.620429e+08	

Index   v-sweep         rds             
--------------------------------------------------------------------------------
55	-2.75000e+00	5.758307e+08	
56	-2.80000e+00	5.894428e+08	
57	-2.85000e+00	6.028744e+08	
58	-2.90000e+00	6.161161e+08	
59	-2.95000e+00	6.291522e+08	
60	-3.00000e+00	6.419597e+08	
61	-3.05000e+00	6.545059e+08	
62	-3.10000e+00	6.667468e+08	
63	-3.15000e+00	6.786247e+08	
64	-3.20000e+00	6.900656e+08	
65	-3.25000e+00	7.009777e+08	
66	-3.30000e+00	7.112482e+08	
Reset re-loads circuit ***************************

Circuit: ***************************

Doing analysis at TEMP = -40.000000 and TNOM = -40.000000


No. of Data Rows : 67
                          ***************************
                          DC transfer characteristic  Mon Jan  9 13:58:26  2023
--------------------------------------------------------------------------------
Index   v-sweep         rds             
--------------------------------------------------------------------------------
0	0.000000e+00	2.507683e+05	
1	-5.00000e-02	2.601809e+05	
2	-1.00000e-01	2.703228e+05	
3	-1.50000e-01	2.812823e+05	
4	-2.00000e-01	2.931622e+05	
5	-2.50000e-01	3.060834e+05	
6	-3.00000e-01	3.201890e+05	
7	-3.50000e-01	3.356495e+05	
8	-4.00000e-01	3.526696e+05	
9	-4.50000e-01	3.714974e+05	
10	-5.00000e-01	3.924363e+05	
11	-5.50000e-01	4.158614e+05	
12	-6.00000e-01	4.422421e+05	
13	-6.50000e-01	4.721728e+05	
14	-7.00000e-01	5.064176e+05	
15	-7.50000e-01	5.459750e+05	
16	-8.00000e-01	5.921733e+05	
17	-8.50000e-01	6.468168e+05	
18	-9.00000e-01	7.124144e+05	
19	-9.50000e-01	7.925492e+05	
20	-1.00000e+00	8.924950e+05	
21	-1.05000e+00	1.020284e+06	
22	-1.10000e+00	1.188619e+06	
23	-1.15000e+00	1.418408e+06	
24	-1.20000e+00	1.745429e+06	
25	-1.25000e+00	2.232794e+06	
26	-1.30000e+00	2.992756e+06	
27	-1.35000e+00	4.218328e+06	
28	-1.40000e+00	6.210302e+06	
29	-1.45000e+00	9.360478e+06	
30	-1.50000e+00	1.405613e+07	
31	-1.55000e+00	2.053843e+07	
32	-1.60000e+00	2.880859e+07	
33	-1.65000e+00	3.864035e+07	
34	-1.70000e+00	4.967226e+07	
35	-1.75000e+00	6.151356e+07	
36	-1.80000e+00	7.381809e+07	
37	-1.85000e+00	8.631665e+07	
38	-1.90000e+00	9.881918e+07	
39	-1.95000e+00	1.112022e+08	
40	-2.00000e+00	1.233922e+08	
41	-2.05000e+00	1.353502e+08	
42	-2.10000e+00	1.470604e+08	
43	-2.15000e+00	1.585210e+08	
44	-2.20000e+00	1.697384e+08	
45	-2.25000e+00	1.807238e+08	
46	-2.30000e+00	1.914905e+08	
47	-2.35000e+00	2.020523e+08	
48	-2.40000e+00	2.124230e+08	
49	-2.45000e+00	2.226155e+08	
50	-2.50000e+00	2.326420e+08	
51	-2.55000e+00	2.425134e+08	
52	-2.60000e+00	2.522397e+08	
53	-2.65000e+00	2.618301e+08	
54	-2.70000e+00	2.712927e+08	

Index   v-sweep         rds             
--------------------------------------------------------------------------------
55	-2.75000e+00	2.806347e+08	
56	-2.80000e+00	2.898627e+08	
57	-2.85000e+00	2.989823e+08	
58	-2.90000e+00	3.079987e+08	
59	-2.95000e+00	3.169160e+08	
60	-3.00000e+00	3.257376e+08	
61	-3.05000e+00	3.344660e+08	
62	-3.10000e+00	3.431023e+08	
63	-3.15000e+00	3.516460e+08	
64	-3.20000e+00	3.600946e+08	
65	-3.25000e+00	3.684429e+08	
66	-3.30000e+00	3.766822e+08	
Reset re-loads circuit ***************************

Circuit: ***************************

Doing analysis at TEMP = -40.000000 and TNOM = -40.000000


No. of Data Rows : 67
                          ***************************
                          DC transfer characteristic  Mon Jan  9 13:58:26  2023
--------------------------------------------------------------------------------
Index   v-sweep         rds             
--------------------------------------------------------------------------------
0	0.000000e+00	2.114694e+05	
1	-5.00000e-02	2.175788e+05	
2	-1.00000e-01	2.240489e+05	
3	-1.50000e-01	2.309125e+05	
4	-2.00000e-01	2.382068e+05	
5	-2.50000e-01	2.459735e+05	
6	-3.00000e-01	2.542601e+05	
7	-3.50000e-01	2.631204e+05	
8	-4.00000e-01	2.726163e+05	
9	-4.50000e-01	2.828184e+05	
10	-5.00000e-01	2.938088e+05	
11	-5.50000e-01	3.056821e+05	
12	-6.00000e-01	3.185492e+05	
13	-6.50000e-01	3.325401e+05	
14	-7.00000e-01	3.478084e+05	
15	-7.50000e-01	3.645372e+05	
16	-8.00000e-01	3.829459e+05	
17	-8.50000e-01	4.033003e+05	
18	-9.00000e-01	4.259249e+05	
19	-9.50000e-01	4.512202e+05	
20	-1.00000e+00	4.796862e+05	
21	-1.05000e+00	5.119547e+05	
22	-1.10000e+00	5.488358e+05	
23	-1.15000e+00	5.913834e+05	
24	-1.20000e+00	6.409936e+05	
25	-1.25000e+00	6.995512e+05	
26	-1.30000e+00	7.696563e+05	
27	-1.35000e+00	8.549838e+05	
28	-1.40000e+00	9.608669e+05	
29	-1.45000e+00	1.095273e+06	
30	-1.50000e+00	1.270473e+06	
31	-1.55000e+00	1.505935e+06	
32	-1.60000e+00	1.833341e+06	
33	-1.65000e+00	2.304943e+06	
34	-1.70000e+00	3.006110e+06	
35	-1.75000e+00	4.069831e+06	
36	-1.80000e+00	5.683306e+06	
37	-1.85000e+00	8.068920e+06	
38	-1.90000e+00	1.143001e+07	
39	-1.95000e+00	1.588180e+07	
40	-2.00000e+00	2.140954e+07	
41	-2.05000e+00	2.787795e+07	
42	-2.10000e+00	3.507922e+07	
43	-2.15000e+00	4.278825e+07	
44	-2.20000e+00	5.080260e+07	
45	-2.25000e+00	5.896137e+07	
46	-2.30000e+00	6.714787e+07	
47	-2.35000e+00	7.528380e+07	
48	-2.40000e+00	8.332049e+07	
49	-2.45000e+00	9.123050e+07	
50	-2.50000e+00	9.900073e+07	
51	-2.55000e+00	1.066274e+08	
52	-2.60000e+00	1.141124e+08	
53	-2.65000e+00	1.214608e+08	
54	-2.70000e+00	1.286796e+08	

Index   v-sweep         rds             
--------------------------------------------------------------------------------
55	-2.75000e+00	1.357764e+08	
56	-2.80000e+00	1.427589e+08	
57	-2.85000e+00	1.496345e+08	
58	-2.90000e+00	1.564104e+08	
59	-2.95000e+00	1.630931e+08	
60	-3.00000e+00	1.696885e+08	
61	-3.05000e+00	1.762022e+08	
62	-3.10000e+00	1.826389e+08	
63	-3.15000e+00	1.890032e+08	
64	-3.20000e+00	1.952989e+08	
65	-3.25000e+00	2.015296e+08	
66	-3.30000e+00	2.076982e+08	
Reset re-loads circuit ***************************

Circuit: ***************************

Note: No ".plot", ".print", or ".fourier" lines; no simulations run
