
Note: Compatibility modes selected: hs

Warning: m=xx on .subckt line will override multiplier m hierarchy!


Circuit: ***************************

Doing analysis at TEMP = 125.000000 and TNOM = 125.000000


No. of Data Rows : 67
                          ***************************
                          DC transfer characteristic  Mon Jan  9 13:58:26  2023
--------------------------------------------------------------------------------
Index   v-sweep         rds             
--------------------------------------------------------------------------------
0	0.000000e+00	1.356195e+05	
1	-5.00000e-02	2.195454e+05	
2	-1.00000e-01	4.914123e+05	
3	-1.50000e-01	1.822123e+06	
4	-2.00000e-01	7.360721e+06	
5	-2.50000e-01	2.143526e+07	
6	-3.00000e-01	4.565240e+07	
7	-3.50000e-01	7.768328e+07	
8	-4.00000e-01	1.132961e+08	
9	-4.50000e-01	1.488318e+08	
10	-5.00000e-01	1.821811e+08	
11	-5.50000e-01	2.125461e+08	
12	-6.00000e-01	2.398846e+08	
13	-6.50000e-01	2.644839e+08	
14	-7.00000e-01	2.867259e+08	
15	-7.50000e-01	3.069813e+08	
16	-8.00000e-01	3.255718e+08	
17	-8.50000e-01	3.427634e+08	
18	-9.00000e-01	3.587711e+08	
19	-9.50000e-01	3.737678e+08	
20	-1.00000e+00	3.878920e+08	
21	-1.05000e+00	4.012555e+08	
22	-1.10000e+00	4.139493e+08	
23	-1.15000e+00	4.260478e+08	
24	-1.20000e+00	4.376126e+08	
25	-1.25000e+00	4.486951e+08	
26	-1.30000e+00	4.593386e+08	
27	-1.35000e+00	4.695801e+08	
28	-1.40000e+00	4.794512e+08	
29	-1.45000e+00	4.889793e+08	
30	-1.50000e+00	4.981883e+08	
31	-1.55000e+00	5.070993e+08	
32	-1.60000e+00	5.157308e+08	
33	-1.65000e+00	5.240990e+08	
34	-1.70000e+00	5.322184e+08	
35	-1.75000e+00	5.401016e+08	
36	-1.80000e+00	5.477593e+08	
37	-1.85000e+00	5.552006e+08	
38	-1.90000e+00	5.624323e+08	
39	-1.95000e+00	5.694590e+08	
40	-2.00000e+00	5.762828e+08	
41	-2.05000e+00	5.829024e+08	
42	-2.10000e+00	5.893129e+08	
43	-2.15000e+00	5.955052e+08	
44	-2.20000e+00	6.014648e+08	
45	-2.25000e+00	6.071716e+08	
46	-2.30000e+00	6.125983e+08	
47	-2.35000e+00	6.177105e+08	
48	-2.40000e+00	6.224650e+08	
49	-2.45000e+00	6.268099e+08	
50	-2.50000e+00	6.306833e+08	
51	-2.55000e+00	6.340140e+08	
52	-2.60000e+00	6.367206e+08	
53	-2.65000e+00	6.387129e+08	
54	-2.70000e+00	6.398924e+08	

Index   v-sweep         rds             
--------------------------------------------------------------------------------
55	-2.75000e+00	6.401546e+08	
56	-2.80000e+00	6.393910e+08	
57	-2.85000e+00	6.374924e+08	
58	-2.90000e+00	6.343532e+08	
59	-2.95000e+00	6.298752e+08	
60	-3.00000e+00	6.239736e+08	
61	-3.05000e+00	6.165812e+08	
62	-3.10000e+00	6.076541e+08	
63	-3.15000e+00	5.971758e+08	
64	-3.20000e+00	5.851609e+08	
65	-3.25000e+00	5.716570e+08	
66	-3.30000e+00	5.567452e+08	
Reset re-loads circuit ***************************

Circuit: ***************************

Doing analysis at TEMP = 125.000000 and TNOM = 125.000000


No. of Data Rows : 67
                          ***************************
                          DC transfer characteristic  Mon Jan  9 13:58:26  2023
--------------------------------------------------------------------------------
Index   v-sweep         rds             
--------------------------------------------------------------------------------
0	0.000000e+00	3.046599e+04	
1	-5.00000e-02	3.421614e+04	
2	-1.00000e-01	3.901029e+04	
3	-1.50000e-01	4.534934e+04	
4	-2.00000e-01	5.410706e+04	
5	-2.50000e-01	6.693766e+04	
6	-3.00000e-01	8.730951e+04	
7	-3.50000e-01	1.234285e+05	
8	-4.00000e-01	1.970941e+05	
9	-4.50000e-01	3.682075e+05	
10	-5.00000e-01	7.758775e+05	
11	-5.50000e-01	1.633406e+06	
12	-6.00000e-01	3.109625e+06	
13	-6.50000e-01	5.202856e+06	
14	-7.00000e-01	7.745877e+06	
15	-7.50000e-01	1.051220e+07	
16	-8.00000e-01	1.331226e+07	
17	-8.50000e-01	1.602811e+07	
18	-9.00000e-01	1.860412e+07	
19	-9.50000e-01	2.102466e+07	
20	-1.00000e+00	2.329511e+07	
21	-1.05000e+00	2.542980e+07	
22	-1.10000e+00	2.744552e+07	
23	-1.15000e+00	2.935841e+07	
24	-1.20000e+00	3.118281e+07	
25	-1.25000e+00	3.293093e+07	
26	-1.30000e+00	3.461297e+07	
27	-1.35000e+00	3.623735e+07	
28	-1.40000e+00	3.781102e+07	
29	-1.45000e+00	3.933973e+07	
30	-1.50000e+00	4.082820e+07	
31	-1.55000e+00	4.228039e+07	
32	-1.60000e+00	4.369959e+07	
33	-1.65000e+00	4.508860e+07	
34	-1.70000e+00	4.644975e+07	
35	-1.75000e+00	4.778505e+07	
36	-1.80000e+00	4.909622e+07	
37	-1.85000e+00	5.038474e+07	
38	-1.90000e+00	5.165189e+07	
39	-1.95000e+00	5.289876e+07	
40	-2.00000e+00	5.412631e+07	
41	-2.05000e+00	5.533529e+07	
42	-2.10000e+00	5.652632e+07	
43	-2.15000e+00	5.769982e+07	
44	-2.20000e+00	5.885596e+07	
45	-2.25000e+00	5.999466e+07	
46	-2.30000e+00	6.111547e+07	
47	-2.35000e+00	6.221749e+07	
48	-2.40000e+00	6.329924e+07	
49	-2.45000e+00	6.435856e+07	
50	-2.50000e+00	6.539243e+07	
51	-2.55000e+00	6.639679e+07	
52	-2.60000e+00	6.736635e+07	
53	-2.65000e+00	6.829443e+07	
54	-2.70000e+00	6.917273e+07	

Index   v-sweep         rds             
--------------------------------------------------------------------------------
55	-2.75000e+00	6.999116e+07	
56	-2.80000e+00	7.073776e+07	
57	-2.85000e+00	7.139859e+07	
58	-2.90000e+00	7.195775e+07	
59	-2.95000e+00	7.239755e+07	
60	-3.00000e+00	7.269881e+07	
61	-3.05000e+00	7.284128e+07	
62	-3.10000e+00	7.280442e+07	
63	-3.15000e+00	7.256818e+07	
64	-3.20000e+00	7.211412e+07	
65	-3.25000e+00	7.142657e+07	
66	-3.30000e+00	7.049387e+07	
Reset re-loads circuit ***************************

Circuit: ***************************

Doing analysis at TEMP = 125.000000 and TNOM = 125.000000


No. of Data Rows : 67
                          ***************************
                          DC transfer characteristic  Mon Jan  9 13:58:26  2023
--------------------------------------------------------------------------------
Index   v-sweep         rds             
--------------------------------------------------------------------------------
0	0.000000e+00	1.777736e+04	
1	-5.00000e-02	1.894659e+04	
2	-1.00000e-01	2.027936e+04	
3	-1.50000e-01	2.181245e+04	
4	-2.00000e-01	2.359456e+04	
5	-2.50000e-01	2.569145e+04	
6	-3.00000e-01	2.819409e+04	
7	-3.50000e-01	3.123184e+04	
8	-4.00000e-01	3.499475e+04	
9	-4.50000e-01	3.977282e+04	
10	-5.00000e-01	4.602918e+04	
11	-5.50000e-01	5.454389e+04	
12	-6.00000e-01	6.671512e+04	
13	-6.50000e-01	8.522665e+04	
14	-7.00000e-01	1.155805e+05	
15	-7.50000e-01	1.695076e+05	
16	-8.00000e-01	2.712198e+05	
17	-8.50000e-01	4.633777e+05	
18	-9.00000e-01	8.005490e+05	
19	-9.50000e-01	1.322461e+06	
20	-1.00000e+00	2.027135e+06	
21	-1.05000e+00	2.870897e+06	
22	-1.10000e+00	3.792214e+06	
23	-1.15000e+00	4.736086e+06	
24	-1.20000e+00	5.665158e+06	
25	-1.25000e+00	6.559349e+06	
26	-1.30000e+00	7.410829e+06	
27	-1.35000e+00	8.218930e+06	
28	-1.40000e+00	8.986526e+06	
29	-1.45000e+00	9.717870e+06	
30	-1.50000e+00	1.041746e+07	
31	-1.55000e+00	1.108949e+07	
32	-1.60000e+00	1.173767e+07	
33	-1.65000e+00	1.236517e+07	
34	-1.70000e+00	1.297465e+07	
35	-1.75000e+00	1.356836e+07	
36	-1.80000e+00	1.414813e+07	
37	-1.85000e+00	1.471552e+07	
38	-1.90000e+00	1.527181e+07	
39	-1.95000e+00	1.581808e+07	
40	-2.00000e+00	1.635525e+07	
41	-2.05000e+00	1.688407e+07	
42	-2.10000e+00	1.740520e+07	
43	-2.15000e+00	1.791920e+07	
44	-2.20000e+00	1.842654e+07	
45	-2.25000e+00	1.892763e+07	
46	-2.30000e+00	1.942280e+07	
47	-2.35000e+00	1.991236e+07	
48	-2.40000e+00	2.039653e+07	
49	-2.45000e+00	2.087547e+07	
50	-2.50000e+00	2.134929e+07	
51	-2.55000e+00	2.181798e+07	
52	-2.60000e+00	2.228146e+07	
53	-2.65000e+00	2.273945e+07	
54	-2.70000e+00	2.319153e+07	

Index   v-sweep         rds             
--------------------------------------------------------------------------------
55	-2.75000e+00	2.363703e+07	
56	-2.80000e+00	2.407497e+07	
57	-2.85000e+00	2.450402e+07	
58	-2.90000e+00	2.492241e+07	
59	-2.95000e+00	2.532780e+07	
60	-3.00000e+00	2.571729e+07	
61	-3.05000e+00	2.608722e+07	
62	-3.10000e+00	2.643319e+07	
63	-3.15000e+00	2.674993e+07	
64	-3.20000e+00	2.703130e+07	
65	-3.25000e+00	2.727031e+07	
66	-3.30000e+00	2.745917e+07	
Reset re-loads circuit ***************************

Circuit: ***************************

Doing analysis at TEMP = 125.000000 and TNOM = 125.000000


No. of Data Rows : 67
                          ***************************
                          DC transfer characteristic  Mon Jan  9 13:58:26  2023
--------------------------------------------------------------------------------
Index   v-sweep         rds             
--------------------------------------------------------------------------------
0	0.000000e+00	1.295924e+04	
1	-5.00000e-02	1.353050e+04	
2	-1.00000e-01	1.415403e+04	
3	-1.50000e-01	1.483734e+04	
4	-2.00000e-01	1.558944e+04	
5	-2.50000e-01	1.642126e+04	
6	-3.00000e-01	1.734617e+04	
7	-3.50000e-01	1.838067e+04	
8	-4.00000e-01	1.954544e+04	
9	-4.50000e-01	2.086662e+04	
10	-5.00000e-01	2.237788e+04	
11	-5.50000e-01	2.412318e+04	
12	-6.00000e-01	2.616104e+04	
13	-6.50000e-01	2.857103e+04	
14	-7.00000e-01	3.146395e+04	
15	-7.50000e-01	3.499843e+04	
16	-8.00000e-01	3.940882e+04	
17	-8.50000e-01	4.505415e+04	
18	-9.00000e-01	5.250745e+04	
19	-9.50000e-01	6.272527e+04	
20	-1.00000e+00	7.737969e+04	
21	-1.05000e+00	9.951222e+04	
22	-1.10000e+00	1.347588e+05	
23	-1.15000e+00	1.932703e+05	
24	-1.20000e+00	2.914425e+05	
25	-1.25000e+00	4.504543e+05	
26	-1.30000e+00	6.886595e+05	
27	-1.35000e+00	1.011209e+06	
28	-1.40000e+00	1.405913e+06	
29	-1.45000e+00	1.848991e+06	
30	-1.50000e+00	2.314964e+06	
31	-1.55000e+00	2.783636e+06	
32	-1.60000e+00	3.242165e+06	
33	-1.65000e+00	3.683995e+06	
34	-1.70000e+00	4.106824e+06	
35	-1.75000e+00	4.510799e+06	
36	-1.80000e+00	4.897276e+06	
37	-1.85000e+00	5.268079e+06	
38	-1.90000e+00	5.625099e+06	
39	-1.95000e+00	5.970102e+06	
40	-2.00000e+00	6.304655e+06	
41	-2.05000e+00	6.630112e+06	
42	-2.10000e+00	6.947621e+06	
43	-2.15000e+00	7.258149e+06	
44	-2.20000e+00	7.562508e+06	
45	-2.25000e+00	7.861380e+06	
46	-2.30000e+00	8.155337e+06	
47	-2.35000e+00	8.444861e+06	
48	-2.40000e+00	8.730359e+06	
49	-2.45000e+00	9.012178e+06	
50	-2.50000e+00	9.290612e+06	
51	-2.55000e+00	9.565911e+06	
52	-2.60000e+00	9.838290e+06	
53	-2.65000e+00	1.010793e+07	
54	-2.70000e+00	1.037499e+07	

Index   v-sweep         rds             
--------------------------------------------------------------------------------
55	-2.75000e+00	1.063958e+07	
56	-2.80000e+00	1.090180e+07	
57	-2.85000e+00	1.116170e+07	
58	-2.90000e+00	1.141930e+07	
59	-2.95000e+00	1.167455e+07	
60	-3.00000e+00	1.192735e+07	
61	-3.05000e+00	1.217747e+07	
62	-3.10000e+00	1.242461e+07	
63	-3.15000e+00	1.266827e+07	
64	-3.20000e+00	1.290780e+07	
65	-3.25000e+00	1.314229e+07	
66	-3.30000e+00	1.337058e+07	
Reset re-loads circuit ***************************

Circuit: ***************************

Doing analysis at TEMP = 125.000000 and TNOM = 125.000000


No. of Data Rows : 67
                          ***************************
                          DC transfer characteristic  Mon Jan  9 13:58:26  2023
--------------------------------------------------------------------------------
Index   v-sweep         rds             
--------------------------------------------------------------------------------
0	0.000000e+00	1.042847e+04	
1	-5.00000e-02	1.076924e+04	
2	-1.00000e-01	1.113280e+04	
3	-1.50000e-01	1.152153e+04	
4	-2.00000e-01	1.193813e+04	
5	-2.50000e-01	1.238570e+04	
6	-3.00000e-01	1.286784e+04	
7	-3.50000e-01	1.338870e+04	
8	-4.00000e-01	1.395314e+04	
9	-4.50000e-01	1.456686e+04	
10	-5.00000e-01	1.523660e+04	
11	-5.50000e-01	1.597038e+04	
12	-6.00000e-01	1.677783e+04	
13	-6.50000e-01	1.767061e+04	
14	-7.00000e-01	1.866295e+04	
15	-7.50000e-01	1.977242e+04	
16	-8.00000e-01	2.102099e+04	
17	-8.50000e-01	2.243640e+04	
18	-9.00000e-01	2.405426e+04	
19	-9.50000e-01	2.592093e+04	
20	-1.00000e+00	2.809791e+04	
21	-1.05000e+00	3.066839e+04	
22	-1.10000e+00	3.374740e+04	
23	-1.15000e+00	3.749805e+04	
24	-1.20000e+00	4.215824e+04	
25	-1.25000e+00	4.808578e+04	
26	-1.30000e+00	5.583688e+04	
27	-1.35000e+00	6.630561e+04	
28	-1.40000e+00	8.097227e+04	
29	-1.45000e+00	1.023318e+05	
30	-1.50000e+00	1.345571e+05	
31	-1.55000e+00	1.842656e+05	
32	-1.60000e+00	2.607255e+05	
33	-1.65000e+00	3.742640e+05	
34	-1.70000e+00	5.323702e+05	
35	-1.75000e+00	7.355450e+05	
36	-1.80000e+00	9.763077e+05	
37	-1.85000e+00	1.242202e+06	
38	-1.90000e+00	1.520254e+06	
39	-1.95000e+00	1.800094e+06	
40	-2.00000e+00	2.074928e+06	
41	-2.05000e+00	2.341108e+06	
42	-2.10000e+00	2.597192e+06	
43	-2.15000e+00	2.843073e+06	
44	-2.20000e+00	3.079346e+06	
45	-2.25000e+00	3.306913e+06	
46	-2.30000e+00	3.526754e+06	
47	-2.35000e+00	3.739811e+06	
48	-2.40000e+00	3.946940e+06	
49	-2.45000e+00	4.148890e+06	
50	-2.50000e+00	4.346305e+06	
51	-2.55000e+00	4.539733e+06	
52	-2.60000e+00	4.729640e+06	
53	-2.65000e+00	4.916418e+06	
54	-2.70000e+00	5.100397e+06	

Index   v-sweep         rds             
--------------------------------------------------------------------------------
55	-2.75000e+00	5.281860e+06	
56	-2.80000e+00	5.461044e+06	
57	-2.85000e+00	5.638151e+06	
58	-2.90000e+00	5.813355e+06	
59	-2.95000e+00	5.986803e+06	
60	-3.00000e+00	6.158621e+06	
61	-3.05000e+00	6.328915e+06	
62	-3.10000e+00	6.497774e+06	
63	-3.15000e+00	6.665268e+06	
64	-3.20000e+00	6.831449e+06	
65	-3.25000e+00	6.996345e+06	
66	-3.30000e+00	7.159955e+06	
Reset re-loads circuit ***************************

Circuit: ***************************

Doing analysis at TEMP = 125.000000 and TNOM = 125.000000


No. of Data Rows : 67
                          ***************************
                          DC transfer characteristic  Mon Jan  9 13:58:26  2023
--------------------------------------------------------------------------------
Index   v-sweep         rds             
--------------------------------------------------------------------------------
0	0.000000e+00	8.871957e+03	
1	-5.00000e-02	9.099464e+03	
2	-1.00000e-01	9.338807e+03	
3	-1.50000e-01	9.590935e+03	
4	-2.00000e-01	9.856900e+03	
5	-2.50000e-01	1.013787e+04	
6	-3.00000e-01	1.043516e+04	
7	-3.50000e-01	1.075022e+04	
8	-4.00000e-01	1.108470e+04	
9	-4.50000e-01	1.144046e+04	
10	-5.00000e-01	1.181958e+04	
11	-5.50000e-01	1.222444e+04	
12	-6.00000e-01	1.265776e+04	
13	-6.50000e-01	1.312264e+04	
14	-7.00000e-01	1.362265e+04	
15	-7.50000e-01	1.416194e+04	
16	-8.00000e-01	1.474531e+04	
17	-8.50000e-01	1.537838e+04	
18	-9.00000e-01	1.606778e+04	
19	-9.50000e-01	1.682136e+04	
20	-1.00000e+00	1.764849e+04	
21	-1.05000e+00	1.856045e+04	
22	-1.10000e+00	1.957094e+04	
23	-1.15000e+00	2.069678e+04	
24	-1.20000e+00	2.195877e+04	
25	-1.25000e+00	2.338301e+04	
26	-1.30000e+00	2.500266e+04	
27	-1.35000e+00	2.686039e+04	
28	-1.40000e+00	2.901207e+04	
29	-1.45000e+00	3.153207e+04	
30	-1.50000e+00	3.452132e+04	
31	-1.55000e+00	3.811982e+04	
32	-1.60000e+00	4.252624e+04	
33	-1.65000e+00	4.802966e+04	
34	-1.70000e+00	5.506163e+04	
35	-1.75000e+00	6.428248e+04	
36	-1.80000e+00	7.672303e+04	
37	-1.85000e+00	9.400765e+04	
38	-1.90000e+00	1.186674e+05	
39	-1.95000e+00	1.544673e+05	
40	-2.00000e+00	2.064718e+05	
41	-2.05000e+00	2.803542e+05	
42	-2.10000e+00	3.806612e+05	
43	-2.15000e+00	5.086779e+05	
44	-2.20000e+00	6.613831e+05	
45	-2.25000e+00	8.323727e+05	
46	-2.30000e+00	1.014044e+06	
47	-2.35000e+00	1.199606e+06	
48	-2.40000e+00	1.384094e+06	
49	-2.45000e+00	1.564457e+06	
50	-2.50000e+00	1.739167e+06	
51	-2.55000e+00	1.907717e+06	
52	-2.60000e+00	2.070207e+06	
53	-2.65000e+00	2.227046e+06	
54	-2.70000e+00	2.378777e+06	

Index   v-sweep         rds             
--------------------------------------------------------------------------------
55	-2.75000e+00	2.525966e+06	
56	-2.80000e+00	2.669154e+06	
57	-2.85000e+00	2.808830e+06	
58	-2.90000e+00	2.945423e+06	
59	-2.95000e+00	3.079305e+06	
60	-3.00000e+00	3.210796e+06	
61	-3.05000e+00	3.340166e+06	
62	-3.10000e+00	3.467647e+06	
63	-3.15000e+00	3.593434e+06	
64	-3.20000e+00	3.717696e+06	
65	-3.25000e+00	3.840573e+06	
66	-3.30000e+00	3.962189e+06	
Reset re-loads circuit ***************************

Circuit: ***************************

Note: No ".plot", ".print", or ".fourier" lines; no simulations run
