
Note: Compatibility modes selected: hs

Warning: m=xx on .subckt line will override multiplier m hierarchy!


Circuit: ***************************

Doing analysis at TEMP = -40.000000 and TNOM = -40.000000


No. of Data Rows : 67
                          ***************************
                          DC transfer characteristic  Mon Jan  9 13:58:25  2023
--------------------------------------------------------------------------------
Index   v-sweep         rds             
--------------------------------------------------------------------------------
0	0.000000e+00	4.310068e+05	
1	-5.00000e-02	4.591097e+06	
2	-1.00000e-01	3.742566e+07	
3	-1.50000e-01	1.038300e+08	
4	-2.00000e-01	1.694317e+08	
5	-2.50000e-01	2.202358e+08	
6	-3.00000e-01	2.588249e+08	
7	-3.50000e-01	2.894612e+08	
8	-4.00000e-01	3.149686e+08	
9	-4.50000e-01	3.370030e+08	
10	-5.00000e-01	3.565417e+08	
11	-5.50000e-01	3.741865e+08	
12	-6.00000e-01	3.903273e+08	
13	-6.50000e-01	4.052304e+08	
14	-7.00000e-01	4.190860e+08	
15	-7.50000e-01	4.320360e+08	
16	-8.00000e-01	4.441902e+08	
17	-8.50000e-01	4.556359e+08	
18	-9.00000e-01	4.664446e+08	
19	-9.50000e-01	4.766762e+08	
20	-1.00000e+00	4.863811e+08	
21	-1.05000e+00	4.956032e+08	
22	-1.10000e+00	5.043804e+08	
23	-1.15000e+00	5.127464e+08	
24	-1.20000e+00	5.207309e+08	
25	-1.25000e+00	5.283605e+08	
26	-1.30000e+00	5.356592e+08	
27	-1.35000e+00	5.426485e+08	
28	-1.40000e+00	5.493481e+08	
29	-1.45000e+00	5.557758e+08	
30	-1.50000e+00	5.619478e+08	
31	-1.55000e+00	5.678790e+08	
32	-1.60000e+00	5.735828e+08	
33	-1.65000e+00	5.790715e+08	
34	-1.70000e+00	5.843558e+08	
35	-1.75000e+00	5.894454e+08	
36	-1.80000e+00	5.943485e+08	
37	-1.85000e+00	5.990718e+08	
38	-1.90000e+00	6.036200e+08	
39	-1.95000e+00	6.079963e+08	
40	-2.00000e+00	6.122012e+08	
41	-2.05000e+00	6.162330e+08	
42	-2.10000e+00	6.200867e+08	
43	-2.15000e+00	6.237542e+08	
44	-2.20000e+00	6.272234e+08	
45	-2.25000e+00	6.304781e+08	
46	-2.30000e+00	6.334974e+08	
47	-2.35000e+00	6.362556e+08	
48	-2.40000e+00	6.387214e+08	
49	-2.45000e+00	6.408580e+08	
50	-2.50000e+00	6.426229e+08	
51	-2.55000e+00	6.439680e+08	
52	-2.60000e+00	6.448399e+08	
53	-2.65000e+00	6.451801e+08	
54	-2.70000e+00	6.449257e+08	

Index   v-sweep         rds             
--------------------------------------------------------------------------------
55	-2.75000e+00	6.440109e+08	
56	-2.80000e+00	6.423677e+08	
57	-2.85000e+00	6.399280e+08	
58	-2.90000e+00	6.366252e+08	
59	-2.95000e+00	6.323965e+08	
60	-3.00000e+00	6.271854e+08	
61	-3.05000e+00	6.209439e+08	
62	-3.10000e+00	6.136355e+08	
63	-3.15000e+00	6.052367e+08	
64	-3.20000e+00	5.957399e+08	
65	-3.25000e+00	5.851543e+08	
66	-3.30000e+00	5.735073e+08	
Reset re-loads circuit ***************************

Circuit: ***************************

Doing analysis at TEMP = -40.000000 and TNOM = -40.000000


No. of Data Rows : 67
                          ***************************
                          DC transfer characteristic  Mon Jan  9 13:58:26  2023
--------------------------------------------------------------------------------
Index   v-sweep         rds             
--------------------------------------------------------------------------------
0	0.000000e+00	9.152190e+03	
1	-5.00000e-02	1.068955e+04	
2	-1.00000e-01	1.282588e+04	
3	-1.50000e-01	1.598490e+04	
4	-2.00000e-01	2.108155e+04	
5	-2.50000e-01	3.038389e+04	
6	-3.00000e-01	5.028439e+04	
7	-3.50000e-01	9.838668e+04	
8	-4.00000e-01	2.050516e+05	
9	-4.50000e-01	3.771278e+05	
10	-5.00000e-01	5.764993e+05	
11	-5.50000e-01	7.673735e+05	
12	-6.00000e-01	9.389752e+05	
13	-6.50000e-01	1.093227e+06	
14	-7.00000e-01	1.234508e+06	
15	-7.50000e-01	1.366483e+06	
16	-8.00000e-01	1.491722e+06	
17	-8.50000e-01	1.611944e+06	
18	-9.00000e-01	1.728300e+06	
19	-9.50000e-01	1.841569e+06	
20	-1.00000e+00	1.952292e+06	
21	-1.05000e+00	2.060849e+06	
22	-1.10000e+00	2.167518e+06	
23	-1.15000e+00	2.272504e+06	
24	-1.20000e+00	2.375963e+06	
25	-1.25000e+00	2.478014e+06	
26	-1.30000e+00	2.578753e+06	
27	-1.35000e+00	2.678256e+06	
28	-1.40000e+00	2.776586e+06	
29	-1.45000e+00	2.873794e+06	
30	-1.50000e+00	2.969926e+06	
31	-1.55000e+00	3.065018e+06	
32	-1.60000e+00	3.159103e+06	
33	-1.65000e+00	3.252211e+06	
34	-1.70000e+00	3.344367e+06	
35	-1.75000e+00	3.435595e+06	
36	-1.80000e+00	3.525913e+06	
37	-1.85000e+00	3.615339e+06	
38	-1.90000e+00	3.703887e+06	
39	-1.95000e+00	3.791566e+06	
40	-2.00000e+00	3.878379e+06	
41	-2.05000e+00	3.964321e+06	
42	-2.10000e+00	4.049375e+06	
43	-2.15000e+00	4.133508e+06	
44	-2.20000e+00	4.216667e+06	
45	-2.25000e+00	4.298767e+06	
46	-2.30000e+00	4.379692e+06	
47	-2.35000e+00	4.459274e+06	
48	-2.40000e+00	4.537292e+06	
49	-2.45000e+00	4.613451e+06	
50	-2.50000e+00	4.687374e+06	
51	-2.55000e+00	4.758587e+06	
52	-2.60000e+00	4.826503e+06	
53	-2.65000e+00	4.890411e+06	
54	-2.70000e+00	4.949464e+06	

Index   v-sweep         rds             
--------------------------------------------------------------------------------
55	-2.75000e+00	5.002677e+06	
56	-2.80000e+00	5.048920e+06	
57	-2.85000e+00	5.086935e+06	
58	-2.90000e+00	5.115346e+06	
59	-2.95000e+00	5.132698e+06	
60	-3.00000e+00	5.137497e+06	
61	-3.05000e+00	5.128273e+06	
62	-3.10000e+00	5.103655e+06	
63	-3.15000e+00	5.062452e+06	
64	-3.20000e+00	5.003742e+06	
65	-3.25000e+00	4.926963e+06	
66	-3.30000e+00	4.831981e+06	
Reset re-loads circuit ***************************

Circuit: ***************************

Doing analysis at TEMP = -40.000000 and TNOM = -40.000000


No. of Data Rows : 67
                          ***************************
                          DC transfer characteristic  Mon Jan  9 13:58:26  2023
--------------------------------------------------------------------------------
Index   v-sweep         rds             
--------------------------------------------------------------------------------
0	0.000000e+00	4.691438e+03	
1	-5.00000e-02	5.050444e+03	
2	-1.00000e-01	5.466389e+03	
3	-1.50000e-01	5.953930e+03	
4	-2.00000e-01	6.533199e+03	
5	-2.50000e-01	7.232578e+03	
6	-3.00000e-01	8.093359e+03	
7	-3.50000e-01	9.177832e+03	
8	-4.00000e-01	1.058410e+04	
9	-4.50000e-01	1.247466e+04	
10	-5.00000e-01	1.513467e+04	
11	-5.50000e-01	1.909582e+04	
12	-6.00000e-01	2.539931e+04	
13	-6.50000e-01	3.607493e+04	
14	-7.00000e-01	5.452018e+04	
15	-7.50000e-01	8.413991e+04	
16	-8.00000e-01	1.244106e+05	
17	-8.50000e-01	1.700152e+05	
18	-9.00000e-01	2.155871e+05	
19	-9.50000e-01	2.586646e+05	
20	-1.00000e+00	2.989101e+05	
21	-1.05000e+00	3.367638e+05	
22	-1.10000e+00	3.727743e+05	
23	-1.15000e+00	4.073961e+05	
24	-1.20000e+00	4.409649e+05	
25	-1.25000e+00	4.737199e+05	
26	-1.30000e+00	5.058303e+05	
27	-1.35000e+00	5.374163e+05	
28	-1.40000e+00	5.685649e+05	
29	-1.45000e+00	5.993396e+05	
30	-1.50000e+00	6.297877e+05	
31	-1.55000e+00	6.599451e+05	
32	-1.60000e+00	6.898391e+05	
33	-1.65000e+00	7.194911e+05	
34	-1.70000e+00	7.489182e+05	
35	-1.75000e+00	7.781338e+05	
36	-1.80000e+00	8.071491e+05	
37	-1.85000e+00	8.359731e+05	
38	-1.90000e+00	8.646135e+05	
39	-1.95000e+00	8.930766e+05	
40	-2.00000e+00	9.213678e+05	
41	-2.05000e+00	9.494919e+05	
42	-2.10000e+00	9.774526e+05	
43	-2.15000e+00	1.005253e+06	
44	-2.20000e+00	1.032896e+06	
45	-2.25000e+00	1.060383e+06	
46	-2.30000e+00	1.087715e+06	
47	-2.35000e+00	1.114889e+06	
48	-2.40000e+00	1.141903e+06	
49	-2.45000e+00	1.168748e+06	
50	-2.50000e+00	1.195412e+06	
51	-2.55000e+00	1.221878e+06	
52	-2.60000e+00	1.248115e+06	
53	-2.65000e+00	1.274085e+06	
54	-2.70000e+00	1.299734e+06	

Index   v-sweep         rds             
--------------------------------------------------------------------------------
55	-2.75000e+00	1.324987e+06	
56	-2.80000e+00	1.349747e+06	
57	-2.85000e+00	1.373889e+06	
58	-2.90000e+00	1.397256e+06	
59	-2.95000e+00	1.419651e+06	
60	-3.00000e+00	1.440835e+06	
61	-3.05000e+00	1.460521e+06	
62	-3.10000e+00	1.478376e+06	
63	-3.15000e+00	1.494015e+06	
64	-3.20000e+00	1.507006e+06	
65	-3.25000e+00	1.516879e+06	
66	-3.30000e+00	1.523136e+06	
Reset re-loads circuit ***************************

Circuit: ***************************

Doing analysis at TEMP = -40.000000 and TNOM = -40.000000


No. of Data Rows : 67
                          ***************************
                          DC transfer characteristic  Mon Jan  9 13:58:26  2023
--------------------------------------------------------------------------------
Index   v-sweep         rds             
--------------------------------------------------------------------------------
0	0.000000e+00	3.301250e+03	
1	-5.00000e-02	3.462231e+03	
2	-1.00000e-01	3.638781e+03	
3	-1.50000e-01	3.833271e+03	
4	-2.00000e-01	4.048574e+03	
5	-2.50000e-01	4.288211e+03	
6	-3.00000e-01	4.556541e+03	
7	-3.50000e-01	4.859029e+03	
8	-4.00000e-01	5.202612e+03	
9	-4.50000e-01	5.596233e+03	
10	-5.00000e-01	6.051607e+03	
11	-5.50000e-01	6.584378e+03	
12	-6.00000e-01	7.215880e+03	
13	-6.50000e-01	7.975918e+03	
14	-7.00000e-01	8.907274e+03	
15	-7.50000e-01	1.007326e+04	
16	-8.00000e-01	1.157072e+04	
17	-8.50000e-01	1.355296e+04	
18	-9.00000e-01	1.626989e+04	
19	-9.50000e-01	2.013415e+04	
20	-1.00000e+00	2.580570e+04	
21	-1.05000e+00	3.420791e+04	
22	-1.10000e+00	4.623045e+04	
23	-1.15000e+00	6.199583e+04	
24	-1.20000e+00	8.041592e+04	
25	-1.25000e+00	9.985985e+04	
26	-1.30000e+00	1.191277e+05	
27	-1.35000e+00	1.377038e+05	
28	-1.40000e+00	1.555077e+05	
29	-1.45000e+00	1.726322e+05	
30	-1.50000e+00	1.892073e+05	
31	-1.55000e+00	2.053499e+05	
32	-1.60000e+00	2.211524e+05	
33	-1.65000e+00	2.366844e+05	
34	-1.70000e+00	2.519975e+05	
35	-1.75000e+00	2.671299e+05	
36	-1.80000e+00	2.821098e+05	
37	-1.85000e+00	2.969586e+05	
38	-1.90000e+00	3.116925e+05	
39	-1.95000e+00	3.263238e+05	
40	-2.00000e+00	3.408624e+05	
41	-2.05000e+00	3.553158e+05	
42	-2.10000e+00	3.696901e+05	
43	-2.15000e+00	3.839902e+05	
44	-2.20000e+00	3.982200e+05	
45	-2.25000e+00	4.123830e+05	
46	-2.30000e+00	4.264817e+05	
47	-2.35000e+00	4.405186e+05	
48	-2.40000e+00	4.544954e+05	
49	-2.45000e+00	4.684139e+05	
50	-2.50000e+00	4.822754e+05	
51	-2.55000e+00	4.960807e+05	
52	-2.60000e+00	5.098307e+05	
53	-2.65000e+00	5.235253e+05	
54	-2.70000e+00	5.371641e+05	

Index   v-sweep         rds             
--------------------------------------------------------------------------------
55	-2.75000e+00	5.507455e+05	
56	-2.80000e+00	5.642663e+05	
57	-2.85000e+00	5.777214e+05	
58	-2.90000e+00	5.911029e+05	
59	-2.95000e+00	6.043987e+05	
60	-3.00000e+00	6.175917e+05	
61	-3.05000e+00	6.306579e+05	
62	-3.10000e+00	6.435644e+05	
63	-3.15000e+00	6.562677e+05	
64	-3.20000e+00	6.687110e+05	
65	-3.25000e+00	6.808214e+05	
66	-3.30000e+00	6.925075e+05	
Reset re-loads circuit ***************************

Circuit: ***************************

Doing analysis at TEMP = -40.000000 and TNOM = -40.000000


No. of Data Rows : 67
                          ***************************
                          DC transfer characteristic  Mon Jan  9 13:58:26  2023
--------------------------------------------------------------------------------
Index   v-sweep         rds             
--------------------------------------------------------------------------------
0	0.000000e+00	2.665994e+03	
1	-5.00000e-02	2.761122e+03	
2	-1.00000e-01	2.862808e+03	
3	-1.50000e-01	2.971751e+03	
4	-2.00000e-01	3.088755e+03	
5	-2.50000e-01	3.214748e+03	
6	-3.00000e-01	3.350804e+03	
7	-3.50000e-01	3.498176e+03	
8	-4.00000e-01	3.658333e+03	
9	-4.50000e-01	3.833010e+03	
10	-5.00000e-01	4.024271e+03	
11	-5.50000e-01	4.234587e+03	
12	-6.00000e-01	4.466945e+03	
13	-6.50000e-01	4.724988e+03	
14	-7.00000e-01	5.013205e+03	
15	-7.50000e-01	5.337186e+03	
16	-8.00000e-01	5.703984e+03	
17	-8.50000e-01	6.122613e+03	
18	-9.00000e-01	6.604772e+03	
19	-9.50000e-01	7.165896e+03	
20	-1.00000e+00	7.826731e+03	
21	-1.05000e+00	8.615718e+03	
22	-1.10000e+00	9.572703e+03	
23	-1.15000e+00	1.075474e+04	
24	-1.20000e+00	1.224526e+04	
25	-1.25000e+00	1.416805e+04	
26	-1.30000e+00	1.670695e+04	
27	-1.35000e+00	2.012662e+04	
28	-1.40000e+00	2.477272e+04	
29	-1.45000e+00	3.100042e+04	
30	-1.50000e+00	3.898718e+04	
31	-1.55000e+00	4.852988e+04	
32	-1.60000e+00	5.907554e+04	
33	-1.65000e+00	7.001143e+04	
34	-1.70000e+00	8.091362e+04	
35	-1.75000e+00	9.158453e+04	
36	-1.80000e+00	1.019741e+05	
37	-1.85000e+00	1.121001e+05	
38	-1.90000e+00	1.220017e+05	
39	-1.95000e+00	1.317190e+05	
40	-2.00000e+00	1.412866e+05	
41	-2.05000e+00	1.507320e+05	
42	-2.10000e+00	1.600764e+05	
43	-2.15000e+00	1.693361e+05	
44	-2.20000e+00	1.785235e+05	
45	-2.25000e+00	1.876483e+05	
46	-2.30000e+00	1.967179e+05	
47	-2.35000e+00	2.057380e+05	
48	-2.40000e+00	2.147132e+05	
49	-2.45000e+00	2.236472e+05	
50	-2.50000e+00	2.325428e+05	
51	-2.55000e+00	2.414024e+05	
52	-2.60000e+00	2.502279e+05	
53	-2.65000e+00	2.590211e+05	
54	-2.70000e+00	2.677831e+05	

Index   v-sweep         rds             
--------------------------------------------------------------------------------
55	-2.75000e+00	2.765150e+05	
56	-2.80000e+00	2.852179e+05	
57	-2.85000e+00	2.938925e+05	
58	-2.90000e+00	3.025394e+05	
59	-2.95000e+00	3.111589e+05	
60	-3.00000e+00	3.197513e+05	
61	-3.05000e+00	3.283164e+05	
62	-3.10000e+00	3.368535e+05	
63	-3.15000e+00	3.453614e+05	
64	-3.20000e+00	3.538374e+05	
65	-3.25000e+00	3.622779e+05	
66	-3.30000e+00	3.706769e+05	
Reset re-loads circuit ***************************

Circuit: ***************************

Doing analysis at TEMP = -40.000000 and TNOM = -40.000000


No. of Data Rows : 67
                          ***************************
                          DC transfer characteristic  Mon Jan  9 13:58:26  2023
--------------------------------------------------------------------------------
Index   v-sweep         rds             
--------------------------------------------------------------------------------
0	0.000000e+00	2.299946e+03	
1	-5.00000e-02	2.364113e+03	
2	-1.00000e-01	2.431671e+03	
3	-1.50000e-01	2.502896e+03	
4	-2.00000e-01	2.578093e+03	
5	-2.50000e-01	2.657603e+03	
6	-3.00000e-01	2.741808e+03	
7	-3.50000e-01	2.831134e+03	
8	-4.00000e-01	2.926063e+03	
9	-4.50000e-01	3.027137e+03	
10	-5.00000e-01	3.134971e+03	
11	-5.50000e-01	3.250265e+03	
12	-6.00000e-01	3.373819e+03	
13	-6.50000e-01	3.506552e+03	
14	-7.00000e-01	3.649523e+03	
15	-7.50000e-01	3.803960e+03	
16	-8.00000e-01	3.971297e+03	
17	-8.50000e-01	4.153214e+03	
18	-9.00000e-01	4.351698e+03	
19	-9.50000e-01	4.569111e+03	
20	-1.00000e+00	4.808283e+03	
21	-1.05000e+00	5.072635e+03	
22	-1.10000e+00	5.366341e+03	
23	-1.15000e+00	5.694537e+03	
24	-1.20000e+00	6.063621e+03	
25	-1.25000e+00	6.481649e+03	
26	-1.30000e+00	6.958898e+03	
27	-1.35000e+00	7.508658e+03	
28	-1.40000e+00	8.148367e+03	
29	-1.45000e+00	8.901264e+03	
30	-1.50000e+00	9.798782e+03	
31	-1.55000e+00	1.088404e+04	
32	-1.60000e+00	1.221678e+04	
33	-1.65000e+00	1.387984e+04	
34	-1.70000e+00	1.598619e+04	
35	-1.75000e+00	1.868209e+04	
36	-1.80000e+00	2.213554e+04	
37	-1.85000e+00	2.649346e+04	
38	-1.90000e+00	3.180510e+04	
39	-1.95000e+00	3.795752e+04	
40	-2.00000e+00	4.469688e+04	
41	-2.05000e+00	5.173527e+04	
42	-2.10000e+00	5.885029e+04	
43	-2.15000e+00	6.591484e+04	
44	-2.20000e+00	7.287584e+04	
45	-2.25000e+00	7.972221e+04	
46	-2.30000e+00	8.646169e+04	
47	-2.35000e+00	9.310817e+04	
48	-2.40000e+00	9.967594e+04	
49	-2.45000e+00	1.061776e+05	
50	-2.50000e+00	1.126235e+05	
51	-2.55000e+00	1.190221e+05	
52	-2.60000e+00	1.253798e+05	
53	-2.65000e+00	1.317018e+05	
54	-2.70000e+00	1.379923e+05	

Index   v-sweep         rds             
--------------------------------------------------------------------------------
55	-2.75000e+00	1.442545e+05	
56	-2.80000e+00	1.504908e+05	
57	-2.85000e+00	1.567035e+05	
58	-2.90000e+00	1.628942e+05	
59	-2.95000e+00	1.690642e+05	
60	-3.00000e+00	1.752146e+05	
61	-3.05000e+00	1.813464e+05	
62	-3.10000e+00	1.874604e+05	
63	-3.15000e+00	1.935572e+05	
64	-3.20000e+00	1.996374e+05	
65	-3.25000e+00	2.057013e+05	
66	-3.30000e+00	2.117493e+05	
Reset re-loads circuit ***************************

Circuit: ***************************

Note: No ".plot", ".print", or ".fourier" lines; no simulations run
