
Note: Compatibility modes selected: hs

Warning: m=xx on .subckt line will override multiplier m hierarchy!


Circuit: ***************************

Doing analysis at TEMP = -40.000000 and TNOM = -40.000000


No. of Data Rows : 67
                          ***************************
                          DC transfer characteristic  Mon Jan  9 13:58:25  2023
--------------------------------------------------------------------------------
Index   v-sweep         rds             
--------------------------------------------------------------------------------
0	0.000000e+00	2.207791e+05	
1	-5.00000e-02	2.378226e+06	
2	-1.00000e-01	1.934469e+07	
3	-1.50000e-01	5.355467e+07	
4	-2.00000e-01	8.739475e+07	
5	-2.50000e-01	1.136918e+08	
6	-3.00000e-01	1.337264e+08	
7	-3.50000e-01	1.496593e+08	
8	-4.00000e-01	1.629322e+08	
9	-4.50000e-01	1.743951e+08	
10	-5.00000e-01	1.845525e+08	
11	-5.50000e-01	1.937164e+08	
12	-6.00000e-01	2.020902e+08	
13	-6.50000e-01	2.098129e+08	
14	-7.00000e-01	2.169846e+08	
15	-7.50000e-01	2.236800e+08	
16	-8.00000e-01	2.299571e+08	
17	-8.50000e-01	2.358620e+08	
18	-9.00000e-01	2.414326e+08	
19	-9.50000e-01	2.467006e+08	
20	-1.00000e+00	2.516928e+08	
21	-1.05000e+00	2.564324e+08	
22	-1.10000e+00	2.609395e+08	
23	-1.15000e+00	2.652320e+08	
24	-1.20000e+00	2.693255e+08	
25	-1.25000e+00	2.732341e+08	
26	-1.30000e+00	2.769704e+08	
27	-1.35000e+00	2.805460e+08	
28	-1.40000e+00	2.839711e+08	
29	-1.45000e+00	2.872550e+08	
30	-1.50000e+00	2.904064e+08	
31	-1.55000e+00	2.934331e+08	
32	-1.60000e+00	2.963421e+08	
33	-1.65000e+00	2.991398e+08	
34	-1.70000e+00	3.018319e+08	
35	-1.75000e+00	3.044235e+08	
36	-1.80000e+00	3.069188e+08	
37	-1.85000e+00	3.093213e+08	
38	-1.90000e+00	3.116337e+08	
39	-1.95000e+00	3.138574e+08	
40	-2.00000e+00	3.159929e+08	
41	-2.05000e+00	3.180392e+08	
42	-2.10000e+00	3.199939e+08	
43	-2.15000e+00	3.218527e+08	
44	-2.20000e+00	3.236094e+08	
45	-2.25000e+00	3.252557e+08	
46	-2.30000e+00	3.267808e+08	
47	-2.35000e+00	3.281714e+08	
48	-2.40000e+00	3.294114e+08	
49	-2.45000e+00	3.304818e+08	
50	-2.50000e+00	3.313608e+08	
51	-2.55000e+00	3.320236e+08	
52	-2.60000e+00	3.324425e+08	
53	-2.65000e+00	3.325876e+08	
54	-2.70000e+00	3.324266e+08	

Index   v-sweep         rds             
--------------------------------------------------------------------------------
55	-2.75000e+00	3.319254e+08	
56	-2.80000e+00	3.310492e+08	
57	-2.85000e+00	3.297629e+08	
58	-2.90000e+00	3.280324e+08	
59	-2.95000e+00	3.258255e+08	
60	-3.00000e+00	3.231132e+08	
61	-3.05000e+00	3.198710e+08	
62	-3.10000e+00	3.160802e+08	
63	-3.15000e+00	3.117289e+08	
64	-3.20000e+00	3.068134e+08	
65	-3.25000e+00	3.013386e+08	
66	-3.30000e+00	2.953188e+08	
Reset re-loads circuit ***************************

Circuit: ***************************

Doing analysis at TEMP = -40.000000 and TNOM = -40.000000


No. of Data Rows : 67
                          ***************************
                          DC transfer characteristic  Mon Jan  9 13:58:25  2023
--------------------------------------------------------------------------------
Index   v-sweep         rds             
--------------------------------------------------------------------------------
0	0.000000e+00	4.609067e+03	
1	-5.00000e-02	5.394980e+03	
2	-1.00000e-01	6.492534e+03	
3	-1.50000e-01	8.126812e+03	
4	-2.00000e-01	1.079020e+04	
5	-2.50000e-01	1.572290e+04	
6	-3.00000e-01	2.646791e+04	
7	-3.50000e-01	5.269876e+04	
8	-4.00000e-01	1.100809e+05	
9	-4.50000e-01	2.002475e+05	
10	-5.00000e-01	3.028291e+05	
11	-5.50000e-01	4.005286e+05	
12	-6.00000e-01	4.885485e+05	
13	-6.50000e-01	5.679890e+05	
14	-7.00000e-01	6.410121e+05	
15	-7.50000e-01	7.094038e+05	
16	-8.00000e-01	7.744164e+05	
17	-8.50000e-01	8.368916e+05	
18	-9.00000e-01	8.973947e+05	
19	-9.50000e-01	9.563111e+05	
20	-1.00000e+00	1.013909e+06	
21	-1.05000e+00	1.070379e+06	
22	-1.10000e+00	1.125859e+06	
23	-1.15000e+00	1.180455e+06	
24	-1.20000e+00	1.234244e+06	
25	-1.25000e+00	1.287287e+06	
26	-1.30000e+00	1.339634e+06	
27	-1.35000e+00	1.391324e+06	
28	-1.40000e+00	1.442389e+06	
29	-1.45000e+00	1.492856e+06	
30	-1.50000e+00	1.542748e+06	
31	-1.55000e+00	1.592085e+06	
32	-1.60000e+00	1.640885e+06	
33	-1.65000e+00	1.689163e+06	
34	-1.70000e+00	1.736932e+06	
35	-1.75000e+00	1.784205e+06	
36	-1.80000e+00	1.830992e+06	
37	-1.85000e+00	1.877303e+06	
38	-1.90000e+00	1.923144e+06	
39	-1.95000e+00	1.968520e+06	
40	-2.00000e+00	2.013434e+06	
41	-2.05000e+00	2.057882e+06	
42	-2.10000e+00	2.101856e+06	
43	-2.15000e+00	2.145336e+06	
44	-2.20000e+00	2.188294e+06	
45	-2.25000e+00	2.230685e+06	
46	-2.30000e+00	2.272445e+06	
47	-2.35000e+00	2.313484e+06	
48	-2.40000e+00	2.353684e+06	
49	-2.45000e+00	2.392885e+06	
50	-2.50000e+00	2.430886e+06	
51	-2.55000e+00	2.467433e+06	
52	-2.60000e+00	2.502213e+06	
53	-2.65000e+00	2.534848e+06	
54	-2.70000e+00	2.564886e+06	

Index   v-sweep         rds             
--------------------------------------------------------------------------------
55	-2.75000e+00	2.591805e+06	
56	-2.80000e+00	2.615009e+06	
57	-2.85000e+00	2.633834e+06	
58	-2.90000e+00	2.647558e+06	
59	-2.95000e+00	2.655419e+06	
60	-3.00000e+00	2.656642e+06	
61	-3.05000e+00	2.650468e+06	
62	-3.10000e+00	2.636197e+06	
63	-3.15000e+00	2.613230e+06	
64	-3.20000e+00	2.581116e+06	
65	-3.25000e+00	2.539596e+06	
66	-3.30000e+00	2.488645e+06	
Reset re-loads circuit ***************************

Circuit: ***************************

Doing analysis at TEMP = -40.000000 and TNOM = -40.000000


No. of Data Rows : 67
                          ***************************
                          DC transfer characteristic  Mon Jan  9 13:58:25  2023
--------------------------------------------------------------------------------
Index   v-sweep         rds             
--------------------------------------------------------------------------------
0	0.000000e+00	2.310965e+03	
1	-5.00000e-02	2.486627e+03	
2	-1.00000e-01	2.689925e+03	
3	-1.50000e-01	2.927914e+03	
4	-2.00000e-01	3.210254e+03	
5	-2.50000e-01	3.550528e+03	
6	-3.00000e-01	3.968427e+03	
7	-3.50000e-01	4.493531e+03	
8	-4.00000e-01	5.172196e+03	
9	-4.50000e-01	6.080756e+03	
10	-5.00000e-01	7.352235e+03	
11	-5.50000e-01	9.232865e+03	
12	-6.00000e-01	1.220194e+04	
13	-6.50000e-01	1.719456e+04	
14	-7.00000e-01	2.580716e+04	
15	-7.50000e-01	3.976099e+04	
16	-8.00000e-01	5.906639e+04	
17	-8.50000e-01	8.132892e+04	
18	-9.00000e-01	1.038734e+05	
19	-9.50000e-01	1.253546e+05	
20	-1.00000e+00	1.455109e+05	
21	-1.05000e+00	1.645125e+05	
22	-1.10000e+00	1.826106e+05	
23	-1.15000e+00	2.000217e+05	
24	-1.20000e+00	2.169088e+05	
25	-1.25000e+00	2.333892e+05	
26	-1.30000e+00	2.495462e+05	
27	-1.35000e+00	2.654394e+05	
28	-1.40000e+00	2.811120e+05	
29	-1.45000e+00	2.965957e+05	
30	-1.50000e+00	3.119139e+05	
31	-1.55000e+00	3.270846e+05	
32	-1.60000e+00	3.421215e+05	
33	-1.65000e+00	3.570354e+05	
34	-1.70000e+00	3.718346e+05	
35	-1.75000e+00	3.865261e+05	
36	-1.80000e+00	4.011154e+05	
37	-1.85000e+00	4.156071e+05	
38	-1.90000e+00	4.300050e+05	
39	-1.95000e+00	4.443123e+05	
40	-2.00000e+00	4.585318e+05	
41	-2.05000e+00	4.726659e+05	
42	-2.10000e+00	4.867165e+05	
43	-2.15000e+00	5.006852e+05	
44	-2.20000e+00	5.145735e+05	
45	-2.25000e+00	5.283820e+05	
46	-2.30000e+00	5.421111e+05	
47	-2.35000e+00	5.557602e+05	
48	-2.40000e+00	5.693272e+05	
49	-2.45000e+00	5.828088e+05	
50	-2.50000e+00	5.961989e+05	
51	-2.55000e+00	6.094882e+05	
52	-2.60000e+00	6.226628e+05	
53	-2.65000e+00	6.357031e+05	
54	-2.70000e+00	6.485820e+05	

Index   v-sweep         rds             
--------------------------------------------------------------------------------
55	-2.75000e+00	6.612629e+05	
56	-2.80000e+00	6.736973e+05	
57	-2.85000e+00	6.858229e+05	
58	-2.90000e+00	6.975607e+05	
59	-2.95000e+00	7.088123e+05	
60	-3.00000e+00	7.194578e+05	
61	-3.05000e+00	7.293537e+05	
62	-3.10000e+00	7.383316e+05	
63	-3.15000e+00	7.461979e+05	
64	-3.20000e+00	7.527356e+05	
65	-3.25000e+00	7.577070e+05	
66	-3.30000e+00	7.608603e+05	
Reset re-loads circuit ***************************

Circuit: ***************************

Doing analysis at TEMP = -40.000000 and TNOM = -40.000000


No. of Data Rows : 67
                          ***************************
                          DC transfer characteristic  Mon Jan  9 13:58:25  2023
--------------------------------------------------------------------------------
Index   v-sweep         rds             
--------------------------------------------------------------------------------
0	0.000000e+00	1.635322e+03	
1	-5.00000e-02	1.714942e+03	
2	-1.00000e-01	1.802245e+03	
3	-1.50000e-01	1.898396e+03	
4	-2.00000e-01	2.004809e+03	
5	-2.50000e-01	2.123214e+03	
6	-3.00000e-01	2.255754e+03	
7	-3.50000e-01	2.405112e+03	
8	-4.00000e-01	2.574692e+03	
9	-4.50000e-01	2.768879e+03	
10	-5.00000e-01	2.993411e+03	
11	-5.50000e-01	3.255944e+03	
12	-6.00000e-01	3.566906e+03	
13	-6.50000e-01	3.940844e+03	
14	-7.00000e-01	4.398611e+03	
15	-7.50000e-01	4.971012e+03	
16	-8.00000e-01	5.705081e+03	
17	-8.50000e-01	6.675120e+03	
18	-9.00000e-01	8.002055e+03	
19	-9.50000e-01	9.885405e+03	
20	-1.00000e+00	1.264492e+04	
21	-1.05000e+00	1.673192e+04	
22	-1.10000e+00	2.259389e+04	
23	-1.15000e+00	3.032288e+04	
24	-1.20000e+00	3.942025e+04	
25	-1.25000e+00	4.909490e+04	
26	-1.30000e+00	5.874163e+04	
27	-1.35000e+00	6.808516e+04	
28	-1.40000e+00	7.706930e+04	
29	-1.45000e+00	8.572965e+04	
30	-1.50000e+00	9.412444e+04	
31	-1.55000e+00	1.023082e+05	
32	-1.60000e+00	1.103247e+05	
33	-1.65000e+00	1.182074e+05	
34	-1.70000e+00	1.259812e+05	
35	-1.75000e+00	1.336646e+05	
36	-1.80000e+00	1.412714e+05	
37	-1.85000e+00	1.488121e+05	
38	-1.90000e+00	1.562946e+05	
39	-1.95000e+00	1.637250e+05	
40	-2.00000e+00	1.711081e+05	
41	-2.05000e+00	1.784477e+05	
42	-2.10000e+00	1.857469e+05	
43	-2.15000e+00	1.930079e+05	
44	-2.20000e+00	2.002329e+05	
45	-2.25000e+00	2.074234e+05	
46	-2.30000e+00	2.145808e+05	
47	-2.35000e+00	2.217064e+05	
48	-2.40000e+00	2.288009e+05	
49	-2.45000e+00	2.358653e+05	
50	-2.50000e+00	2.429002e+05	
51	-2.55000e+00	2.499061e+05	
52	-2.60000e+00	2.568834e+05	
53	-2.65000e+00	2.638320e+05	
54	-2.70000e+00	2.707518e+05	

Index   v-sweep         rds             
--------------------------------------------------------------------------------
55	-2.75000e+00	2.776419e+05	
56	-2.80000e+00	2.845007e+05	
57	-2.85000e+00	2.913258e+05	
58	-2.90000e+00	2.981129e+05	
59	-2.95000e+00	3.048560e+05	
60	-3.00000e+00	3.115464e+05	
61	-3.05000e+00	3.181719e+05	
62	-3.10000e+00	3.247156e+05	
63	-3.15000e+00	3.311555e+05	
64	-3.20000e+00	3.374624e+05	
65	-3.25000e+00	3.435991e+05	
66	-3.30000e+00	3.495189e+05	
Reset re-loads circuit ***************************

Circuit: ***************************

Doing analysis at TEMP = -40.000000 and TNOM = -40.000000


No. of Data Rows : 67
                          ***************************
                          DC transfer characteristic  Mon Jan  9 13:58:25  2023
--------------------------------------------------------------------------------
Index   v-sweep         rds             
--------------------------------------------------------------------------------
0	0.000000e+00	1.324488e+03	
1	-5.00000e-02	1.371788e+03	
2	-1.00000e-01	1.422349e+03	
3	-1.50000e-01	1.476519e+03	
4	-2.00000e-01	1.534698e+03	
5	-2.50000e-01	1.597347e+03	
6	-3.00000e-01	1.664999e+03	
7	-3.50000e-01	1.738279e+03	
8	-4.00000e-01	1.817918e+03	
9	-4.50000e-01	1.904777e+03	
10	-5.00000e-01	1.999883e+03	
11	-5.50000e-01	2.104466e+03	
12	-6.00000e-01	2.220011e+03	
13	-6.50000e-01	2.348330e+03	
14	-7.00000e-01	2.491655e+03	
15	-7.50000e-01	2.652769e+03	
16	-8.00000e-01	2.835178e+03	
17	-8.50000e-01	3.043368e+03	
18	-9.00000e-01	3.283158e+03	
19	-9.50000e-01	3.562228e+03	
20	-1.00000e+00	3.890901e+03	
21	-1.05000e+00	4.283330e+03	
22	-1.10000e+00	4.759346e+03	
23	-1.15000e+00	5.347352e+03	
24	-1.20000e+00	6.088878e+03	
25	-1.25000e+00	7.045575e+03	
26	-1.30000e+00	8.309016e+03	
27	-1.35000e+00	1.001106e+04	
28	-1.40000e+00	1.232409e+04	
29	-1.45000e+00	1.542567e+04	
30	-1.50000e+00	1.940637e+04	
31	-1.55000e+00	2.416982e+04	
32	-1.60000e+00	2.944704e+04	
33	-1.65000e+00	3.493731e+04	
34	-1.70000e+00	4.042958e+04	
35	-1.75000e+00	4.582235e+04	
36	-1.80000e+00	5.108667e+04	
37	-1.85000e+00	5.622775e+04	
38	-1.90000e+00	6.126240e+04	
39	-1.95000e+00	6.620875e+04	
40	-2.00000e+00	7.108266e+04	
41	-2.05000e+00	7.589696e+04	
42	-2.10000e+00	8.066166e+04	
43	-2.15000e+00	8.538448e+04	
44	-2.20000e+00	9.007136e+04	
45	-2.25000e+00	9.472688e+04	
46	-2.30000e+00	9.935461e+04	
47	-2.35000e+00	1.039573e+05	
48	-2.40000e+00	1.085373e+05	
49	-2.45000e+00	1.130962e+05	
50	-2.50000e+00	1.176355e+05	
51	-2.55000e+00	1.221563e+05	
52	-2.60000e+00	1.266597e+05	
53	-2.65000e+00	1.311463e+05	
54	-2.70000e+00	1.356168e+05	

Index   v-sweep         rds             
--------------------------------------------------------------------------------
55	-2.75000e+00	1.400718e+05	
56	-2.80000e+00	1.445118e+05	
57	-2.85000e+00	1.489370e+05	
58	-2.90000e+00	1.533479e+05	
59	-2.95000e+00	1.577446e+05	
60	-3.00000e+00	1.621272e+05	
61	-3.05000e+00	1.664956e+05	
62	-3.10000e+00	1.708494e+05	
63	-3.15000e+00	1.751879e+05	
64	-3.20000e+00	1.795099e+05	
65	-3.25000e+00	1.838134e+05	
66	-3.30000e+00	1.880952e+05	
Reset re-loads circuit ***************************

Circuit: ***************************

Doing analysis at TEMP = -40.000000 and TNOM = -40.000000


No. of Data Rows : 67
                          ***************************
                          DC transfer characteristic  Mon Jan  9 13:58:25  2023
--------------------------------------------------------------------------------
Index   v-sweep         rds             
--------------------------------------------------------------------------------
0	0.000000e+00	1.144208e+03	
1	-5.00000e-02	1.176190e+03	
2	-1.00000e-01	1.209865e+03	
3	-1.50000e-01	1.245369e+03	
4	-2.00000e-01	1.282856e+03	
5	-2.50000e-01	1.322495e+03	
6	-3.00000e-01	1.364478e+03	
7	-3.50000e-01	1.409018e+03	
8	-4.00000e-01	1.456355e+03	
9	-4.50000e-01	1.506761e+03	
10	-5.00000e-01	1.560543e+03	
11	-5.50000e-01	1.618051e+03	
12	-6.00000e-01	1.679686e+03	
13	-6.50000e-01	1.745906e+03	
14	-7.00000e-01	1.817243e+03	
15	-7.50000e-01	1.894311e+03	
16	-8.00000e-01	1.977827e+03	
17	-8.50000e-01	2.068634e+03	
18	-9.00000e-01	2.167727e+03	
19	-9.50000e-01	2.276290e+03	
20	-1.00000e+00	2.395740e+03	
21	-1.05000e+00	2.527795e+03	
22	-1.10000e+00	2.674548e+03	
23	-1.15000e+00	2.838578e+03	
24	-1.20000e+00	3.023099e+03	
25	-1.25000e+00	3.232157e+03	
26	-1.30000e+00	3.470923e+03	
27	-1.35000e+00	3.746082e+03	
28	-1.40000e+00	4.066419e+03	
29	-1.45000e+00	4.443645e+03	
30	-1.50000e+00	4.893619e+03	
31	-1.55000e+00	5.438115e+03	
32	-1.60000e+00	6.107323e+03	
33	-1.65000e+00	6.943128e+03	
34	-1.70000e+00	8.002637e+03	
35	-1.75000e+00	9.359688e+03	
36	-1.80000e+00	1.109877e+04	
37	-1.85000e+00	1.329318e+04	
38	-1.90000e+00	1.596677e+04	
39	-1.95000e+00	1.906276e+04	
40	-2.00000e+00	2.245568e+04	
41	-2.05000e+00	2.600417e+04	
42	-2.10000e+00	2.959889e+04	
43	-2.15000e+00	3.317654e+04	
44	-2.20000e+00	3.670956e+04	
45	-2.25000e+00	4.019093e+04	
46	-2.30000e+00	4.362309e+04	
47	-2.35000e+00	4.701178e+04	
48	-2.40000e+00	5.036324e+04	
49	-2.45000e+00	5.368312e+04	
50	-2.50000e+00	5.697612e+04	
51	-2.55000e+00	6.024606e+04	
52	-2.60000e+00	6.349597e+04	
53	-2.65000e+00	6.672826e+04	
54	-2.70000e+00	6.994484e+04	

Index   v-sweep         rds             
--------------------------------------------------------------------------------
55	-2.75000e+00	7.314724e+04	
56	-2.80000e+00	7.633666e+04	
57	-2.85000e+00	7.951408e+04	
58	-2.90000e+00	8.268031e+04	
59	-2.95000e+00	8.583600e+04	
60	-3.00000e+00	8.898167e+04	
61	-3.05000e+00	9.211778e+04	
62	-3.10000e+00	9.524470e+04	
63	-3.15000e+00	9.836273e+04	
64	-3.20000e+00	1.014721e+05	
65	-3.25000e+00	1.045731e+05	
66	-3.30000e+00	1.076659e+05	
Reset re-loads circuit ***************************

Circuit: ***************************

Note: No ".plot", ".print", or ".fourier" lines; no simulations run
