
Note: Compatibility modes selected: hs

Warning: m=xx on .subckt line will override multiplier m hierarchy!


Circuit: ***************************

Doing analysis at TEMP = 125.000000 and TNOM = 125.000000


No. of Data Rows : 67
                          ***************************
                          DC transfer characteristic  Mon Jan  9 13:58:26  2023
--------------------------------------------------------------------------------
Index   v-sweep         rds             
--------------------------------------------------------------------------------
0	0.000000e+00	2.708769e+05	
1	-5.00000e-02	4.411489e+05	
2	-1.00000e-01	1.001795e+06	
3	-1.50000e-01	3.791089e+06	
4	-2.00000e-01	1.552550e+07	
5	-2.50000e-01	4.636934e+07	
6	-3.00000e-01	1.032604e+08	
7	-3.50000e-01	1.861810e+08	
8	-4.00000e-01	2.887976e+08	
9	-4.50000e-01	4.019503e+08	
10	-5.00000e-01	5.171908e+08	
11	-5.50000e-01	6.285795e+08	
12	-6.00000e-01	7.328208e+08	
13	-6.50000e-01	8.286042e+08	
14	-7.00000e-01	9.158383e+08	
15	-7.50000e-01	9.950630e+08	
16	-8.00000e-01	1.067079e+09	
17	-8.50000e-01	1.132744e+09	
18	-9.00000e-01	1.192867e+09	
19	-9.50000e-01	1.248175e+09	
20	-1.00000e+00	1.299296e+09	
21	-1.05000e+00	1.346763e+09	
22	-1.10000e+00	1.391031e+09	
23	-1.15000e+00	1.432480e+09	
24	-1.20000e+00	1.471434e+09	
25	-1.25000e+00	1.508164e+09	
26	-1.30000e+00	1.542903e+09	
27	-1.35000e+00	1.575849e+09	
28	-1.40000e+00	1.607171e+09	
29	-1.45000e+00	1.637016e+09	
30	-1.50000e+00	1.665512e+09	
31	-1.55000e+00	1.692768e+09	
32	-1.60000e+00	1.718882e+09	
33	-1.65000e+00	1.743939e+09	
34	-1.70000e+00	1.768013e+09	
35	-1.75000e+00	1.791171e+09	
36	-1.80000e+00	1.813468e+09	
37	-1.85000e+00	1.834954e+09	
38	-1.90000e+00	1.855668e+09	
39	-1.95000e+00	1.875643e+09	
40	-2.00000e+00	1.894902e+09	
41	-2.05000e+00	1.913458e+09	
42	-2.10000e+00	1.931312e+09	
43	-2.15000e+00	1.948453e+09	
44	-2.20000e+00	1.964857e+09	
45	-2.25000e+00	1.980482e+09	
46	-2.30000e+00	1.995268e+09	
47	-2.35000e+00	2.009137e+09	
48	-2.40000e+00	2.021987e+09	
49	-2.45000e+00	2.033695e+09	
50	-2.50000e+00	2.044110e+09	
51	-2.55000e+00	2.053060e+09	
52	-2.60000e+00	2.060343e+09	
53	-2.65000e+00	2.065737e+09	
54	-2.70000e+00	2.068996e+09	

Index   v-sweep         rds             
--------------------------------------------------------------------------------
55	-2.75000e+00	2.069854e+09	
56	-2.80000e+00	2.068034e+09	
57	-2.85000e+00	2.063252e+09	
58	-2.90000e+00	2.055223e+09	
59	-2.95000e+00	2.043675e+09	
60	-3.00000e+00	2.028358e+09	
61	-3.05000e+00	2.009058e+09	
62	-3.10000e+00	1.985603e+09	
63	-3.15000e+00	1.957885e+09	
64	-3.20000e+00	1.925859e+09	
65	-3.25000e+00	1.889561e+09	
66	-3.30000e+00	1.849106e+09	
Reset re-loads circuit ***************************

Circuit: ***************************

Doing analysis at TEMP = 125.000000 and TNOM = 125.000000


No. of Data Rows : 67
                          ***************************
                          DC transfer characteristic  Mon Jan  9 13:58:26  2023
--------------------------------------------------------------------------------
Index   v-sweep         rds             
--------------------------------------------------------------------------------
0	0.000000e+00	6.115376e+04	
1	-5.00000e-02	6.879276e+04	
2	-1.00000e-01	7.859789e+04	
3	-1.50000e-01	9.163048e+04	
4	-2.00000e-01	1.097611e+05	
5	-2.50000e-01	1.365787e+05	
6	-3.00000e-01	1.797391e+05	
7	-3.50000e-01	2.577456e+05	
8	-4.00000e-01	4.208529e+05	
9	-4.50000e-01	8.091674e+05	
10	-5.00000e-01	1.750641e+06	
11	-5.50000e-01	3.771806e+06	
12	-6.00000e-01	7.396216e+06	
13	-6.50000e-01	1.288915e+07	
14	-7.00000e-01	2.015275e+07	
15	-7.50000e-01	2.880118e+07	
16	-8.00000e-01	3.832671e+07	
17	-8.50000e-01	4.824948e+07	
18	-9.00000e-01	5.819814e+07	
19	-9.50000e-01	6.792631e+07	
20	-1.00000e+00	7.729343e+07	
21	-1.05000e+00	8.623487e+07	
22	-1.10000e+00	9.473456e+07	
23	-1.15000e+00	1.028045e+08	
24	-1.20000e+00	1.104712e+08	
25	-1.25000e+00	1.177671e+08	
26	-1.30000e+00	1.247259e+08	
27	-1.35000e+00	1.313798e+08	
28	-1.40000e+00	1.377586e+08	
29	-1.45000e+00	1.438889e+08	
30	-1.50000e+00	1.497942e+08	
31	-1.55000e+00	1.554951e+08	
32	-1.60000e+00	1.610098e+08	
33	-1.65000e+00	1.663539e+08	
34	-1.70000e+00	1.715412e+08	
35	-1.75000e+00	1.765837e+08	
36	-1.80000e+00	1.814920e+08	
37	-1.85000e+00	1.862754e+08	
38	-1.90000e+00	1.909418e+08	
39	-1.95000e+00	1.954986e+08	
40	-2.00000e+00	1.999519e+08	
41	-2.05000e+00	2.043070e+08	
42	-2.10000e+00	2.085686e+08	
43	-2.15000e+00	2.127402e+08	
44	-2.20000e+00	2.168245e+08	
45	-2.25000e+00	2.208231e+08	
46	-2.30000e+00	2.247360e+08	
47	-2.35000e+00	2.285618e+08	
48	-2.40000e+00	2.322970e+08	
49	-2.45000e+00	2.359356e+08	
50	-2.50000e+00	2.394689e+08	
51	-2.55000e+00	2.428845e+08	
52	-2.60000e+00	2.461661e+08	
53	-2.65000e+00	2.492928e+08	
54	-2.70000e+00	2.522386e+08	

Index   v-sweep         rds             
--------------------------------------------------------------------------------
55	-2.75000e+00	2.549716e+08	
56	-2.80000e+00	2.574540e+08	
57	-2.85000e+00	2.596417e+08	
58	-2.90000e+00	2.614845e+08	
59	-2.95000e+00	2.629262e+08	
60	-3.00000e+00	2.639060e+08	
61	-3.05000e+00	2.643595e+08	
62	-3.10000e+00	2.642209e+08	
63	-3.15000e+00	2.634254e+08	
64	-3.20000e+00	2.619126e+08	
65	-3.25000e+00	2.596299e+08	
66	-3.30000e+00	2.565361e+08	
Reset re-loads circuit ***************************

Circuit: ***************************

Doing analysis at TEMP = 125.000000 and TNOM = 125.000000


No. of Data Rows : 67
                          ***************************
                          DC transfer characteristic  Mon Jan  9 13:58:26  2023
--------------------------------------------------------------------------------
Index   v-sweep         rds             
--------------------------------------------------------------------------------
0	0.000000e+00	3.567440e+04	
1	-5.00000e-02	3.805390e+04	
2	-1.00000e-01	4.077218e+04	
3	-1.50000e-01	4.390694e+04	
4	-2.00000e-01	4.756151e+04	
5	-2.50000e-01	5.187627e+04	
6	-3.00000e-01	5.704672e+04	
7	-3.50000e-01	6.335309e+04	
8	-4.00000e-01	7.121095e+04	
9	-4.50000e-01	8.126171e+04	
10	-5.00000e-01	9.454374e+04	
11	-5.50000e-01	1.128353e+05	
12	-6.00000e-01	1.393880e+05	
13	-6.50000e-01	1.805894e+05	
14	-7.00000e-01	2.498625e+05	
15	-7.50000e-01	3.764604e+05	
16	-8.00000e-01	6.216609e+05	
17	-8.50000e-01	1.095219e+06	
18	-9.00000e-01	1.946468e+06	
19	-9.50000e-01	3.314763e+06	
20	-1.00000e+00	5.269527e+06	
21	-1.05000e+00	7.783145e+06	
22	-1.10000e+00	1.074823e+07	
23	-1.15000e+00	1.401962e+07	
24	-1.20000e+00	1.745478e+07	
25	-1.25000e+00	2.093789e+07	
26	-1.30000e+00	2.438713e+07	
27	-1.35000e+00	2.775160e+07	
28	-1.40000e+00	3.100397e+07	
29	-1.45000e+00	3.413305e+07	
30	-1.50000e+00	3.713776e+07	
31	-1.55000e+00	4.002276e+07	
32	-1.60000e+00	4.279568e+07	
33	-1.65000e+00	4.546531e+07	
34	-1.70000e+00	4.804061e+07	
35	-1.75000e+00	5.053014e+07	
36	-1.80000e+00	5.294178e+07	
37	-1.85000e+00	5.528266e+07	
38	-1.90000e+00	5.755910e+07	
39	-1.95000e+00	5.977671e+07	
40	-2.00000e+00	6.194041e+07	
41	-2.05000e+00	6.405452e+07	
42	-2.10000e+00	6.612284e+07	
43	-2.15000e+00	6.814870e+07	
44	-2.20000e+00	7.013502e+07	
45	-2.25000e+00	7.208436e+07	
46	-2.30000e+00	7.399895e+07	
47	-2.35000e+00	7.588073e+07	
48	-2.40000e+00	7.773133e+07	
49	-2.45000e+00	7.955208e+07	
50	-2.50000e+00	8.134396e+07	
51	-2.55000e+00	8.310756e+07	
52	-2.60000e+00	8.484301e+07	
53	-2.65000e+00	8.654983e+07	
54	-2.70000e+00	8.822682e+07	

Index   v-sweep         rds             
--------------------------------------------------------------------------------
55	-2.75000e+00	8.987189e+07	
56	-2.80000e+00	9.148180e+07	
57	-2.85000e+00	9.305200e+07	
58	-2.90000e+00	9.457628e+07	
59	-2.95000e+00	9.604653e+07	
60	-3.00000e+00	9.745242e+07	
61	-3.05000e+00	9.878114e+07	
62	-3.10000e+00	1.000171e+08	
63	-3.15000e+00	1.011419e+08	
64	-3.20000e+00	1.021339e+08	
65	-3.25000e+00	1.029687e+08	
66	-3.30000e+00	1.036191e+08	
Reset re-loads circuit ***************************

Circuit: ***************************

Doing analysis at TEMP = 125.000000 and TNOM = 125.000000


No. of Data Rows : 67
                          ***************************
                          DC transfer characteristic  Mon Jan  9 13:58:26  2023
--------------------------------------------------------------------------------
Index   v-sweep         rds             
--------------------------------------------------------------------------------
0	0.000000e+00	2.595609e+04	
1	-5.00000e-02	2.711430e+04	
2	-1.00000e-01	2.838026e+04	
3	-1.50000e-01	2.976971e+04	
4	-2.00000e-01	3.130162e+04	
5	-2.50000e-01	3.299906e+04	
6	-3.00000e-01	3.489034e+04	
7	-3.50000e-01	3.701060e+04	
8	-4.00000e-01	3.940398e+04	
9	-4.50000e-01	4.212670e+04	
10	-5.00000e-01	4.525146e+04	
11	-5.50000e-01	4.887387e+04	
12	-6.00000e-01	5.312217e+04	
13	-6.50000e-01	5.817219e+04	
14	-7.00000e-01	6.427125e+04	
15	-7.50000e-01	7.177750e+04	
16	-8.00000e-01	8.122731e+04	
17	-8.50000e-01	9.345553e+04	
18	-9.00000e-01	1.098196e+05	
19	-9.50000e-01	1.326346e+05	
20	-1.00000e+00	1.660453e+05	
21	-1.05000e+00	2.177820e+05	
22	-1.10000e+00	3.025104e+05	
23	-1.15000e+00	4.471821e+05	
24	-1.20000e+00	6.963358e+05	
25	-1.25000e+00	1.110638e+06	
26	-1.30000e+00	1.752274e+06	
27	-1.35000e+00	2.662077e+06	
28	-1.40000e+00	3.843113e+06	
29	-1.45000e+00	5.260600e+06	
30	-1.50000e+00	6.855558e+06	
31	-1.55000e+00	8.562451e+06	
32	-1.60000e+00	1.032264e+07	
33	-1.65000e+00	1.209091e+07	
34	-1.70000e+00	1.383627e+07	
35	-1.75000e+00	1.553990e+07	
36	-1.80000e+00	1.719193e+07	
37	-1.85000e+00	1.878862e+07	
38	-1.90000e+00	2.033001e+07	
39	-1.95000e+00	2.181838e+07	
40	-2.00000e+00	2.325707e+07	
41	-2.05000e+00	2.464993e+07	
42	-2.10000e+00	2.600082e+07	
43	-2.15000e+00	2.731346e+07	
44	-2.20000e+00	2.859129e+07	
45	-2.25000e+00	2.983742e+07	
46	-2.30000e+00	3.105463e+07	
47	-2.35000e+00	3.224541e+07	
48	-2.40000e+00	3.341193e+07	
49	-2.45000e+00	3.455612e+07	
50	-2.50000e+00	3.567969e+07	
51	-2.55000e+00	3.678411e+07	
52	-2.60000e+00	3.787070e+07	
53	-2.65000e+00	3.894059e+07	
54	-2.70000e+00	3.999478e+07	

Index   v-sweep         rds             
--------------------------------------------------------------------------------
55	-2.75000e+00	4.103409e+07	
56	-2.80000e+00	4.205921e+07	
57	-2.85000e+00	4.307065e+07	
58	-2.90000e+00	4.406870e+07	
59	-2.95000e+00	4.505342e+07	
60	-3.00000e+00	4.602459e+07	
61	-3.05000e+00	4.698156e+07	
62	-3.10000e+00	4.792323e+07	
63	-3.15000e+00	4.884791e+07	
64	-3.20000e+00	4.975315e+07	
65	-3.25000e+00	5.063561e+07	
66	-3.30000e+00	5.149091e+07	
Reset re-loads circuit ***************************

Circuit: ***************************

Doing analysis at TEMP = 125.000000 and TNOM = 125.000000


No. of Data Rows : 67
                          ***************************
                          DC transfer characteristic  Mon Jan  9 13:58:26  2023
--------------------------------------------------------------------------------
Index   v-sweep         rds             
--------------------------------------------------------------------------------
0	0.000000e+00	2.086750e+04	
1	-5.00000e-02	2.155711e+04	
2	-1.00000e-01	2.229362e+04	
3	-1.50000e-01	2.308198e+04	
4	-2.00000e-01	2.392787e+04	
5	-2.50000e-01	2.483783e+04	
6	-3.00000e-01	2.581940e+04	
7	-3.50000e-01	2.688138e+04	
8	-4.00000e-01	2.803406e+04	
9	-4.50000e-01	2.928957e+04	
10	-5.00000e-01	3.066229e+04	
11	-5.50000e-01	3.216941e+04	
12	-6.00000e-01	3.383164e+04	
13	-6.50000e-01	3.567415e+04	
14	-7.00000e-01	3.772787e+04	
15	-7.50000e-01	4.003119e+04	
16	-8.00000e-01	4.263233e+04	
17	-8.50000e-01	4.559268e+04	
18	-9.00000e-01	4.899162e+04	
19	-9.50000e-01	5.293344e+04	
20	-1.00000e+00	5.755778e+04	
21	-1.05000e+00	6.305569e+04	
22	-1.10000e+00	6.969475e+04	
23	-1.15000e+00	7.786006e+04	
24	-1.20000e+00	8.812282e+04	
25	-1.25000e+00	1.013589e+05	
26	-1.30000e+00	1.189603e+05	
27	-1.35000e+00	1.432193e+05	
28	-1.40000e+00	1.780313e+05	
29	-1.45000e+00	2.301347e+05	
30	-1.50000e+00	3.110786e+05	
31	-1.55000e+00	4.396207e+05	
32	-1.60000e+00	6.429338e+05	
33	-1.65000e+00	9.537199e+05	
34	-1.70000e+00	1.401836e+06	
35	-1.75000e+00	2.003795e+06	
36	-1.80000e+00	2.756414e+06	
37	-1.85000e+00	3.638122e+06	
38	-1.90000e+00	4.616176e+06	
39	-1.95000e+00	5.655285e+06	
40	-2.00000e+00	6.724056e+06	
41	-2.05000e+00	7.798107e+06	
42	-2.10000e+00	8.860492e+06	
43	-2.15000e+00	9.900647e+06	
44	-2.20000e+00	1.091284e+07	
45	-2.25000e+00	1.189466e+07	
46	-2.30000e+00	1.284588e+07	
47	-2.35000e+00	1.376750e+07	
48	-2.40000e+00	1.466125e+07	
49	-2.45000e+00	1.552915e+07	
50	-2.50000e+00	1.637330e+07	
51	-2.55000e+00	1.719574e+07	
52	-2.60000e+00	1.799837e+07	
53	-2.65000e+00	1.878295e+07	
54	-2.70000e+00	1.955106e+07	

Index   v-sweep         rds             
--------------------------------------------------------------------------------
55	-2.75000e+00	2.030411e+07	
56	-2.80000e+00	2.104334e+07	
57	-2.85000e+00	2.176987e+07	
58	-2.90000e+00	2.248467e+07	
59	-2.95000e+00	2.318859e+07	
60	-3.00000e+00	2.388241e+07	
61	-3.05000e+00	2.456677e+07	
62	-3.10000e+00	2.524224e+07	
63	-3.15000e+00	2.590930e+07	
64	-3.20000e+00	2.656832e+07	
65	-3.25000e+00	2.721956e+07	
66	-3.30000e+00	2.786315e+07	
Reset re-loads circuit ***************************

Circuit: ***************************

Doing analysis at TEMP = 125.000000 and TNOM = 125.000000


No. of Data Rows : 67
                          ***************************
                          DC transfer characteristic  Mon Jan  9 13:58:26  2023
--------------------------------------------------------------------------------
Index   v-sweep         rds             
--------------------------------------------------------------------------------
0	0.000000e+00	1.772683e+04	
1	-5.00000e-02	1.818587e+04	
2	-1.00000e-01	1.866918e+04	
3	-1.50000e-01	1.917873e+04	
4	-2.00000e-01	1.971671e+04	
5	-2.50000e-01	2.028558e+04	
6	-3.00000e-01	2.088807e+04	
7	-3.50000e-01	2.152725e+04	
8	-4.00000e-01	2.220657e+04	
9	-4.50000e-01	2.292994e+04	
10	-5.00000e-01	2.370179e+04	
11	-5.50000e-01	2.452715e+04	
12	-6.00000e-01	2.541177e+04	
13	-6.50000e-01	2.636228e+04	
14	-7.00000e-01	2.738632e+04	
15	-7.50000e-01	2.849273e+04	
16	-8.00000e-01	2.969188e+04	
17	-8.50000e-01	3.099590e+04	
18	-9.00000e-01	3.241914e+04	
19	-9.50000e-01	3.397871e+04	
20	-1.00000e+00	3.569511e+04	
21	-1.05000e+00	3.759317e+04	
22	-1.10000e+00	3.970321e+04	
23	-1.15000e+00	4.206264e+04	
24	-1.20000e+00	4.471817e+04	
25	-1.25000e+00	4.772881e+04	
26	-1.30000e+00	5.117015e+04	
27	-1.35000e+00	5.514052e+04	
28	-1.40000e+00	5.977000e+04	
29	-1.45000e+00	6.523397e+04	
30	-1.50000e+00	7.177387e+04	
31	-1.55000e+00	7.972990e+04	
32	-1.60000e+00	8.959370e+04	
33	-1.65000e+00	1.020954e+05	
34	-1.70000e+00	1.183500e+05	
35	-1.75000e+00	1.401065e+05	
36	-1.80000e+00	1.701689e+05	
37	-1.85000e+00	2.130770e+05	
38	-1.90000e+00	2.760986e+05	
39	-1.95000e+00	3.703558e+05	
40	-2.00000e+00	5.113836e+05	
41	-2.05000e+00	7.178774e+05	
42	-2.10000e+00	1.007797e+06	
43	-2.15000e+00	1.392871e+06	
44	-2.20000e+00	1.874340e+06	
45	-2.25000e+00	2.442340e+06	
46	-2.30000e+00	3.078952e+06	
47	-2.35000e+00	3.762949e+06	
48	-2.40000e+00	4.474024e+06	
49	-2.45000e+00	5.195354e+06	
50	-2.50000e+00	5.914481e+06	
51	-2.55000e+00	6.623062e+06	
52	-2.60000e+00	7.316089e+06	
53	-2.65000e+00	7.991001e+06	
54	-2.70000e+00	8.646905e+06	

Index   v-sweep         rds             
--------------------------------------------------------------------------------
55	-2.75000e+00	9.283962e+06	
56	-2.80000e+00	9.902956e+06	
57	-2.85000e+00	1.050500e+07	
58	-2.90000e+00	1.109134e+07	
59	-2.95000e+00	1.166326e+07	
60	-3.00000e+00	1.222197e+07	
61	-3.05000e+00	1.276863e+07	
62	-3.10000e+00	1.330428e+07	
63	-3.15000e+00	1.382987e+07	
64	-3.20000e+00	1.434625e+07	
65	-3.25000e+00	1.485416e+07	
66	-3.30000e+00	1.535429e+07	
Reset re-loads circuit ***************************

Circuit: ***************************

Note: No ".plot", ".print", or ".fourier" lines; no simulations run
