
Note: Compatibility modes selected: hs

Warning: m=xx on .subckt line will override multiplier m hierarchy!


Circuit: ***************************

Doing analysis at TEMP = -40.000000 and TNOM = -40.000000


No. of Data Rows : 67
                          ***************************
                          DC transfer characteristic  Mon Jan  9 13:58:26  2023
--------------------------------------------------------------------------------
Index   v-sweep         rds             
--------------------------------------------------------------------------------
0	0.000000e+00	8.099825e+05	
1	-5.00000e-02	2.623792e+06	
2	-1.00000e-01	1.311989e+07	
3	-1.50000e-01	2.626948e+07	
4	-2.00000e-01	3.168664e+07	
5	-2.50000e-01	3.370995e+07	
6	-3.00000e-01	3.460181e+07	
7	-3.50000e-01	3.504160e+07	
8	-4.00000e-01	3.525831e+07	
9	-4.50000e-01	3.534432e+07	
10	-5.00000e-01	3.534368e+07	
11	-5.50000e-01	3.528058e+07	
12	-6.00000e-01	3.516997e+07	
13	-6.50000e-01	3.502195e+07	
14	-7.00000e-01	3.484384e+07	
15	-7.50000e-01	3.464118e+07	
16	-8.00000e-01	3.441833e+07	
17	-8.50000e-01	3.417884e+07	
18	-9.00000e-01	3.392559e+07	
19	-9.50000e-01	3.366101e+07	
20	-1.00000e+00	3.338713e+07	
21	-1.05000e+00	3.310569e+07	
22	-1.10000e+00	3.281816e+07	
23	-1.15000e+00	3.252582e+07	
24	-1.20000e+00	3.222977e+07	
25	-1.25000e+00	3.193094e+07	
26	-1.30000e+00	3.163016e+07	
27	-1.35000e+00	3.132815e+07	
28	-1.40000e+00	3.102552e+07	
29	-1.45000e+00	3.072281e+07	
30	-1.50000e+00	3.042049e+07	
31	-1.55000e+00	3.011898e+07	
32	-1.60000e+00	2.981862e+07	
33	-1.65000e+00	2.951972e+07	
34	-1.70000e+00	2.922254e+07	
35	-1.75000e+00	2.892731e+07	
36	-1.80000e+00	2.863421e+07	
37	-1.85000e+00	2.834340e+07	
38	-1.90000e+00	2.805497e+07	
39	-1.95000e+00	2.776903e+07	
40	-2.00000e+00	2.748561e+07	
41	-2.05000e+00	2.720473e+07	
42	-2.10000e+00	2.692636e+07	
43	-2.15000e+00	2.665043e+07	
44	-2.20000e+00	2.637683e+07	
45	-2.25000e+00	2.610542e+07	
46	-2.30000e+00	2.583600e+07	
47	-2.35000e+00	2.556833e+07	
48	-2.40000e+00	2.530210e+07	
49	-2.45000e+00	2.503697e+07	
50	-2.50000e+00	2.477253e+07	
51	-2.55000e+00	2.450834e+07	
52	-2.60000e+00	2.424388e+07	
53	-2.65000e+00	2.397860e+07	
54	-2.70000e+00	2.371188e+07	

Index   v-sweep         rds             
--------------------------------------------------------------------------------
55	-2.75000e+00	2.344306e+07	
56	-2.80000e+00	2.317144e+07	
57	-2.85000e+00	2.289630e+07	
58	-2.90000e+00	2.261685e+07	
59	-2.95000e+00	2.233232e+07	
60	-3.00000e+00	2.204191e+07	
61	-3.05000e+00	2.174482e+07	
62	-3.10000e+00	2.144029e+07	
63	-3.15000e+00	2.112757e+07	
64	-3.20000e+00	2.080596e+07	
65	-3.25000e+00	2.047482e+07	
66	-3.30000e+00	2.013359e+07	
Reset re-loads circuit ***************************

Circuit: ***************************

Doing analysis at TEMP = -40.000000 and TNOM = -40.000000


No. of Data Rows : 67
                          ***************************
                          DC transfer characteristic  Mon Jan  9 13:58:26  2023
--------------------------------------------------------------------------------
Index   v-sweep         rds             
--------------------------------------------------------------------------------
0	0.000000e+00	4.513821e+04	
1	-5.00000e-02	5.007511e+04	
2	-1.00000e-01	5.608868e+04	
3	-1.50000e-01	6.356924e+04	
4	-2.00000e-01	7.311769e+04	
5	-2.50000e-01	8.570297e+04	
6	-3.00000e-01	1.029717e+05	
7	-3.50000e-01	1.278734e+05	
8	-4.00000e-01	1.658513e+05	
9	-4.50000e-01	2.262311e+05	
10	-5.00000e-01	3.188629e+05	
11	-5.50000e-01	4.361886e+05	
12	-6.00000e-01	5.472972e+05	
13	-6.50000e-01	6.338955e+05	
14	-7.00000e-01	6.997233e+05	
15	-7.50000e-01	7.528198e+05	
16	-8.00000e-01	7.984601e+05	
17	-8.50000e-01	8.394641e+05	
18	-9.00000e-01	8.773091e+05	
19	-9.50000e-01	9.128008e+05	
20	-1.00000e+00	9.464065e+05	
21	-1.05000e+00	9.784167e+05	
22	-1.10000e+00	1.009024e+06	
23	-1.15000e+00	1.038367e+06	
24	-1.20000e+00	1.066548e+06	
25	-1.25000e+00	1.093650e+06	
26	-1.30000e+00	1.119740e+06	
27	-1.35000e+00	1.144876e+06	
28	-1.40000e+00	1.169108e+06	
29	-1.45000e+00	1.192483e+06	
30	-1.50000e+00	1.215041e+06	
31	-1.55000e+00	1.236821e+06	
32	-1.60000e+00	1.257856e+06	
33	-1.65000e+00	1.278179e+06	
34	-1.70000e+00	1.297820e+06	
35	-1.75000e+00	1.316809e+06	
36	-1.80000e+00	1.335172e+06	
37	-1.85000e+00	1.352934e+06	
38	-1.90000e+00	1.370118e+06	
39	-1.95000e+00	1.386748e+06	
40	-2.00000e+00	1.402845e+06	
41	-2.05000e+00	1.418429e+06	
42	-2.10000e+00	1.433517e+06	
43	-2.15000e+00	1.448127e+06	
44	-2.20000e+00	1.462275e+06	
45	-2.25000e+00	1.475973e+06	
46	-2.30000e+00	1.489232e+06	
47	-2.35000e+00	1.502060e+06	
48	-2.40000e+00	1.514460e+06	
49	-2.45000e+00	1.526430e+06	
50	-2.50000e+00	1.537966e+06	
51	-2.55000e+00	1.549054e+06	
52	-2.60000e+00	1.559672e+06	
53	-2.65000e+00	1.569790e+06	
54	-2.70000e+00	1.579367e+06	

Index   v-sweep         rds             
--------------------------------------------------------------------------------
55	-2.75000e+00	1.588351e+06	
56	-2.80000e+00	1.596674e+06	
57	-2.85000e+00	1.604255e+06	
58	-2.90000e+00	1.610999e+06	
59	-2.95000e+00	1.616790e+06	
60	-3.00000e+00	1.621498e+06	
61	-3.05000e+00	1.624976e+06	
62	-3.10000e+00	1.627059e+06	
63	-3.15000e+00	1.627570e+06	
64	-3.20000e+00	1.626317e+06	
65	-3.25000e+00	1.623100e+06	
66	-3.30000e+00	1.617716e+06	
Reset re-loads circuit ***************************

Circuit: ***************************

Doing analysis at TEMP = -40.000000 and TNOM = -40.000000


No. of Data Rows : 67
                          ***************************
                          DC transfer characteristic  Mon Jan  9 13:58:26  2023
--------------------------------------------------------------------------------
Index   v-sweep         rds             
--------------------------------------------------------------------------------
0	0.000000e+00	2.726847e+04	
1	-5.00000e-02	2.900268e+04	
2	-1.00000e-01	3.093805e+04	
3	-1.50000e-01	3.311131e+04	
4	-2.00000e-01	3.556862e+04	
5	-2.50000e-01	3.836886e+04	
6	-3.00000e-01	4.158826e+04	
7	-3.50000e-01	4.532713e+04	
8	-4.00000e-01	4.972008e+04	
9	-4.50000e-01	5.495138e+04	
10	-5.00000e-01	6.127903e+04	
11	-5.50000e-01	6.907254e+04	
12	-6.00000e-01	7.887191e+04	
13	-6.50000e-01	9.147384e+04	
14	-7.00000e-01	1.080281e+05	
15	-7.50000e-01	1.300206e+05	
16	-8.00000e-01	1.587199e+05	
17	-8.50000e-01	1.935324e+05	
18	-9.00000e-01	2.305735e+05	
19	-9.50000e-01	2.649769e+05	
20	-1.00000e+00	2.946644e+05	
21	-1.05000e+00	3.202080e+05	
22	-1.10000e+00	3.428523e+05	
23	-1.15000e+00	3.635728e+05	
24	-1.20000e+00	3.829797e+05	
25	-1.25000e+00	4.014330e+05	
26	-1.30000e+00	4.191456e+05	
27	-1.35000e+00	4.362477e+05	
28	-1.40000e+00	4.528225e+05	
29	-1.45000e+00	4.689257e+05	
30	-1.50000e+00	4.845967e+05	
31	-1.55000e+00	4.998649e+05	
32	-1.60000e+00	5.147530e+05	
33	-1.65000e+00	5.292796e+05	
34	-1.70000e+00	5.434603e+05	
35	-1.75000e+00	5.573087e+05	
36	-1.80000e+00	5.708369e+05	
37	-1.85000e+00	5.840558e+05	
38	-1.90000e+00	5.969755e+05	
39	-1.95000e+00	6.096054e+05	
40	-2.00000e+00	6.219543e+05	
41	-2.05000e+00	6.340306e+05	
42	-2.10000e+00	6.458420e+05	
43	-2.15000e+00	6.573963e+05	
44	-2.20000e+00	6.687005e+05	
45	-2.25000e+00	6.797616e+05	
46	-2.30000e+00	6.905861e+05	
47	-2.35000e+00	7.011801e+05	
48	-2.40000e+00	7.115495e+05	
49	-2.45000e+00	7.216996e+05	
50	-2.50000e+00	7.316349e+05	
51	-2.55000e+00	7.413594e+05	
52	-2.60000e+00	7.508757e+05	
53	-2.65000e+00	7.601851e+05	
54	-2.70000e+00	7.692871e+05	

Index   v-sweep         rds             
--------------------------------------------------------------------------------
55	-2.75000e+00	7.781787e+05	
56	-2.80000e+00	7.868536e+05	
57	-2.85000e+00	7.953021e+05	
58	-2.90000e+00	8.035095e+05	
59	-2.95000e+00	8.114554e+05	
60	-3.00000e+00	8.191128e+05	
61	-3.05000e+00	8.264470e+05	
62	-3.10000e+00	8.334143e+05	
63	-3.15000e+00	8.399608e+05	
64	-3.20000e+00	8.460219e+05	
65	-3.25000e+00	8.515211e+05	
66	-3.30000e+00	8.563695e+05	
Reset re-loads circuit ***************************

Circuit: ***************************

Doing analysis at TEMP = -40.000000 and TNOM = -40.000000


No. of Data Rows : 67
                          ***************************
                          DC transfer characteristic  Mon Jan  9 13:58:26  2023
--------------------------------------------------------------------------------
Index   v-sweep         rds             
--------------------------------------------------------------------------------
0	0.000000e+00	1.955954e+04	
1	-5.00000e-02	2.041916e+04	
2	-1.00000e-01	2.134407e+04	
3	-1.50000e-01	2.234185e+04	
4	-2.00000e-01	2.342131e+04	
5	-2.50000e-01	2.459274e+04	
6	-3.00000e-01	2.586822e+04	
7	-3.50000e-01	2.726203e+04	
8	-4.00000e-01	2.879120e+04	
9	-4.50000e-01	3.047614e+04	
10	-5.00000e-01	3.234160e+04	
11	-5.50000e-01	3.441776e+04	
12	-6.00000e-01	3.674190e+04	
13	-6.50000e-01	3.936045e+04	
14	-7.00000e-01	4.233194e+04	
15	-7.50000e-01	4.573103e+04	
16	-8.00000e-01	4.965401e+04	
17	-8.50000e-01	5.422638e+04	
18	-9.00000e-01	5.961287e+04	
19	-9.50000e-01	6.602938e+04	
20	-1.00000e+00	7.375316e+04	
21	-1.05000e+00	8.311804e+04	
22	-1.10000e+00	9.445930e+04	
23	-1.15000e+00	1.079458e+05	
24	-1.20000e+00	1.232843e+05	
25	-1.25000e+00	1.395440e+05	
26	-1.30000e+00	1.555304e+05	
27	-1.35000e+00	1.704722e+05	
28	-1.40000e+00	1.842275e+05	
29	-1.45000e+00	1.969936e+05	
30	-1.50000e+00	2.090221e+05	
31	-1.55000e+00	2.205097e+05	
32	-1.60000e+00	2.315884e+05	
33	-1.65000e+00	2.423428e+05	
34	-1.70000e+00	2.528269e+05	
35	-1.75000e+00	2.630756e+05	
36	-1.80000e+00	2.731126e+05	
37	-1.85000e+00	2.829543e+05	
38	-1.90000e+00	2.926128e+05	
39	-1.95000e+00	3.020971e+05	
40	-2.00000e+00	3.114144e+05	
41	-2.05000e+00	3.205707e+05	
42	-2.10000e+00	3.295712e+05	
43	-2.15000e+00	3.384201e+05	
44	-2.20000e+00	3.471216e+05	
45	-2.25000e+00	3.556793e+05	
46	-2.30000e+00	3.640965e+05	
47	-2.35000e+00	3.723765e+05	
48	-2.40000e+00	3.805223e+05	
49	-2.45000e+00	3.885368e+05	
50	-2.50000e+00	3.964228e+05	
51	-2.55000e+00	4.041829e+05	
52	-2.60000e+00	4.118197e+05	
53	-2.65000e+00	4.193356e+05	
54	-2.70000e+00	4.267330e+05	

Index   v-sweep         rds             
--------------------------------------------------------------------------------
55	-2.75000e+00	4.340139e+05	
56	-2.80000e+00	4.411803e+05	
57	-2.85000e+00	4.482338e+05	
58	-2.90000e+00	4.551754e+05	
59	-2.95000e+00	4.620058e+05	
60	-3.00000e+00	4.687244e+05	
61	-3.05000e+00	4.753297e+05	
62	-3.10000e+00	4.818186e+05	
63	-3.15000e+00	4.881858e+05	
64	-3.20000e+00	4.944234e+05	
65	-3.25000e+00	5.005205e+05	
66	-3.30000e+00	5.064618e+05	
Reset re-loads circuit ***************************

Circuit: ***************************

Doing analysis at TEMP = -40.000000 and TNOM = -40.000000


No. of Data Rows : 67
                          ***************************
                          DC transfer characteristic  Mon Jan  9 13:58:26  2023
--------------------------------------------------------------------------------
Index   v-sweep         rds             
--------------------------------------------------------------------------------
0	0.000000e+00	1.579695e+04	
1	-5.00000e-02	1.633277e+04	
2	-1.00000e-01	1.689897e+04	
3	-1.50000e-01	1.749813e+04	
4	-2.00000e-01	1.813314e+04	
5	-2.50000e-01	1.880723e+04	
6	-3.00000e-01	1.952406e+04	
7	-3.50000e-01	2.028772e+04	
8	-4.00000e-01	2.110286e+04	
9	-4.50000e-01	2.197478e+04	
10	-5.00000e-01	2.290950e+04	
11	-5.50000e-01	2.391394e+04	
12	-6.00000e-01	2.499606e+04	
13	-6.50000e-01	2.616509e+04	
14	-7.00000e-01	2.743177e+04	
15	-7.50000e-01	2.880865e+04	
16	-8.00000e-01	3.031052e+04	
17	-8.50000e-01	3.195493e+04	
18	-9.00000e-01	3.376280e+04	
19	-9.50000e-01	3.575924e+04	
20	-1.00000e+00	3.797468e+04	
21	-1.05000e+00	4.044617e+04	
22	-1.10000e+00	4.321914e+04	
23	-1.15000e+00	4.634958e+04	
24	-1.20000e+00	4.990654e+04	
25	-1.25000e+00	5.397480e+04	
26	-1.30000e+00	5.865643e+04	
27	-1.35000e+00	6.406873e+04	
28	-1.40000e+00	7.033218e+04	
29	-1.45000e+00	7.753798e+04	
30	-1.50000e+00	8.568538e+04	
31	-1.55000e+00	9.460657e+04	
32	-1.60000e+00	1.039539e+05	
33	-1.65000e+00	1.133216e+05	
34	-1.70000e+00	1.224222e+05	
35	-1.75000e+00	1.311511e+05	
36	-1.80000e+00	1.395266e+05	
37	-1.85000e+00	1.476092e+05	
38	-1.90000e+00	1.554582e+05	
39	-1.95000e+00	1.631185e+05	
40	-2.00000e+00	1.706216e+05	
41	-2.05000e+00	1.779884e+05	
42	-2.10000e+00	1.852333e+05	
43	-2.15000e+00	1.923661e+05	
44	-2.20000e+00	1.993937e+05	
45	-2.25000e+00	2.063212e+05	
46	-2.30000e+00	2.131525e+05	
47	-2.35000e+00	2.198907e+05	
48	-2.40000e+00	2.265382e+05	
49	-2.45000e+00	2.330974e+05	
50	-2.50000e+00	2.395700e+05	
51	-2.55000e+00	2.459579e+05	
52	-2.60000e+00	2.522626e+05	
53	-2.65000e+00	2.584856e+05	
54	-2.70000e+00	2.646282e+05	

Index   v-sweep         rds             
--------------------------------------------------------------------------------
55	-2.75000e+00	2.706920e+05	
56	-2.80000e+00	2.766781e+05	
57	-2.85000e+00	2.825877e+05	
58	-2.90000e+00	2.884223e+05	
59	-2.95000e+00	2.941828e+05	
60	-3.00000e+00	2.998704e+05	
61	-3.05000e+00	3.054861e+05	
62	-3.10000e+00	3.110310e+05	
63	-3.15000e+00	3.165058e+05	
64	-3.20000e+00	3.219110e+05	
65	-3.25000e+00	3.272469e+05	
66	-3.30000e+00	3.325133e+05	
Reset re-loads circuit ***************************

Circuit: ***************************

Doing analysis at TEMP = -40.000000 and TNOM = -40.000000


No. of Data Rows : 67
                          ***************************
                          DC transfer characteristic  Mon Jan  9 13:58:26  2023
--------------------------------------------------------------------------------
Index   v-sweep         rds             
--------------------------------------------------------------------------------
0	0.000000e+00	1.396783e+04	
1	-5.00000e-02	1.436292e+04	
2	-1.00000e-01	1.477633e+04	
3	-1.50000e-01	1.520932e+04	
4	-2.00000e-01	1.566328e+04	
5	-2.50000e-01	1.613973e+04	
6	-3.00000e-01	1.664032e+04	
7	-3.50000e-01	1.716690e+04	
8	-4.00000e-01	1.772148e+04	
9	-4.50000e-01	1.830631e+04	
10	-5.00000e-01	1.892387e+04	
11	-5.50000e-01	1.957693e+04	
12	-6.00000e-01	2.026856e+04	
13	-6.50000e-01	2.100223e+04	
14	-7.00000e-01	2.178181e+04	
15	-7.50000e-01	2.261166e+04	
16	-8.00000e-01	2.349672e+04	
17	-8.50000e-01	2.444259e+04	
18	-9.00000e-01	2.545565e+04	
19	-9.50000e-01	2.654319e+04	
20	-1.00000e+00	2.771360e+04	
21	-1.05000e+00	2.897656e+04	
22	-1.10000e+00	3.034330e+04	
23	-1.15000e+00	3.182689e+04	
24	-1.20000e+00	3.344267e+04	
25	-1.25000e+00	3.520867e+04	
26	-1.30000e+00	3.714625e+04	
27	-1.35000e+00	3.928075e+04	
28	-1.40000e+00	4.164239e+04	
29	-1.45000e+00	4.426716e+04	
30	-1.50000e+00	4.719780e+04	
31	-1.55000e+00	5.048438e+04	
32	-1.60000e+00	5.418396e+04	
33	-1.65000e+00	5.835766e+04	
34	-1.70000e+00	6.306253e+04	
35	-1.75000e+00	6.833464e+04	
36	-1.80000e+00	7.416181e+04	
37	-1.85000e+00	8.045597e+04	
38	-1.90000e+00	8.705198e+04	
39	-1.95000e+00	9.375460e+04	
40	-2.00000e+00	1.004077e+05	
41	-2.05000e+00	1.069298e+05	
42	-2.10000e+00	1.133002e+05	
43	-2.15000e+00	1.195293e+05	
44	-2.20000e+00	1.256357e+05	
45	-2.25000e+00	1.316367e+05	
46	-2.30000e+00	1.375456e+05	
47	-2.35000e+00	1.433719e+05	
48	-2.40000e+00	1.491223e+05	
49	-2.45000e+00	1.548015e+05	
50	-2.50000e+00	1.604128e+05	
51	-2.55000e+00	1.659587e+05	
52	-2.60000e+00	1.714412e+05	
53	-2.65000e+00	1.768618e+05	
54	-2.70000e+00	1.822217e+05	

Index   v-sweep         rds             
--------------------------------------------------------------------------------
55	-2.75000e+00	1.875221e+05	
56	-2.80000e+00	1.927639e+05	
57	-2.85000e+00	1.979480e+05	
58	-2.90000e+00	2.030752e+05	
59	-2.95000e+00	2.081463e+05	
60	-3.00000e+00	2.131621e+05	
61	-3.05000e+00	2.181233e+05	
62	-3.10000e+00	2.230306e+05	
63	-3.15000e+00	2.278847e+05	
64	-3.20000e+00	2.326863e+05	
65	-3.25000e+00	2.374360e+05	
66	-3.30000e+00	2.421344e+05	
Reset re-loads circuit ***************************

Circuit: ***************************

Note: No ".plot", ".print", or ".fourier" lines; no simulations run
