
Note: Compatibility modes selected: hs

Warning: m=xx on .subckt line will override multiplier m hierarchy!


Circuit: ***************************

Doing analysis at TEMP = 25.000000 and TNOM = 25.000000


No. of Data Rows : 67
                          ***************************
                          DC transfer characteristic  Mon Jan  9 13:58:25  2023
--------------------------------------------------------------------------------
Index   v-sweep         rds             
--------------------------------------------------------------------------------
0	0.000000e+00	1.935551e+06	
1	-5.00000e-02	4.945803e+06	
2	-1.00000e-01	2.670262e+07	
3	-1.50000e-01	1.244292e+08	
4	-2.00000e-01	2.993485e+08	
5	-2.50000e-01	4.717213e+08	
6	-3.00000e-01	6.053560e+08	
7	-3.50000e-01	7.059215e+08	
8	-4.00000e-01	7.851871e+08	
9	-4.50000e-01	8.513255e+08	
10	-5.00000e-01	9.091457e+08	
11	-5.50000e-01	9.614213e+08	
12	-6.00000e-01	1.009789e+09	
13	-6.50000e-01	1.055250e+09	
14	-7.00000e-01	1.098442e+09	
15	-7.50000e-01	1.139786e+09	
16	-8.00000e-01	1.179571e+09	
17	-8.50000e-01	1.218005e+09	
18	-9.00000e-01	1.255239e+09	
19	-9.50000e-01	1.291388e+09	
20	-1.00000e+00	1.326543e+09	
21	-1.05000e+00	1.360775e+09	
22	-1.10000e+00	1.394145e+09	
23	-1.15000e+00	1.426701e+09	
24	-1.20000e+00	1.458488e+09	
25	-1.25000e+00	1.489543e+09	
26	-1.30000e+00	1.519897e+09	
27	-1.35000e+00	1.549582e+09	
28	-1.40000e+00	1.578624e+09	
29	-1.45000e+00	1.607046e+09	
30	-1.50000e+00	1.634872e+09	
31	-1.55000e+00	1.662123e+09	
32	-1.60000e+00	1.688815e+09	
33	-1.65000e+00	1.714968e+09	
34	-1.70000e+00	1.740595e+09	
35	-1.75000e+00	1.765708e+09	
36	-1.80000e+00	1.790319e+09	
37	-1.85000e+00	1.814433e+09	
38	-1.90000e+00	1.838052e+09	
39	-1.95000e+00	1.861172e+09	
40	-2.00000e+00	1.883782e+09	
41	-2.05000e+00	1.905864e+09	
42	-2.10000e+00	1.927388e+09	
43	-2.15000e+00	1.948310e+09	
44	-2.20000e+00	1.968575e+09	
45	-2.25000e+00	1.988107e+09	
46	-2.30000e+00	2.006813e+09	
47	-2.35000e+00	2.024576e+09	
48	-2.40000e+00	2.041256e+09	
49	-2.45000e+00	2.056687e+09	
50	-2.50000e+00	2.070674e+09	
51	-2.55000e+00	2.082994e+09	
52	-2.60000e+00	2.093398e+09	
53	-2.65000e+00	2.101610e+09	
54	-2.70000e+00	2.107330e+09	

Index   v-sweep         rds             
--------------------------------------------------------------------------------
55	-2.75000e+00	2.110241e+09	
56	-2.80000e+00	2.110013e+09	
57	-2.85000e+00	2.106316e+09	
58	-2.90000e+00	2.098825e+09	
59	-2.95000e+00	2.087237e+09	
60	-3.00000e+00	2.071284e+09	
61	-3.05000e+00	2.050745e+09	
62	-3.10000e+00	2.025462e+09	
63	-3.15000e+00	1.995352e+09	
64	-3.20000e+00	1.960419e+09	
65	-3.25000e+00	1.920759e+09	
66	-3.30000e+00	1.876566e+09	
Reset re-loads circuit ***************************

Circuit: ***************************

Doing analysis at TEMP = 25.000000 and TNOM = 25.000000


No. of Data Rows : 67
                          ***************************
                          DC transfer characteristic  Mon Jan  9 13:58:25  2023
--------------------------------------------------------------------------------
Index   v-sweep         rds             
--------------------------------------------------------------------------------
0	0.000000e+00	2.178400e+05	
1	-5.00000e-02	2.480281e+05	
2	-1.00000e-01	2.876740e+05	
3	-1.50000e-01	3.419688e+05	
4	-2.00000e-01	4.206003e+05	
5	-2.50000e-01	5.435393e+05	
6	-3.00000e-01	7.571182e+05	
7	-3.50000e-01	1.181403e+06	
8	-4.00000e-01	2.127592e+06	
9	-4.50000e-01	4.167785e+06	
10	-5.00000e-01	7.568908e+06	
11	-5.50000e-01	1.160551e+07	
12	-6.00000e-01	1.536508e+07	
13	-6.50000e-01	1.853435e+07	
14	-7.00000e-01	2.118780e+07	
15	-7.50000e-01	2.347654e+07	
16	-8.00000e-01	2.552174e+07	
17	-8.50000e-01	2.740426e+07	
18	-9.00000e-01	2.917562e+07	
19	-9.50000e-01	3.086854e+07	
20	-1.00000e+00	3.250416e+07	
21	-1.05000e+00	3.409644e+07	
22	-1.10000e+00	3.565481e+07	
23	-1.15000e+00	3.718580e+07	
24	-1.20000e+00	3.869404e+07	
25	-1.25000e+00	4.018287e+07	
26	-1.30000e+00	4.165478e+07	
27	-1.35000e+00	4.311161e+07	
28	-1.40000e+00	4.455479e+07	
29	-1.45000e+00	4.598543e+07	
30	-1.50000e+00	4.740439e+07	
31	-1.55000e+00	4.881237e+07	
32	-1.60000e+00	5.020995e+07	
33	-1.65000e+00	5.159760e+07	
34	-1.70000e+00	5.297569e+07	
35	-1.75000e+00	5.434456e+07	
36	-1.80000e+00	5.570448e+07	
37	-1.85000e+00	5.705569e+07	
38	-1.90000e+00	5.839836e+07	
39	-1.95000e+00	5.973263e+07	
40	-2.00000e+00	6.105858e+07	
41	-2.05000e+00	6.237622e+07	
42	-2.10000e+00	6.368545e+07	
43	-2.15000e+00	6.498605e+07	
44	-2.20000e+00	6.627759e+07	
45	-2.25000e+00	6.755941e+07	
46	-2.30000e+00	6.883049e+07	
47	-2.35000e+00	7.008940e+07	
48	-2.40000e+00	7.133415e+07	
49	-2.45000e+00	7.256205e+07	
50	-2.50000e+00	7.376955e+07	
51	-2.55000e+00	7.495210e+07	
52	-2.60000e+00	7.610392e+07	
53	-2.65000e+00	7.721783e+07	
54	-2.70000e+00	7.828508e+07	

Index   v-sweep         rds             
--------------------------------------------------------------------------------
55	-2.75000e+00	7.929513e+07	
56	-2.80000e+00	8.023559e+07	
57	-2.85000e+00	8.109205e+07	
58	-2.90000e+00	8.184815e+07	
59	-2.95000e+00	8.248566e+07	
60	-3.00000e+00	8.298469e+07	
61	-3.05000e+00	8.332415e+07	
62	-3.10000e+00	8.348227e+07	
63	-3.15000e+00	8.343740e+07	
64	-3.20000e+00	8.316895e+07	
65	-3.25000e+00	8.265849e+07	
66	-3.30000e+00	8.189089e+07	
Reset re-loads circuit ***************************

Circuit: ***************************

Doing analysis at TEMP = 25.000000 and TNOM = 25.000000


No. of Data Rows : 67
                          ***************************
                          DC transfer characteristic  Mon Jan  9 13:58:25  2023
--------------------------------------------------------------------------------
Index   v-sweep         rds             
--------------------------------------------------------------------------------
0	0.000000e+00	1.148111e+05	
1	-5.00000e-02	1.227182e+05	
2	-1.00000e-01	1.317556e+05	
3	-1.50000e-01	1.421834e+05	
4	-2.00000e-01	1.543480e+05	
5	-2.50000e-01	1.687206e+05	
6	-3.00000e-01	1.859578e+05	
7	-3.50000e-01	2.070018e+05	
8	-4.00000e-01	2.332509e+05	
9	-4.50000e-01	2.668633e+05	
10	-5.00000e-01	3.113266e+05	
11	-5.50000e-01	3.725780e+05	
12	-6.00000e-01	4.613048e+05	
13	-6.50000e-01	5.976946e+05	
14	-7.00000e-01	8.202997e+05	
15	-7.50000e-01	1.195848e+06	
16	-8.00000e-01	1.803849e+06	
17	-8.50000e-01	2.657600e+06	
18	-9.00000e-01	3.642013e+06	
19	-9.50000e-01	4.604155e+06	
20	-1.00000e+00	5.465490e+06	
21	-1.05000e+00	6.220070e+06	
22	-1.10000e+00	6.889786e+06	
23	-1.15000e+00	7.498473e+06	
24	-1.20000e+00	8.064517e+06	
25	-1.25000e+00	8.600681e+06	
26	-1.30000e+00	9.115545e+06	
27	-1.35000e+00	9.614860e+06	
28	-1.40000e+00	1.010252e+07	
29	-1.45000e+00	1.058121e+07	
30	-1.50000e+00	1.105281e+07	
31	-1.55000e+00	1.151865e+07	
32	-1.60000e+00	1.197972e+07	
33	-1.65000e+00	1.243673e+07	
34	-1.70000e+00	1.289023e+07	
35	-1.75000e+00	1.334061e+07	
36	-1.80000e+00	1.378821e+07	
37	-1.85000e+00	1.423328e+07	
38	-1.90000e+00	1.467601e+07	
39	-1.95000e+00	1.511655e+07	
40	-2.00000e+00	1.555505e+07	
41	-2.05000e+00	1.599159e+07	
42	-2.10000e+00	1.642628e+07	
43	-2.15000e+00	1.685918e+07	
44	-2.20000e+00	1.729035e+07	
45	-2.25000e+00	1.771983e+07	
46	-2.30000e+00	1.814766e+07	
47	-2.35000e+00	1.857384e+07	
48	-2.40000e+00	1.899838e+07	
49	-2.45000e+00	1.942124e+07	
50	-2.50000e+00	1.984234e+07	
51	-2.55000e+00	2.026155e+07	
52	-2.60000e+00	2.067867e+07	
53	-2.65000e+00	2.109337e+07	
54	-2.70000e+00	2.150522e+07	

Index   v-sweep         rds             
--------------------------------------------------------------------------------
55	-2.75000e+00	2.191359e+07	
56	-2.80000e+00	2.231765e+07	
57	-2.85000e+00	2.271629e+07	
58	-2.90000e+00	2.310805e+07	
59	-2.95000e+00	2.349111e+07	
60	-3.00000e+00	2.386316e+07	
61	-3.05000e+00	2.422137e+07	
62	-3.10000e+00	2.456232e+07	
63	-3.15000e+00	2.488194e+07	
64	-3.20000e+00	2.517549e+07	
65	-3.25000e+00	2.543754e+07	
66	-3.30000e+00	2.566198e+07	
Reset re-loads circuit ***************************

Circuit: ***************************

Doing analysis at TEMP = 25.000000 and TNOM = 25.000000


No. of Data Rows : 67
                          ***************************
                          DC transfer characteristic  Mon Jan  9 13:58:25  2023
--------------------------------------------------------------------------------
Index   v-sweep         rds             
--------------------------------------------------------------------------------
0	0.000000e+00	7.915276e+04	
1	-5.00000e-02	8.272536e+04	
2	-1.00000e-01	8.662036e+04	
3	-1.50000e-01	9.088341e+04	
4	-2.00000e-01	9.556918e+04	
5	-2.50000e-01	1.007437e+05	
6	-3.00000e-01	1.064874e+05	
7	-3.50000e-01	1.128995e+05	
8	-4.00000e-01	1.201034e+05	
9	-4.50000e-01	1.282549e+05	
10	-5.00000e-01	1.375532e+05	
11	-5.50000e-01	1.482571e+05	
12	-6.00000e-01	1.607086e+05	
13	-6.50000e-01	1.753688e+05	
14	-7.00000e-01	1.928736e+05	
15	-7.50000e-01	2.141218e+05	
16	-8.00000e-01	2.404198e+05	
17	-8.50000e-01	2.737258e+05	
18	-9.00000e-01	3.170696e+05	
19	-9.50000e-01	3.752784e+05	
20	-1.00000e+00	4.561784e+05	
21	-1.05000e+00	5.722750e+05	
22	-1.10000e+00	7.418102e+05	
23	-1.15000e+00	9.850322e+05	
24	-1.20000e+00	1.310025e+06	
25	-1.25000e+00	1.696141e+06	
26	-1.30000e+00	2.100881e+06	
27	-1.35000e+00	2.487976e+06	
28	-1.40000e+00	2.842220e+06	
29	-1.45000e+00	3.163909e+06	
30	-1.50000e+00	3.459208e+06	
31	-1.55000e+00	3.734770e+06	
32	-1.60000e+00	3.995971e+06	
33	-1.65000e+00	4.246748e+06	
34	-1.70000e+00	4.489871e+06	
35	-1.75000e+00	4.727277e+06	
36	-1.80000e+00	4.960323e+06	
37	-1.85000e+00	5.189972e+06	
38	-1.90000e+00	5.416913e+06	
39	-1.95000e+00	5.641651e+06	
40	-2.00000e+00	5.864555e+06	
41	-2.05000e+00	6.085906e+06	
42	-2.10000e+00	6.305914e+06	
43	-2.15000e+00	6.524743e+06	
44	-2.20000e+00	6.742520e+06	
45	-2.25000e+00	6.959345e+06	
46	-2.30000e+00	7.175299e+06	
47	-2.35000e+00	7.390444e+06	
48	-2.40000e+00	7.604833e+06	
49	-2.45000e+00	7.818510e+06	
50	-2.50000e+00	8.031508e+06	
51	-2.55000e+00	8.243857e+06	
52	-2.60000e+00	8.455579e+06	
53	-2.65000e+00	8.666690e+06	
54	-2.70000e+00	8.877200e+06	

Index   v-sweep         rds             
--------------------------------------------------------------------------------
55	-2.75000e+00	9.087111e+06	
56	-2.80000e+00	9.296412e+06	
57	-2.85000e+00	9.505077e+06	
58	-2.90000e+00	9.713059e+06	
59	-2.95000e+00	9.920276e+06	
60	-3.00000e+00	1.012661e+07	
61	-3.05000e+00	1.033188e+07	
62	-3.10000e+00	1.053583e+07	
63	-3.15000e+00	1.073812e+07	
64	-3.20000e+00	1.093828e+07	
65	-3.25000e+00	1.113569e+07	
66	-3.30000e+00	1.132957e+07	
Reset re-loads circuit ***************************

Circuit: ***************************

Doing analysis at TEMP = 25.000000 and TNOM = 25.000000


No. of Data Rows : 67
                          ***************************
                          DC transfer characteristic  Mon Jan  9 13:58:25  2023
--------------------------------------------------------------------------------
Index   v-sweep         rds             
--------------------------------------------------------------------------------
0	0.000000e+00	6.231896e+04	
1	-5.00000e-02	6.442425e+04	
2	-1.00000e-01	6.666845e+04	
3	-1.50000e-01	6.906578e+04	
4	-2.00000e-01	7.163242e+04	
5	-2.50000e-01	7.438694e+04	
6	-3.00000e-01	7.735072e+04	
7	-3.50000e-01	8.054850e+04	
8	-4.00000e-01	8.400907e+04	
9	-4.50000e-01	8.776615e+04	
10	-5.00000e-01	9.185947e+04	
11	-5.50000e-01	9.633616e+04	
12	-6.00000e-01	1.012526e+05	
13	-6.50000e-01	1.066767e+05	
14	-7.00000e-01	1.126910e+05	
15	-7.50000e-01	1.193971e+05	
16	-8.00000e-01	1.269207e+05	
17	-8.50000e-01	1.354203e+05	
18	-9.00000e-01	1.450969e+05	
19	-9.50000e-01	1.562107e+05	
20	-1.00000e+00	1.691026e+05	
21	-1.05000e+00	1.842278e+05	
22	-1.10000e+00	2.022056e+05	
23	-1.15000e+00	2.238960e+05	
24	-1.20000e+00	2.505180e+05	
25	-1.25000e+00	2.838336e+05	
26	-1.30000e+00	3.264271e+05	
27	-1.35000e+00	3.820930e+05	
28	-1.40000e+00	4.562520e+05	
29	-1.45000e+00	5.559828e+05	
30	-1.50000e+00	6.886168e+05	
31	-1.55000e+00	8.576796e+05	
32	-1.60000e+00	1.057714e+06	
33	-1.65000e+00	1.274091e+06	
34	-1.70000e+00	1.490459e+06	
35	-1.75000e+00	1.696307e+06	
36	-1.80000e+00	1.888225e+06	
37	-1.85000e+00	2.067102e+06	
38	-1.90000e+00	2.235351e+06	
39	-1.95000e+00	2.395449e+06	
40	-2.00000e+00	2.549433e+06	
41	-2.05000e+00	2.698845e+06	
42	-2.10000e+00	2.844811e+06	
43	-2.15000e+00	2.988142e+06	
44	-2.20000e+00	3.129426e+06	
45	-2.25000e+00	3.269087e+06	
46	-2.30000e+00	3.407440e+06	
47	-2.35000e+00	3.544716e+06	
48	-2.40000e+00	3.681090e+06	
49	-2.45000e+00	3.816696e+06	
50	-2.50000e+00	3.951635e+06	
51	-2.55000e+00	4.085987e+06	
52	-2.60000e+00	4.219815e+06	
53	-2.65000e+00	4.353168e+06	
54	-2.70000e+00	4.486088e+06	

Index   v-sweep         rds             
--------------------------------------------------------------------------------
55	-2.75000e+00	4.618605e+06	
56	-2.80000e+00	4.750747e+06	
57	-2.85000e+00	4.882534e+06	
58	-2.90000e+00	5.013985e+06	
59	-2.95000e+00	5.145114e+06	
60	-3.00000e+00	5.275932e+06	
61	-3.05000e+00	5.406445e+06	
62	-3.10000e+00	5.536656e+06	
63	-3.15000e+00	5.666562e+06	
64	-3.20000e+00	5.796151e+06	
65	-3.25000e+00	5.925401e+06	
66	-3.30000e+00	6.054271e+06	
Reset re-loads circuit ***************************

Circuit: ***************************

Doing analysis at TEMP = 25.000000 and TNOM = 25.000000


No. of Data Rows : 67
                          ***************************
                          DC transfer characteristic  Mon Jan  9 13:58:25  2023
--------------------------------------------------------------------------------
Index   v-sweep         rds             
--------------------------------------------------------------------------------
0	0.000000e+00	5.215930e+04	
1	-5.00000e-02	5.356079e+04	
2	-1.00000e-01	5.503450e+04	
3	-1.50000e-01	5.658615e+04	
4	-2.00000e-01	5.822207e+04	
5	-2.50000e-01	5.994932e+04	
6	-3.00000e-01	6.177573e+04	
7	-3.50000e-01	6.371009e+04	
8	-4.00000e-01	6.576223e+04	
9	-4.50000e-01	6.794324e+04	
10	-5.00000e-01	7.026561e+04	
11	-5.50000e-01	7.274353e+04	
12	-6.00000e-01	7.539312e+04	
13	-6.50000e-01	7.823284e+04	
14	-7.00000e-01	8.128387e+04	
15	-7.50000e-01	8.457063e+04	
16	-8.00000e-01	8.812149e+04	
17	-8.50000e-01	9.196950e+04	
18	-9.00000e-01	9.615350e+04	
19	-9.50000e-01	1.007193e+05	
20	-1.00000e+00	1.057215e+05	
21	-1.05000e+00	1.112255e+05	
22	-1.10000e+00	1.173103e+05	
23	-1.15000e+00	1.240724e+05	
24	-1.20000e+00	1.316304e+05	
25	-1.25000e+00	1.401324e+05	
26	-1.30000e+00	1.497645e+05	
27	-1.35000e+00	1.607641e+05	
28	-1.40000e+00	1.734381e+05	
29	-1.45000e+00	1.881888e+05	
30	-1.50000e+00	2.055511e+05	
31	-1.55000e+00	2.262467e+05	
32	-1.60000e+00	2.512608e+05	
33	-1.65000e+00	2.819478e+05	
34	-1.70000e+00	3.201629e+05	
35	-1.75000e+00	3.683834e+05	
36	-1.80000e+00	4.296977e+05	
37	-1.85000e+00	5.073849e+05	
38	-1.90000e+00	6.037201e+05	
39	-1.95000e+00	7.181058e+05	
40	-2.00000e+00	8.458994e+05	
41	-2.05000e+00	9.797250e+05	
42	-2.10000e+00	1.112668e+06	
43	-2.15000e+00	1.240549e+06	
44	-2.20000e+00	1.361985e+06	
45	-2.25000e+00	1.477296e+06	
46	-2.30000e+00	1.587468e+06	
47	-2.35000e+00	1.693573e+06	
48	-2.40000e+00	1.796540e+06	
49	-2.45000e+00	1.897098e+06	
50	-2.50000e+00	1.995802e+06	
51	-2.55000e+00	2.093063e+06	
52	-2.60000e+00	2.189185e+06	
53	-2.65000e+00	2.284394e+06	
54	-2.70000e+00	2.378860e+06	

Index   v-sweep         rds             
--------------------------------------------------------------------------------
55	-2.75000e+00	2.472711e+06	
56	-2.80000e+00	2.566043e+06	
57	-2.85000e+00	2.658931e+06	
58	-2.90000e+00	2.751434e+06	
59	-2.95000e+00	2.843597e+06	
60	-3.00000e+00	2.935456e+06	
61	-3.05000e+00	3.027040e+06	
62	-3.10000e+00	3.118372e+06	
63	-3.15000e+00	3.209472e+06	
64	-3.20000e+00	3.300354e+06	
65	-3.25000e+00	3.391032e+06	
66	-3.30000e+00	3.481515e+06	
Reset re-loads circuit ***************************

Circuit: ***************************

Note: No ".plot", ".print", or ".fourier" lines; no simulations run
