
Note: Compatibility modes selected: hs

Warning: m=xx on .subckt line will override multiplier m hierarchy!


Circuit: ***************************

Doing analysis at TEMP = -40.000000 and TNOM = -40.000000


No. of Data Rows : 67
                          ***************************
                          DC transfer characteristic  Mon Jan  9 13:58:26  2023
--------------------------------------------------------------------------------
Index   v-sweep         rds             
--------------------------------------------------------------------------------
0	0.000000e+00	3.077163e+05	
1	-5.00000e-02	1.365057e+06	
2	-1.00000e-01	6.995534e+06	
3	-1.50000e-01	1.201468e+07	
4	-2.00000e-01	1.388064e+07	
5	-2.50000e-01	1.460067e+07	
6	-3.00000e-01	1.492311e+07	
7	-3.50000e-01	1.507307e+07	
8	-4.00000e-01	1.513117e+07	
9	-4.50000e-01	1.513248e+07	
10	-5.00000e-01	1.509504e+07	
11	-5.50000e-01	1.502945e+07	
12	-6.00000e-01	1.494260e+07	
13	-6.50000e-01	1.483931e+07	
14	-7.00000e-01	1.472310e+07	
15	-7.50000e-01	1.459668e+07	
16	-8.00000e-01	1.446219e+07	
17	-8.50000e-01	1.432130e+07	
18	-9.00000e-01	1.417540e+07	
19	-9.50000e-01	1.402562e+07	
20	-1.00000e+00	1.387290e+07	
21	-1.05000e+00	1.371802e+07	
22	-1.10000e+00	1.356162e+07	
23	-1.15000e+00	1.340426e+07	
24	-1.20000e+00	1.324640e+07	
25	-1.25000e+00	1.308845e+07	
26	-1.30000e+00	1.293072e+07	
27	-1.35000e+00	1.277351e+07	
28	-1.40000e+00	1.261705e+07	
29	-1.45000e+00	1.246154e+07	
30	-1.50000e+00	1.230717e+07	
31	-1.55000e+00	1.215407e+07	
32	-1.60000e+00	1.200236e+07	
33	-1.65000e+00	1.185215e+07	
34	-1.70000e+00	1.170353e+07	
35	-1.75000e+00	1.155655e+07	
36	-1.80000e+00	1.141127e+07	
37	-1.85000e+00	1.126772e+07	
38	-1.90000e+00	1.112593e+07	
39	-1.95000e+00	1.098592e+07	
40	-2.00000e+00	1.084767e+07	
41	-2.05000e+00	1.071118e+07	
42	-2.10000e+00	1.057640e+07	
43	-2.15000e+00	1.044331e+07	
44	-2.20000e+00	1.031183e+07	
45	-2.25000e+00	1.018190e+07	
46	-2.30000e+00	1.005342e+07	
47	-2.35000e+00	9.926290e+06	
48	-2.40000e+00	9.800383e+06	
49	-2.45000e+00	9.675558e+06	
50	-2.50000e+00	9.551655e+06	
51	-2.55000e+00	9.428497e+06	
52	-2.60000e+00	9.305890e+06	
53	-2.65000e+00	9.183623e+06	
54	-2.70000e+00	9.061471e+06	

Index   v-sweep         rds             
--------------------------------------------------------------------------------
55	-2.75000e+00	8.939192e+06	
56	-2.80000e+00	8.816535e+06	
57	-2.85000e+00	8.693237e+06	
58	-2.90000e+00	8.569028e+06	
59	-2.95000e+00	8.443634e+06	
60	-3.00000e+00	8.316780e+06	
61	-3.05000e+00	8.188195e+06	
62	-3.10000e+00	8.057616e+06	
63	-3.15000e+00	7.924792e+06	
64	-3.20000e+00	7.789492e+06	
65	-3.25000e+00	7.651504e+06	
66	-3.30000e+00	7.510650e+06	
Reset re-loads circuit ***************************

Circuit: ***************************

Doing analysis at TEMP = -40.000000 and TNOM = -40.000000


No. of Data Rows : 67
                          ***************************
                          DC transfer characteristic  Mon Jan  9 13:58:26  2023
--------------------------------------------------------------------------------
Index   v-sweep         rds             
--------------------------------------------------------------------------------
0	0.000000e+00	1.174615e+04	
1	-5.00000e-02	1.314430e+04	
2	-1.00000e-01	1.487830e+04	
3	-1.50000e-01	1.708380e+04	
4	-2.00000e-01	1.997890e+04	
5	-2.50000e-01	2.393421e+04	
6	-3.00000e-01	2.961937e+04	
7	-3.50000e-01	3.831212e+04	
8	-4.00000e-01	5.244395e+04	
9	-4.50000e-01	7.567758e+04	
10	-5.00000e-01	1.090757e+05	
11	-5.50000e-01	1.451157e+05	
12	-6.00000e-01	1.753577e+05	
13	-6.50000e-01	1.988048e+05	
14	-7.00000e-01	2.176244e+05	
15	-7.50000e-01	2.336026e+05	
16	-8.00000e-01	2.477588e+05	
17	-8.50000e-01	2.606433e+05	
18	-9.00000e-01	2.725636e+05	
19	-9.50000e-01	2.837034e+05	
20	-1.00000e+00	2.941806e+05	
21	-1.05000e+00	3.040767e+05	
22	-1.10000e+00	3.134517e+05	
23	-1.15000e+00	3.223526e+05	
24	-1.20000e+00	3.308173e+05	
25	-1.25000e+00	3.388778e+05	
26	-1.30000e+00	3.465620e+05	
27	-1.35000e+00	3.538941e+05	
28	-1.40000e+00	3.608958e+05	
29	-1.45000e+00	3.675869e+05	
30	-1.50000e+00	3.739852e+05	
31	-1.55000e+00	3.801072e+05	
32	-1.60000e+00	3.859679e+05	
33	-1.65000e+00	3.915812e+05	
34	-1.70000e+00	3.969602e+05	
35	-1.75000e+00	4.021169e+05	
36	-1.80000e+00	4.070625e+05	
37	-1.85000e+00	4.118074e+05	
38	-1.90000e+00	4.163614e+05	
39	-1.95000e+00	4.207337e+05	
40	-2.00000e+00	4.249326e+05	
41	-2.05000e+00	4.289661e+05	
42	-2.10000e+00	4.328413e+05	
43	-2.15000e+00	4.365648e+05	
44	-2.20000e+00	4.401421e+05	
45	-2.25000e+00	4.435782e+05	
46	-2.30000e+00	4.468769e+05	
47	-2.35000e+00	4.500407e+05	
48	-2.40000e+00	4.530707e+05	
49	-2.45000e+00	4.559665e+05	
50	-2.50000e+00	4.587252e+05	
51	-2.55000e+00	4.613420e+05	
52	-2.60000e+00	4.638092e+05	
53	-2.65000e+00	4.661157e+05	
54	-2.70000e+00	4.682472e+05	

Index   v-sweep         rds             
--------------------------------------------------------------------------------
55	-2.75000e+00	4.701854e+05	
56	-2.80000e+00	4.719076e+05	
57	-2.85000e+00	4.733868e+05	
58	-2.90000e+00	4.745908e+05	
59	-2.95000e+00	4.754829e+05	
60	-3.00000e+00	4.760214e+05	
61	-3.05000e+00	4.761599e+05	
62	-3.10000e+00	4.758480e+05	
63	-3.15000e+00	4.750316e+05	
64	-3.20000e+00	4.736545e+05	
65	-3.25000e+00	4.716589e+05	
66	-3.30000e+00	4.689879e+05	
Reset re-loads circuit ***************************

Circuit: ***************************

Doing analysis at TEMP = -40.000000 and TNOM = -40.000000


No. of Data Rows : 67
                          ***************************
                          DC transfer characteristic  Mon Jan  9 13:58:26  2023
--------------------------------------------------------------------------------
Index   v-sweep         rds             
--------------------------------------------------------------------------------
0	0.000000e+00	6.959482e+03	
1	-5.00000e-02	7.411723e+03	
2	-1.00000e-01	7.917592e+03	
3	-1.50000e-01	8.487125e+03	
4	-2.00000e-01	9.133014e+03	
5	-2.50000e-01	9.871547e+03	
6	-3.00000e-01	1.072396e+04	
7	-3.50000e-01	1.171842e+04	
8	-4.00000e-01	1.289310e+04	
9	-4.50000e-01	1.430077e+04	
10	-5.00000e-01	1.601629e+04	
11	-5.50000e-01	1.814837e+04	
12	-6.00000e-01	2.085843e+04	
13	-6.50000e-01	2.438871e+04	
14	-7.00000e-01	2.909409e+04	
15	-7.50000e-01	3.543536e+04	
16	-8.00000e-01	4.379412e+04	
17	-8.50000e-01	5.396108e+04	
18	-9.00000e-01	6.479341e+04	
19	-9.50000e-01	7.497777e+04	
20	-1.00000e+00	8.398036e+04	
21	-1.05000e+00	9.192003e+04	
22	-1.10000e+00	9.907818e+04	
23	-1.15000e+00	1.056816e+05	
24	-1.20000e+00	1.118777e+05	
25	-1.25000e+00	1.177574e+05	
26	-1.30000e+00	1.233775e+05	
27	-1.35000e+00	1.287747e+05	
28	-1.40000e+00	1.339741e+05	
29	-1.45000e+00	1.389937e+05	
30	-1.50000e+00	1.438471e+05	
31	-1.55000e+00	1.485451e+05	
32	-1.60000e+00	1.530967e+05	
33	-1.65000e+00	1.575094e+05	
34	-1.70000e+00	1.617900e+05	
35	-1.75000e+00	1.659442e+05	
36	-1.80000e+00	1.699777e+05	
37	-1.85000e+00	1.738952e+05	
38	-1.90000e+00	1.777016e+05	
39	-1.95000e+00	1.814009e+05	
40	-2.00000e+00	1.849974e+05	
41	-2.05000e+00	1.884947e+05	
42	-2.10000e+00	1.918965e+05	
43	-2.15000e+00	1.952062e+05	
44	-2.20000e+00	1.984271e+05	
45	-2.25000e+00	2.015621e+05	
46	-2.30000e+00	2.046143e+05	
47	-2.35000e+00	2.075863e+05	
48	-2.40000e+00	2.104807e+05	
49	-2.45000e+00	2.132997e+05	
50	-2.50000e+00	2.160455e+05	
51	-2.55000e+00	2.187197e+05	
52	-2.60000e+00	2.213237e+05	
53	-2.65000e+00	2.238581e+05	
54	-2.70000e+00	2.263230e+05	

Index   v-sweep         rds             
--------------------------------------------------------------------------------
55	-2.75000e+00	2.287176e+05	
56	-2.80000e+00	2.310400e+05	
57	-2.85000e+00	2.332869e+05	
58	-2.90000e+00	2.354536e+05	
59	-2.95000e+00	2.375332e+05	
60	-3.00000e+00	2.395167e+05	
61	-3.05000e+00	2.413927e+05	
62	-3.10000e+00	2.431465e+05	
63	-3.15000e+00	2.447607e+05	
64	-3.20000e+00	2.462139e+05	
65	-3.25000e+00	2.474815e+05	
66	-3.30000e+00	2.485350e+05	
Reset re-loads circuit ***************************

Circuit: ***************************

Doing analysis at TEMP = -40.000000 and TNOM = -40.000000


No. of Data Rows : 67
                          ***************************
                          DC transfer characteristic  Mon Jan  9 13:58:26  2023
--------------------------------------------------------------------------------
Index   v-sweep         rds             
--------------------------------------------------------------------------------
0	0.000000e+00	5.216669e+03	
1	-5.00000e-02	5.451507e+03	
2	-1.00000e-01	5.704663e+03	
3	-1.50000e-01	5.978332e+03	
4	-2.00000e-01	6.275079e+03	
5	-2.50000e-01	6.597909e+03	
6	-3.00000e-01	6.950375e+03	
7	-3.50000e-01	7.336702e+03	
8	-4.00000e-01	7.761957e+03	
9	-4.50000e-01	8.232264e+03	
10	-5.00000e-01	8.755094e+03	
11	-5.50000e-01	9.339651e+03	
12	-6.00000e-01	9.997396e+03	
13	-6.50000e-01	1.074277e+04	
14	-7.00000e-01	1.159418e+04	
15	-7.50000e-01	1.257543e+04	
16	-8.00000e-01	1.371765e+04	
17	-8.50000e-01	1.506211e+04	
18	-9.00000e-01	1.666391e+04	
19	-9.50000e-01	1.859664e+04	
20	-1.00000e+00	2.095646e+04	
21	-1.05000e+00	2.386052e+04	
22	-1.10000e+00	2.742588e+04	
23	-1.15000e+00	3.170636e+04	
24	-1.20000e+00	3.659129e+04	
25	-1.25000e+00	4.176934e+04	
26	-1.30000e+00	4.687682e+04	
27	-1.35000e+00	5.169627e+04	
28	-1.40000e+00	5.618632e+04	
29	-1.45000e+00	6.039241e+04	
30	-1.50000e+00	6.437451e+04	
31	-1.55000e+00	6.818092e+04	
32	-1.60000e+00	7.184531e+04	
33	-1.65000e+00	7.539026e+04	
34	-1.70000e+00	7.883101e+04	
35	-1.75000e+00	8.217810e+04	
36	-1.80000e+00	8.543911e+04	
37	-1.85000e+00	8.861974e+04	
38	-1.90000e+00	9.172446e+04	
39	-1.95000e+00	9.475691e+04	
40	-2.00000e+00	9.772016e+04	
41	-2.05000e+00	1.006169e+05	
42	-2.10000e+00	1.034495e+05	
43	-2.15000e+00	1.062201e+05	
44	-2.20000e+00	1.089308e+05	
45	-2.25000e+00	1.115833e+05	
46	-2.30000e+00	1.141795e+05	
47	-2.35000e+00	1.167209e+05	
48	-2.40000e+00	1.192092e+05	
49	-2.45000e+00	1.216457e+05	
50	-2.50000e+00	1.240321e+05	
51	-2.55000e+00	1.263695e+05	
52	-2.60000e+00	1.286594e+05	
53	-2.65000e+00	1.309030e+05	
54	-2.70000e+00	1.331014e+05	

Index   v-sweep         rds             
--------------------------------------------------------------------------------
55	-2.75000e+00	1.352557e+05	
56	-2.80000e+00	1.373668e+05	
57	-2.85000e+00	1.394357e+05	
58	-2.90000e+00	1.414629e+05	
59	-2.95000e+00	1.434487e+05	
60	-3.00000e+00	1.453932e+05	
61	-3.05000e+00	1.472957e+05	
62	-3.10000e+00	1.491552e+05	
63	-3.15000e+00	1.509698e+05	
64	-3.20000e+00	1.527365e+05	
65	-3.25000e+00	1.544512e+05	
66	-3.30000e+00	1.561082e+05	
Reset re-loads circuit ***************************

Circuit: ***************************

Doing analysis at TEMP = -40.000000 and TNOM = -40.000000


No. of Data Rows : 67
                          ***************************
                          DC transfer characteristic  Mon Jan  9 13:58:26  2023
--------------------------------------------------------------------------------
Index   v-sweep         rds             
--------------------------------------------------------------------------------
0	0.000000e+00	4.359178e+03	
1	-5.00000e-02	4.510489e+03	
2	-1.00000e-01	4.670610e+03	
3	-1.50000e-01	4.840320e+03	
4	-2.00000e-01	5.020488e+03	
5	-2.50000e-01	5.212096e+03	
6	-3.00000e-01	5.416248e+03	
7	-3.50000e-01	5.634199e+03	
8	-4.00000e-01	5.867376e+03	
9	-4.50000e-01	6.117406e+03	
10	-5.00000e-01	6.386160e+03	
11	-5.50000e-01	6.675794e+03	
12	-6.00000e-01	6.988808e+03	
13	-6.50000e-01	7.328114e+03	
14	-7.00000e-01	7.697129e+03	
15	-7.50000e-01	8.099882e+03	
16	-8.00000e-01	8.541157e+03	
17	-8.50000e-01	9.026680e+03	
18	-9.00000e-01	9.563352e+03	
19	-9.50000e-01	1.015955e+04	
20	-1.00000e+00	1.082555e+04	
21	-1.05000e+00	1.157403e+04	
22	-1.10000e+00	1.242077e+04	
23	-1.15000e+00	1.338553e+04	
24	-1.20000e+00	1.449311e+04	
25	-1.25000e+00	1.577453e+04	
26	-1.30000e+00	1.726789e+04	
27	-1.35000e+00	1.901773e+04	
28	-1.40000e+00	2.107049e+04	
29	-1.45000e+00	2.346151e+04	
30	-1.50000e+00	2.619045e+04	
31	-1.55000e+00	2.919446e+04	
32	-1.60000e+00	3.234917e+04	
33	-1.65000e+00	3.551701e+04	
34	-1.70000e+00	3.860412e+04	
35	-1.75000e+00	4.157490e+04	
36	-1.80000e+00	4.443074e+04	
37	-1.85000e+00	4.718626e+04	
38	-1.90000e+00	4.985694e+04	
39	-1.95000e+00	5.245519e+04	
40	-2.00000e+00	5.499009e+04	
41	-2.05000e+00	5.746812e+04	
42	-2.10000e+00	5.989396e+04	
43	-2.15000e+00	6.227103e+04	
44	-2.20000e+00	6.460198e+04	
45	-2.25000e+00	6.688889e+04	
46	-2.30000e+00	6.913347e+04	
47	-2.35000e+00	7.133718e+04	
48	-2.40000e+00	7.350129e+04	
49	-2.45000e+00	7.562693e+04	
50	-2.50000e+00	7.771515e+04	
51	-2.55000e+00	7.976692e+04	
52	-2.60000e+00	8.178313e+04	
53	-2.65000e+00	8.376465e+04	
54	-2.70000e+00	8.571229e+04	

Index   v-sweep         rds             
--------------------------------------------------------------------------------
55	-2.75000e+00	8.762684e+04	
56	-2.80000e+00	8.950904e+04	
57	-2.85000e+00	9.135962e+04	
58	-2.90000e+00	9.317927e+04	
59	-2.95000e+00	9.496866e+04	
60	-3.00000e+00	9.672842e+04	
61	-3.05000e+00	9.845915e+04	
62	-3.10000e+00	1.001614e+05	
63	-3.15000e+00	1.018356e+05	
64	-3.20000e+00	1.034821e+05	
65	-3.25000e+00	1.051011e+05	
66	-3.30000e+00	1.066926e+05	
Reset re-loads circuit ***************************

Circuit: ***************************

Doing analysis at TEMP = -40.000000 and TNOM = -40.000000


No. of Data Rows : 67
                          ***************************
                          DC transfer characteristic  Mon Jan  9 13:58:26  2023
--------------------------------------------------------------------------------
Index   v-sweep         rds             
--------------------------------------------------------------------------------
0	0.000000e+00	3.880002e+03	
1	-5.00000e-02	3.990358e+03	
2	-1.00000e-01	4.105870e+03	
3	-1.50000e-01	4.226897e+03	
4	-2.00000e-01	4.353836e+03	
5	-2.50000e-01	4.487119e+03	
6	-3.00000e-01	4.627226e+03	
7	-3.50000e-01	4.774683e+03	
8	-4.00000e-01	4.930073e+03	
9	-4.50000e-01	5.094041e+03	
10	-5.00000e-01	5.267305e+03	
11	-5.50000e-01	5.450666e+03	
12	-6.00000e-01	5.645019e+03	
13	-6.50000e-01	5.851367e+03	
14	-7.00000e-01	6.070839e+03	
15	-7.50000e-01	6.304710e+03	
16	-8.00000e-01	6.554426e+03	
17	-8.50000e-01	6.821633e+03	
18	-9.00000e-01	7.108208e+03	
19	-9.50000e-01	7.416311e+03	
20	-1.00000e+00	7.748428e+03	
21	-1.05000e+00	8.107443e+03	
22	-1.10000e+00	8.496713e+03	
23	-1.15000e+00	8.920171e+03	
24	-1.20000e+00	9.382448e+03	
25	-1.25000e+00	9.889032e+03	
26	-1.30000e+00	1.044646e+04	
27	-1.35000e+00	1.106255e+04	
28	-1.40000e+00	1.174674e+04	
29	-1.45000e+00	1.251038e+04	
30	-1.50000e+00	1.336721e+04	
31	-1.55000e+00	1.433369e+04	
32	-1.60000e+00	1.542922e+04	
33	-1.65000e+00	1.667585e+04	
34	-1.70000e+00	1.809659e+04	
35	-1.75000e+00	1.971124e+04	
36	-1.80000e+00	2.152839e+04	
37	-1.85000e+00	2.353460e+04	
38	-1.90000e+00	2.568758e+04	
39	-1.95000e+00	2.792349e+04	
40	-2.00000e+00	3.017852e+04	
41	-2.05000e+00	3.240842e+04	
42	-2.10000e+00	3.459233e+04	
43	-2.15000e+00	3.672531e+04	
44	-2.20000e+00	3.880967e+04	
45	-2.25000e+00	4.084972e+04	
46	-2.30000e+00	4.284962e+04	
47	-2.35000e+00	4.481274e+04	
48	-2.40000e+00	4.674166e+04	
49	-2.45000e+00	4.863837e+04	
50	-2.50000e+00	5.050438e+04	
51	-2.55000e+00	5.234090e+04	
52	-2.60000e+00	5.414891e+04	
53	-2.65000e+00	5.592927e+04	
54	-2.70000e+00	5.768268e+04	

Index   v-sweep         rds             
--------------------------------------------------------------------------------
55	-2.75000e+00	5.940980e+04	
56	-2.80000e+00	6.111123e+04	
57	-2.85000e+00	6.278751e+04	
58	-2.90000e+00	6.443917e+04	
59	-2.95000e+00	6.606670e+04	
60	-3.00000e+00	6.767057e+04	
61	-3.05000e+00	6.925125e+04	
62	-3.10000e+00	7.080915e+04	
63	-3.15000e+00	7.234472e+04	
64	-3.20000e+00	7.385837e+04	
65	-3.25000e+00	7.535050e+04	
66	-3.30000e+00	7.682148e+04	
Reset re-loads circuit ***************************

Circuit: ***************************

Note: No ".plot", ".print", or ".fourier" lines; no simulations run
