
Note: Compatibility modes selected: hs

Warning: m=xx on .subckt line will override multiplier m hierarchy!


Circuit: ***************************

Doing analysis at TEMP = 125.000000 and TNOM = 125.000000


No. of Data Rows : 67
                          ***************************
                          DC transfer characteristic  Mon Jan  9 13:58:26  2023
--------------------------------------------------------------------------------
Index   v-sweep         rds             
--------------------------------------------------------------------------------
0	0.000000e+00	5.667209e+04	
1	-5.00000e-02	8.903360e+04	
2	-1.00000e-01	1.853312e+05	
3	-1.50000e-01	6.129213e+05	
4	-2.00000e-01	2.249355e+06	
5	-2.50000e-01	5.600980e+06	
6	-3.00000e-01	9.612188e+06	
7	-3.50000e-01	1.320722e+07	
8	-4.00000e-01	1.613660e+07	
9	-4.50000e-01	1.852800e+07	
10	-5.00000e-01	2.054717e+07	
11	-5.50000e-01	2.231526e+07	
12	-6.00000e-01	2.391052e+07	
13	-6.50000e-01	2.538229e+07	
14	-7.00000e-01	2.676209e+07	
15	-7.50000e-01	2.807048e+07	
16	-8.00000e-01	2.932135e+07	
17	-8.50000e-01	3.052429e+07	
18	-9.00000e-01	3.168618e+07	
19	-9.50000e-01	3.281204e+07	
20	-1.00000e+00	3.390570e+07	
21	-1.05000e+00	3.497010e+07	
22	-1.10000e+00	3.600758e+07	
23	-1.15000e+00	3.702004e+07	
24	-1.20000e+00	3.800906e+07	
25	-1.25000e+00	3.897597e+07	
26	-1.30000e+00	3.992190e+07	
27	-1.35000e+00	4.084786e+07	
28	-1.40000e+00	4.175471e+07	
29	-1.45000e+00	4.264326e+07	
30	-1.50000e+00	4.351419e+07	
31	-1.55000e+00	4.436816e+07	
32	-1.60000e+00	4.520574e+07	
33	-1.65000e+00	4.602746e+07	
34	-1.70000e+00	4.683377e+07	
35	-1.75000e+00	4.762506e+07	
36	-1.80000e+00	4.840166e+07	
37	-1.85000e+00	4.916375e+07	
38	-1.90000e+00	4.991142e+07	
39	-1.95000e+00	5.064457e+07	
40	-2.00000e+00	5.136287e+07	
41	-2.05000e+00	5.206574e+07	
42	-2.10000e+00	5.275221e+07	
43	-2.15000e+00	5.342091e+07	
44	-2.20000e+00	5.406994e+07	
45	-2.25000e+00	5.469677e+07	
46	-2.30000e+00	5.529814e+07	
47	-2.35000e+00	5.586999e+07	
48	-2.40000e+00	5.640730e+07	
49	-2.45000e+00	5.690405e+07	
50	-2.50000e+00	5.735312e+07	
51	-2.55000e+00	5.774630e+07	
52	-2.60000e+00	5.807424e+07	
53	-2.65000e+00	5.832655e+07	
54	-2.70000e+00	5.849195e+07	

Index   v-sweep         rds             
--------------------------------------------------------------------------------
55	-2.75000e+00	5.855847e+07	
56	-2.80000e+00	5.851376e+07	
57	-2.85000e+00	5.834555e+07	
58	-2.90000e+00	5.804210e+07	
59	-2.95000e+00	5.759283e+07	
60	-3.00000e+00	5.698893e+07	
61	-3.05000e+00	5.622400e+07	
62	-3.10000e+00	5.529465e+07	
63	-3.15000e+00	5.420101e+07	
64	-3.20000e+00	5.294703e+07	
65	-3.25000e+00	5.154065e+07	
66	-3.30000e+00	4.999363e+07	
Reset re-loads circuit ***************************

Circuit: ***************************

Doing analysis at TEMP = 125.000000 and TNOM = 125.000000


No. of Data Rows : 67
                          ***************************
                          DC transfer characteristic  Mon Jan  9 13:58:26  2023
--------------------------------------------------------------------------------
Index   v-sweep         rds             
--------------------------------------------------------------------------------
0	0.000000e+00	1.206416e+04	
1	-5.00000e-02	1.342839e+04	
2	-1.00000e-01	1.513200e+04	
3	-1.50000e-01	1.731838e+04	
4	-2.00000e-01	2.022324e+04	
5	-2.50000e-01	2.426021e+04	
6	-3.00000e-01	3.021593e+04	
7	-3.50000e-01	3.973698e+04	
8	-4.00000e-01	5.663631e+04	
9	-4.50000e-01	9.029378e+04	
10	-5.00000e-01	1.615710e+05	
11	-5.50000e-01	2.992239e+05	
12	-6.00000e-01	5.070115e+05	
13	-6.50000e-01	7.462082e+05	
14	-7.00000e-01	9.751176e+05	
15	-7.50000e-01	1.177103e+06	
16	-8.00000e-01	1.352927e+06	
17	-8.50000e-01	1.508484e+06	
18	-9.00000e-01	1.649430e+06	
19	-9.50000e-01	1.779984e+06	
20	-1.00000e+00	1.903057e+06	
21	-1.05000e+00	2.020621e+06	
22	-1.10000e+00	2.134014e+06	
23	-1.15000e+00	2.244156e+06	
24	-1.20000e+00	2.351692e+06	
25	-1.25000e+00	2.457082e+06	
26	-1.30000e+00	2.560659e+06	
27	-1.35000e+00	2.662671e+06	
28	-1.40000e+00	2.763303e+06	
29	-1.45000e+00	2.862698e+06	
30	-1.50000e+00	2.960968e+06	
31	-1.55000e+00	3.058200e+06	
32	-1.60000e+00	3.154464e+06	
33	-1.65000e+00	3.249818e+06	
34	-1.70000e+00	3.344309e+06	
35	-1.75000e+00	3.437975e+06	
36	-1.80000e+00	3.530851e+06	
37	-1.85000e+00	3.622964e+06	
38	-1.90000e+00	3.714338e+06	
39	-1.95000e+00	3.804992e+06	
40	-2.00000e+00	3.894943e+06	
41	-2.05000e+00	3.984201e+06	
42	-2.10000e+00	4.072771e+06	
43	-2.15000e+00	4.160653e+06	
44	-2.20000e+00	4.247832e+06	
45	-2.25000e+00	4.334283e+06	
46	-2.30000e+00	4.419959e+06	
47	-2.35000e+00	4.504789e+06	
48	-2.40000e+00	4.588665e+06	
49	-2.45000e+00	4.671439e+06	
50	-2.50000e+00	4.752903e+06	
51	-2.55000e+00	4.832784e+06	
52	-2.60000e+00	4.910724e+06	
53	-2.65000e+00	4.986264e+06	
54	-2.70000e+00	5.058833e+06	

Index   v-sweep         rds             
--------------------------------------------------------------------------------
55	-2.75000e+00	5.127726e+06	
56	-2.80000e+00	5.192094e+06	
57	-2.85000e+00	5.250932e+06	
58	-2.90000e+00	5.303075e+06	
59	-2.95000e+00	5.347200e+06	
60	-3.00000e+00	5.381840e+06	
61	-3.05000e+00	5.405413e+06	
62	-3.10000e+00	5.416263e+06	
63	-3.15000e+00	5.412720e+06	
64	-3.20000e+00	5.393178e+06	
65	-3.25000e+00	5.356189e+06	
66	-3.30000e+00	5.300560e+06	
Reset re-loads circuit ***************************

Circuit: ***************************

Doing analysis at TEMP = 125.000000 and TNOM = 125.000000


No. of Data Rows : 67
                          ***************************
                          DC transfer characteristic  Mon Jan  9 13:58:26  2023
--------------------------------------------------------------------------------
Index   v-sweep         rds             
--------------------------------------------------------------------------------
0	0.000000e+00	6.974261e+03	
1	-5.00000e-02	7.395672e+03	
2	-1.00000e-01	7.869533e+03	
3	-1.50000e-01	8.406263e+03	
4	-2.00000e-01	9.019228e+03	
5	-2.50000e-01	9.725855e+03	
6	-3.00000e-01	1.054928e+04	
7	-3.50000e-01	1.152090e+04	
8	-4.00000e-01	1.268432e+04	
9	-4.50000e-01	1.410186e+04	
10	-5.00000e-01	1.586549e+04	
11	-5.50000e-01	1.811617e+04	
12	-6.00000e-01	2.107948e+04	
13	-6.50000e-01	2.513444e+04	
14	-7.00000e-01	3.095104e+04	
15	-7.50000e-01	3.976573e+04	
16	-8.00000e-01	5.388355e+04	
17	-8.50000e-01	7.727599e+04	
18	-9.00000e-01	1.151043e+05	
19	-9.50000e-01	1.700417e+05	
20	-1.00000e+00	2.377289e+05	
21	-1.05000e+00	3.089994e+05	
22	-1.10000e+00	3.766753e+05	
23	-1.15000e+00	4.380961e+05	
24	-1.20000e+00	4.934735e+05	
25	-1.25000e+00	5.439793e+05	
26	-1.30000e+00	5.908160e+05	
27	-1.35000e+00	6.349443e+05	
28	-1.40000e+00	6.770675e+05	
29	-1.45000e+00	7.176855e+05	
30	-1.50000e+00	7.571510e+05	
31	-1.55000e+00	7.957148e+05	
32	-1.60000e+00	8.335569e+05	
33	-1.65000e+00	8.708082e+05	
34	-1.70000e+00	9.075654e+05	
35	-1.75000e+00	9.439010e+05	
36	-1.80000e+00	9.798699e+05	
37	-1.85000e+00	1.015515e+06	
38	-1.90000e+00	1.050868e+06	
39	-1.95000e+00	1.085957e+06	
40	-2.00000e+00	1.120801e+06	
41	-2.05000e+00	1.155418e+06	
42	-2.10000e+00	1.189822e+06	
43	-2.15000e+00	1.224023e+06	
44	-2.20000e+00	1.258032e+06	
45	-2.25000e+00	1.291856e+06	
46	-2.30000e+00	1.325501e+06	
47	-2.35000e+00	1.358973e+06	
48	-2.40000e+00	1.392276e+06	
49	-2.45000e+00	1.425410e+06	
50	-2.50000e+00	1.458376e+06	
51	-2.55000e+00	1.491171e+06	
52	-2.60000e+00	1.523786e+06	
53	-2.65000e+00	1.556208e+06	
54	-2.70000e+00	1.588416e+06	

Index   v-sweep         rds             
--------------------------------------------------------------------------------
55	-2.75000e+00	1.620376e+06	
56	-2.80000e+00	1.652042e+06	
57	-2.85000e+00	1.683349e+06	
58	-2.90000e+00	1.714208e+06	
59	-2.95000e+00	1.744501e+06	
60	-3.00000e+00	1.774077e+06	
61	-3.05000e+00	1.802742e+06	
62	-3.10000e+00	1.830254e+06	
63	-3.15000e+00	1.856316e+06	
64	-3.20000e+00	1.880573e+06	
65	-3.25000e+00	1.902604e+06	
66	-3.30000e+00	1.921926e+06	
Reset re-loads circuit ***************************

Circuit: ***************************

Doing analysis at TEMP = 125.000000 and TNOM = 125.000000


No. of Data Rows : 67
                          ***************************
                          DC transfer characteristic  Mon Jan  9 13:58:26  2023
--------------------------------------------------------------------------------
Index   v-sweep         rds             
--------------------------------------------------------------------------------
0	0.000000e+00	5.166435e+03	
1	-5.00000e-02	5.380052e+03	
2	-1.00000e-01	5.611333e+03	
3	-1.50000e-01	5.862561e+03	
4	-2.00000e-01	6.136430e+03	
5	-2.50000e-01	6.436138e+03	
6	-3.00000e-01	6.765518e+03	
7	-3.50000e-01	7.129196e+03	
8	-4.00000e-01	7.532810e+03	
9	-4.50000e-01	7.983301e+03	
10	-5.00000e-01	8.489312e+03	
11	-5.50000e-01	9.061734e+03	
12	-6.00000e-01	9.714488e+03	
13	-6.50000e-01	1.046564e+04	
14	-7.00000e-01	1.133905e+04	
15	-7.50000e-01	1.236684e+04	
16	-8.00000e-01	1.359323e+04	
17	-8.50000e-01	1.508058e+04	
18	-9.00000e-01	1.691932e+04	
19	-9.50000e-01	1.924458e+04	
20	-1.00000e+00	2.226467e+04	
21	-1.05000e+00	2.631043e+04	
22	-1.10000e+00	3.191810e+04	
23	-1.15000e+00	3.995251e+04	
24	-1.20000e+00	5.172374e+04	
25	-1.25000e+00	6.887648e+04	
26	-1.30000e+00	9.263979e+04	
27	-1.35000e+00	1.225362e+05	
28	-1.40000e+00	1.560113e+05	
29	-1.45000e+00	1.899107e+05	
30	-1.50000e+00	2.221346e+05	
31	-1.55000e+00	2.519498e+05	
32	-1.60000e+00	2.794531e+05	
33	-1.65000e+00	3.050433e+05	
34	-1.70000e+00	3.291453e+05	
35	-1.75000e+00	3.521155e+05	
36	-1.80000e+00	3.742265e+05	
37	-1.85000e+00	3.956798e+05	
38	-1.90000e+00	4.166223e+05	
39	-1.95000e+00	4.371611e+05	
40	-2.00000e+00	4.573749e+05	
41	-2.05000e+00	4.773222e+05	
42	-2.10000e+00	4.970466e+05	
43	-2.15000e+00	5.165813e+05	
44	-2.20000e+00	5.359520e+05	
45	-2.25000e+00	5.551783e+05	
46	-2.30000e+00	5.742759e+05	
47	-2.35000e+00	5.932570e+05	
48	-2.40000e+00	6.121317e+05	
49	-2.45000e+00	6.309079e+05	
50	-2.50000e+00	6.495922e+05	
51	-2.55000e+00	6.681900e+05	
52	-2.60000e+00	6.867058e+05	
53	-2.65000e+00	7.051431e+05	
54	-2.70000e+00	7.235050e+05	

Index   v-sweep         rds             
--------------------------------------------------------------------------------
55	-2.75000e+00	7.417937e+05	
56	-2.80000e+00	7.600105e+05	
57	-2.85000e+00	7.781560e+05	
58	-2.90000e+00	7.962291e+05	
59	-2.95000e+00	8.142271e+05	
60	-3.00000e+00	8.321446e+05	
61	-3.05000e+00	8.499726e+05	
62	-3.10000e+00	8.676969e+05	
63	-3.15000e+00	8.852972e+05	
64	-3.20000e+00	9.027440e+05	
65	-3.25000e+00	9.199969e+05	
66	-3.30000e+00	9.370016e+05	
Reset re-loads circuit ***************************

Circuit: ***************************

Doing analysis at TEMP = 125.000000 and TNOM = 125.000000


No. of Data Rows : 67
                          ***************************
                          DC transfer characteristic  Mon Jan  9 13:58:26  2023
--------------------------------------------------------------------------------
Index   v-sweep         rds             
--------------------------------------------------------------------------------
0	0.000000e+00	4.195109e+03	
1	-5.00000e-02	4.325551e+03	
2	-1.00000e-01	4.463943e+03	
3	-1.50000e-01	4.611035e+03	
4	-2.00000e-01	4.767674e+03	
5	-2.50000e-01	4.934817e+03	
6	-3.00000e-01	5.113558e+03	
7	-3.50000e-01	5.305144e+03	
8	-4.00000e-01	5.511011e+03	
9	-4.50000e-01	5.732813e+03	
10	-5.00000e-01	5.972473e+03	
11	-5.50000e-01	6.232234e+03	
12	-6.00000e-01	6.514729e+03	
13	-6.50000e-01	6.823073e+03	
14	-7.00000e-01	7.160974e+03	
15	-7.50000e-01	7.532882e+03	
16	-8.00000e-01	7.944185e+03	
17	-8.50000e-01	8.401464e+03	
18	-9.00000e-01	8.912843e+03	
19	-9.50000e-01	9.488461e+03	
20	-1.00000e+00	1.014113e+04	
21	-1.05000e+00	1.088728e+04	
22	-1.10000e+00	1.174824e+04	
23	-1.15000e+00	1.275226e+04	
24	-1.20000e+00	1.393734e+04	
25	-1.25000e+00	1.535571e+04	
26	-1.30000e+00	1.708056e+04	
27	-1.35000e+00	1.921676e+04	
28	-1.40000e+00	2.191741e+04	
29	-1.45000e+00	2.540905e+04	
30	-1.50000e+00	3.002648e+04	
31	-1.55000e+00	3.624917e+04	
32	-1.60000e+00	4.470268e+04	
33	-1.65000e+00	5.603808e+04	
34	-1.70000e+00	7.060173e+04	
35	-1.75000e+00	8.802588e+04	
36	-1.80000e+00	1.071871e+05	
37	-1.85000e+00	1.267296e+05	
38	-1.90000e+00	1.456611e+05	
39	-1.95000e+00	1.635355e+05	
40	-2.00000e+00	1.803003e+05	
41	-2.05000e+00	1.960880e+05	
42	-2.10000e+00	2.110808e+05	
43	-2.15000e+00	2.254487e+05	
44	-2.20000e+00	2.393311e+05	
45	-2.25000e+00	2.528357e+05	
46	-2.30000e+00	2.660440e+05	
47	-2.35000e+00	2.790167e+05	
48	-2.40000e+00	2.917994e+05	
49	-2.45000e+00	3.044264e+05	
50	-2.50000e+00	3.169237e+05	
51	-2.55000e+00	3.293112e+05	
52	-2.60000e+00	3.416042e+05	
53	-2.65000e+00	3.538149e+05	
54	-2.70000e+00	3.659526e+05	

Index   v-sweep         rds             
--------------------------------------------------------------------------------
55	-2.75000e+00	3.780249e+05	
56	-2.80000e+00	3.900378e+05	
57	-2.85000e+00	4.019963e+05	
58	-2.90000e+00	4.139044e+05	
59	-2.95000e+00	4.257654e+05	
60	-3.00000e+00	4.375819e+05	
61	-3.05000e+00	4.493562e+05	
62	-3.10000e+00	4.610902e+05	
63	-3.15000e+00	4.727850e+05	
64	-3.20000e+00	4.844417e+05	
65	-3.25000e+00	4.960603e+05	
66	-3.30000e+00	5.076404e+05	
Reset re-loads circuit ***************************

Circuit: ***************************

Doing analysis at TEMP = 125.000000 and TNOM = 125.000000


No. of Data Rows : 67
                          ***************************
                          DC transfer characteristic  Mon Jan  9 13:58:26  2023
--------------------------------------------------------------------------------
Index   v-sweep         rds             
--------------------------------------------------------------------------------
0	0.000000e+00	3.591729e+03	
1	-5.00000e-02	3.680490e+03	
2	-1.00000e-01	3.773485e+03	
3	-1.50000e-01	3.871023e+03	
4	-2.00000e-01	3.973445e+03	
5	-2.50000e-01	4.081126e+03	
6	-3.00000e-01	4.194483e+03	
7	-3.50000e-01	4.313974e+03	
8	-4.00000e-01	4.440112e+03	
9	-4.50000e-01	4.573465e+03	
10	-5.00000e-01	4.714670e+03	
11	-5.50000e-01	4.864440e+03	
12	-6.00000e-01	5.023578e+03	
13	-6.50000e-01	5.192990e+03	
14	-7.00000e-01	5.373702e+03	
15	-7.50000e-01	5.566881e+03	
16	-8.00000e-01	5.773862e+03	
17	-8.50000e-01	5.996176e+03	
18	-9.00000e-01	6.235587e+03	
19	-9.50000e-01	6.494142e+03	
20	-1.00000e+00	6.774228e+03	
21	-1.05000e+00	7.078641e+03	
22	-1.10000e+00	7.410683e+03	
23	-1.15000e+00	7.774280e+03	
24	-1.20000e+00	8.174133e+03	
25	-1.25000e+00	8.615916e+03	
26	-1.30000e+00	9.106544e+03	
27	-1.35000e+00	9.654523e+03	
28	-1.40000e+00	1.027043e+04	
29	-1.45000e+00	1.096754e+04	
30	-1.50000e+00	1.176280e+04	
31	-1.55000e+00	1.267804e+04	
32	-1.60000e+00	1.374183e+04	
33	-1.65000e+00	1.499215e+04	
34	-1.70000e+00	1.648018e+04	
35	-1.75000e+00	1.827597e+04	
36	-1.80000e+00	2.047639e+04	
37	-1.85000e+00	2.321606e+04	
38	-1.90000e+00	2.668037e+04	
39	-1.95000e+00	3.111589e+04	
40	-2.00000e+00	3.682397e+04	
41	-2.05000e+00	4.410962e+04	
42	-2.10000e+00	5.315912e+04	
43	-2.15000e+00	6.387764e+04	
44	-2.20000e+00	7.581986e+04	
45	-2.25000e+00	8.833112e+04	
46	-2.30000e+00	1.008089e+05	
47	-2.35000e+00	1.128741e+05	
48	-2.40000e+00	1.243773e+05	
49	-2.45000e+00	1.353181e+05	
50	-2.50000e+00	1.457646e+05	
51	-2.55000e+00	1.558030e+05	
52	-2.60000e+00	1.655141e+05	
53	-2.65000e+00	1.749656e+05	
54	-2.70000e+00	1.842111e+05	

Index   v-sweep         rds             
--------------------------------------------------------------------------------
55	-2.75000e+00	1.932921e+05	
56	-2.80000e+00	2.022402e+05	
57	-2.85000e+00	2.110799e+05	
58	-2.90000e+00	2.198296e+05	
59	-2.95000e+00	2.285038e+05	
60	-3.00000e+00	2.371136e+05	
61	-3.05000e+00	2.456676e+05	
62	-3.10000e+00	2.541729e+05	
63	-3.15000e+00	2.626349e+05	
64	-3.20000e+00	2.710581e+05	
65	-3.25000e+00	2.794458e+05	
66	-3.30000e+00	2.878012e+05	
Reset re-loads circuit ***************************

Circuit: ***************************

Note: No ".plot", ".print", or ".fourier" lines; no simulations run
