
Note: Compatibility modes selected: hs

Warning: m=xx on .subckt line will override multiplier m hierarchy!


Circuit: ***************************

Doing analysis at TEMP = 125.000000 and TNOM = 125.000000


No. of Data Rows : 67
                          ***************************
                          DC transfer characteristic  Mon Jan  9 13:58:26  2023
--------------------------------------------------------------------------------
Index   v-sweep         rds             
--------------------------------------------------------------------------------
0	0.000000e+00	1.317564e+04	
1	-5.00000e-02	1.958985e+04	
2	-1.00000e-01	3.594069e+04	
3	-1.50000e-01	9.598663e+04	
4	-2.00000e-01	3.109127e+05	
5	-2.50000e-01	7.113839e+05	
6	-3.00000e-01	1.107283e+06	
7	-3.50000e-01	1.405596e+06	
8	-4.00000e-01	1.626414e+06	
9	-4.50000e-01	1.800460e+06	
10	-5.00000e-01	1.946703e+06	
11	-5.50000e-01	2.075448e+06	
12	-6.00000e-01	2.192333e+06	
13	-6.50000e-01	2.300579e+06	
14	-7.00000e-01	2.402127e+06	
15	-7.50000e-01	2.498216e+06	
16	-8.00000e-01	2.589676e+06	
17	-8.50000e-01	2.677094e+06	
18	-9.00000e-01	2.760903e+06	
19	-9.50000e-01	2.841436e+06	
20	-1.00000e+00	2.918957e+06	
21	-1.05000e+00	2.993686e+06	
22	-1.10000e+00	3.065805e+06	
23	-1.15000e+00	3.135472e+06	
24	-1.20000e+00	3.202828e+06	
25	-1.25000e+00	3.267994e+06	
26	-1.30000e+00	3.331082e+06	
27	-1.35000e+00	3.392194e+06	
28	-1.40000e+00	3.451421e+06	
29	-1.45000e+00	3.508849e+06	
30	-1.50000e+00	3.564557e+06	
31	-1.55000e+00	3.618618e+06	
32	-1.60000e+00	3.671100e+06	
33	-1.65000e+00	3.722067e+06	
34	-1.70000e+00	3.771575e+06	
35	-1.75000e+00	3.819678e+06	
36	-1.80000e+00	3.866422e+06	
37	-1.85000e+00	3.911845e+06	
38	-1.90000e+00	3.955979e+06	
39	-1.95000e+00	3.998844e+06	
40	-2.00000e+00	4.040446e+06	
41	-2.05000e+00	4.080776e+06	
42	-2.10000e+00	4.119803e+06	
43	-2.15000e+00	4.157475e+06	
44	-2.20000e+00	4.193708e+06	
45	-2.25000e+00	4.228385e+06	
46	-2.30000e+00	4.261352e+06	
47	-2.35000e+00	4.292406e+06	
48	-2.40000e+00	4.321297e+06	
49	-2.45000e+00	4.347718e+06	
50	-2.50000e+00	4.371305e+06	
51	-2.55000e+00	4.391630e+06	
52	-2.60000e+00	4.408204e+06	
53	-2.65000e+00	4.420478e+06	
54	-2.70000e+00	4.427845e+06	

Index   v-sweep         rds             
--------------------------------------------------------------------------------
55	-2.75000e+00	4.429651e+06	
56	-2.80000e+00	4.425209e+06	
57	-2.85000e+00	4.413809e+06	
58	-2.90000e+00	4.394748e+06	
59	-2.95000e+00	4.367352e+06	
60	-3.00000e+00	4.331005e+06	
61	-3.05000e+00	4.285184e+06	
62	-3.10000e+00	4.229487e+06	
63	-3.15000e+00	4.163672e+06	
64	-3.20000e+00	4.087674e+06	
65	-3.25000e+00	4.001636e+06	
66	-3.30000e+00	3.905912e+06	
Reset re-loads circuit ***************************

Circuit: ***************************

Doing analysis at TEMP = 125.000000 and TNOM = 125.000000


No. of Data Rows : 67
                          ***************************
                          DC transfer characteristic  Mon Jan  9 13:58:26  2023
--------------------------------------------------------------------------------
Index   v-sweep         rds             
--------------------------------------------------------------------------------
0	0.000000e+00	2.832882e+03	
1	-5.00000e-02	3.124005e+03	
2	-1.00000e-01	3.478381e+03	
3	-1.50000e-01	3.918971e+03	
4	-2.00000e-01	4.481204e+03	
5	-2.50000e-01	5.222530e+03	
6	-3.00000e-01	6.241822e+03	
7	-3.50000e-01	7.721725e+03	
8	-4.00000e-01	1.002709e+04	
9	-4.50000e-01	1.393667e+04	
10	-5.00000e-01	2.109400e+04	
11	-5.50000e-01	3.417012e+04	
12	-6.00000e-01	5.451735e+04	
13	-6.50000e-01	7.862355e+04	
14	-7.00000e-01	1.013640e+05	
15	-7.50000e-01	1.207623e+05	
16	-8.00000e-01	1.372084e+05	
17	-8.50000e-01	1.515810e+05	
18	-9.00000e-01	1.645739e+05	
19	-9.50000e-01	1.766375e+05	
20	-1.00000e+00	1.880516e+05	
21	-1.05000e+00	1.989899e+05	
22	-1.10000e+00	2.095628e+05	
23	-1.15000e+00	2.198423e+05	
24	-1.20000e+00	2.298769e+05	
25	-1.25000e+00	2.397004e+05	
26	-1.30000e+00	2.493366e+05	
27	-1.35000e+00	2.588033e+05	
28	-1.40000e+00	2.681139e+05	
29	-1.45000e+00	2.772787e+05	
30	-1.50000e+00	2.863058e+05	
31	-1.55000e+00	2.952020e+05	
32	-1.60000e+00	3.039729e+05	
33	-1.65000e+00	3.126232e+05	
34	-1.70000e+00	3.211569e+05	
35	-1.75000e+00	3.295777e+05	
36	-1.80000e+00	3.378886e+05	
37	-1.85000e+00	3.460927e+05	
38	-1.90000e+00	3.541924e+05	
39	-1.95000e+00	3.621902e+05	
40	-2.00000e+00	3.700881e+05	
41	-2.05000e+00	3.778880e+05	
42	-2.10000e+00	3.855914e+05	
43	-2.15000e+00	3.931993e+05	
44	-2.20000e+00	4.007122e+05	
45	-2.25000e+00	4.081295e+05	
46	-2.30000e+00	4.154495e+05	
47	-2.35000e+00	4.226691e+05	
48	-2.40000e+00	4.297826e+05	
49	-2.45000e+00	4.367817e+05	
50	-2.50000e+00	4.436542e+05	
51	-2.55000e+00	4.503836e+05	
52	-2.60000e+00	4.569473e+05	
53	-2.65000e+00	4.633162e+05	
54	-2.70000e+00	4.694529e+05	

Index   v-sweep         rds             
--------------------------------------------------------------------------------
55	-2.75000e+00	4.753106e+05	
56	-2.80000e+00	4.808319e+05	
57	-2.85000e+00	4.859480e+05	
58	-2.90000e+00	4.905773e+05	
59	-2.95000e+00	4.946255e+05	
60	-3.00000e+00	4.979858e+05	
61	-3.05000e+00	5.005398e+05	
62	-3.10000e+00	5.021595e+05	
63	-3.15000e+00	5.027109e+05	
64	-3.20000e+00	5.020579e+05	
65	-3.25000e+00	5.000685e+05	
66	-3.30000e+00	4.966218e+05	
Reset re-loads circuit ***************************

Circuit: ***************************

Doing analysis at TEMP = 125.000000 and TNOM = 125.000000


No. of Data Rows : 67
                          ***************************
                          DC transfer characteristic  Mon Jan  9 13:58:26  2023
--------------------------------------------------------------------------------
Index   v-sweep         rds             
--------------------------------------------------------------------------------
0	0.000000e+00	1.703569e+03	
1	-5.00000e-02	1.801707e+03	
2	-1.00000e-01	1.911000e+03	
3	-1.50000e-01	2.033461e+03	
4	-2.00000e-01	2.171613e+03	
5	-2.50000e-01	2.328665e+03	
6	-3.00000e-01	2.508761e+03	
7	-3.50000e-01	2.717346e+03	
8	-4.00000e-01	2.961708e+03	
9	-4.50000e-01	3.251820e+03	
10	-5.00000e-01	3.601676e+03	
11	-5.50000e-01	4.031477e+03	
12	-6.00000e-01	4.571333e+03	
13	-6.50000e-01	5.267744e+03	
14	-7.00000e-01	6.195233e+03	
15	-7.50000e-01	7.477185e+03	
16	-8.00000e-01	9.320630e+03	
17	-8.50000e-01	1.205835e+04	
18	-9.00000e-01	1.613351e+04	
19	-9.50000e-01	2.185352e+04	
20	-1.00000e+00	2.891679e+04	
21	-1.05000e+00	3.639929e+04	
22	-1.10000e+00	4.347082e+04	
23	-1.15000e+00	4.983015e+04	
24	-1.20000e+00	5.553378e+04	
25	-1.25000e+00	6.073903e+04	
26	-1.30000e+00	6.558833e+04	
27	-1.35000e+00	7.018505e+04	
28	-1.40000e+00	7.459897e+04	
29	-1.45000e+00	7.887640e+04	
30	-1.50000e+00	8.304821e+04	
31	-1.55000e+00	8.713527e+04	
32	-1.60000e+00	9.115200e+04	
33	-1.65000e+00	9.510856e+04	
34	-1.70000e+00	9.901226e+04	
35	-1.75000e+00	1.028685e+05	
36	-1.80000e+00	1.066813e+05	
37	-1.85000e+00	1.104537e+05	
38	-1.90000e+00	1.141883e+05	
39	-1.95000e+00	1.178869e+05	
40	-2.00000e+00	1.215511e+05	
41	-2.05000e+00	1.251822e+05	
42	-2.10000e+00	1.287812e+05	
43	-2.15000e+00	1.323491e+05	
44	-2.20000e+00	1.358868e+05	
45	-2.25000e+00	1.393948e+05	
46	-2.30000e+00	1.428738e+05	
47	-2.35000e+00	1.463244e+05	
48	-2.40000e+00	1.497469e+05	
49	-2.45000e+00	1.531417e+05	
50	-2.50000e+00	1.565090e+05	
51	-2.55000e+00	1.598487e+05	
52	-2.60000e+00	1.631605e+05	
53	-2.65000e+00	1.664438e+05	
54	-2.70000e+00	1.696971e+05	

Index   v-sweep         rds             
--------------------------------------------------------------------------------
55	-2.75000e+00	1.729184e+05	
56	-2.80000e+00	1.761045e+05	
57	-2.85000e+00	1.792506e+05	
58	-2.90000e+00	1.823505e+05	
59	-2.95000e+00	1.853952e+05	
60	-3.00000e+00	1.883731e+05	
61	-3.05000e+00	1.912692e+05	
62	-3.10000e+00	1.940642e+05	
63	-3.15000e+00	1.967343e+05	
64	-3.20000e+00	1.992502e+05	
65	-3.25000e+00	2.015769e+05	
66	-3.30000e+00	2.036730e+05	
Reset re-loads circuit ***************************

Circuit: ***************************

Doing analysis at TEMP = 125.000000 and TNOM = 125.000000


No. of Data Rows : 67
                          ***************************
                          DC transfer characteristic  Mon Jan  9 13:58:26  2023
--------------------------------------------------------------------------------
Index   v-sweep         rds             
--------------------------------------------------------------------------------
0	0.000000e+00	1.272966e+03	
1	-5.00000e-02	1.323987e+03	
2	-1.00000e-01	1.378899e+03	
3	-1.50000e-01	1.438162e+03	
4	-2.00000e-01	1.502314e+03	
5	-2.50000e-01	1.571983e+03	
6	-3.00000e-01	1.647911e+03	
7	-3.50000e-01	1.730977e+03	
8	-4.00000e-01	1.822234e+03	
9	-4.50000e-01	1.922953e+03	
10	-5.00000e-01	2.034677e+03	
11	-5.50000e-01	2.159308e+03	
12	-6.00000e-01	2.299206e+03	
13	-6.50000e-01	2.457339e+03	
14	-7.00000e-01	2.637494e+03	
15	-7.50000e-01	2.844565e+03	
16	-8.00000e-01	3.084991e+03	
17	-8.50000e-01	3.367389e+03	
18	-9.00000e-01	3.703524e+03	
19	-9.50000e-01	4.109801e+03	
20	-1.00000e+00	4.609590e+03	
21	-1.05000e+00	5.236858e+03	
22	-1.10000e+00	6.041649e+03	
23	-1.15000e+00	7.097481e+03	
24	-1.20000e+00	8.507963e+03	
25	-1.25000e+00	1.040133e+04	
26	-1.30000e+00	1.288724e+04	
27	-1.35000e+00	1.596075e+04	
28	-1.40000e+00	1.942795e+04	
29	-1.45000e+00	2.298545e+04	
30	-1.50000e+00	2.639724e+04	
31	-1.55000e+00	2.957127e+04	
32	-1.60000e+00	3.251515e+04	
33	-1.65000e+00	3.527269e+04	
34	-1.70000e+00	3.788943e+04	
35	-1.75000e+00	4.040173e+04	
36	-1.80000e+00	4.283594e+04	
37	-1.85000e+00	4.521056e+04	
38	-1.90000e+00	4.753842e+04	
39	-1.95000e+00	4.982852e+04	
40	-2.00000e+00	5.208722e+04	
41	-2.05000e+00	5.431908e+04	
42	-2.10000e+00	5.652743e+04	
43	-2.15000e+00	5.871475e+04	
44	-2.20000e+00	6.088290e+04	
45	-2.25000e+00	6.303331e+04	
46	-2.30000e+00	6.516711e+04	
47	-2.35000e+00	6.728517e+04	
48	-2.40000e+00	6.938821e+04	
49	-2.45000e+00	7.147681e+04	
50	-2.50000e+00	7.355146e+04	
51	-2.55000e+00	7.561256e+04	
52	-2.60000e+00	7.766044e+04	
53	-2.65000e+00	7.969542e+04	
54	-2.70000e+00	8.171772e+04	

Index   v-sweep         rds             
--------------------------------------------------------------------------------
55	-2.75000e+00	8.372757e+04	
56	-2.80000e+00	8.572510e+04	
57	-2.85000e+00	8.771042e+04	
58	-2.90000e+00	8.968354e+04	
59	-2.95000e+00	9.164432e+04	
60	-3.00000e+00	9.359247e+04	
61	-3.05000e+00	9.552741e+04	
62	-3.10000e+00	9.744822e+04	
63	-3.15000e+00	9.935342e+04	
64	-3.20000e+00	1.012409e+05	
65	-3.25000e+00	1.031076e+05	
66	-3.30000e+00	1.049492e+05	
Reset re-loads circuit ***************************

Circuit: ***************************

Doing analysis at TEMP = 125.000000 and TNOM = 125.000000


No. of Data Rows : 67
                          ***************************
                          DC transfer characteristic  Mon Jan  9 13:58:26  2023
--------------------------------------------------------------------------------
Index   v-sweep         rds             
--------------------------------------------------------------------------------
0	0.000000e+00	1.051180e+03	
1	-5.00000e-02	1.083597e+03	
2	-1.00000e-01	1.117870e+03	
3	-1.50000e-01	1.154160e+03	
4	-2.00000e-01	1.192652e+03	
5	-2.50000e-01	1.233550e+03	
6	-3.00000e-01	1.277088e+03	
7	-3.50000e-01	1.323527e+03	
8	-4.00000e-01	1.373168e+03	
9	-4.50000e-01	1.426350e+03	
10	-5.00000e-01	1.483467e+03	
11	-5.50000e-01	1.544970e+03	
12	-6.00000e-01	1.611382e+03	
13	-6.50000e-01	1.683313e+03	
14	-7.00000e-01	1.761478e+03	
15	-7.50000e-01	1.846721e+03	
16	-8.00000e-01	1.940044e+03	
17	-8.50000e-01	2.042647e+03	
18	-9.00000e-01	2.155979e+03	
19	-9.50000e-01	2.281803e+03	
20	-1.00000e+00	2.422289e+03	
21	-1.05000e+00	2.580132e+03	
22	-1.10000e+00	2.758719e+03	
23	-1.15000e+00	2.962362e+03	
24	-1.20000e+00	3.196617e+03	
25	-1.25000e+00	3.468755e+03	
26	-1.30000e+00	3.788412e+03	
27	-1.35000e+00	4.168545e+03	
28	-1.40000e+00	4.626765e+03	
29	-1.45000e+00	5.187122e+03	
30	-1.50000e+00	5.882184e+03	
31	-1.55000e+00	6.754486e+03	
32	-1.60000e+00	7.854592e+03	
33	-1.65000e+00	9.230103e+03	
34	-1.70000e+00	1.090027e+04	
35	-1.75000e+00	1.282488e+04	
36	-1.80000e+00	1.490016e+04	
37	-1.85000e+00	1.700228e+04	
38	-1.90000e+00	1.904185e+04	
39	-1.95000e+00	2.098170e+04	
40	-2.00000e+00	2.282135e+04	
41	-2.05000e+00	2.457590e+04	
42	-2.10000e+00	2.626320e+04	
43	-2.15000e+00	2.789864e+04	
44	-2.20000e+00	2.949410e+04	
45	-2.25000e+00	3.105833e+04	
46	-2.30000e+00	3.259764e+04	
47	-2.35000e+00	3.411658e+04	
48	-2.40000e+00	3.561844e+04	
49	-2.45000e+00	3.710563e+04	
50	-2.50000e+00	3.857995e+04	
51	-2.55000e+00	4.004273e+04	
52	-2.60000e+00	4.149500e+04	
53	-2.65000e+00	4.293755e+04	
54	-2.70000e+00	4.437099e+04	

Index   v-sweep         rds             
--------------------------------------------------------------------------------
55	-2.75000e+00	4.579580e+04	
56	-2.80000e+00	4.721240e+04	
57	-2.85000e+00	4.862108e+04	
58	-2.90000e+00	5.002213e+04	
59	-2.95000e+00	5.141576e+04	
60	-3.00000e+00	5.280215e+04	
61	-3.05000e+00	5.418145e+04	
62	-3.10000e+00	5.555381e+04	
63	-3.15000e+00	5.691931e+04	
64	-3.20000e+00	5.827803e+04	
65	-3.25000e+00	5.962999e+04	
66	-3.30000e+00	6.097515e+04	
Reset re-loads circuit ***************************

Circuit: ***************************

Doing analysis at TEMP = 125.000000 and TNOM = 125.000000


No. of Data Rows : 67
                          ***************************
                          DC transfer characteristic  Mon Jan  9 13:58:26  2023
--------------------------------------------------------------------------------
Index   v-sweep         rds             
--------------------------------------------------------------------------------
0	0.000000e+00	9.115385e+02	
1	-5.00000e-02	9.343300e+02	
2	-1.00000e-01	9.581584e+02	
3	-1.50000e-01	9.830956e+02	
4	-2.00000e-01	1.009220e+03	
5	-2.50000e-01	1.036619e+03	
6	-3.00000e-01	1.065387e+03	
7	-3.50000e-01	1.095628e+03	
8	-4.00000e-01	1.127459e+03	
9	-4.50000e-01	1.161008e+03	
10	-5.00000e-01	1.196416e+03	
11	-5.50000e-01	1.233842e+03	
12	-6.00000e-01	1.273463e+03	
13	-6.50000e-01	1.315477e+03	
14	-7.00000e-01	1.360107e+03	
15	-7.50000e-01	1.407604e+03	
16	-8.00000e-01	1.458251e+03	
17	-8.50000e-01	1.512373e+03	
18	-9.00000e-01	1.570337e+03	
19	-9.50000e-01	1.632567e+03	
20	-1.00000e+00	1.699549e+03	
21	-1.05000e+00	1.771846e+03	
22	-1.10000e+00	1.850115e+03	
23	-1.15000e+00	1.935123e+03	
24	-1.20000e+00	2.027774e+03	
25	-1.25000e+00	2.129142e+03	
26	-1.30000e+00	2.240506e+03	
27	-1.35000e+00	2.363409e+03	
28	-1.40000e+00	2.499722e+03	
29	-1.45000e+00	2.651735e+03	
30	-1.50000e+00	2.822279e+03	
31	-1.55000e+00	3.014888e+03	
32	-1.60000e+00	3.234015e+03	
33	-1.65000e+00	3.485327e+03	
34	-1.70000e+00	3.776103e+03	
35	-1.75000e+00	4.115753e+03	
36	-1.80000e+00	4.516459e+03	
37	-1.85000e+00	4.993877e+03	
38	-1.90000e+00	5.567615e+03	
39	-1.95000e+00	6.260786e+03	
40	-2.00000e+00	7.097219e+03	
41	-2.05000e+00	8.094441e+03	
42	-2.10000e+00	9.252314e+03	
43	-2.15000e+00	1.054315e+04	
44	-2.20000e+00	1.191451e+04	
45	-2.25000e+00	1.330783e+04	
46	-2.30000e+00	1.467914e+04	
47	-2.35000e+00	1.600671e+04	
48	-2.40000e+00	1.728611e+04	
49	-2.45000e+00	1.852185e+04	
50	-2.50000e+00	1.972128e+04	
51	-2.55000e+00	2.089162e+04	
52	-2.60000e+00	2.203884e+04	
53	-2.65000e+00	2.316761e+04	
54	-2.70000e+00	2.428140e+04	

Index   v-sweep         rds             
--------------------------------------------------------------------------------
55	-2.75000e+00	2.538281e+04	
56	-2.80000e+00	2.647377e+04	
57	-2.85000e+00	2.755570e+04	
58	-2.90000e+00	2.862969e+04	
59	-2.95000e+00	2.969655e+04	
60	-3.00000e+00	3.075691e+04	
61	-3.05000e+00	3.181125e+04	
62	-3.10000e+00	3.285996e+04	
63	-3.15000e+00	3.390333e+04	
64	-3.20000e+00	3.494162e+04	
65	-3.25000e+00	3.597501e+04	
66	-3.30000e+00	3.700368e+04	
Reset re-loads circuit ***************************

Circuit: ***************************

Note: No ".plot", ".print", or ".fourier" lines; no simulations run
