
Note: Compatibility modes selected: hs

Warning: m=xx on .subckt line will override multiplier m hierarchy!


Circuit: ***************************

Doing analysis at TEMP = 25.000000 and TNOM = 25.000000


No. of Data Rows : 67
                          ***************************
                          DC transfer characteristic  Mon Jan  9 13:58:25  2023
--------------------------------------------------------------------------------
Index   v-sweep         rds             
--------------------------------------------------------------------------------
0	0.000000e+00	8.237626e+04	
1	-5.00000e-02	1.369079e+05	
2	-1.00000e-01	3.148840e+05	
3	-1.50000e-01	9.663742e+05	
4	-2.00000e-01	1.976698e+06	
5	-2.50000e-01	2.594947e+06	
6	-3.00000e-01	2.892736e+06	
7	-3.50000e-01	3.055364e+06	
8	-4.00000e-01	3.159360e+06	
9	-4.50000e-01	3.233582e+06	
10	-5.00000e-01	3.290135e+06	
11	-5.50000e-01	3.334821e+06	
12	-6.00000e-01	3.370800e+06	
13	-6.50000e-01	3.399988e+06	
14	-7.00000e-01	3.423664e+06	
15	-7.50000e-01	3.442738e+06	
16	-8.00000e-01	3.457899e+06	
17	-8.50000e-01	3.469687e+06	
18	-9.00000e-01	3.478540e+06	
19	-9.50000e-01	3.484818e+06	
20	-1.00000e+00	3.488827e+06	
21	-1.05000e+00	3.490827e+06	
22	-1.10000e+00	3.491042e+06	
23	-1.15000e+00	3.489665e+06	
24	-1.20000e+00	3.486867e+06	
25	-1.25000e+00	3.482797e+06	
26	-1.30000e+00	3.477588e+06	
27	-1.35000e+00	3.471355e+06	
28	-1.40000e+00	3.464203e+06	
29	-1.45000e+00	3.456225e+06	
30	-1.50000e+00	3.447505e+06	
31	-1.55000e+00	3.438116e+06	
32	-1.60000e+00	3.428125e+06	
33	-1.65000e+00	3.417593e+06	
34	-1.70000e+00	3.406574e+06	
35	-1.75000e+00	3.395115e+06	
36	-1.80000e+00	3.383260e+06	
37	-1.85000e+00	3.371046e+06	
38	-1.90000e+00	3.358506e+06	
39	-1.95000e+00	3.345666e+06	
40	-2.00000e+00	3.332551e+06	
41	-2.05000e+00	3.319175e+06	
42	-2.10000e+00	3.305549e+06	
43	-2.15000e+00	3.291678e+06	
44	-2.20000e+00	3.277559e+06	
45	-2.25000e+00	3.263179e+06	
46	-2.30000e+00	3.248522e+06	
47	-2.35000e+00	3.233557e+06	
48	-2.40000e+00	3.218248e+06	
49	-2.45000e+00	3.202547e+06	
50	-2.50000e+00	3.186394e+06	
51	-2.55000e+00	3.169720e+06	
52	-2.60000e+00	3.152442e+06	
53	-2.65000e+00	3.134467e+06	
54	-2.70000e+00	3.115692e+06	

Index   v-sweep         rds             
--------------------------------------------------------------------------------
55	-2.75000e+00	3.096000e+06	
56	-2.80000e+00	3.075265e+06	
57	-2.85000e+00	3.053352e+06	
58	-2.90000e+00	3.030118e+06	
59	-2.95000e+00	3.005414e+06	
60	-3.00000e+00	2.979088e+06	
61	-3.05000e+00	2.950985e+06	
62	-3.10000e+00	2.920955e+06	
63	-3.15000e+00	2.888851e+06	
64	-3.20000e+00	2.854536e+06	
65	-3.25000e+00	2.817886e+06	
66	-3.30000e+00	2.778796e+06	
Reset re-loads circuit ***************************

Circuit: ***************************

Doing analysis at TEMP = 25.000000 and TNOM = 25.000000


No. of Data Rows : 67
                          ***************************
                          DC transfer characteristic  Mon Jan  9 13:58:25  2023
--------------------------------------------------------------------------------
Index   v-sweep         rds             
--------------------------------------------------------------------------------
0	0.000000e+00	1.373750e+04	
1	-5.00000e-02	1.518336e+04	
2	-1.00000e-01	1.693580e+04	
3	-1.50000e-01	1.910277e+04	
4	-2.00000e-01	2.184872e+04	
5	-2.50000e-01	2.543565e+04	
6	-3.00000e-01	3.030323e+04	
7	-3.50000e-01	3.723199e+04	
8	-4.00000e-01	4.767487e+04	
9	-4.50000e-01	6.431468e+04	
10	-5.00000e-01	9.113757e+04	
11	-5.50000e-01	1.296857e+05	
12	-6.00000e-01	1.722929e+05	
13	-6.50000e-01	2.085448e+05	
14	-7.00000e-01	2.361226e+05	
15	-7.50000e-01	2.574795e+05	
16	-8.00000e-01	2.750345e+05	
17	-8.50000e-01	2.902456e+05	
18	-9.00000e-01	3.039081e+05	
19	-9.50000e-01	3.164596e+05	
20	-1.00000e+00	3.281531e+05	
21	-1.05000e+00	3.391442e+05	
22	-1.10000e+00	3.495348e+05	
23	-1.15000e+00	3.593963e+05	
24	-1.20000e+00	3.687817e+05	
25	-1.25000e+00	3.777319e+05	
26	-1.30000e+00	3.862804e+05	
27	-1.35000e+00	3.944553e+05	
28	-1.40000e+00	4.022807e+05	
29	-1.45000e+00	4.097778e+05	
30	-1.50000e+00	4.169655e+05	
31	-1.55000e+00	4.238609e+05	
32	-1.60000e+00	4.304797e+05	
33	-1.65000e+00	4.368361e+05	
34	-1.70000e+00	4.429435e+05	
35	-1.75000e+00	4.488140e+05	
36	-1.80000e+00	4.544592e+05	
37	-1.85000e+00	4.598896e+05	
38	-1.90000e+00	4.651152e+05	
39	-1.95000e+00	4.701454e+05	
40	-2.00000e+00	4.749888e+05	
41	-2.05000e+00	4.796536e+05	
42	-2.10000e+00	4.841473e+05	
43	-2.15000e+00	4.884767e+05	
44	-2.20000e+00	4.926481e+05	
45	-2.25000e+00	4.966667e+05	
46	-2.30000e+00	5.005372e+05	
47	-2.35000e+00	5.042629e+05	
48	-2.40000e+00	5.078457e+05	
49	-2.45000e+00	5.112862e+05	
50	-2.50000e+00	5.145829e+05	
51	-2.55000e+00	5.177319e+05	
52	-2.60000e+00	5.207268e+05	
53	-2.65000e+00	5.235579e+05	
54	-2.70000e+00	5.262121e+05	

Index   v-sweep         rds             
--------------------------------------------------------------------------------
55	-2.75000e+00	5.286719e+05	
56	-2.80000e+00	5.309156e+05	
57	-2.85000e+00	5.329163e+05	
58	-2.90000e+00	5.346419e+05	
59	-2.95000e+00	5.360547e+05	
60	-3.00000e+00	5.371111e+05	
61	-3.05000e+00	5.377620e+05	
62	-3.10000e+00	5.379528e+05	
63	-3.15000e+00	5.376243e+05	
64	-3.20000e+00	5.367128e+05	
65	-3.25000e+00	5.351522e+05	
66	-3.30000e+00	5.328749e+05	
Reset re-loads circuit ***************************

Circuit: ***************************

Doing analysis at TEMP = 25.000000 and TNOM = 25.000000


No. of Data Rows : 67
                          ***************************
                          DC transfer characteristic  Mon Jan  9 13:58:25  2023
--------------------------------------------------------------------------------
Index   v-sweep         rds             
--------------------------------------------------------------------------------
0	0.000000e+00	8.441981e+03	
1	-5.00000e-02	8.949871e+03	
2	-1.00000e-01	9.514352e+03	
3	-1.50000e-01	1.014536e+04	
4	-2.00000e-01	1.085529e+04	
5	-2.50000e-01	1.165980e+04	
6	-3.00000e-01	1.257897e+04	
7	-3.50000e-01	1.363892e+04	
8	-4.00000e-01	1.487429e+04	
9	-4.50000e-01	1.633185e+04	
10	-5.00000e-01	1.807618e+04	
11	-5.50000e-01	2.019856e+04	
12	-6.00000e-01	2.283115e+04	
13	-6.50000e-01	2.616958e+04	
14	-7.00000e-01	3.050682e+04	
15	-7.50000e-01	3.627400e+04	
16	-8.00000e-01	4.404569e+04	
17	-8.50000e-01	5.435782e+04	
18	-9.00000e-01	6.711636e+04	
19	-9.50000e-01	8.099151e+04	
20	-1.00000e+00	9.409916e+04	
21	-1.05000e+00	1.054466e+05	
22	-1.10000e+00	1.151030e+05	
23	-1.15000e+00	1.235093e+05	
24	-1.20000e+00	1.310584e+05	
25	-1.25000e+00	1.380133e+05	
26	-1.30000e+00	1.445360e+05	
27	-1.35000e+00	1.507255e+05	
28	-1.40000e+00	1.566438e+05	
29	-1.45000e+00	1.623313e+05	
30	-1.50000e+00	1.678154e+05	
31	-1.55000e+00	1.731159e+05	
32	-1.60000e+00	1.782474e+05	
33	-1.65000e+00	1.832214e+05	
34	-1.70000e+00	1.880474e+05	
35	-1.75000e+00	1.927331e+05	
36	-1.80000e+00	1.972853e+05	
37	-1.85000e+00	2.017102e+05	
38	-1.90000e+00	2.060129e+05	
39	-1.95000e+00	2.101986e+05	
40	-2.00000e+00	2.142716e+05	
41	-2.05000e+00	2.182362e+05	
42	-2.10000e+00	2.220963e+05	
43	-2.15000e+00	2.258557e+05	
44	-2.20000e+00	2.295178e+05	
45	-2.25000e+00	2.330859e+05	
46	-2.30000e+00	2.365632e+05	
47	-2.35000e+00	2.399526e+05	
48	-2.40000e+00	2.432568e+05	
49	-2.45000e+00	2.464785e+05	
50	-2.50000e+00	2.496200e+05	
51	-2.55000e+00	2.526833e+05	
52	-2.60000e+00	2.556702e+05	
53	-2.65000e+00	2.585819e+05	
54	-2.70000e+00	2.614190e+05	

Index   v-sweep         rds             
--------------------------------------------------------------------------------
55	-2.75000e+00	2.641815e+05	
56	-2.80000e+00	2.668682e+05	
57	-2.85000e+00	2.694770e+05	
58	-2.90000e+00	2.720040e+05	
59	-2.95000e+00	2.744436e+05	
60	-3.00000e+00	2.767883e+05	
61	-3.05000e+00	2.790277e+05	
62	-3.10000e+00	2.811487e+05	
63	-3.15000e+00	2.831349e+05	
64	-3.20000e+00	2.849660e+05	
65	-3.25000e+00	2.866181e+05	
66	-3.30000e+00	2.880629e+05	
Reset re-loads circuit ***************************

Circuit: ***************************

Doing analysis at TEMP = 25.000000 and TNOM = 25.000000


No. of Data Rows : 67
                          ***************************
                          DC transfer characteristic  Mon Jan  9 13:58:25  2023
--------------------------------------------------------------------------------
Index   v-sweep         rds             
--------------------------------------------------------------------------------
0	0.000000e+00	6.130035e+03	
1	-5.00000e-02	6.382601e+03	
2	-1.00000e-01	6.653464e+03	
3	-1.50000e-01	6.944663e+03	
4	-2.00000e-01	7.258549e+03	
5	-2.50000e-01	7.597853e+03	
6	-3.00000e-01	7.965758e+03	
7	-3.50000e-01	8.366002e+03	
8	-4.00000e-01	8.803003e+03	
9	-4.50000e-01	9.282015e+03	
10	-5.00000e-01	9.809344e+03	
11	-5.50000e-01	1.039261e+04	
12	-6.00000e-01	1.104112e+04	
13	-6.50000e-01	1.176634e+04	
14	-7.00000e-01	1.258253e+04	
15	-7.50000e-01	1.350768e+04	
16	-8.00000e-01	1.456472e+04	
17	-8.50000e-01	1.578324e+04	
18	-9.00000e-01	1.720191e+04	
19	-9.50000e-01	1.887185e+04	
20	-1.00000e+00	2.086099e+04	
21	-1.05000e+00	2.325937e+04	
22	-1.10000e+00	2.618321e+04	
23	-1.15000e+00	2.977113e+04	
24	-1.20000e+00	3.415591e+04	
25	-1.25000e+00	3.938625e+04	
26	-1.30000e+00	4.530621e+04	
27	-1.35000e+00	5.151360e+04	
28	-1.40000e+00	5.754009e+04	
29	-1.45000e+00	6.310491e+04	
30	-1.50000e+00	6.816561e+04	
31	-1.55000e+00	7.280330e+04	
32	-1.60000e+00	7.711937e+04	
33	-1.65000e+00	8.119512e+04	
34	-1.70000e+00	8.508704e+04	
35	-1.75000e+00	8.883260e+04	
36	-1.80000e+00	9.245652e+04	
37	-1.85000e+00	9.597541e+04	
38	-1.90000e+00	9.940077e+04	
39	-1.95000e+00	1.027408e+05	
40	-2.00000e+00	1.060018e+05	
41	-2.05000e+00	1.091883e+05	
42	-2.10000e+00	1.123042e+05	
43	-2.15000e+00	1.153528e+05	
44	-2.20000e+00	1.183366e+05	
45	-2.25000e+00	1.212581e+05	
46	-2.30000e+00	1.241194e+05	
47	-2.35000e+00	1.269224e+05	
48	-2.40000e+00	1.296689e+05	
49	-2.45000e+00	1.323605e+05	
50	-2.50000e+00	1.349989e+05	
51	-2.55000e+00	1.375854e+05	
52	-2.60000e+00	1.401214e+05	
53	-2.65000e+00	1.426084e+05	
54	-2.70000e+00	1.450475e+05	

Index   v-sweep         rds             
--------------------------------------------------------------------------------
55	-2.75000e+00	1.474399e+05	
56	-2.80000e+00	1.497868e+05	
57	-2.85000e+00	1.520892e+05	
58	-2.90000e+00	1.543479e+05	
59	-2.95000e+00	1.565638e+05	
60	-3.00000e+00	1.587373e+05	
61	-3.05000e+00	1.608686e+05	
62	-3.10000e+00	1.629576e+05	
63	-3.15000e+00	1.650036e+05	
64	-3.20000e+00	1.670052e+05	
65	-3.25000e+00	1.689601e+05	
66	-3.30000e+00	1.708649e+05	
Reset re-loads circuit ***************************

Circuit: ***************************

Doing analysis at TEMP = 25.000000 and TNOM = 25.000000


No. of Data Rows : 67
                          ***************************
                          DC transfer characteristic  Mon Jan  9 13:58:25  2023
--------------------------------------------------------------------------------
Index   v-sweep         rds             
--------------------------------------------------------------------------------
0	0.000000e+00	5.160033e+03	
1	-5.00000e-02	5.326446e+03	
2	-1.00000e-01	5.502028e+03	
3	-1.50000e-01	5.687545e+03	
4	-2.00000e-01	5.883852e+03	
5	-2.50000e-01	6.091904e+03	
6	-3.00000e-01	6.312772e+03	
7	-3.50000e-01	6.547664e+03	
8	-4.00000e-01	6.797941e+03	
9	-4.50000e-01	7.065147e+03	
10	-5.00000e-01	7.351039e+03	
11	-5.50000e-01	7.657628e+03	
12	-6.00000e-01	7.987220e+03	
13	-6.50000e-01	8.342476e+03	
14	-7.00000e-01	8.726485e+03	
15	-7.50000e-01	9.142847e+03	
16	-8.00000e-01	9.595786e+03	
17	-8.50000e-01	1.009029e+04	
18	-9.00000e-01	1.063228e+04	
19	-9.50000e-01	1.122885e+04	
20	-1.00000e+00	1.188856e+04	
21	-1.05000e+00	1.262180e+04	
22	-1.10000e+00	1.344131e+04	
23	-1.15000e+00	1.436283e+04	
24	-1.20000e+00	1.540592e+04	
25	-1.25000e+00	1.659509e+04	
26	-1.30000e+00	1.796104e+04	
27	-1.35000e+00	1.954207e+04	
28	-1.40000e+00	2.138500e+04	
29	-1.45000e+00	2.354429e+04	
30	-1.50000e+00	2.607614e+04	
31	-1.55000e+00	2.902227e+04	
32	-1.60000e+00	3.237901e+04	
33	-1.65000e+00	3.606173e+04	
34	-1.70000e+00	3.990145e+04	
35	-1.75000e+00	4.370511e+04	
36	-1.80000e+00	4.733847e+04	
37	-1.85000e+00	5.075579e+04	
38	-1.90000e+00	5.397123e+04	
39	-1.95000e+00	5.702020e+04	
40	-2.00000e+00	5.993741e+04	
41	-2.05000e+00	6.274990e+04	
42	-2.10000e+00	6.547696e+04	
43	-2.15000e+00	6.813196e+04	
44	-2.20000e+00	7.072415e+04	
45	-2.25000e+00	7.326005e+04	
46	-2.30000e+00	7.574435e+04	
47	-2.35000e+00	7.818055e+04	
48	-2.40000e+00	8.057132e+04	
49	-2.45000e+00	8.291882e+04	
50	-2.50000e+00	8.522478e+04	
51	-2.55000e+00	8.749070e+04	
52	-2.60000e+00	8.971785e+04	
53	-2.65000e+00	9.190738e+04	
54	-2.70000e+00	9.406032e+04	

Index   v-sweep         rds             
--------------------------------------------------------------------------------
55	-2.75000e+00	9.617761e+04	
56	-2.80000e+00	9.826015e+04	
57	-2.85000e+00	1.003088e+05	
58	-2.90000e+00	1.023242e+05	
59	-2.95000e+00	1.043073e+05	
60	-3.00000e+00	1.062586e+05	
61	-3.05000e+00	1.081789e+05	
62	-3.10000e+00	1.100689e+05	
63	-3.15000e+00	1.119290e+05	
64	-3.20000e+00	1.137599e+05	
65	-3.25000e+00	1.155619e+05	
66	-3.30000e+00	1.173355e+05	
Reset re-loads circuit ***************************

Circuit: ***************************

Doing analysis at TEMP = 25.000000 and TNOM = 25.000000


No. of Data Rows : 67
                          ***************************
                          DC transfer characteristic  Mon Jan  9 13:58:25  2023
--------------------------------------------------------------------------------
Index   v-sweep         rds             
--------------------------------------------------------------------------------
0	0.000000e+00	4.587376e+03	
1	-5.00000e-02	4.709658e+03	
2	-1.00000e-01	4.837397e+03	
3	-1.50000e-01	4.970960e+03	
4	-2.00000e-01	5.110746e+03	
5	-2.50000e-01	5.257193e+03	
6	-3.00000e-01	5.410780e+03	
7	-3.50000e-01	5.572033e+03	
8	-4.00000e-01	5.741532e+03	
9	-4.50000e-01	5.919917e+03	
10	-5.00000e-01	6.107895e+03	
11	-5.50000e-01	6.306249e+03	
12	-6.00000e-01	6.515852e+03	
13	-6.50000e-01	6.737677e+03	
14	-7.00000e-01	6.972811e+03	
15	-7.50000e-01	7.222474e+03	
16	-8.00000e-01	7.488041e+03	
17	-8.50000e-01	7.771064e+03	
18	-9.00000e-01	8.073303e+03	
19	-9.50000e-01	8.396763e+03	
20	-1.00000e+00	8.743735e+03	
21	-1.05000e+00	9.116851e+03	
22	-1.10000e+00	9.519146e+03	
23	-1.15000e+00	9.954141e+03	
24	-1.20000e+00	1.042594e+04	
25	-1.25000e+00	1.093934e+04	
26	-1.30000e+00	1.150002e+04	
27	-1.35000e+00	1.211468e+04	
28	-1.40000e+00	1.279132e+04	
29	-1.45000e+00	1.353952e+04	
30	-1.50000e+00	1.437081e+04	
31	-1.55000e+00	1.529911e+04	
32	-1.60000e+00	1.634120e+04	
33	-1.65000e+00	1.751720e+04	
34	-1.70000e+00	1.885083e+04	
35	-1.75000e+00	2.036901e+04	
36	-1.80000e+00	2.209988e+04	
37	-1.85000e+00	2.406780e+04	
38	-1.90000e+00	2.628345e+04	
39	-1.95000e+00	2.872962e+04	
40	-2.00000e+00	3.134988e+04	
41	-2.05000e+00	3.405446e+04	
42	-2.10000e+00	3.674883e+04	
43	-2.15000e+00	3.936618e+04	
44	-2.20000e+00	4.187870e+04	
45	-2.25000e+00	4.428697e+04	
46	-2.30000e+00	4.660416e+04	
47	-2.35000e+00	4.884555e+04	
48	-2.40000e+00	5.102420e+04	
49	-2.45000e+00	5.315003e+04	
50	-2.50000e+00	5.523025e+04	
51	-2.55000e+00	5.727002e+04	
52	-2.60000e+00	5.927304e+04	
53	-2.65000e+00	6.124206e+04	
54	-2.70000e+00	6.317911e+04	

Index   v-sweep         rds             
--------------------------------------------------------------------------------
55	-2.75000e+00	6.508579e+04	
56	-2.80000e+00	6.696335e+04	
57	-2.85000e+00	6.881283e+04	
58	-2.90000e+00	7.063510e+04	
59	-2.95000e+00	7.243093e+04	
60	-3.00000e+00	7.420099e+04	
61	-3.05000e+00	7.594589e+04	
62	-3.10000e+00	7.766619e+04	
63	-3.15000e+00	7.936240e+04	
64	-3.20000e+00	8.103503e+04	
65	-3.25000e+00	8.268452e+04	
66	-3.30000e+00	8.431133e+04	
Reset re-loads circuit ***************************

Circuit: ***************************

Note: No ".plot", ".print", or ".fourier" lines; no simulations run
