
Note: Compatibility modes selected: hs

Warning: m=xx on .subckt line will override multiplier m hierarchy!


Circuit: ***************************

Doing analysis at TEMP = 125.000000 and TNOM = 125.000000


No. of Data Rows : 67
                          ***************************
                          DC transfer characteristic  Mon Jan  9 13:58:26  2023
--------------------------------------------------------------------------------
Index   v-sweep         rds             
--------------------------------------------------------------------------------
0	0.000000e+00	2.882584e+06	
1	-5.00000e-02	4.681156e+06	
2	-1.00000e-01	1.056040e+07	
3	-1.50000e-01	3.965199e+07	
4	-2.00000e-01	1.625206e+08	
5	-2.50000e-01	4.877146e+08	
6	-3.00000e-01	1.091822e+09	
7	-3.50000e-01	1.978458e+09	
8	-4.00000e-01	3.082405e+09	
9	-4.50000e-01	4.305346e+09	
10	-5.00000e-01	5.554423e+09	
11	-5.50000e-01	6.763163e+09	
12	-6.00000e-01	7.894081e+09	
13	-6.50000e-01	8.931940e+09	
14	-7.00000e-01	9.875357e+09	
15	-7.50000e-01	1.073021e+10	
16	-8.00000e-01	1.150542e+10	
17	-8.50000e-01	1.221056e+10	
18	-9.00000e-01	1.285474e+10	
19	-9.50000e-01	1.344609e+10	
20	-1.00000e+00	1.399162e+10	
21	-1.05000e+00	1.449733e+10	
22	-1.10000e+00	1.496825e+10	
23	-1.15000e+00	1.540864e+10	
24	-1.20000e+00	1.582205e+10	
25	-1.25000e+00	1.621152e+10	
26	-1.30000e+00	1.657958e+10	
27	-1.35000e+00	1.692841e+10	
28	-1.40000e+00	1.725988e+10	
29	-1.45000e+00	1.757558e+10	
30	-1.50000e+00	1.787689e+10	
31	-1.55000e+00	1.816502e+10	
32	-1.60000e+00	1.844102e+10	
33	-1.65000e+00	1.870580e+10	
34	-1.70000e+00	1.896018e+10	
35	-1.75000e+00	1.920485e+10	
36	-1.80000e+00	1.944042e+10	
37	-1.85000e+00	1.966741e+10	
38	-1.90000e+00	1.988625e+10	
39	-1.95000e+00	2.009729e+10	
40	-2.00000e+00	2.030076e+10	
41	-2.05000e+00	2.049680e+10	
42	-2.10000e+00	2.068542e+10	
43	-2.15000e+00	2.086650e+10	
44	-2.20000e+00	2.103977e+10	
45	-2.25000e+00	2.120476e+10	
46	-2.30000e+00	2.136085e+10	
47	-2.35000e+00	2.150717e+10	
48	-2.40000e+00	2.164262e+10	
49	-2.45000e+00	2.176587e+10	
50	-2.50000e+00	2.187531e+10	
51	-2.55000e+00	2.196906e+10	
52	-2.60000e+00	2.204496e+10	
53	-2.65000e+00	2.210061e+10	
54	-2.70000e+00	2.213335e+10	

Index   v-sweep         rds             
--------------------------------------------------------------------------------
55	-2.75000e+00	2.214034e+10	
56	-2.80000e+00	2.211859e+10	
57	-2.85000e+00	2.206503e+10	
58	-2.90000e+00	2.197663e+10	
59	-2.95000e+00	2.185046e+10	
60	-3.00000e+00	2.168384e+10	
61	-3.05000e+00	2.147448e+10	
62	-3.10000e+00	2.122058e+10	
63	-3.15000e+00	2.092097e+10	
64	-3.20000e+00	2.057522e+10	
65	-3.25000e+00	2.018373e+10	
66	-3.30000e+00	1.974779e+10	
Reset re-loads circuit ***************************

Circuit: ***************************

Doing analysis at TEMP = 125.000000 and TNOM = 125.000000


No. of Data Rows : 67
                          ***************************
                          DC transfer characteristic  Mon Jan  9 13:58:26  2023
--------------------------------------------------------------------------------
Index   v-sweep         rds             
--------------------------------------------------------------------------------
0	0.000000e+00	6.467109e+05	
1	-5.00000e-02	7.272055e+05	
2	-1.00000e-01	8.304366e+05	
3	-1.50000e-01	9.674954e+05	
4	-2.00000e-01	1.157887e+06	
5	-2.50000e-01	1.438932e+06	
6	-3.00000e-01	1.889957e+06	
7	-3.50000e-01	2.701907e+06	
8	-4.00000e-01	4.391645e+06	
9	-4.50000e-01	8.401346e+06	
10	-5.00000e-01	1.813601e+07	
11	-5.50000e-01	3.915423e+07	
12	-6.00000e-01	7.713262e+07	
13	-6.50000e-01	1.351452e+08	
14	-7.00000e-01	2.124178e+08	
15	-7.50000e-01	3.049838e+08	
16	-8.00000e-01	4.074017e+08	
17	-8.50000e-01	5.144027e+08	
18	-9.00000e-01	6.218373e+08	
19	-9.50000e-01	7.269137e+08	
20	-1.00000e+00	8.280202e+08	
21	-1.05000e+00	9.244051e+08	
22	-1.10000e+00	1.015873e+09	
23	-1.15000e+00	1.102553e+09	
24	-1.20000e+00	1.184742e+09	
25	-1.25000e+00	1.262808e+09	
26	-1.30000e+00	1.337133e+09	
27	-1.35000e+00	1.408083e+09	
28	-1.40000e+00	1.475996e+09	
29	-1.45000e+00	1.541173e+09	
30	-1.50000e+00	1.603880e+09	
31	-1.55000e+00	1.664352e+09	
32	-1.60000e+00	1.722792e+09	
33	-1.65000e+00	1.779377e+09	
34	-1.70000e+00	1.834261e+09	
35	-1.75000e+00	1.887580e+09	
36	-1.80000e+00	1.939449e+09	
37	-1.85000e+00	1.989974e+09	
38	-1.90000e+00	2.039244e+09	
39	-1.95000e+00	2.087337e+09	
40	-2.00000e+00	2.134324e+09	
41	-2.05000e+00	2.180263e+09	
42	-2.10000e+00	2.225205e+09	
43	-2.15000e+00	2.269190e+09	
44	-2.20000e+00	2.312247e+09	
45	-2.25000e+00	2.354393e+09	
46	-2.30000e+00	2.395632e+09	
47	-2.35000e+00	2.435946e+09	
48	-2.40000e+00	2.475301e+09	
49	-2.45000e+00	2.513632e+09	
50	-2.50000e+00	2.550847e+09	
51	-2.55000e+00	2.586814e+09	
52	-2.60000e+00	2.621360e+09	
53	-2.65000e+00	2.654261e+09	
54	-2.70000e+00	2.685241e+09	

Index   v-sweep         rds             
--------------------------------------------------------------------------------
55	-2.75000e+00	2.713959e+09	
56	-2.80000e+00	2.740013e+09	
57	-2.85000e+00	2.762932e+09	
58	-2.90000e+00	2.782179e+09	
59	-2.95000e+00	2.797158e+09	
60	-3.00000e+00	2.807220e+09	
61	-3.05000e+00	2.811677e+09	
62	-3.10000e+00	2.809830e+09	
63	-3.15000e+00	2.800989e+09	
64	-3.20000e+00	2.784511e+09	
65	-3.25000e+00	2.759837e+09	
66	-3.30000e+00	2.726532e+09	
Reset re-loads circuit ***************************

Circuit: ***************************

Doing analysis at TEMP = 125.000000 and TNOM = 125.000000


No. of Data Rows : 67
                          ***************************
                          DC transfer characteristic  Mon Jan  9 13:58:26  2023
--------------------------------------------------------------------------------
Index   v-sweep         rds             
--------------------------------------------------------------------------------
0	0.000000e+00	3.757642e+05	
1	-5.00000e-02	4.009070e+05	
2	-1.00000e-01	4.296425e+05	
3	-1.50000e-01	4.627978e+05	
4	-2.00000e-01	5.014742e+05	
5	-2.50000e-01	5.471694e+05	
6	-3.00000e-01	6.019723e+05	
7	-3.50000e-01	6.688819e+05	
8	-4.00000e-01	7.523544e+05	
9	-4.50000e-01	8.592835e+05	
10	-5.00000e-01	1.000860e+06	
11	-5.50000e-01	1.196316e+06	
12	-6.00000e-01	1.480952e+06	
13	-6.50000e-01	1.924425e+06	
14	-7.00000e-01	2.673718e+06	
15	-7.50000e-01	4.049893e+06	
16	-8.00000e-01	6.724358e+06	
17	-8.50000e-01	1.189200e+07	
18	-9.00000e-01	2.116433e+07	
19	-9.50000e-01	3.603343e+07	
20	-1.00000e+00	5.723668e+07	
21	-1.05000e+00	8.447099e+07	
22	-1.10000e+00	1.165743e+08	
23	-1.15000e+00	1.519724e+08	
24	-1.20000e+00	1.891144e+08	
25	-1.25000e+00	2.267360e+08	
26	-1.30000e+00	2.639434e+08	
27	-1.35000e+00	3.001806e+08	
28	-1.40000e+00	3.351516e+08	
29	-1.45000e+00	3.687379e+08	
30	-1.50000e+00	4.009325e+08	
31	-1.55000e+00	4.317917e+08	
32	-1.60000e+00	4.614039e+08	
33	-1.65000e+00	4.898698e+08	
34	-1.70000e+00	5.172917e+08	
35	-1.75000e+00	5.437667e+08	
36	-1.80000e+00	5.693839e+08	
37	-1.85000e+00	5.942238e+08	
38	-1.90000e+00	6.183578e+08	
39	-1.95000e+00	6.418487e+08	
40	-2.00000e+00	6.647518e+08	
41	-2.05000e+00	6.871155e+08	
42	-2.10000e+00	7.089823e+08	
43	-2.15000e+00	7.303892e+08	
44	-2.20000e+00	7.513689e+08	
45	-2.25000e+00	7.719497e+08	
46	-2.30000e+00	7.921564e+08	
47	-2.35000e+00	8.120105e+08	
48	-2.40000e+00	8.315301e+08	
49	-2.45000e+00	8.507296e+08	
50	-2.50000e+00	8.696201e+08	
51	-2.55000e+00	8.882080e+08	
52	-2.60000e+00	9.064947e+08	
53	-2.65000e+00	9.244749e+08	
54	-2.70000e+00	9.421357e+08	

Index   v-sweep         rds             
--------------------------------------------------------------------------------
55	-2.75000e+00	9.594542e+08	
56	-2.80000e+00	9.763953e+08	
57	-2.85000e+00	9.929093e+08	
58	-2.90000e+00	1.008929e+09	
59	-2.95000e+00	1.024367e+09	
60	-3.00000e+00	1.039110e+09	
61	-3.05000e+00	1.053021e+09	
62	-3.10000e+00	1.065932e+09	
63	-3.15000e+00	1.077644e+09	
64	-3.20000e+00	1.087924e+09	
65	-3.25000e+00	1.096511e+09	
66	-3.30000e+00	1.103113e+09	
Reset re-loads circuit ***************************

Circuit: ***************************

Doing analysis at TEMP = 125.000000 and TNOM = 125.000000


No. of Data Rows : 67
                          ***************************
                          DC transfer characteristic  Mon Jan  9 13:58:26  2023
--------------------------------------------------------------------------------
Index   v-sweep         rds             
--------------------------------------------------------------------------------
0	0.000000e+00	2.708530e+05	
1	-5.00000e-02	2.829881e+05	
2	-1.00000e-01	2.962570e+05	
3	-1.50000e-01	3.108265e+05	
4	-2.00000e-01	3.268973e+05	
5	-2.50000e-01	3.447138e+05	
6	-3.00000e-01	3.645763e+05	
7	-3.50000e-01	3.868576e+05	
8	-4.00000e-01	4.120273e+05	
9	-4.50000e-01	4.406837e+05	
10	-5.00000e-01	4.736020e+05	
11	-5.50000e-01	5.118034e+05	
12	-6.00000e-01	5.566608e+05	
13	-6.50000e-01	6.100607e+05	
14	-7.00000e-01	6.746642e+05	
15	-7.50000e-01	7.543370e+05	
16	-8.00000e-01	8.548899e+05	
17	-8.50000e-01	9.854067e+05	
18	-9.00000e-01	1.160730e+06	
19	-9.50000e-01	1.406310e+06	
20	-1.00000e+00	1.767968e+06	
21	-1.05000e+00	2.331556e+06	
22	-1.10000e+00	3.260270e+06	
23	-1.15000e+00	4.853083e+06	
24	-1.20000e+00	7.599221e+06	
25	-1.25000e+00	1.215445e+07	
26	-1.30000e+00	1.917671e+07	
27	-1.35000e+00	2.908276e+07	
28	-1.40000e+00	4.188196e+07	
29	-1.45000e+00	5.718369e+07	
30	-1.50000e+00	7.434621e+07	
31	-1.55000e+00	9.266423e+07	
32	-1.60000e+00	1.115105e+08	
33	-1.65000e+00	1.304035e+08	
34	-1.70000e+00	1.490154e+08	
35	-1.75000e+00	1.671488e+08	
36	-1.80000e+00	1.847025e+08	
37	-1.85000e+00	2.016403e+08	
38	-1.90000e+00	2.179665e+08	
39	-1.95000e+00	2.337085e+08	
40	-2.00000e+00	2.489054e+08	
41	-2.05000e+00	2.636005e+08	
42	-2.10000e+00	2.778376e+08	
43	-2.15000e+00	2.916580e+08	
44	-2.20000e+00	3.051002e+08	
45	-2.25000e+00	3.181986e+08	
46	-2.30000e+00	3.309842e+08	
47	-2.35000e+00	3.434843e+08	
48	-2.40000e+00	3.557230e+08	
49	-2.45000e+00	3.677216e+08	
50	-2.50000e+00	3.794986e+08	
51	-2.55000e+00	3.910705e+08	
52	-2.60000e+00	4.024516e+08	
53	-2.65000e+00	4.136542e+08	
54	-2.70000e+00	4.246893e+08	

Index   v-sweep         rds             
--------------------------------------------------------------------------------
55	-2.75000e+00	4.355659e+08	
56	-2.80000e+00	4.462914e+08	
57	-2.85000e+00	4.568712e+08	
58	-2.90000e+00	4.673086e+08	
59	-2.95000e+00	4.776040e+08	
60	-3.00000e+00	4.877549e+08	
61	-3.05000e+00	4.977541e+08	
62	-3.10000e+00	5.075895e+08	
63	-3.15000e+00	5.172425e+08	
64	-3.20000e+00	5.266863e+08	
65	-3.25000e+00	5.358848e+08	
66	-3.30000e+00	5.447900e+08	
Reset re-loads circuit ***************************

Circuit: ***************************

Doing analysis at TEMP = 125.000000 and TNOM = 125.000000


No. of Data Rows : 67
                          ***************************
                          DC transfer characteristic  Mon Jan  9 13:58:26  2023
--------------------------------------------------------------------------------
Index   v-sweep         rds             
--------------------------------------------------------------------------------
0	0.000000e+00	2.156467e+05	
1	-5.00000e-02	2.228025e+05	
2	-1.00000e-01	2.304472e+05	
3	-1.50000e-01	2.386327e+05	
4	-2.00000e-01	2.474185e+05	
5	-2.50000e-01	2.568731e+05	
6	-3.00000e-01	2.670758e+05	
7	-3.50000e-01	2.781189e+05	
8	-4.00000e-01	2.901107e+05	
9	-4.50000e-01	3.031787e+05	
10	-5.00000e-01	3.174744e+05	
11	-5.50000e-01	3.331790e+05	
12	-6.00000e-01	3.505112e+05	
13	-6.50000e-01	3.697371e+05	
14	-7.00000e-01	3.911839e+05	
15	-7.50000e-01	4.152587e+05	
16	-8.00000e-01	4.424735e+05	
17	-8.50000e-01	4.734818e+05	
18	-9.00000e-01	5.091299e+05	
19	-9.50000e-01	5.505326e+05	
20	-1.00000e+00	5.991871e+05	
21	-1.05000e+00	6.571478e+05	
22	-1.10000e+00	7.273028e+05	
23	-1.15000e+00	8.138254e+05	
24	-1.20000e+00	9.229343e+05	
25	-1.25000e+00	1.064215e+06	
26	-1.30000e+00	1.252983e+06	
27	-1.35000e+00	1.514606e+06	
28	-1.40000e+00	1.892394e+06	
29	-1.45000e+00	2.461481e+06	
30	-1.50000e+00	3.350473e+06	
31	-1.55000e+00	4.766695e+06	
32	-1.60000e+00	7.006044e+06	
33	-1.65000e+00	1.041660e+07	
34	-1.70000e+00	1.530555e+07	
35	-1.75000e+00	2.182979e+07	
36	-1.80000e+00	2.993564e+07	
37	-1.85000e+00	3.937937e+07	
38	-1.90000e+00	4.980644e+07	
39	-1.95000e+00	6.084200e+07	
40	-2.00000e+00	7.215668e+07	
41	-2.05000e+00	8.349720e+07	
42	-2.10000e+00	9.468939e+07	
43	-2.15000e+00	1.056262e+08	
44	-2.20000e+00	1.162508e+08	
45	-2.25000e+00	1.265414e+08	
46	-2.30000e+00	1.364977e+08	
47	-2.35000e+00	1.461329e+08	
48	-2.40000e+00	1.554668e+08	
49	-2.45000e+00	1.645220e+08	
50	-2.50000e+00	1.733220e+08	
51	-2.55000e+00	1.818892e+08	
52	-2.60000e+00	1.902445e+08	
53	-2.65000e+00	1.984069e+08	
54	-2.70000e+00	2.063937e+08	

Index   v-sweep         rds             
--------------------------------------------------------------------------------
55	-2.75000e+00	2.142202e+08	
56	-2.80000e+00	2.218998e+08	
57	-2.85000e+00	2.294446e+08	
58	-2.90000e+00	2.368651e+08	
59	-2.95000e+00	2.441706e+08	
60	-3.00000e+00	2.513692e+08	
61	-3.05000e+00	2.584680e+08	
62	-3.10000e+00	2.654731e+08	
63	-3.15000e+00	2.723894e+08	
64	-3.20000e+00	2.792210e+08	
65	-3.25000e+00	2.859706e+08	
66	-3.30000e+00	2.926395e+08	
Reset re-loads circuit ***************************

Circuit: ***************************

Doing analysis at TEMP = 125.000000 and TNOM = 125.000000


No. of Data Rows : 67
                          ***************************
                          DC transfer characteristic  Mon Jan  9 13:58:26  2023
--------------------------------------------------------------------------------
Index   v-sweep         rds             
--------------------------------------------------------------------------------
0	0.000000e+00	1.816467e+05	
1	-5.00000e-02	1.863738e+05	
2	-1.00000e-01	1.913521e+05	
3	-1.50000e-01	1.966022e+05	
4	-2.00000e-01	2.021469e+05	
5	-2.50000e-01	2.080119e+05	
6	-3.00000e-01	2.142256e+05	
7	-3.50000e-01	2.208201e+05	
8	-4.00000e-01	2.278314e+05	
9	-4.50000e-01	2.353005e+05	
10	-5.00000e-01	2.432735e+05	
11	-5.50000e-01	2.518032e+05	
12	-6.00000e-01	2.609499e+05	
13	-6.50000e-01	2.707832e+05	
14	-7.00000e-01	2.813831e+05	
15	-7.50000e-01	2.928429e+05	
16	-8.00000e-01	3.052715e+05	
17	-8.50000e-01	3.187968e+05	
18	-9.00000e-01	3.335705e+05	
19	-9.50000e-01	3.497733e+05	
20	-1.00000e+00	3.676223e+05	
21	-1.05000e+00	3.873811e+05	
22	-1.10000e+00	4.093719e+05	
23	-1.15000e+00	4.339937e+05	
24	-1.20000e+00	4.617452e+05	
25	-1.25000e+00	4.932586e+05	
26	-1.30000e+00	5.293463e+05	
27	-1.35000e+00	5.710685e+05	
28	-1.40000e+00	6.198331e+05	
29	-1.45000e+00	6.775466e+05	
30	-1.50000e+00	7.468461e+05	
31	-1.55000e+00	8.314674e+05	
32	-1.60000e+00	9.368408e+05	
33	-1.65000e+00	1.071082e+06	
34	-1.70000e+00	1.246664e+06	
35	-1.75000e+00	1.483279e+06	
36	-1.80000e+00	1.812645e+06	
37	-1.85000e+00	2.286228e+06	
38	-1.90000e+00	2.986180e+06	
39	-1.95000e+00	4.036927e+06	
40	-2.00000e+00	5.608842e+06	
41	-2.05000e+00	7.900649e+06	
42	-2.10000e+00	1.109425e+07	
43	-2.15000e+00	1.529692e+07	
44	-2.20000e+00	2.050166e+07	
45	-2.25000e+00	2.658764e+07	
46	-2.30000e+00	3.335661e+07	
47	-2.35000e+00	4.058333e+07	
48	-2.40000e+00	4.805778e+07	
49	-2.45000e+00	5.560935e+07	
50	-2.50000e+00	6.311388e+07	
51	-2.55000e+00	7.048981e+07	
52	-2.60000e+00	7.768945e+07	
53	-2.65000e+00	8.468972e+07	
54	-2.70000e+00	9.148399e+07	

Index   v-sweep         rds             
--------------------------------------------------------------------------------
55	-2.75000e+00	9.807599e+07	
56	-2.80000e+00	1.044754e+08	
57	-2.85000e+00	1.106949e+08	
58	-2.90000e+00	1.167483e+08	
59	-2.95000e+00	1.226495e+08	
60	-3.00000e+00	1.284117e+08	
61	-3.05000e+00	1.340473e+08	
62	-3.10000e+00	1.395674e+08	
63	-3.15000e+00	1.449821e+08	
64	-3.20000e+00	1.503003e+08	
65	-3.25000e+00	1.555302e+08	
66	-3.30000e+00	1.606787e+08	
Reset re-loads circuit ***************************

Circuit: ***************************

Note: No ".plot", ".print", or ".fourier" lines; no simulations run
