
Note: Compatibility modes selected: hs

Warning: m=xx on .subckt line will override multiplier m hierarchy!


Circuit: ***************************

Doing analysis at TEMP = 125.000000 and TNOM = 125.000000


No. of Data Rows : 67
                          ***************************
                          DC transfer characteristic  Mon Jan  9 13:58:26  2023
--------------------------------------------------------------------------------
Index   v-sweep         rds             
--------------------------------------------------------------------------------
0	0.000000e+00	5.150412e+05	
1	-5.00000e-02	7.716957e+05	
2	-1.00000e-01	1.446412e+06	
3	-1.50000e-01	4.076168e+06	
4	-2.00000e-01	1.467488e+07	
5	-2.50000e-01	3.983011e+07	
6	-3.00000e-01	7.344806e+07	
7	-3.50000e-01	1.048527e+08	
8	-4.00000e-01	1.302519e+08	
9	-4.50000e-01	1.504260e+08	
10	-5.00000e-01	1.669688e+08	
11	-5.50000e-01	1.811138e+08	
12	-6.00000e-01	1.936610e+08	
13	-6.50000e-01	2.051089e+08	
14	-7.00000e-01	2.157697e+08	
15	-7.50000e-01	2.258430e+08	
16	-8.00000e-01	2.354603e+08	
17	-8.50000e-01	2.447103e+08	
18	-9.00000e-01	2.536547e+08	
19	-9.50000e-01	2.623379e+08	
20	-1.00000e+00	2.707921e+08	
21	-1.05000e+00	2.790419e+08	
22	-1.10000e+00	2.871060e+08	
23	-1.15000e+00	2.949993e+08	
24	-1.20000e+00	3.027336e+08	
25	-1.25000e+00	3.103188e+08	
26	-1.30000e+00	3.177630e+08	
27	-1.35000e+00	3.250731e+08	
28	-1.40000e+00	3.322553e+08	
29	-1.45000e+00	3.393146e+08	
30	-1.50000e+00	3.462558e+08	
31	-1.55000e+00	3.530830e+08	
32	-1.60000e+00	3.597999e+08	
33	-1.65000e+00	3.664097e+08	
34	-1.70000e+00	3.729152e+08	
35	-1.75000e+00	3.793189e+08	
36	-1.80000e+00	3.856226e+08	
37	-1.85000e+00	3.918272e+08	
38	-1.90000e+00	3.979331e+08	
39	-1.95000e+00	4.039392e+08	
40	-2.00000e+00	4.098428e+08	
41	-2.05000e+00	4.156393e+08	
42	-2.10000e+00	4.213216e+08	
43	-2.15000e+00	4.268794e+08	
44	-2.20000e+00	4.322984e+08	
45	-2.25000e+00	4.375601e+08	
46	-2.30000e+00	4.426400e+08	
47	-2.35000e+00	4.475078e+08	
48	-2.40000e+00	4.521258e+08	
49	-2.45000e+00	4.564487e+08	
50	-2.50000e+00	4.604224e+08	
51	-2.55000e+00	4.639841e+08	
52	-2.60000e+00	4.670619e+08	
53	-2.65000e+00	4.695752e+08	
54	-2.70000e+00	4.714356e+08	

Index   v-sweep         rds             
--------------------------------------------------------------------------------
55	-2.75000e+00	4.725480e+08	
56	-2.80000e+00	4.728133e+08	
57	-2.85000e+00	4.721308e+08	
58	-2.90000e+00	4.704026e+08	
59	-2.95000e+00	4.675372e+08	
60	-3.00000e+00	4.634550e+08	
61	-3.05000e+00	4.580934e+08	
62	-3.10000e+00	4.514116e+08	
63	-3.15000e+00	4.433951e+08	
64	-3.20000e+00	4.340592e+08	
65	-3.25000e+00	4.234507e+08	
66	-3.30000e+00	4.116482e+08	
Reset re-loads circuit ***************************

Circuit: ***************************

Doing analysis at TEMP = 125.000000 and TNOM = 125.000000


No. of Data Rows : 67
                          ***************************
                          DC transfer characteristic  Mon Jan  9 13:58:27  2023
--------------------------------------------------------------------------------
Index   v-sweep         rds             
--------------------------------------------------------------------------------
0	0.000000e+00	1.249036e+05	
1	-5.00000e-02	1.389927e+05	
2	-1.00000e-01	1.565851e+05	
3	-1.50000e-01	1.791599e+05	
4	-2.00000e-01	2.091484e+05	
5	-2.50000e-01	2.508159e+05	
6	-3.00000e-01	3.122721e+05	
7	-3.50000e-01	4.104912e+05	
8	-4.00000e-01	5.848056e+05	
9	-4.50000e-01	9.322529e+05	
10	-5.00000e-01	1.670420e+06	
11	-5.50000e-01	3.104204e+06	
12	-6.00000e-01	5.275500e+06	
13	-6.50000e-01	7.758793e+06	
14	-7.00000e-01	1.009244e+07	
15	-7.50000e-01	1.210007e+07	
16	-8.00000e-01	1.380234e+07	
17	-8.50000e-01	1.527415e+07	
18	-9.00000e-01	1.658374e+07	
19	-9.50000e-01	1.778061e+07	
20	-1.00000e+00	1.889822e+07	
21	-1.05000e+00	1.995880e+07	
22	-1.10000e+00	2.097723e+07	
23	-1.15000e+00	2.196357e+07	
24	-1.20000e+00	2.292480e+07	
25	-1.25000e+00	2.386581e+07	
26	-1.30000e+00	2.479013e+07	
27	-1.35000e+00	2.570032e+07	
28	-1.40000e+00	2.659832e+07	
29	-1.45000e+00	2.748556e+07	
30	-1.50000e+00	2.836316e+07	
31	-1.55000e+00	2.923200e+07	
32	-1.60000e+00	3.009277e+07	
33	-1.65000e+00	3.094601e+07	
34	-1.70000e+00	3.179219e+07	
35	-1.75000e+00	3.263166e+07	
36	-1.80000e+00	3.346474e+07	
37	-1.85000e+00	3.429169e+07	
38	-1.90000e+00	3.511271e+07	
39	-1.95000e+00	3.592798e+07	
40	-2.00000e+00	3.673764e+07	
41	-2.05000e+00	3.754180e+07	
42	-2.10000e+00	3.834049e+07	
43	-2.15000e+00	3.913369e+07	
44	-2.20000e+00	3.992130e+07	
45	-2.25000e+00	4.070308e+07	
46	-2.30000e+00	4.147865e+07	
47	-2.35000e+00	4.224740e+07	
48	-2.40000e+00	4.300841e+07	
49	-2.45000e+00	4.376043e+07	
50	-2.50000e+00	4.450171e+07	
51	-2.55000e+00	4.522995e+07	
52	-2.60000e+00	4.594212e+07	
53	-2.65000e+00	4.663438e+07	
54	-2.70000e+00	4.730188e+07	

Index   v-sweep         rds             
--------------------------------------------------------------------------------
55	-2.75000e+00	4.793871e+07	
56	-2.80000e+00	4.853767e+07	
57	-2.85000e+00	4.909027e+07	
58	-2.90000e+00	4.958661e+07	
59	-2.95000e+00	5.001541e+07	
60	-3.00000e+00	5.036408e+07	
61	-3.05000e+00	5.061894e+07	
62	-3.10000e+00	5.076550e+07	
63	-3.15000e+00	5.078896e+07	
64	-3.20000e+00	5.067476e+07	
65	-3.25000e+00	5.040938e+07	
66	-3.30000e+00	4.998111e+07	
Reset re-loads circuit ***************************

Circuit: ***************************

Doing analysis at TEMP = 125.000000 and TNOM = 125.000000


No. of Data Rows : 67
                          ***************************
                          DC transfer characteristic  Mon Jan  9 13:58:27  2023
--------------------------------------------------------------------------------
Index   v-sweep         rds             
--------------------------------------------------------------------------------
0	0.000000e+00	7.230714e+04	
1	-5.00000e-02	7.671557e+04	
2	-1.00000e-01	8.167989e+04	
3	-1.50000e-01	8.731205e+04	
4	-2.00000e-01	9.375618e+04	
5	-2.50000e-01	1.012009e+05	
6	-3.00000e-01	1.098976e+05	
7	-3.50000e-01	1.201892e+05	
8	-4.00000e-01	1.325546e+05	
9	-4.50000e-01	1.476829e+05	
10	-5.00000e-01	1.665989e+05	
11	-5.50000e-01	1.908877e+05	
12	-6.00000e-01	2.231137e+05	
13	-6.50000e-01	2.676388e+05	
14	-7.00000e-01	3.322761e+05	
15	-7.50000e-01	4.316141e+05	
16	-8.00000e-01	5.929428e+05	
17	-8.50000e-01	8.623630e+05	
18	-9.00000e-01	1.295175e+06	
19	-9.50000e-01	1.908360e+06	
20	-1.00000e+00	2.636345e+06	
21	-1.05000e+00	3.373124e+06	
22	-1.10000e+00	4.048388e+06	
23	-1.15000e+00	4.643745e+06	
24	-1.20000e+00	5.168587e+06	
25	-1.25000e+00	5.639261e+06	
26	-1.30000e+00	6.070417e+06	
27	-1.35000e+00	6.473093e+06	
28	-1.40000e+00	6.855109e+06	
29	-1.45000e+00	7.221896e+06	
30	-1.50000e+00	7.577226e+06	
31	-1.55000e+00	7.923744e+06	
32	-1.60000e+00	8.263326e+06	
33	-1.65000e+00	8.597326e+06	
34	-1.70000e+00	8.926736e+06	
35	-1.75000e+00	9.252290e+06	
36	-1.80000e+00	9.574545e+06	
37	-1.85000e+00	9.893924e+06	
38	-1.90000e+00	1.021076e+07	
39	-1.95000e+00	1.052530e+07	
40	-2.00000e+00	1.083776e+07	
41	-2.05000e+00	1.114830e+07	
42	-2.10000e+00	1.145706e+07	
43	-2.15000e+00	1.176413e+07	
44	-2.20000e+00	1.206962e+07	
45	-2.25000e+00	1.237359e+07	
46	-2.30000e+00	1.267611e+07	
47	-2.35000e+00	1.297722e+07	
48	-2.40000e+00	1.327695e+07	
49	-2.45000e+00	1.357532e+07	
50	-2.50000e+00	1.387233e+07	
51	-2.55000e+00	1.416794e+07	
52	-2.60000e+00	1.446208e+07	
53	-2.65000e+00	1.475463e+07	
54	-2.70000e+00	1.504539e+07	

Index   v-sweep         rds             
--------------------------------------------------------------------------------
55	-2.75000e+00	1.533406e+07	
56	-2.80000e+00	1.562023e+07	
57	-2.85000e+00	1.590332e+07	
58	-2.90000e+00	1.618254e+07	
59	-2.95000e+00	1.645687e+07	
60	-3.00000e+00	1.672495e+07	
61	-3.05000e+00	1.698511e+07	
62	-3.10000e+00	1.723524e+07	
63	-3.15000e+00	1.747276e+07	
64	-3.20000e+00	1.769460e+07	
65	-3.25000e+00	1.789710e+07	
66	-3.30000e+00	1.807609e+07	
Reset re-loads circuit ***************************

Circuit: ***************************

Doing analysis at TEMP = 125.000000 and TNOM = 125.000000


No. of Data Rows : 67
                          ***************************
                          DC transfer characteristic  Mon Jan  9 13:58:27  2023
--------------------------------------------------------------------------------
Index   v-sweep         rds             
--------------------------------------------------------------------------------
0	0.000000e+00	5.175185e+04	
1	-5.00000e-02	5.386820e+04	
2	-1.00000e-01	5.615812e+04	
3	-1.50000e-01	5.864387e+04	
4	-2.00000e-01	6.135164e+04	
5	-2.50000e-01	6.431253e+04	
6	-3.00000e-01	6.756371e+04	
7	-3.50000e-01	7.114998e+04	
8	-4.00000e-01	7.512585e+04	
9	-4.50000e-01	7.955826e+04	
10	-5.00000e-01	8.453039e+04	
11	-5.50000e-01	9.014678e+04	
12	-6.00000e-01	9.654066e+04	
13	-6.50000e-01	1.038844e+05	
14	-7.00000e-01	1.124048e+05	
15	-7.50000e-01	1.224058e+05	
16	-8.00000e-01	1.343042e+05	
17	-8.50000e-01	1.486843e+05	
18	-9.00000e-01	1.663886e+05	
19	-9.50000e-01	1.886677e+05	
20	-1.00000e+00	2.174367e+05	
21	-1.05000e+00	2.557180e+05	
22	-1.10000e+00	3.083914e+05	
23	-1.15000e+00	3.833475e+05	
24	-1.20000e+00	4.927409e+05	
25	-1.25000e+00	6.525617e+05	
26	-1.30000e+00	8.764550e+05	
27	-1.35000e+00	1.162729e+06	
28	-1.40000e+00	1.487304e+06	
29	-1.45000e+00	1.816451e+06	
30	-1.50000e+00	2.126018e+06	
31	-1.55000e+00	2.407239e+06	
32	-1.60000e+00	2.661362e+06	
33	-1.65000e+00	2.893329e+06	
34	-1.70000e+00	3.108354e+06	
35	-1.75000e+00	3.310745e+06	
36	-1.80000e+00	3.503749e+06	
37	-1.85000e+00	3.689723e+06	
38	-1.90000e+00	3.870358e+06	
39	-1.95000e+00	4.046870e+06	
40	-2.00000e+00	4.220138e+06	
41	-2.05000e+00	4.390805e+06	
42	-2.10000e+00	4.559347e+06	
43	-2.15000e+00	4.726122e+06	
44	-2.20000e+00	4.891399e+06	
45	-2.25000e+00	5.055387e+06	
46	-2.30000e+00	5.218247e+06	
47	-2.35000e+00	5.380107e+06	
48	-2.40000e+00	5.541066e+06	
49	-2.45000e+00	5.701207e+06	
50	-2.50000e+00	5.860594e+06	
51	-2.55000e+00	6.019281e+06	
52	-2.60000e+00	6.177312e+06	
53	-2.65000e+00	6.334722e+06	
54	-2.70000e+00	6.491540e+06	

Index   v-sweep         rds             
--------------------------------------------------------------------------------
55	-2.75000e+00	6.647789e+06	
56	-2.80000e+00	6.803484e+06	
57	-2.85000e+00	6.958632e+06	
58	-2.90000e+00	7.113230e+06	
59	-2.95000e+00	7.267261e+06	
60	-3.00000e+00	7.420687e+06	
61	-3.05000e+00	7.573445e+06	
62	-3.10000e+00	7.725432e+06	
63	-3.15000e+00	7.876499e+06	
64	-3.20000e+00	8.026428e+06	
65	-3.25000e+00	8.174920e+06	
66	-3.30000e+00	8.321569e+06	
Reset re-loads circuit ***************************

Circuit: ***************************

Doing analysis at TEMP = 125.000000 and TNOM = 125.000000


No. of Data Rows : 67
                          ***************************
                          DC transfer characteristic  Mon Jan  9 13:58:27  2023
--------------------------------------------------------------------------------
Index   v-sweep         rds             
--------------------------------------------------------------------------------
0	0.000000e+00	4.194324e+04	
1	-5.00000e-02	4.324698e+04	
2	-1.00000e-01	4.463046e+04	
3	-1.50000e-01	4.610123e+04	
4	-2.00000e-01	4.766781e+04	
5	-2.50000e-01	4.933986e+04	
6	-3.00000e-01	5.112839e+04	
7	-3.50000e-01	5.304600e+04	
8	-4.00000e-01	5.510716e+04	
9	-4.50000e-01	5.732860e+04	
10	-5.00000e-01	5.972973e+04	
11	-5.50000e-01	6.233323e+04	
12	-6.00000e-01	6.516578e+04	
13	-6.50000e-01	6.825890e+04	
14	-7.00000e-01	7.165019e+04	
15	-7.50000e-01	7.538482e+04	
16	-8.00000e-01	7.951751e+04	
17	-8.50000e-01	8.411519e+04	
18	-9.00000e-01	8.926061e+04	
19	-9.50000e-01	9.505716e+04	
20	-1.00000e+00	1.016357e+05	
21	-1.05000e+00	1.091643e+05	
22	-1.10000e+00	1.178618e+05	
23	-1.15000e+00	1.280182e+05	
24	-1.20000e+00	1.400249e+05	
25	-1.25000e+00	1.544211e+05	
26	-1.30000e+00	1.719646e+05	
27	-1.35000e+00	1.937441e+05	
28	-1.40000e+00	2.213532e+05	
29	-1.45000e+00	2.571544e+05	
30	-1.50000e+00	3.046386e+05	
31	-1.55000e+00	3.687815e+05	
32	-1.60000e+00	4.559738e+05	
33	-1.65000e+00	5.725640e+05	
34	-1.70000e+00	7.211639e+05	
35	-1.75000e+00	8.964623e+05	
36	-1.80000e+00	1.085530e+06	
37	-1.85000e+00	1.274064e+06	
38	-1.90000e+00	1.452555e+06	
39	-1.95000e+00	1.617542e+06	
40	-2.00000e+00	1.769505e+06	
41	-2.05000e+00	1.910535e+06	
42	-2.10000e+00	2.042956e+06	
43	-2.15000e+00	2.168783e+06	
44	-2.20000e+00	2.289597e+06	
45	-2.25000e+00	2.406586e+06	
46	-2.30000e+00	2.520629e+06	
47	-2.35000e+00	2.632370e+06	
48	-2.40000e+00	2.742287e+06	
49	-2.45000e+00	2.850733e+06	
50	-2.50000e+00	2.957974e+06	
51	-2.55000e+00	3.064213e+06	
52	-2.60000e+00	3.169602e+06	
53	-2.65000e+00	3.274263e+06	
54	-2.70000e+00	3.378288e+06	

Index   v-sweep         rds             
--------------------------------------------------------------------------------
55	-2.75000e+00	3.481752e+06	
56	-2.80000e+00	3.584713e+06	
57	-2.85000e+00	3.687220e+06	
58	-2.90000e+00	3.789310e+06	
59	-2.95000e+00	3.891015e+06	
60	-3.00000e+00	3.992362e+06	
61	-3.05000e+00	4.093370e+06	
62	-3.10000e+00	4.194057e+06	
63	-3.15000e+00	4.294436e+06	
64	-3.20000e+00	4.394514e+06	
65	-3.25000e+00	4.494296e+06	
66	-3.30000e+00	4.593776e+06	
Reset re-loads circuit ***************************

Circuit: ***************************

Doing analysis at TEMP = 125.000000 and TNOM = 125.000000


No. of Data Rows : 67
                          ***************************
                          DC transfer characteristic  Mon Jan  9 13:58:27  2023
--------------------------------------------------------------------------------
Index   v-sweep         rds             
--------------------------------------------------------------------------------
0	0.000000e+00	3.527470e+04	
1	-5.00000e-02	3.614333e+04	
2	-1.00000e-01	3.705337e+04	
3	-1.50000e-01	3.800787e+04	
4	-2.00000e-01	3.901015e+04	
5	-2.50000e-01	4.006389e+04	
6	-3.00000e-01	4.117315e+04	
7	-3.50000e-01	4.234242e+04	
8	-4.00000e-01	4.357672e+04	
9	-4.50000e-01	4.488161e+04	
10	-5.00000e-01	4.626332e+04	
11	-5.50000e-01	4.772882e+04	
12	-6.00000e-01	4.928596e+04	
13	-6.50000e-01	5.094361e+04	
14	-7.00000e-01	5.271181e+04	
15	-7.50000e-01	5.460197e+04	
16	-8.00000e-01	5.662714e+04	
17	-8.50000e-01	5.880230e+04	
18	-9.00000e-01	6.114471e+04	
19	-9.50000e-01	6.367439e+04	
20	-1.00000e+00	6.641466e+04	
21	-1.05000e+00	6.939289e+04	
22	-1.10000e+00	7.264138e+04	
23	-1.15000e+00	7.619849e+04	
24	-1.20000e+00	8.011020e+04	
25	-1.25000e+00	8.443199e+04	
26	-1.30000e+00	8.923148e+04	
27	-1.35000e+00	9.459180e+04	
28	-1.40000e+00	1.006163e+05	
29	-1.45000e+00	1.074349e+05	
30	-1.50000e+00	1.152130e+05	
31	-1.55000e+00	1.241639e+05	
32	-1.60000e+00	1.345668e+05	
33	-1.65000e+00	1.467924e+05	
34	-1.70000e+00	1.613403e+05	
35	-1.75000e+00	1.788938e+05	
36	-1.80000e+00	2.003973e+05	
37	-1.85000e+00	2.271612e+05	
38	-1.90000e+00	2.609875e+05	
39	-1.95000e+00	3.042651e+05	
40	-2.00000e+00	3.598933e+05	
41	-2.05000e+00	4.307526e+05	
42	-2.10000e+00	5.184552e+05	
43	-2.15000e+00	6.217041e+05	
44	-2.20000e+00	7.356500e+05	
45	-2.25000e+00	8.534575e+05	
46	-2.30000e+00	9.690781e+05	
47	-2.35000e+00	1.078968e+06	
48	-2.40000e+00	1.182016e+06	
49	-2.45000e+00	1.278599e+06	
50	-2.50000e+00	1.369704e+06	
51	-2.55000e+00	1.456411e+06	
52	-2.60000e+00	1.539672e+06	
53	-2.65000e+00	1.620256e+06	
54	-2.70000e+00	1.698757e+06	

Index   v-sweep         rds             
--------------------------------------------------------------------------------
55	-2.75000e+00	1.775625e+06	
56	-2.80000e+00	1.851199e+06	
57	-2.85000e+00	1.925733e+06	
58	-2.90000e+00	1.999421e+06	
59	-2.95000e+00	2.072411e+06	
60	-3.00000e+00	2.144815e+06	
61	-3.05000e+00	2.216722e+06	
62	-3.10000e+00	2.288199e+06	
63	-3.15000e+00	2.359302e+06	
64	-3.20000e+00	2.430074e+06	
65	-3.25000e+00	2.500549e+06	
66	-3.30000e+00	2.570756e+06	
Reset re-loads circuit ***************************

Circuit: ***************************

Note: No ".plot", ".print", or ".fourier" lines; no simulations run
