
Note: Compatibility modes selected: hs

Warning: m=xx on .subckt line will override multiplier m hierarchy!


Circuit: ***************************

Doing analysis at TEMP = -40.000000 and TNOM = -40.000000


No. of Data Rows : 67
                          ***************************
                          DC transfer characteristic  Mon Jan  9 13:58:26  2023
--------------------------------------------------------------------------------
Index   v-sweep         rds             
--------------------------------------------------------------------------------
0	0.000000e+00	2.096811e+05	
1	-5.00000e-02	4.749477e+05	
2	-1.00000e-01	1.854488e+06	
3	-1.50000e-01	4.960158e+06	
4	-2.00000e-01	6.889398e+06	
5	-2.50000e-01	7.694285e+06	
6	-3.00000e-01	8.078930e+06	
7	-3.50000e-01	8.298815e+06	
8	-4.00000e-01	8.440052e+06	
9	-4.50000e-01	8.536275e+06	
10	-5.00000e-01	8.602959e+06	
11	-5.50000e-01	8.648357e+06	
12	-6.00000e-01	8.677440e+06	
13	-6.50000e-01	8.693509e+06	
14	-7.00000e-01	8.698921e+06	
15	-7.50000e-01	8.695455e+06	
16	-8.00000e-01	8.684500e+06	
17	-8.50000e-01	8.667177e+06	
18	-9.00000e-01	8.644408e+06	
19	-9.50000e-01	8.616963e+06	
20	-1.00000e+00	8.585491e+06	
21	-1.05000e+00	8.550547e+06	
22	-1.10000e+00	8.512607e+06	
23	-1.15000e+00	8.472081e+06	
24	-1.20000e+00	8.429329e+06	
25	-1.25000e+00	8.384660e+06	
26	-1.30000e+00	8.338348e+06	
27	-1.35000e+00	8.290632e+06	
28	-1.40000e+00	8.241724e+06	
29	-1.45000e+00	8.191808e+06	
30	-1.50000e+00	8.141050e+06	
31	-1.55000e+00	8.089594e+06	
32	-1.60000e+00	8.037570e+06	
33	-1.65000e+00	7.985092e+06	
34	-1.70000e+00	7.932258e+06	
35	-1.75000e+00	7.879158e+06	
36	-1.80000e+00	7.825867e+06	
37	-1.85000e+00	7.772451e+06	
38	-1.90000e+00	7.718964e+06	
39	-1.95000e+00	7.665451e+06	
40	-2.00000e+00	7.611942e+06	
41	-2.05000e+00	7.558462e+06	
42	-2.10000e+00	7.505017e+06	
43	-2.15000e+00	7.451605e+06	
44	-2.20000e+00	7.398210e+06	
45	-2.25000e+00	7.344798e+06	
46	-2.30000e+00	7.291323e+06	
47	-2.35000e+00	7.237721e+06	
48	-2.40000e+00	7.183910e+06	
49	-2.45000e+00	7.129791e+06	
50	-2.50000e+00	7.075245e+06	
51	-2.55000e+00	7.020134e+06	
52	-2.60000e+00	6.964301e+06	
53	-2.65000e+00	6.907566e+06	
54	-2.70000e+00	6.849735e+06	

Index   v-sweep         rds             
--------------------------------------------------------------------------------
55	-2.75000e+00	6.790593e+06	
56	-2.80000e+00	6.729909e+06	
57	-2.85000e+00	6.667436e+06	
58	-2.90000e+00	6.602917e+06	
59	-2.95000e+00	6.536083e+06	
60	-3.00000e+00	6.466663e+06	
61	-3.05000e+00	6.394383e+06	
62	-3.10000e+00	6.318972e+06	
63	-3.15000e+00	6.240169e+06	
64	-3.20000e+00	6.157731e+06	
65	-3.25000e+00	6.071434e+06	
66	-3.30000e+00	5.981082e+06	
Reset re-loads circuit ***************************

Circuit: ***************************

Doing analysis at TEMP = -40.000000 and TNOM = -40.000000


No. of Data Rows : 67
                          ***************************
                          DC transfer characteristic  Mon Jan  9 13:58:26  2023
--------------------------------------------------------------------------------
Index   v-sweep         rds             
--------------------------------------------------------------------------------
0	0.000000e+00	2.416261e+04	
1	-5.00000e-02	2.706059e+04	
2	-1.00000e-01	3.066476e+04	
3	-1.50000e-01	3.526501e+04	
4	-2.00000e-01	4.133058e+04	
5	-2.50000e-01	4.966535e+04	
6	-3.00000e-01	6.173574e+04	
7	-3.50000e-01	8.036519e+04	
8	-4.00000e-01	1.109310e+05	
9	-4.50000e-01	1.612130e+05	
10	-5.00000e-01	2.319161e+05	
11	-5.50000e-01	3.048440e+05	
12	-6.00000e-01	3.630647e+05	
13	-6.50000e-01	4.064610e+05	
14	-7.00000e-01	4.404265e+05	
15	-7.50000e-01	4.688791e+05	
16	-8.00000e-01	4.939446e+05	
17	-8.50000e-01	5.167322e+05	
18	-9.00000e-01	5.378434e+05	
19	-9.50000e-01	5.576258e+05	
20	-1.00000e+00	5.762955e+05	
21	-1.05000e+00	5.939966e+05	
22	-1.10000e+00	6.108323e+05	
23	-1.15000e+00	6.268804e+05	
24	-1.20000e+00	6.422030e+05	
25	-1.25000e+00	6.568516e+05	
26	-1.30000e+00	6.708699e+05	
27	-1.35000e+00	6.842962e+05	
28	-1.40000e+00	6.971647e+05	
29	-1.45000e+00	7.095062e+05	
30	-1.50000e+00	7.213486e+05	
31	-1.55000e+00	7.327177e+05	
32	-1.60000e+00	7.436372e+05	
33	-1.65000e+00	7.541293e+05	
34	-1.70000e+00	7.642144e+05	
35	-1.75000e+00	7.739118e+05	
36	-1.80000e+00	7.832395e+05	
37	-1.85000e+00	7.922143e+05	
38	-1.90000e+00	8.008520e+05	
39	-1.95000e+00	8.091673e+05	
40	-2.00000e+00	8.171741e+05	
41	-2.05000e+00	8.248853e+05	
42	-2.10000e+00	8.323126e+05	
43	-2.15000e+00	8.394665e+05	
44	-2.20000e+00	8.463565e+05	
45	-2.25000e+00	8.529904e+05	
46	-2.30000e+00	8.593741e+05	
47	-2.35000e+00	8.655115e+05	
48	-2.40000e+00	8.714038e+05	
49	-2.45000e+00	8.770493e+05	
50	-2.50000e+00	8.824424e+05	
51	-2.55000e+00	8.875733e+05	
52	-2.60000e+00	8.924270e+05	
53	-2.65000e+00	8.969832e+05	
54	-2.70000e+00	9.012146e+05	

Index   v-sweep         rds             
--------------------------------------------------------------------------------
55	-2.75000e+00	9.050871e+05	
56	-2.80000e+00	9.085586e+05	
57	-2.85000e+00	9.115785e+05	
58	-2.90000e+00	9.140874e+05	
59	-2.95000e+00	9.160168e+05	
60	-3.00000e+00	9.172892e+05	
61	-3.05000e+00	9.178182e+05	
62	-3.10000e+00	9.175099e+05	
63	-3.15000e+00	9.162632e+05	
64	-3.20000e+00	9.139725e+05	
65	-3.25000e+00	9.105292e+05	
66	-3.30000e+00	9.058253e+05	
Reset re-loads circuit ***************************

Circuit: ***************************

Doing analysis at TEMP = -40.000000 and TNOM = -40.000000


No. of Data Rows : 67
                          ***************************
                          DC transfer characteristic  Mon Jan  9 13:58:26  2023
--------------------------------------------------------------------------------
Index   v-sweep         rds             
--------------------------------------------------------------------------------
0	0.000000e+00	1.367737e+04	
1	-5.00000e-02	1.454265e+04	
2	-1.00000e-01	1.550799e+04	
3	-1.50000e-01	1.659162e+04	
4	-2.00000e-01	1.781645e+04	
5	-2.50000e-01	1.921171e+04	
6	-3.00000e-01	2.081519e+04	
7	-3.50000e-01	2.267667e+04	
8	-4.00000e-01	2.486285e+04	
9	-4.50000e-01	2.746510e+04	
10	-5.00000e-01	3.061133e+04	
11	-5.50000e-01	3.448499e+04	
12	-6.00000e-01	3.935491e+04	
13	-6.50000e-01	4.562059e+04	
14	-7.00000e-01	5.386873e+04	
15	-7.50000e-01	6.489255e+04	
16	-8.00000e-01	7.948327e+04	
17	-8.50000e-01	9.765555e+04	
18	-9.00000e-01	1.176836e+05	
19	-9.50000e-01	1.368466e+05	
20	-1.00000e+00	1.535920e+05	
21	-1.05000e+00	1.679639e+05	
22	-1.10000e+00	1.805902e+05	
23	-1.15000e+00	1.920320e+05	
24	-1.20000e+00	2.026585e+05	
25	-1.25000e+00	2.126928e+05	
26	-1.30000e+00	2.222687e+05	
27	-1.35000e+00	2.314688e+05	
28	-1.40000e+00	2.403462e+05	
29	-1.45000e+00	2.489368e+05	
30	-1.50000e+00	2.572662e+05	
31	-1.55000e+00	2.653533e+05	
32	-1.60000e+00	2.732131e+05	
33	-1.65000e+00	2.808579e+05	
34	-1.70000e+00	2.882979e+05	
35	-1.75000e+00	2.955420e+05	
36	-1.80000e+00	3.025983e+05	
37	-1.85000e+00	3.094739e+05	
38	-1.90000e+00	3.161755e+05	
39	-1.95000e+00	3.227091e+05	
40	-2.00000e+00	3.290805e+05	
41	-2.05000e+00	3.352952e+05	
42	-2.10000e+00	3.413581e+05	
43	-2.15000e+00	3.472742e+05	
44	-2.20000e+00	3.530481e+05	
45	-2.25000e+00	3.586841e+05	
46	-2.30000e+00	3.641863e+05	
47	-2.35000e+00	3.695588e+05	
48	-2.40000e+00	3.748052e+05	
49	-2.45000e+00	3.799289e+05	
50	-2.50000e+00	3.849328e+05	
51	-2.55000e+00	3.898196e+05	
52	-2.60000e+00	3.945910e+05	
53	-2.65000e+00	3.992483e+05	
54	-2.70000e+00	4.037915e+05	

Index   v-sweep         rds             
--------------------------------------------------------------------------------
55	-2.75000e+00	4.082195e+05	
56	-2.80000e+00	4.125294e+05	
57	-2.85000e+00	4.167163e+05	
58	-2.90000e+00	4.207727e+05	
59	-2.95000e+00	4.246882e+05	
60	-3.00000e+00	4.284487e+05	
61	-3.05000e+00	4.320362e+05	
62	-3.10000e+00	4.354276e+05	
63	-3.15000e+00	4.385949e+05	
64	-3.20000e+00	4.415040e+05	
65	-3.25000e+00	4.441147e+05	
66	-3.30000e+00	4.463803e+05	
Reset re-loads circuit ***************************

Circuit: ***************************

Doing analysis at TEMP = -40.000000 and TNOM = -40.000000


No. of Data Rows : 67
                          ***************************
                          DC transfer characteristic  Mon Jan  9 13:58:26  2023
--------------------------------------------------------------------------------
Index   v-sweep         rds             
--------------------------------------------------------------------------------
0	0.000000e+00	1.022180e+04	
1	-5.00000e-02	1.067048e+04	
2	-1.00000e-01	1.115338e+04	
3	-1.50000e-01	1.167451e+04	
4	-2.00000e-01	1.223852e+04	
5	-2.50000e-01	1.285086e+04	
6	-3.00000e-01	1.351793e+04	
7	-3.50000e-01	1.424733e+04	
8	-4.00000e-01	1.504811e+04	
9	-4.50000e-01	1.593115e+04	
10	-5.00000e-01	1.690966e+04	
11	-5.50000e-01	1.799982e+04	
12	-6.00000e-01	1.922160e+04	
13	-6.50000e-01	2.060000e+04	
14	-7.00000e-01	2.216664e+04	
15	-7.50000e-01	2.396199e+04	
16	-8.00000e-01	2.603850e+04	
17	-8.50000e-01	2.846500e+04	
18	-9.00000e-01	3.133256e+04	
19	-9.50000e-01	3.476204e+04	
20	-1.00000e+00	3.891168e+04	
21	-1.05000e+00	4.397872e+04	
22	-1.10000e+00	5.017718e+04	
23	-1.15000e+00	5.765497e+04	
24	-1.20000e+00	6.632340e+04	
25	-1.25000e+00	7.570437e+04	
26	-1.30000e+00	8.506868e+04	
27	-1.35000e+00	9.385523e+04	
28	-1.40000e+00	1.018927e+05	
29	-1.45000e+00	1.092693e+05	
30	-1.50000e+00	1.161406e+05	
31	-1.55000e+00	1.226389e+05	
32	-1.60000e+00	1.288563e+05	
33	-1.65000e+00	1.348532e+05	
34	-1.70000e+00	1.406685e+05	
35	-1.75000e+00	1.463277e+05	
36	-1.80000e+00	1.518481e+05	
37	-1.85000e+00	1.572418e+05	
38	-1.90000e+00	1.625177e+05	
39	-1.95000e+00	1.676826e+05	
40	-2.00000e+00	1.727418e+05	
41	-2.05000e+00	1.776996e+05	
42	-2.10000e+00	1.825600e+05	
43	-2.15000e+00	1.873261e+05	
44	-2.20000e+00	1.920008e+05	
45	-2.25000e+00	1.965869e+05	
46	-2.30000e+00	2.010869e+05	
47	-2.35000e+00	2.055029e+05	
48	-2.40000e+00	2.098372e+05	
49	-2.45000e+00	2.140919e+05	
50	-2.50000e+00	2.182689e+05	
51	-2.55000e+00	2.223701e+05	
52	-2.60000e+00	2.263973e+05	
53	-2.65000e+00	2.303522e+05	
54	-2.70000e+00	2.342364e+05	

Index   v-sweep         rds             
--------------------------------------------------------------------------------
55	-2.75000e+00	2.380514e+05	
56	-2.80000e+00	2.417985e+05	
57	-2.85000e+00	2.454791e+05	
58	-2.90000e+00	2.490938e+05	
59	-2.95000e+00	2.526433e+05	
60	-3.00000e+00	2.561276e+05	
61	-3.05000e+00	2.595461e+05	
62	-3.10000e+00	2.628971e+05	
63	-3.15000e+00	2.661781e+05	
64	-3.20000e+00	2.693848e+05	
65	-3.25000e+00	2.725114e+05	
66	-3.30000e+00	2.755497e+05	
Reset re-loads circuit ***************************

Circuit: ***************************

Doing analysis at TEMP = -40.000000 and TNOM = -40.000000


No. of Data Rows : 67
                          ***************************
                          DC transfer characteristic  Mon Jan  9 13:58:26  2023
--------------------------------------------------------------------------------
Index   v-sweep         rds             
--------------------------------------------------------------------------------
0	0.000000e+00	8.625836e+03	
1	-5.00000e-02	8.920510e+03	
2	-1.00000e-01	9.232160e+03	
3	-1.50000e-01	9.562267e+03	
4	-2.00000e-01	9.912488e+03	
5	-2.50000e-01	1.028469e+04	
6	-3.00000e-01	1.068096e+04	
7	-3.50000e-01	1.110369e+04	
8	-4.00000e-01	1.155557e+04	
9	-4.50000e-01	1.203968e+04	
10	-5.00000e-01	1.255955e+04	
11	-5.50000e-01	1.311923e+04	
12	-6.00000e-01	1.372342e+04	
13	-6.50000e-01	1.437757e+04	
14	-7.00000e-01	1.508808e+04	
15	-7.50000e-01	1.586246e+04	
16	-8.00000e-01	1.670960e+04	
17	-8.50000e-01	1.764012e+04	
18	-9.00000e-01	1.866676e+04	
19	-9.50000e-01	1.980496e+04	
20	-1.00000e+00	2.107354e+04	
21	-1.05000e+00	2.249565e+04	
22	-1.10000e+00	2.409996e+04	
23	-1.15000e+00	2.592221e+04	
24	-1.20000e+00	2.800705e+04	
25	-1.25000e+00	3.041009e+04	
26	-1.30000e+00	3.319949e+04	
27	-1.35000e+00	3.645517e+04	
28	-1.40000e+00	4.026165e+04	
29	-1.45000e+00	4.468643e+04	
30	-1.50000e+00	4.973610e+04	
31	-1.55000e+00	5.530023e+04	
32	-1.60000e+00	6.113594e+04	
33	-1.65000e+00	6.695097e+04	
34	-1.70000e+00	7.253493e+04	
35	-1.75000e+00	7.781322e+04	
36	-1.80000e+00	8.280499e+04	
37	-1.85000e+00	8.756211e+04	
38	-1.90000e+00	9.213487e+04	
39	-1.95000e+00	9.656172e+04	
40	-2.00000e+00	1.008696e+05	
41	-2.05000e+00	1.050766e+05	
42	-2.10000e+00	1.091954e+05	
43	-2.15000e+00	1.132344e+05	
44	-2.20000e+00	1.171999e+05	
45	-2.25000e+00	1.210963e+05	
46	-2.30000e+00	1.249272e+05	
47	-2.35000e+00	1.286951e+05	
48	-2.40000e+00	1.324025e+05	
49	-2.45000e+00	1.360511e+05	
50	-2.50000e+00	1.396427e+05	
51	-2.55000e+00	1.431787e+05	
52	-2.60000e+00	1.466605e+05	
53	-2.65000e+00	1.500892e+05	
54	-2.70000e+00	1.534661e+05	

Index   v-sweep         rds             
--------------------------------------------------------------------------------
55	-2.75000e+00	1.567922e+05	
56	-2.80000e+00	1.600687e+05	
57	-2.85000e+00	1.632964e+05	
58	-2.90000e+00	1.664764e+05	
59	-2.95000e+00	1.696095e+05	
60	-3.00000e+00	1.726967e+05	
61	-3.05000e+00	1.757387e+05	
62	-3.10000e+00	1.787362e+05	
63	-3.15000e+00	1.816900e+05	
64	-3.20000e+00	1.846005e+05	
65	-3.25000e+00	1.874679e+05	
66	-3.30000e+00	1.902923e+05	
Reset re-loads circuit ***************************

Circuit: ***************************

Doing analysis at TEMP = -40.000000 and TNOM = -40.000000


No. of Data Rows : 67
                          ***************************
                          DC transfer characteristic  Mon Jan  9 13:58:26  2023
--------------------------------------------------------------------------------
Index   v-sweep         rds             
--------------------------------------------------------------------------------
0	0.000000e+00	7.808355e+03	
1	-5.00000e-02	8.029631e+03	
2	-1.00000e-01	8.261294e+03	
3	-1.50000e-01	8.504074e+03	
4	-2.00000e-01	8.758774e+03	
5	-2.50000e-01	9.026275e+03	
6	-3.00000e-01	9.307545e+03	
7	-3.50000e-01	9.603655e+03	
8	-4.00000e-01	9.915790e+03	
9	-4.50000e-01	1.024526e+04	
10	-5.00000e-01	1.059353e+04	
11	-5.50000e-01	1.096223e+04	
12	-6.00000e-01	1.135318e+04	
13	-6.50000e-01	1.176842e+04	
14	-7.00000e-01	1.221027e+04	
15	-7.50000e-01	1.268132e+04	
16	-8.00000e-01	1.318453e+04	
17	-8.50000e-01	1.372327e+04	
18	-9.00000e-01	1.430138e+04	
19	-9.50000e-01	1.492330e+04	
20	-1.00000e+00	1.559412e+04	
21	-1.05000e+00	1.631976e+04	
22	-1.10000e+00	1.710715e+04	
23	-1.15000e+00	1.796436e+04	
24	-1.20000e+00	1.890095e+04	
25	-1.25000e+00	1.992825e+04	
26	-1.30000e+00	2.105973e+04	
27	-1.35000e+00	2.231159e+04	
28	-1.40000e+00	2.370327e+04	
29	-1.45000e+00	2.525823e+04	
30	-1.50000e+00	2.700469e+04	
31	-1.55000e+00	2.897631e+04	
32	-1.60000e+00	3.121228e+04	
33	-1.65000e+00	3.375603e+04	
34	-1.70000e+00	3.665052e+04	
35	-1.75000e+00	3.992741e+04	
36	-1.80000e+00	4.358775e+04	
37	-1.85000e+00	4.757850e+04	
38	-1.90000e+00	5.178306e+04	
39	-1.95000e+00	5.604873e+04	
40	-2.00000e+00	6.024304e+04	
41	-2.05000e+00	6.429331e+04	
42	-2.10000e+00	6.818377e+04	
43	-2.15000e+00	7.192959e+04	
44	-2.20000e+00	7.555470e+04	
45	-2.25000e+00	7.908101e+04	
46	-2.30000e+00	8.252538e+04	
47	-2.35000e+00	8.589995e+04	
48	-2.40000e+00	8.921325e+04	
49	-2.45000e+00	9.247128e+04	
50	-2.50000e+00	9.567832e+04	
51	-2.55000e+00	9.883751e+04	
52	-2.60000e+00	1.019512e+05	
53	-2.65000e+00	1.050213e+05	
54	-2.70000e+00	1.080491e+05	

Index   v-sweep         rds             
--------------------------------------------------------------------------------
55	-2.75000e+00	1.110361e+05	
56	-2.80000e+00	1.139831e+05	
57	-2.85000e+00	1.168913e+05	
58	-2.90000e+00	1.197612e+05	
59	-2.95000e+00	1.225939e+05	
60	-3.00000e+00	1.253899e+05	
61	-3.05000e+00	1.281499e+05	
62	-3.10000e+00	1.308746e+05	
63	-3.15000e+00	1.335646e+05	
64	-3.20000e+00	1.362204e+05	
65	-3.25000e+00	1.388426e+05	
66	-3.30000e+00	1.414318e+05	
Reset re-loads circuit ***************************

Circuit: ***************************

Note: No ".plot", ".print", or ".fourier" lines; no simulations run
