
Note: Compatibility modes selected: hs

Warning: m=xx on .subckt line will override multiplier m hierarchy!


Circuit: ***************************

Doing analysis at TEMP = 125.000000 and TNOM = 125.000000


No. of Data Rows : 67
                          ***************************
                          DC transfer characteristic  Mon Jan  9 13:58:27  2023
--------------------------------------------------------------------------------
Index   v-sweep         rds             
--------------------------------------------------------------------------------
0	0.000000e+00	9.193174e+04	
1	-5.00000e-02	1.150732e+05	
2	-1.00000e-01	1.526431e+05	
3	-1.50000e-01	2.223722e+05	
4	-2.00000e-01	3.770293e+05	
5	-2.50000e-01	7.547641e+05	
6	-3.00000e-01	1.427044e+06	
7	-3.50000e-01	2.052408e+06	
8	-4.00000e-01	2.430065e+06	
9	-4.50000e-01	2.644531e+06	
10	-5.00000e-01	2.779982e+06	
11	-5.50000e-01	2.876764e+06	
12	-6.00000e-01	2.952663e+06	
13	-6.50000e-01	3.015918e+06	
14	-7.00000e-01	3.070669e+06	
15	-7.50000e-01	3.119177e+06	
16	-8.00000e-01	3.162788e+06	
17	-8.50000e-01	3.202364e+06	
18	-9.00000e-01	3.238498e+06	
19	-9.50000e-01	3.271622e+06	
20	-1.00000e+00	3.302067e+06	
21	-1.05000e+00	3.330099e+06	
22	-1.10000e+00	3.355936e+06	
23	-1.15000e+00	3.379765e+06	
24	-1.20000e+00	3.401744e+06	
25	-1.25000e+00	3.422015e+06	
26	-1.30000e+00	3.440702e+06	
27	-1.35000e+00	3.457917e+06	
28	-1.40000e+00	3.473762e+06	
29	-1.45000e+00	3.488327e+06	
30	-1.50000e+00	3.501696e+06	
31	-1.55000e+00	3.513947e+06	
32	-1.60000e+00	3.525148e+06	
33	-1.65000e+00	3.535365e+06	
34	-1.70000e+00	3.544657e+06	
35	-1.75000e+00	3.553079e+06	
36	-1.80000e+00	3.560682e+06	
37	-1.85000e+00	3.567511e+06	
38	-1.90000e+00	3.573609e+06	
39	-1.95000e+00	3.579012e+06	
40	-2.00000e+00	3.583752e+06	
41	-2.05000e+00	3.587859e+06	
42	-2.10000e+00	3.591351e+06	
43	-2.15000e+00	3.594245e+06	
44	-2.20000e+00	3.596547e+06	
45	-2.25000e+00	3.598256e+06	
46	-2.30000e+00	3.599360e+06	
47	-2.35000e+00	3.599835e+06	
48	-2.40000e+00	3.599645e+06	
49	-2.45000e+00	3.598741e+06	
50	-2.50000e+00	3.597055e+06	
51	-2.55000e+00	3.594504e+06	
52	-2.60000e+00	3.590987e+06	
53	-2.65000e+00	3.586382e+06	
54	-2.70000e+00	3.580546e+06	

Index   v-sweep         rds             
--------------------------------------------------------------------------------
55	-2.75000e+00	3.573318e+06	
56	-2.80000e+00	3.564514e+06	
57	-2.85000e+00	3.553931e+06	
58	-2.90000e+00	3.541348e+06	
59	-2.95000e+00	3.526527e+06	
60	-3.00000e+00	3.509217e+06	
61	-3.05000e+00	3.489158e+06	
62	-3.10000e+00	3.466085e+06	
63	-3.15000e+00	3.439736e+06	
64	-3.20000e+00	3.409856e+06	
65	-3.25000e+00	3.376206e+06	
66	-3.30000e+00	3.338574e+06	
Reset re-loads circuit ***************************

Circuit: ***************************

Doing analysis at TEMP = 125.000000 and TNOM = 125.000000


No. of Data Rows : 67
                          ***************************
                          DC transfer characteristic  Mon Jan  9 13:58:27  2023
--------------------------------------------------------------------------------
Index   v-sweep         rds             
--------------------------------------------------------------------------------
0	0.000000e+00	3.058296e+04	
1	-5.00000e-02	3.312250e+04	
2	-1.00000e-01	3.608157e+04	
3	-1.50000e-01	3.957277e+04	
4	-2.00000e-01	4.375252e+04	
5	-2.50000e-01	4.884437e+04	
6	-3.00000e-01	5.517835e+04	
7	-3.50000e-01	6.326017e+04	
8	-4.00000e-01	7.389814e+04	
9	-4.50000e-01	8.844270e+04	
10	-5.00000e-01	1.092351e+05	
11	-5.50000e-01	1.403357e+05	
12	-6.00000e-01	1.879577e+05	
13	-6.50000e-01	2.573284e+05	
14	-7.00000e-01	3.422658e+05	
15	-7.50000e-01	4.230311e+05	
16	-8.00000e-01	4.861896e+05	
17	-8.50000e-01	5.325771e+05	
18	-9.00000e-01	5.678005e+05	
19	-9.50000e-01	5.963129e+05	
20	-1.00000e+00	6.207591e+05	
21	-1.05000e+00	6.426051e+05	
22	-1.10000e+00	6.626674e+05	
23	-1.15000e+00	6.814171e+05	
24	-1.20000e+00	6.991382e+05	
25	-1.25000e+00	7.160107e+05	
26	-1.30000e+00	7.321545e+05	
27	-1.35000e+00	7.476534e+05	
28	-1.40000e+00	7.625690e+05	
29	-1.45000e+00	7.769483e+05	
30	-1.50000e+00	7.908288e+05	
31	-1.55000e+00	8.042414e+05	
32	-1.60000e+00	8.172121e+05	
33	-1.65000e+00	8.297637e+05	
34	-1.70000e+00	8.419162e+05	
35	-1.75000e+00	8.536878e+05	
36	-1.80000e+00	8.650949e+05	
37	-1.85000e+00	8.761526e+05	
38	-1.90000e+00	8.868748e+05	
39	-1.95000e+00	8.972748e+05	
40	-2.00000e+00	9.073647e+05	
41	-2.05000e+00	9.171560e+05	
42	-2.10000e+00	9.266594e+05	
43	-2.15000e+00	9.358850e+05	
44	-2.20000e+00	9.448423e+05	
45	-2.25000e+00	9.535396e+05	
46	-2.30000e+00	9.619847e+05	
47	-2.35000e+00	9.701841e+05	
48	-2.40000e+00	9.781430e+05	
49	-2.45000e+00	9.858647e+05	
50	-2.50000e+00	9.933507e+05	
51	-2.55000e+00	1.000599e+06	
52	-2.60000e+00	1.007606e+06	
53	-2.65000e+00	1.014362e+06	
54	-2.70000e+00	1.020853e+06	

Index   v-sweep         rds             
--------------------------------------------------------------------------------
55	-2.75000e+00	1.027060e+06	
56	-2.80000e+00	1.032955e+06	
57	-2.85000e+00	1.038506e+06	
58	-2.90000e+00	1.043668e+06	
59	-2.95000e+00	1.048389e+06	
60	-3.00000e+00	1.052605e+06	
61	-3.05000e+00	1.056240e+06	
62	-3.10000e+00	1.059207e+06	
63	-3.15000e+00	1.061407e+06	
64	-3.20000e+00	1.062730e+06	
65	-3.25000e+00	1.063052e+06	
66	-3.30000e+00	1.062243e+06	
Reset re-loads circuit ***************************

Circuit: ***************************

Doing analysis at TEMP = 125.000000 and TNOM = 125.000000


No. of Data Rows : 67
                          ***************************
                          DC transfer characteristic  Mon Jan  9 13:58:27  2023
--------------------------------------------------------------------------------
Index   v-sweep         rds             
--------------------------------------------------------------------------------
0	0.000000e+00	1.949196e+04	
1	-5.00000e-02	2.047407e+04	
2	-1.00000e-01	2.154839e+04	
3	-1.50000e-01	2.272844e+04	
4	-2.00000e-01	2.403053e+04	
5	-2.50000e-01	2.547452e+04	
6	-3.00000e-01	2.708475e+04	
7	-3.50000e-01	2.889149e+04	
8	-4.00000e-01	3.093275e+04	
9	-4.50000e-01	3.325695e+04	
10	-5.00000e-01	3.592664e+04	
11	-5.50000e-01	3.902398e+04	
12	-6.00000e-01	4.265878e+04	
13	-6.50000e-01	4.698073e+04	
14	-7.00000e-01	5.219803e+04	
15	-7.50000e-01	5.860609e+04	
16	-8.00000e-01	6.663093e+04	
17	-8.50000e-01	7.688964e+04	
18	-9.00000e-01	9.025276e+04	
19	-9.50000e-01	1.078242e+05	
20	-1.00000e+00	1.305816e+05	
21	-1.05000e+00	1.583226e+05	
22	-1.10000e+00	1.884764e+05	
23	-1.15000e+00	2.169932e+05	
24	-1.20000e+00	2.412267e+05	
25	-1.25000e+00	2.609967e+05	
26	-1.30000e+00	2.773461e+05	
27	-1.35000e+00	2.913746e+05	
28	-1.40000e+00	3.038716e+05	
29	-1.45000e+00	3.153365e+05	
30	-1.50000e+00	3.260742e+05	
31	-1.55000e+00	3.362713e+05	
32	-1.60000e+00	3.460447e+05	
33	-1.65000e+00	3.554700e+05	
34	-1.70000e+00	3.645973e+05	
35	-1.75000e+00	3.734617e+05	
36	-1.80000e+00	3.820882e+05	
37	-1.85000e+00	3.904956e+05	
38	-1.90000e+00	3.986983e+05	
39	-1.95000e+00	4.067080e+05	
40	-2.00000e+00	4.145341e+05	
41	-2.05000e+00	4.221848e+05	
42	-2.10000e+00	4.296670e+05	
43	-2.15000e+00	4.369870e+05	
44	-2.20000e+00	4.441502e+05	
45	-2.25000e+00	4.511619e+05	
46	-2.30000e+00	4.580267e+05	
47	-2.35000e+00	4.647489e+05	
48	-2.40000e+00	4.713326e+05	
49	-2.45000e+00	4.777817e+05	
50	-2.50000e+00	4.840998e+05	
51	-2.55000e+00	4.902901e+05	
52	-2.60000e+00	4.963558e+05	
53	-2.65000e+00	5.022996e+05	
54	-2.70000e+00	5.081238e+05	

Index   v-sweep         rds             
--------------------------------------------------------------------------------
55	-2.75000e+00	5.138300e+05	
56	-2.80000e+00	5.194193e+05	
57	-2.85000e+00	5.248914e+05	
58	-2.90000e+00	5.302450e+05	
59	-2.95000e+00	5.354769e+05	
60	-3.00000e+00	5.405817e+05	
61	-3.05000e+00	5.455512e+05	
62	-3.10000e+00	5.503739e+05	
63	-3.15000e+00	5.550341e+05	
64	-3.20000e+00	5.595115e+05	
65	-3.25000e+00	5.637798e+05	
66	-3.30000e+00	5.678067e+05	
Reset re-loads circuit ***************************

Circuit: ***************************

Doing analysis at TEMP = 125.000000 and TNOM = 125.000000


No. of Data Rows : 67
                          ***************************
                          DC transfer characteristic  Mon Jan  9 13:58:27  2023
--------------------------------------------------------------------------------
Index   v-sweep         rds             
--------------------------------------------------------------------------------
0	0.000000e+00	1.484670e+04	
1	-5.00000e-02	1.538854e+04	
2	-1.00000e-01	1.596581e+04	
3	-1.50000e-01	1.658208e+04	
4	-2.00000e-01	1.724140e+04	
5	-2.50000e-01	1.794839e+04	
6	-3.00000e-01	1.870839e+04	
7	-3.50000e-01	1.952753e+04	
8	-4.00000e-01	2.041294e+04	
9	-4.50000e-01	2.137295e+04	
10	-5.00000e-01	2.241731e+04	
11	-5.50000e-01	2.355758e+04	
12	-6.00000e-01	2.480748e+04	
13	-6.50000e-01	2.618350e+04	
14	-7.00000e-01	2.770556e+04	
15	-7.50000e-01	2.939796e+04	
16	-8.00000e-01	3.129065e+04	
17	-8.50000e-01	3.342090e+04	
18	-9.00000e-01	3.583560e+04	
19	-9.50000e-01	3.859443e+04	
20	-1.00000e+00	4.177427e+04	
21	-1.05000e+00	4.547518e+04	
22	-1.10000e+00	4.982860e+04	
23	-1.15000e+00	5.500770e+04	
24	-1.20000e+00	6.123866e+04	
25	-1.25000e+00	6.880668e+04	
26	-1.30000e+00	7.803847e+04	
27	-1.35000e+00	8.921958e+04	
28	-1.40000e+00	1.023911e+05	
29	-1.45000e+00	1.170580e+05	
30	-1.50000e+00	1.321069e+05	
31	-1.55000e+00	1.462726e+05	
32	-1.60000e+00	1.588095e+05	
33	-1.65000e+00	1.696571e+05	
34	-1.70000e+00	1.791281e+05	
35	-1.75000e+00	1.875947e+05	
36	-1.80000e+00	1.953549e+05	
37	-1.85000e+00	2.026154e+05	
38	-1.90000e+00	2.095117e+05	
39	-1.95000e+00	2.161314e+05	
40	-2.00000e+00	2.225317e+05	
41	-2.05000e+00	2.287505e+05	
42	-2.10000e+00	2.348136e+05	
43	-2.15000e+00	2.407389e+05	
44	-2.20000e+00	2.465394e+05	
45	-2.25000e+00	2.522247e+05	
46	-2.30000e+00	2.578022e+05	
47	-2.35000e+00	2.632777e+05	
48	-2.40000e+00	2.686558e+05	
49	-2.45000e+00	2.739405e+05	
50	-2.50000e+00	2.791350e+05	
51	-2.55000e+00	2.842424e+05	
52	-2.60000e+00	2.892651e+05	
53	-2.65000e+00	2.942055e+05	
54	-2.70000e+00	2.990658e+05	

Index   v-sweep         rds             
--------------------------------------------------------------------------------
55	-2.75000e+00	3.038479e+05	
56	-2.80000e+00	3.085537e+05	
57	-2.85000e+00	3.131848e+05	
58	-2.90000e+00	3.177429e+05	
59	-2.95000e+00	3.222294e+05	
60	-3.00000e+00	3.266455e+05	
61	-3.05000e+00	3.309925e+05	
62	-3.10000e+00	3.352709e+05	
63	-3.15000e+00	3.394813e+05	
64	-3.20000e+00	3.436233e+05	
65	-3.25000e+00	3.476961e+05	
66	-3.30000e+00	3.516976e+05	
Reset re-loads circuit ***************************

Circuit: ***************************

Doing analysis at TEMP = 125.000000 and TNOM = 125.000000


No. of Data Rows : 67
                          ***************************
                          DC transfer characteristic  Mon Jan  9 13:58:27  2023
--------------------------------------------------------------------------------
Index   v-sweep         rds             
--------------------------------------------------------------------------------
0	0.000000e+00	1.231959e+04	
1	-5.00000e-02	1.267505e+04	
2	-1.00000e-01	1.304840e+04	
3	-1.50000e-01	1.344098e+04	
4	-2.00000e-01	1.385432e+04	
5	-2.50000e-01	1.429008e+04	
6	-3.00000e-01	1.475011e+04	
7	-3.50000e-01	1.523649e+04	
8	-4.00000e-01	1.575151e+04	
9	-4.50000e-01	1.629777e+04	
10	-5.00000e-01	1.687815e+04	
11	-5.50000e-01	1.749594e+04	
12	-6.00000e-01	1.815483e+04	
13	-6.50000e-01	1.885903e+04	
14	-7.00000e-01	1.961335e+04	
15	-7.50000e-01	2.042329e+04	
16	-8.00000e-01	2.129517e+04	
17	-8.50000e-01	2.223633e+04	
18	-9.00000e-01	2.325529e+04	
19	-9.50000e-01	2.436202e+04	
20	-1.00000e+00	2.556825e+04	
21	-1.05000e+00	2.688789e+04	
22	-1.10000e+00	2.833749e+04	
23	-1.15000e+00	2.993696e+04	
24	-1.20000e+00	3.171037e+04	
25	-1.25000e+00	3.368706e+04	
26	-1.30000e+00	3.590305e+04	
27	-1.35000e+00	3.840289e+04	
28	-1.40000e+00	4.124190e+04	
29	-1.45000e+00	4.448898e+04	
30	-1.50000e+00	4.822949e+04	
31	-1.55000e+00	5.256747e+04	
32	-1.60000e+00	5.762441e+04	
33	-1.65000e+00	6.352895e+04	
34	-1.70000e+00	7.038676e+04	
35	-1.75000e+00	7.821780e+04	
36	-1.80000e+00	8.686649e+04	
37	-1.85000e+00	9.594572e+04	
38	-1.90000e+00	1.049190e+05	
39	-1.95000e+00	1.133213e+05	
40	-2.00000e+00	1.209340e+05	
41	-2.05000e+00	1.277754e+05	
42	-2.10000e+00	1.339817e+05	
43	-2.15000e+00	1.397074e+05	
44	-2.20000e+00	1.450796e+05	
45	-2.25000e+00	1.501910e+05	
46	-2.30000e+00	1.551052e+05	
47	-2.35000e+00	1.598653e+05	
48	-2.40000e+00	1.645002e+05	
49	-2.45000e+00	1.690299e+05	
50	-2.50000e+00	1.734680e+05	
51	-2.55000e+00	1.778245e+05	
52	-2.60000e+00	1.821064e+05	
53	-2.65000e+00	1.863191e+05	
54	-2.70000e+00	1.904667e+05	

Index   v-sweep         rds             
--------------------------------------------------------------------------------
55	-2.75000e+00	1.945523e+05	
56	-2.80000e+00	1.985787e+05	
57	-2.85000e+00	2.025480e+05	
58	-2.90000e+00	2.064619e+05	
59	-2.95000e+00	2.103221e+05	
60	-3.00000e+00	2.141300e+05	
61	-3.05000e+00	2.178868e+05	
62	-3.10000e+00	2.215936e+05	
63	-3.15000e+00	2.252516e+05	
64	-3.20000e+00	2.288616e+05	
65	-3.25000e+00	2.324246e+05	
66	-3.30000e+00	2.359414e+05	
Reset re-loads circuit ***************************

Circuit: ***************************

Doing analysis at TEMP = 125.000000 and TNOM = 125.000000


No. of Data Rows : 67
                          ***************************
                          DC transfer characteristic  Mon Jan  9 13:58:27  2023
--------------------------------------------------------------------------------
Index   v-sweep         rds             
--------------------------------------------------------------------------------
0	0.000000e+00	1.079291e+04	
1	-5.00000e-02	1.105312e+04	
2	-1.00000e-01	1.132405e+04	
3	-1.50000e-01	1.160635e+04	
4	-2.00000e-01	1.190076e+04	
5	-2.50000e-01	1.220804e+04	
6	-3.00000e-01	1.252907e+04	
7	-3.50000e-01	1.286475e+04	
8	-4.00000e-01	1.321612e+04	
9	-4.50000e-01	1.358428e+04	
10	-5.00000e-01	1.397044e+04	
11	-5.50000e-01	1.437595e+04	
12	-6.00000e-01	1.480228e+04	
13	-6.50000e-01	1.525106e+04	
14	-7.00000e-01	1.572410e+04	
15	-7.50000e-01	1.622338e+04	
16	-8.00000e-01	1.675115e+04	
17	-8.50000e-01	1.730987e+04	
18	-9.00000e-01	1.790234e+04	
19	-9.50000e-01	1.853168e+04	
20	-1.00000e+00	1.920141e+04	
21	-1.05000e+00	1.991551e+04	
22	-1.10000e+00	2.067850e+04	
23	-1.15000e+00	2.149552e+04	
24	-1.20000e+00	2.237249e+04	
25	-1.25000e+00	2.331616e+04	
26	-1.30000e+00	2.433438e+04	
27	-1.35000e+00	2.543622e+04	
28	-1.40000e+00	2.663227e+04	
29	-1.45000e+00	2.793497e+04	
30	-1.50000e+00	2.935895e+04	
31	-1.55000e+00	3.092158e+04	
32	-1.60000e+00	3.264351e+04	
33	-1.65000e+00	3.454946e+04	
34	-1.70000e+00	3.666910e+04	
35	-1.75000e+00	3.903801e+04	
36	-1.80000e+00	4.169871e+04	
37	-1.85000e+00	4.470142e+04	
38	-1.90000e+00	4.810381e+04	
39	-1.95000e+00	5.196834e+04	
40	-2.00000e+00	5.635456e+04	
41	-2.05000e+00	6.130233e+04	
42	-2.10000e+00	6.680276e+04	
43	-2.15000e+00	7.276215e+04	
44	-2.20000e+00	7.898262e+04	
45	-2.25000e+00	8.519559e+04	
46	-2.30000e+00	9.115086e+04	
47	-2.35000e+00	9.670072e+04	
48	-2.40000e+00	1.018166e+05	
49	-2.45000e+00	1.065474e+05	
50	-2.50000e+00	1.109691e+05	
51	-2.55000e+00	1.151537e+05	
52	-2.60000e+00	1.191583e+05	
53	-2.65000e+00	1.230247e+05	
54	-2.70000e+00	1.267822e+05	

Index   v-sweep         rds             
--------------------------------------------------------------------------------
55	-2.75000e+00	1.304514e+05	
56	-2.80000e+00	1.340463e+05	
57	-2.85000e+00	1.375770e+05	
58	-2.90000e+00	1.410507e+05	
59	-2.95000e+00	1.444724e+05	
60	-3.00000e+00	1.478460e+05	
61	-3.05000e+00	1.511746e+05	
62	-3.10000e+00	1.544602e+05	
63	-3.15000e+00	1.577049e+05	
64	-3.20000e+00	1.609100e+05	
65	-3.25000e+00	1.640768e+05	
66	-3.30000e+00	1.672064e+05	
Reset re-loads circuit ***************************

Circuit: ***************************

Note: No ".plot", ".print", or ".fourier" lines; no simulations run
