
Note: Compatibility modes selected: hs

Warning: m=xx on .subckt line will override multiplier m hierarchy!


Circuit: ***************************

Doing analysis at TEMP = -40.000000 and TNOM = -40.000000


No. of Data Rows : 67
                          ***************************
                          DC transfer characteristic  Mon Jan  9 13:58:25  2023
--------------------------------------------------------------------------------
Index   v-sweep         rds             
--------------------------------------------------------------------------------
0	0.000000e+00	8.596528e+05	
1	-5.00000e-02	1.023306e+07	
2	-1.00000e-01	9.423675e+07	
3	-1.50000e-01	3.388816e+08	
4	-2.00000e-01	7.355325e+08	
5	-2.50000e-01	1.197160e+09	
6	-3.00000e-01	1.642224e+09	
7	-3.50000e-01	2.032220e+09	
8	-4.00000e-01	2.360684e+09	
9	-4.50000e-01	2.634748e+09	
10	-5.00000e-01	2.864637e+09	
11	-5.50000e-01	3.059686e+09	
12	-6.00000e-01	3.227375e+09	
13	-6.50000e-01	3.373419e+09	
14	-7.00000e-01	3.502127e+09	
15	-7.50000e-01	3.616750e+09	
16	-8.00000e-01	3.719766e+09	
17	-8.50000e-01	3.813082e+09	
18	-9.00000e-01	3.898192e+09	
19	-9.50000e-01	3.976277e+09	
20	-1.00000e+00	4.048287e+09	
21	-1.05000e+00	4.114995e+09	
22	-1.10000e+00	4.177036e+09	
23	-1.15000e+00	4.234940e+09	
24	-1.20000e+00	4.289152e+09	
25	-1.25000e+00	4.340050e+09	
26	-1.30000e+00	4.387958e+09	
27	-1.35000e+00	4.433155e+09	
28	-1.40000e+00	4.475884e+09	
29	-1.45000e+00	4.516356e+09	
30	-1.50000e+00	4.554757e+09	
31	-1.55000e+00	4.591252e+09	
32	-1.60000e+00	4.625985e+09	
33	-1.65000e+00	4.659084e+09	
34	-1.70000e+00	4.690662e+09	
35	-1.75000e+00	4.720816e+09	
36	-1.80000e+00	4.749632e+09	
37	-1.85000e+00	4.777181e+09	
38	-1.90000e+00	4.803520e+09	
39	-1.95000e+00	4.828691e+09	
40	-2.00000e+00	4.852722e+09	
41	-2.05000e+00	4.875624e+09	
42	-2.10000e+00	4.897388e+09	
43	-2.15000e+00	4.917988e+09	
44	-2.20000e+00	4.937374e+09	
45	-2.25000e+00	4.955472e+09	
46	-2.30000e+00	4.972183e+09	
47	-2.35000e+00	4.987381e+09	
48	-2.40000e+00	5.000911e+09	
49	-2.45000e+00	5.012587e+09	
50	-2.50000e+00	5.022193e+09	
51	-2.55000e+00	5.029483e+09	
52	-2.60000e+00	5.034179e+09	
53	-2.65000e+00	5.035976e+09	
54	-2.70000e+00	5.034545e+09	

Index   v-sweep         rds             
--------------------------------------------------------------------------------
55	-2.75000e+00	5.029531e+09	
56	-2.80000e+00	5.020566e+09	
57	-2.85000e+00	5.007269e+09	
58	-2.90000e+00	4.989258e+09	
59	-2.95000e+00	4.966156e+09	
60	-3.00000e+00	4.937603e+09	
61	-3.05000e+00	4.903264e+09	
62	-3.10000e+00	4.862845e+09	
63	-3.15000e+00	4.816100e+09	
64	-3.20000e+00	4.762844e+09	
65	-3.25000e+00	4.702964e+09	
66	-3.30000e+00	4.636425e+09	
Reset re-loads circuit ***************************

Circuit: ***************************

Doing analysis at TEMP = -40.000000 and TNOM = -40.000000


No. of Data Rows : 67
                          ***************************
                          DC transfer characteristic  Mon Jan  9 13:58:25  2023
--------------------------------------------------------------------------------
Index   v-sweep         rds             
--------------------------------------------------------------------------------
0	0.000000e+00	2.304836e+04	
1	-5.00000e-02	2.727564e+04	
2	-1.00000e-01	3.336991e+04	
3	-1.50000e-01	4.286643e+04	
4	-2.00000e-01	5.943165e+04	
5	-2.50000e-01	9.344173e+04	
6	-3.00000e-01	1.787012e+05	
7	-3.50000e-01	4.185560e+05	
8	-4.00000e-01	1.020943e+06	
9	-4.50000e-01	2.188020e+06	
10	-5.00000e-01	3.945918e+06	
11	-5.50000e-01	6.138831e+06	
12	-6.00000e-01	8.552423e+06	
13	-6.50000e-01	1.101450e+07	
14	-7.00000e-01	1.342241e+07	
15	-7.50000e-01	1.572869e+07	
16	-8.00000e-01	1.791900e+07	
17	-8.50000e-01	1.999557e+07	
18	-9.00000e-01	2.196760e+07	
19	-9.50000e-01	2.384625e+07	
20	-1.00000e+00	2.564247e+07	
21	-1.05000e+00	2.736605e+07	
22	-1.10000e+00	2.902544e+07	
23	-1.15000e+00	3.062776e+07	
24	-1.20000e+00	3.217900e+07	
25	-1.25000e+00	3.368417e+07	
26	-1.30000e+00	3.514747e+07	
27	-1.35000e+00	3.657244e+07	
28	-1.40000e+00	3.796209e+07	
29	-1.45000e+00	3.931898e+07	
30	-1.50000e+00	4.064532e+07	
31	-1.55000e+00	4.194301e+07	
32	-1.60000e+00	4.321372e+07	
33	-1.65000e+00	4.445892e+07	
34	-1.70000e+00	4.567990e+07	
35	-1.75000e+00	4.687780e+07	
36	-1.80000e+00	4.805363e+07	
37	-1.85000e+00	4.920828e+07	
38	-1.90000e+00	5.034254e+07	
39	-1.95000e+00	5.145704e+07	
40	-2.00000e+00	5.255229e+07	
41	-2.05000e+00	5.362864e+07	
42	-2.10000e+00	5.468620e+07	
43	-2.15000e+00	5.572485e+07	
44	-2.20000e+00	5.674411e+07	
45	-2.25000e+00	5.774310e+07	
46	-2.30000e+00	5.872040e+07	
47	-2.35000e+00	5.967395e+07	
48	-2.40000e+00	6.060093e+07	
49	-2.45000e+00	6.149756e+07	
50	-2.50000e+00	6.235901e+07	
51	-2.55000e+00	6.317920e+07	
52	-2.60000e+00	6.395068e+07	
53	-2.65000e+00	6.466448e+07	
54	-2.70000e+00	6.531007e+07	

Index   v-sweep         rds             
--------------------------------------------------------------------------------
55	-2.75000e+00	6.587528e+07	
56	-2.80000e+00	6.634640e+07	
57	-2.85000e+00	6.670830e+07	
58	-2.90000e+00	6.694471e+07	
59	-2.95000e+00	6.703870e+07	
60	-3.00000e+00	6.697317e+07	
61	-3.05000e+00	6.673166e+07	
62	-3.10000e+00	6.629918e+07	
63	-3.15000e+00	6.566313e+07	
64	-3.20000e+00	6.481433e+07	
65	-3.25000e+00	6.374791e+07	
66	-3.30000e+00	6.246404e+07	
Reset re-loads circuit ***************************

Circuit: ***************************

Doing analysis at TEMP = -40.000000 and TNOM = -40.000000


No. of Data Rows : 67
                          ***************************
                          DC transfer characteristic  Mon Jan  9 13:58:25  2023
--------------------------------------------------------------------------------
Index   v-sweep         rds             
--------------------------------------------------------------------------------
0	0.000000e+00	1.163977e+04	
1	-5.00000e-02	1.258413e+04	
2	-1.00000e-01	1.369369e+04	
3	-1.50000e-01	1.501576e+04	
4	-2.00000e-01	1.661750e+04	
5	-2.50000e-01	1.859740e+04	
6	-3.00000e-01	2.110554e+04	
7	-3.50000e-01	2.438156e+04	
8	-4.00000e-01	2.883006e+04	
9	-4.50000e-01	3.518151e+04	
10	-5.00000e-01	4.486160e+04	
11	-5.50000e-01	6.089254e+04	
12	-6.00000e-01	9.010914e+04	
13	-6.50000e-01	1.478803e+05	
14	-7.00000e-01	2.638948e+05	
15	-7.50000e-01	4.784443e+05	
16	-8.00000e-01	8.203789e+05	
17	-8.50000e-01	1.286008e+06	
18	-9.00000e-01	1.842856e+06	
19	-9.50000e-01	2.449912e+06	
20	-1.00000e+00	3.073556e+06	
21	-1.05000e+00	3.692372e+06	
22	-1.10000e+00	4.295216e+06	
23	-1.15000e+00	4.877614e+06	
24	-1.20000e+00	5.438793e+06	
25	-1.25000e+00	5.979769e+06	
26	-1.30000e+00	6.502283e+06	
27	-1.35000e+00	7.008244e+06	
28	-1.40000e+00	7.499477e+06	
29	-1.45000e+00	7.977618e+06	
30	-1.50000e+00	8.444089e+06	
31	-1.55000e+00	8.900104e+06	
32	-1.60000e+00	9.346694e+06	
33	-1.65000e+00	9.784732e+06	
34	-1.70000e+00	1.021495e+07	
35	-1.75000e+00	1.063799e+07	
36	-1.80000e+00	1.105437e+07	
37	-1.85000e+00	1.146455e+07	
38	-1.90000e+00	1.186893e+07	
39	-1.95000e+00	1.226785e+07	
40	-2.00000e+00	1.266160e+07	
41	-2.05000e+00	1.305043e+07	
42	-2.10000e+00	1.343458e+07	
43	-2.15000e+00	1.381424e+07	
44	-2.20000e+00	1.418957e+07	
45	-2.25000e+00	1.456070e+07	
46	-2.30000e+00	1.492774e+07	
47	-2.35000e+00	1.529074e+07	
48	-2.40000e+00	1.564971e+07	
49	-2.45000e+00	1.600458e+07	
50	-2.50000e+00	1.635518e+07	
51	-2.55000e+00	1.670126e+07	
52	-2.60000e+00	1.704237e+07	
53	-2.65000e+00	1.737789e+07	
54	-2.70000e+00	1.770698e+07	

Index   v-sweep         rds             
--------------------------------------------------------------------------------
55	-2.75000e+00	1.802846e+07	
56	-2.80000e+00	1.834083e+07	
57	-2.85000e+00	1.864217e+07	
58	-2.90000e+00	1.893008e+07	
59	-2.95000e+00	1.920163e+07	
60	-3.00000e+00	1.945331e+07	
61	-3.05000e+00	1.968099e+07	
62	-3.10000e+00	1.987995e+07	
63	-3.15000e+00	2.004485e+07	
64	-3.20000e+00	2.016988e+07	
65	-3.25000e+00	2.024885e+07	
66	-3.30000e+00	2.027542e+07	
Reset re-loads circuit ***************************

Circuit: ***************************

Doing analysis at TEMP = -40.000000 and TNOM = -40.000000


No. of Data Rows : 67
                          ***************************
                          DC transfer characteristic  Mon Jan  9 13:58:25  2023
--------------------------------------------------------------------------------
Index   v-sweep         rds             
--------------------------------------------------------------------------------
0	0.000000e+00	8.161187e+03	
1	-5.00000e-02	8.577442e+03	
2	-1.00000e-01	9.037937e+03	
3	-1.50000e-01	9.550114e+03	
4	-2.00000e-01	1.012317e+04	
5	-2.50000e-01	1.076864e+04	
6	-3.00000e-01	1.150111e+04	
7	-3.50000e-01	1.233940e+04	
8	-4.00000e-01	1.330812e+04	
9	-4.50000e-01	1.444010e+04	
10	-5.00000e-01	1.578008e+04	
11	-5.50000e-01	1.739055e+04	
12	-6.00000e-01	1.936135e+04	
13	-6.50000e-01	2.182596e+04	
14	-7.00000e-01	2.499041e+04	
15	-7.50000e-01	2.918705e+04	
16	-8.00000e-01	3.497897e+04	
17	-8.50000e-01	4.337101e+04	
18	-9.00000e-01	5.624239e+04	
19	-9.50000e-01	7.719437e+04	
20	-1.00000e+00	1.129263e+05	
21	-1.05000e+00	1.744132e+05	
22	-1.10000e+00	2.753928e+05	
23	-1.15000e+00	4.262793e+05	
24	-1.20000e+00	6.275462e+05	
25	-1.25000e+00	8.692785e+05	
26	-1.30000e+00	1.136731e+06	
27	-1.35000e+00	1.416228e+06	
28	-1.40000e+00	1.697966e+06	
29	-1.45000e+00	1.976099e+06	
30	-1.50000e+00	2.247718e+06	
31	-1.55000e+00	2.511738e+06	
32	-1.60000e+00	2.768080e+06	
33	-1.65000e+00	3.017159e+06	
34	-1.70000e+00	3.259588e+06	
35	-1.75000e+00	3.496026e+06	
36	-1.80000e+00	3.727103e+06	
37	-1.85000e+00	3.953389e+06	
38	-1.90000e+00	4.175383e+06	
39	-1.95000e+00	4.393516e+06	
40	-2.00000e+00	4.608159e+06	
41	-2.05000e+00	4.819627e+06	
42	-2.10000e+00	5.028189e+06	
43	-2.15000e+00	5.234076e+06	
44	-2.20000e+00	5.437484e+06	
45	-2.25000e+00	5.638583e+06	
46	-2.30000e+00	5.837520e+06	
47	-2.35000e+00	6.034420e+06	
48	-2.40000e+00	6.229393e+06	
49	-2.45000e+00	6.422535e+06	
50	-2.50000e+00	6.613926e+06	
51	-2.55000e+00	6.803635e+06	
52	-2.60000e+00	6.991717e+06	
53	-2.65000e+00	7.178210e+06	
54	-2.70000e+00	7.363134e+06	

Index   v-sweep         rds             
--------------------------------------------------------------------------------
55	-2.75000e+00	7.546483e+06	
56	-2.80000e+00	7.728219e+06	
57	-2.85000e+00	7.908259e+06	
58	-2.90000e+00	8.086466e+06	
59	-2.95000e+00	8.262624e+06	
60	-3.00000e+00	8.436425e+06	
61	-3.05000e+00	8.607439e+06	
62	-3.10000e+00	8.775089e+06	
63	-3.15000e+00	8.938615e+06	
64	-3.20000e+00	9.097048e+06	
65	-3.25000e+00	9.249169e+06	
66	-3.30000e+00	9.393479e+06	
Reset re-loads circuit ***************************

Circuit: ***************************

Doing analysis at TEMP = -40.000000 and TNOM = -40.000000


No. of Data Rows : 67
                          ***************************
                          DC transfer characteristic  Mon Jan  9 13:58:25  2023
--------------------------------------------------------------------------------
Index   v-sweep         rds             
--------------------------------------------------------------------------------
0	0.000000e+00	6.539771e+03	
1	-5.00000e-02	6.779824e+03	
2	-1.00000e-01	7.037921e+03	
3	-1.50000e-01	7.316175e+03	
4	-2.00000e-01	7.617042e+03	
5	-2.50000e-01	7.943391e+03	
6	-3.00000e-01	8.298601e+03	
7	-3.50000e-01	8.686672e+03	
8	-4.00000e-01	9.112377e+03	
9	-4.50000e-01	9.581462e+03	
10	-5.00000e-01	1.010090e+04	
11	-5.50000e-01	1.067923e+04	
12	-6.00000e-01	1.132705e+04	
13	-6.50000e-01	1.205762e+04	
14	-7.00000e-01	1.288781e+04	
15	-7.50000e-01	1.383935e+04	
16	-8.00000e-01	1.494072e+04	
17	-8.50000e-01	1.622996e+04	
18	-9.00000e-01	1.775891e+04	
19	-9.50000e-01	1.959996e+04	
20	-1.00000e+00	2.185692e+04	
21	-1.05000e+00	2.468321e+04	
22	-1.10000e+00	2.831330e+04	
23	-1.15000e+00	3.311859e+04	
24	-1.20000e+00	3.970899e+04	
25	-1.25000e+00	4.911743e+04	
26	-1.30000e+00	6.311953e+04	
27	-1.35000e+00	8.470906e+04	
28	-1.40000e+00	1.185433e+05	
29	-1.45000e+00	1.707052e+05	
30	-1.50000e+00	2.469511e+05	
31	-1.55000e+00	3.498775e+05	
32	-1.60000e+00	4.772575e+05	
33	-1.65000e+00	6.230877e+05	
34	-1.70000e+00	7.802058e+05	
35	-1.75000e+00	9.424355e+05	
36	-1.80000e+00	1.105435e+06	
37	-1.85000e+00	1.266598e+06	
38	-1.90000e+00	1.424592e+06	
39	-1.95000e+00	1.578893e+06	
40	-2.00000e+00	1.729435e+06	
41	-2.05000e+00	1.876392e+06	
42	-2.10000e+00	2.020037e+06	
43	-2.15000e+00	2.160677e+06	
44	-2.20000e+00	2.298612e+06	
45	-2.25000e+00	2.434117e+06	
46	-2.30000e+00	2.567437e+06	
47	-2.35000e+00	2.698788e+06	
48	-2.40000e+00	2.828355e+06	
49	-2.45000e+00	2.956298e+06	
50	-2.50000e+00	3.082755e+06	
51	-2.55000e+00	3.207845e+06	
52	-2.60000e+00	3.331670e+06	
53	-2.65000e+00	3.454316e+06	
54	-2.70000e+00	3.575861e+06	

Index   v-sweep         rds             
--------------------------------------------------------------------------------
55	-2.75000e+00	3.696370e+06	
56	-2.80000e+00	3.815901e+06	
57	-2.85000e+00	3.934502e+06	
58	-2.90000e+00	4.052214e+06	
59	-2.95000e+00	4.169073e+06	
60	-3.00000e+00	4.285102e+06	
61	-3.05000e+00	4.400318e+06	
62	-3.10000e+00	4.514723e+06	
63	-3.15000e+00	4.628302e+06	
64	-3.20000e+00	4.741018e+06	
65	-3.25000e+00	4.852804e+06	
66	-3.30000e+00	4.963551e+06	
Reset re-loads circuit ***************************

Circuit: ***************************

Doing analysis at TEMP = -40.000000 and TNOM = -40.000000


No. of Data Rows : 67
                          ***************************
                          DC transfer characteristic  Mon Jan  9 13:58:25  2023
--------------------------------------------------------------------------------
Index   v-sweep         rds             
--------------------------------------------------------------------------------
0	0.000000e+00	5.609523e+03	
1	-5.00000e-02	5.768065e+03	
2	-1.00000e-01	5.935679e+03	
3	-1.50000e-01	6.113169e+03	
4	-2.00000e-01	6.301431e+03	
5	-2.50000e-01	6.501478e+03	
6	-3.00000e-01	6.714450e+03	
7	-3.50000e-01	6.941642e+03	
8	-4.00000e-01	7.184526e+03	
9	-4.50000e-01	7.444783e+03	
10	-5.00000e-01	7.724347e+03	
11	-5.50000e-01	8.025446e+03	
12	-6.00000e-01	8.350664e+03	
13	-6.50000e-01	8.703016e+03	
14	-7.00000e-01	9.086040e+03	
15	-7.50000e-01	9.503917e+03	
16	-8.00000e-01	9.961618e+03	
17	-8.50000e-01	1.046511e+04	
18	-9.00000e-01	1.102159e+04	
19	-9.50000e-01	1.163988e+04	
20	-1.00000e+00	1.233081e+04	
21	-1.05000e+00	1.310792e+04	
22	-1.10000e+00	1.398828e+04	
23	-1.15000e+00	1.499375e+04	
24	-1.20000e+00	1.615270e+04	
25	-1.25000e+00	1.750267e+04	
26	-1.30000e+00	1.909416e+04	
27	-1.35000e+00	2.099661e+04	
28	-1.40000e+00	2.330774e+04	
29	-1.45000e+00	2.616852e+04	
30	-1.50000e+00	2.978786e+04	
31	-1.55000e+00	3.448380e+04	
32	-1.60000e+00	4.075262e+04	
33	-1.65000e+00	4.938189e+04	
34	-1.70000e+00	6.162179e+04	
35	-1.75000e+00	7.939638e+04	
36	-1.80000e+00	1.054331e+05	
37	-1.85000e+00	1.430234e+05	
38	-1.90000e+00	1.951333e+05	
39	-1.95000e+00	2.631021e+05	
40	-2.00000e+00	3.458405e+05	
41	-2.05000e+00	4.402158e+05	
42	-2.10000e+00	5.422656e+05	
43	-2.15000e+00	6.483462e+05	
44	-2.20000e+00	7.557132e+05	
45	-2.25000e+00	8.625856e+05	
46	-2.30000e+00	9.679547e+05	
47	-2.35000e+00	1.071341e+06	
48	-2.40000e+00	1.172588e+06	
49	-2.45000e+00	1.271723e+06	
50	-2.50000e+00	1.368867e+06	
51	-2.55000e+00	1.464175e+06	
52	-2.60000e+00	1.557815e+06	
53	-2.65000e+00	1.649948e+06	
54	-2.70000e+00	1.740722e+06	

Index   v-sweep         rds             
--------------------------------------------------------------------------------
55	-2.75000e+00	1.830267e+06	
56	-2.80000e+00	1.918700e+06	
57	-2.85000e+00	2.006122e+06	
58	-2.90000e+00	2.092620e+06	
59	-2.95000e+00	2.178270e+06	
60	-3.00000e+00	2.263137e+06	
61	-3.05000e+00	2.347278e+06	
62	-3.10000e+00	2.430743e+06	
63	-3.15000e+00	2.513573e+06	
64	-3.20000e+00	2.595806e+06	
65	-3.25000e+00	2.677474e+06	
66	-3.30000e+00	2.758603e+06	
Reset re-loads circuit ***************************

Circuit: ***************************

Note: No ".plot", ".print", or ".fourier" lines; no simulations run
