
Note: Compatibility modes selected: hs

Warning: m=xx on .subckt line will override multiplier m hierarchy!


Circuit: ***************************

Doing analysis at TEMP = 25.000000 and TNOM = 25.000000


No. of Data Rows : 67
                          ***************************
                          DC transfer characteristic  Mon Jan  9 13:58:25  2023
--------------------------------------------------------------------------------
Index   v-sweep         rds             
--------------------------------------------------------------------------------
0	0.000000e+00	6.124373e+05	
1	-5.00000e-02	1.098237e+06	
2	-1.00000e-01	3.059066e+06	
3	-1.50000e-01	1.237488e+07	
4	-2.00000e-01	3.303330e+07	
5	-2.50000e-01	5.309059e+07	
6	-3.00000e-01	6.687517e+07	
7	-3.50000e-01	7.632092e+07	
8	-4.00000e-01	8.343702e+07	
9	-4.50000e-01	8.928645e+07	
10	-5.00000e-01	9.439014e+07	
11	-5.50000e-01	9.901244e+07	
12	-6.00000e-01	1.032960e+08	
13	-6.50000e-01	1.073229e+08	
14	-7.00000e-01	1.111434e+08	
15	-7.50000e-01	1.147902e+08	
16	-8.00000e-01	1.182858e+08	
17	-8.50000e-01	1.216462e+08	
18	-9.00000e-01	1.248837e+08	
19	-9.50000e-01	1.280080e+08	
20	-1.00000e+00	1.310267e+08	
21	-1.05000e+00	1.339464e+08	
22	-1.10000e+00	1.367727e+08	
23	-1.15000e+00	1.395105e+08	
24	-1.20000e+00	1.421642e+08	
25	-1.25000e+00	1.447377e+08	
26	-1.30000e+00	1.472346e+08	
27	-1.35000e+00	1.496582e+08	
28	-1.40000e+00	1.520115e+08	
29	-1.45000e+00	1.542975e+08	
30	-1.50000e+00	1.565186e+08	
31	-1.55000e+00	1.586775e+08	
32	-1.60000e+00	1.607764e+08	
33	-1.65000e+00	1.628174e+08	
34	-1.70000e+00	1.648026e+08	
35	-1.75000e+00	1.667337e+08	
36	-1.80000e+00	1.686122e+08	
37	-1.85000e+00	1.704395e+08	
38	-1.90000e+00	1.722164e+08	
39	-1.95000e+00	1.739436e+08	
40	-2.00000e+00	1.756210e+08	
41	-2.05000e+00	1.772481e+08	
42	-2.10000e+00	1.788237e+08	
43	-2.15000e+00	1.803455e+08	
44	-2.20000e+00	1.818103e+08	
45	-2.25000e+00	1.832137e+08	
46	-2.30000e+00	1.845497e+08	
47	-2.35000e+00	1.858110e+08	
48	-2.40000e+00	1.869884e+08	
49	-2.45000e+00	1.880708e+08	
50	-2.50000e+00	1.890451e+08	
51	-2.55000e+00	1.898961e+08	
52	-2.60000e+00	1.906065e+08	
53	-2.65000e+00	1.911569e+08	
54	-2.70000e+00	1.915258e+08	

Index   v-sweep         rds             
--------------------------------------------------------------------------------
55	-2.75000e+00	1.916903e+08	
56	-2.80000e+00	1.916259e+08	
57	-2.85000e+00	1.913074e+08	
58	-2.90000e+00	1.907095e+08	
59	-2.95000e+00	1.898072e+08	
60	-3.00000e+00	1.885773e+08	
61	-3.05000e+00	1.869989e+08	
62	-3.10000e+00	1.850548e+08	
63	-3.15000e+00	1.827320e+08	
64	-3.20000e+00	1.800233e+08	
65	-3.25000e+00	1.769277e+08	
66	-3.30000e+00	1.734511e+08	
Reset re-loads circuit ***************************

Circuit: ***************************

Doing analysis at TEMP = 25.000000 and TNOM = 25.000000


No. of Data Rows : 67
                          ***************************
                          DC transfer characteristic  Mon Jan  9 13:58:25  2023
--------------------------------------------------------------------------------
Index   v-sweep         rds             
--------------------------------------------------------------------------------
0	0.000000e+00	1.013719e+05	
1	-5.00000e-02	1.134687e+05	
2	-1.00000e-01	1.286726e+05	
3	-1.50000e-01	1.483424e+05	
4	-2.00000e-01	1.747451e+05	
5	-2.50000e-01	2.119265e+05	
6	-3.00000e-01	2.677172e+05	
7	-3.50000e-01	3.586721e+05	
8	-4.00000e-01	5.220945e+05	
9	-4.50000e-01	8.362199e+05	
10	-5.00000e-01	1.398384e+06	
11	-5.50000e-01	2.166671e+06	
12	-6.00000e-01	2.930103e+06	
13	-6.50000e-01	3.562178e+06	
14	-7.00000e-01	4.069663e+06	
15	-7.50000e-01	4.493745e+06	
16	-8.00000e-01	4.866458e+06	
17	-8.50000e-01	5.207269e+06	
18	-9.00000e-01	5.527415e+06	
19	-9.50000e-01	5.833433e+06	
20	-1.00000e+00	6.129235e+06	
21	-1.05000e+00	6.417245e+06	
22	-1.10000e+00	6.699017e+06	
23	-1.15000e+00	6.975584e+06	
24	-1.20000e+00	7.247652e+06	
25	-1.25000e+00	7.515721e+06	
26	-1.30000e+00	7.780152e+06	
27	-1.35000e+00	8.041218e+06	
28	-1.40000e+00	8.299125e+06	
29	-1.45000e+00	8.554036e+06	
30	-1.50000e+00	8.806082e+06	
31	-1.55000e+00	9.055371e+06	
32	-1.60000e+00	9.301992e+06	
33	-1.65000e+00	9.546023e+06	
34	-1.70000e+00	9.787530e+06	
35	-1.75000e+00	1.002657e+07	
36	-1.80000e+00	1.026320e+07	
37	-1.85000e+00	1.049747e+07	
38	-1.90000e+00	1.072942e+07	
39	-1.95000e+00	1.095907e+07	
40	-2.00000e+00	1.118648e+07	
41	-2.05000e+00	1.141165e+07	
42	-2.10000e+00	1.163460e+07	
43	-2.15000e+00	1.185533e+07	
44	-2.20000e+00	1.207381e+07	
45	-2.25000e+00	1.228999e+07	
46	-2.30000e+00	1.250376e+07	
47	-2.35000e+00	1.271500e+07	
48	-2.40000e+00	1.292346e+07	
49	-2.45000e+00	1.312886e+07	
50	-2.50000e+00	1.333077e+07	
51	-2.55000e+00	1.352864e+07	
52	-2.60000e+00	1.372175e+07	
53	-2.65000e+00	1.390919e+07	
54	-2.70000e+00	1.408983e+07	

Index   v-sweep         rds             
--------------------------------------------------------------------------------
55	-2.75000e+00	1.426227e+07	
56	-2.80000e+00	1.442484e+07	
57	-2.85000e+00	1.457556e+07	
58	-2.90000e+00	1.471216e+07	
59	-2.95000e+00	1.483200e+07	
60	-3.00000e+00	1.493216e+07	
61	-3.05000e+00	1.500946e+07	
62	-3.10000e+00	1.506046e+07	
63	-3.15000e+00	1.508163e+07	
64	-3.20000e+00	1.506940e+07	
65	-3.25000e+00	1.502033e+07	
66	-3.30000e+00	1.493125e+07	
Reset re-loads circuit ***************************

Circuit: ***************************

Doing analysis at TEMP = 25.000000 and TNOM = 25.000000


No. of Data Rows : 67
                          ***************************
                          DC transfer characteristic  Mon Jan  9 13:58:25  2023
--------------------------------------------------------------------------------
Index   v-sweep         rds             
--------------------------------------------------------------------------------
0	0.000000e+00	5.570959e+04	
1	-5.00000e-02	5.923504e+04	
2	-1.00000e-01	6.320193e+04	
3	-1.50000e-01	6.769836e+04	
4	-2.00000e-01	7.283744e+04	
5	-2.50000e-01	7.876680e+04	
6	-3.00000e-01	8.568273e+04	
7	-3.50000e-01	9.385168e+04	
8	-4.00000e-01	1.036442e+05	
9	-4.50000e-01	1.155900e+05	
10	-5.00000e-01	1.304700e+05	
11	-5.50000e-01	1.494773e+05	
12	-6.00000e-01	1.745044e+05	
13	-6.50000e-01	2.086650e+05	
14	-7.00000e-01	2.572020e+05	
15	-7.50000e-01	3.287583e+05	
16	-8.00000e-01	4.356416e+05	
17	-8.50000e-01	5.880307e+05	
18	-9.00000e-01	7.789796e+05	
19	-9.50000e-01	9.802569e+05	
20	-1.00000e+00	1.165639e+06	
21	-1.05000e+00	1.327197e+06	
22	-1.10000e+00	1.468615e+06	
23	-1.15000e+00	1.595857e+06	
24	-1.20000e+00	1.713649e+06	
25	-1.25000e+00	1.825131e+06	
26	-1.30000e+00	1.932286e+06	
27	-1.35000e+00	2.036359e+06	
28	-1.40000e+00	2.138145e+06	
29	-1.45000e+00	2.238159e+06	
30	-1.50000e+00	2.336747e+06	
31	-1.55000e+00	2.434144e+06	
32	-1.60000e+00	2.530515e+06	
33	-1.65000e+00	2.625977e+06	
34	-1.70000e+00	2.720619e+06	
35	-1.75000e+00	2.814503e+06	
36	-1.80000e+00	2.907680e+06	
37	-1.85000e+00	3.000188e+06	
38	-1.90000e+00	3.092056e+06	
39	-1.95000e+00	3.183310e+06	
40	-2.00000e+00	3.273969e+06	
41	-2.05000e+00	3.364049e+06	
42	-2.10000e+00	3.453564e+06	
43	-2.15000e+00	3.542527e+06	
44	-2.20000e+00	3.630948e+06	
45	-2.25000e+00	3.718834e+06	
46	-2.30000e+00	3.806193e+06	
47	-2.35000e+00	3.893030e+06	
48	-2.40000e+00	3.979348e+06	
49	-2.45000e+00	4.065146e+06	
50	-2.50000e+00	4.150419e+06	
51	-2.55000e+00	4.235154e+06	
52	-2.60000e+00	4.319330e+06	
53	-2.65000e+00	4.402910e+06	
54	-2.70000e+00	4.485840e+06	

Index   v-sweep         rds             
--------------------------------------------------------------------------------
55	-2.75000e+00	4.568041e+06	
56	-2.80000e+00	4.649403e+06	
57	-2.85000e+00	4.729773e+06	
58	-2.90000e+00	4.808950e+06	
59	-2.95000e+00	4.886667e+06	
60	-3.00000e+00	4.962586e+06	
61	-3.05000e+00	5.036278e+06	
62	-3.10000e+00	5.107215e+06	
63	-3.15000e+00	5.174754e+06	
64	-3.20000e+00	5.238124e+06	
65	-3.25000e+00	5.296426e+06	
66	-3.30000e+00	5.348617e+06	
Reset re-loads circuit ***************************

Circuit: ***************************

Doing analysis at TEMP = 25.000000 and TNOM = 25.000000


No. of Data Rows : 67
                          ***************************
                          DC transfer characteristic  Mon Jan  9 13:58:25  2023
--------------------------------------------------------------------------------
Index   v-sweep         rds             
--------------------------------------------------------------------------------
0	0.000000e+00	3.995402e+04	
1	-5.00000e-02	4.170125e+04	
2	-1.00000e-01	4.359353e+04	
3	-1.50000e-01	4.564963e+04	
4	-2.00000e-01	4.789167e+04	
5	-2.50000e-01	5.034597e+04	
6	-3.00000e-01	5.304401e+04	
7	-3.50000e-01	5.602385e+04	
8	-4.00000e-01	5.933183e+04	
9	-4.50000e-01	6.302503e+04	
10	-5.00000e-01	6.717450e+04	
11	-5.50000e-01	7.186975e+04	
12	-6.00000e-01	7.722514e+04	
13	-6.50000e-01	8.338895e+04	
14	-7.00000e-01	9.055664e+04	
15	-7.50000e-01	9.899070e+04	
16	-8.00000e-01	1.090506e+05	
17	-8.50000e-01	1.212395e+05	
18	-9.00000e-01	1.362760e+05	
19	-9.50000e-01	1.552061e+05	
20	-1.00000e+00	1.795659e+05	
21	-1.05000e+00	2.115764e+05	
22	-1.10000e+00	2.542214e+05	
23	-1.15000e+00	3.107131e+05	
24	-1.20000e+00	3.825281e+05	
25	-1.25000e+00	4.664924e+05	
26	-1.30000e+00	5.547556e+05	
27	-1.35000e+00	6.396272e+05	
28	-1.40000e+00	7.175874e+05	
29	-1.45000e+00	7.887170e+05	
30	-1.50000e+00	8.544792e+05	
31	-1.55000e+00	9.163819e+05	
32	-1.60000e+00	9.755774e+05	
33	-1.65000e+00	1.032860e+06	
34	-1.70000e+00	1.088761e+06	
35	-1.75000e+00	1.143629e+06	
36	-1.80000e+00	1.197702e+06	
37	-1.85000e+00	1.251139e+06	
38	-1.90000e+00	1.304050e+06	
39	-1.95000e+00	1.356515e+06	
40	-2.00000e+00	1.408588e+06	
41	-2.05000e+00	1.460312e+06	
42	-2.10000e+00	1.511718e+06	
43	-2.15000e+00	1.562827e+06	
44	-2.20000e+00	1.613659e+06	
45	-2.25000e+00	1.664227e+06	
46	-2.30000e+00	1.714542e+06	
47	-2.35000e+00	1.764613e+06	
48	-2.40000e+00	1.814448e+06	
49	-2.45000e+00	1.864053e+06	
50	-2.50000e+00	1.913432e+06	
51	-2.55000e+00	1.962590e+06	
52	-2.60000e+00	2.011530e+06	
53	-2.65000e+00	2.060255e+06	
54	-2.70000e+00	2.108767e+06	

Index   v-sweep         rds             
--------------------------------------------------------------------------------
55	-2.75000e+00	2.157066e+06	
56	-2.80000e+00	2.205151e+06	
57	-2.85000e+00	2.253018e+06	
58	-2.90000e+00	2.300661e+06	
59	-2.95000e+00	2.348067e+06	
60	-3.00000e+00	2.395215e+06	
61	-3.05000e+00	2.442078e+06	
62	-3.10000e+00	2.488610e+06	
63	-3.15000e+00	2.534753e+06	
64	-3.20000e+00	2.580423e+06	
65	-3.25000e+00	2.625508e+06	
66	-3.30000e+00	2.669862e+06	
Reset re-loads circuit ***************************

Circuit: ***************************

Doing analysis at TEMP = 25.000000 and TNOM = 25.000000


No. of Data Rows : 67
                          ***************************
                          DC transfer characteristic  Mon Jan  9 13:58:25  2023
--------------------------------------------------------------------------------
Index   v-sweep         rds             
--------------------------------------------------------------------------------
0	0.000000e+00	3.179593e+04	
1	-5.00000e-02	3.286034e+04	
2	-1.00000e-01	3.399047e+04	
3	-1.50000e-01	3.519257e+04	
4	-2.00000e-01	3.647368e+04	
5	-2.50000e-01	3.784183e+04	
6	-3.00000e-01	3.930613e+04	
7	-3.50000e-01	4.087705e+04	
8	-4.00000e-01	4.256659e+04	
9	-4.50000e-01	4.438866e+04	
10	-5.00000e-01	4.635940e+04	
11	-5.50000e-01	4.849769e+04	
12	-6.00000e-01	5.082573e+04	
13	-6.50000e-01	5.336981e+04	
14	-7.00000e-01	5.616130e+04	
15	-7.50000e-01	5.923791e+04	
16	-8.00000e-01	6.264535e+04	
17	-8.50000e-01	6.643960e+04	
18	-9.00000e-01	7.068983e+04	
19	-9.50000e-01	7.548254e+04	
20	-1.00000e+00	8.092711e+04	
21	-1.05000e+00	8.716368e+04	
22	-1.10000e+00	9.437413e+04	
23	-1.15000e+00	1.027979e+05	
24	-1.20000e+00	1.127539e+05	
25	-1.25000e+00	1.246720e+05	
26	-1.30000e+00	1.391332e+05	
27	-1.35000e+00	1.569150e+05	
28	-1.40000e+00	1.790171e+05	
29	-1.45000e+00	2.065946e+05	
30	-1.50000e+00	2.406522e+05	
31	-1.55000e+00	2.813747e+05	
32	-1.60000e+00	3.273811e+05	
33	-1.65000e+00	3.758336e+05	
34	-1.70000e+00	4.237842e+05	
35	-1.75000e+00	4.694858e+05	
36	-1.80000e+00	5.125243e+05	
37	-1.85000e+00	5.532203e+05	
38	-1.90000e+00	5.920949e+05	
39	-1.95000e+00	6.296212e+05	
40	-2.00000e+00	6.661602e+05	
41	-2.05000e+00	7.019687e+05	
42	-2.10000e+00	7.372251e+05	
43	-2.15000e+00	7.720529e+05	
44	-2.20000e+00	8.065378e+05	
45	-2.25000e+00	8.407402e+05	
46	-2.30000e+00	8.747032e+05	
47	-2.35000e+00	9.084578e+05	
48	-2.40000e+00	9.420271e+05	
49	-2.45000e+00	9.754282e+05	
50	-2.50000e+00	1.008674e+06	
51	-2.55000e+00	1.041774e+06	
52	-2.60000e+00	1.074737e+06	
53	-2.65000e+00	1.107569e+06	
54	-2.70000e+00	1.140273e+06	

Index   v-sweep         rds             
--------------------------------------------------------------------------------
55	-2.75000e+00	1.172855e+06	
56	-2.80000e+00	1.205318e+06	
57	-2.85000e+00	1.237664e+06	
58	-2.90000e+00	1.269895e+06	
59	-2.95000e+00	1.302013e+06	
60	-3.00000e+00	1.334019e+06	
61	-3.05000e+00	1.365915e+06	
62	-3.10000e+00	1.397700e+06	
63	-3.15000e+00	1.429374e+06	
64	-3.20000e+00	1.460933e+06	
65	-3.25000e+00	1.492374e+06	
66	-3.30000e+00	1.523688e+06	
Reset re-loads circuit ***************************

Circuit: ***************************

Doing analysis at TEMP = 25.000000 and TNOM = 25.000000


No. of Data Rows : 67
                          ***************************
                          DC transfer characteristic  Mon Jan  9 13:58:25  2023
--------------------------------------------------------------------------------
Index   v-sweep         rds             
--------------------------------------------------------------------------------
0	0.000000e+00	2.702488e+04	
1	-5.00000e-02	2.776250e+04	
2	-1.00000e-01	2.853646e+04	
3	-1.50000e-01	2.934950e+04	
4	-2.00000e-01	3.020462e+04	
5	-2.50000e-01	3.110516e+04	
6	-3.00000e-01	3.205480e+04	
7	-3.50000e-01	3.305764e+04	
8	-4.00000e-01	3.411826e+04	
9	-4.50000e-01	3.524175e+04	
10	-5.00000e-01	3.643385e+04	
11	-5.50000e-01	3.770099e+04	
12	-6.00000e-01	3.905046e+04	
13	-6.50000e-01	4.049049e+04	
14	-7.00000e-01	4.203046e+04	
15	-7.50000e-01	4.368111e+04	
16	-8.00000e-01	4.545473e+04	
17	-8.50000e-01	4.736552e+04	
18	-9.00000e-01	4.942994e+04	
19	-9.50000e-01	5.166719e+04	
20	-1.00000e+00	5.409976e+04	
21	-1.05000e+00	5.675424e+04	
22	-1.10000e+00	5.966219e+04	
23	-1.15000e+00	6.286140e+04	
24	-1.20000e+00	6.639750e+04	
25	-1.25000e+00	7.032594e+04	
26	-1.30000e+00	7.471485e+04	
27	-1.35000e+00	7.964857e+04	
28	-1.40000e+00	8.523262e+04	
29	-1.45000e+00	9.160016e+04	
30	-1.50000e+00	9.892068e+04	
31	-1.55000e+00	1.074112e+05	
32	-1.60000e+00	1.173500e+05	
33	-1.65000e+00	1.290908e+05	
34	-1.70000e+00	1.430710e+05	
35	-1.75000e+00	1.597977e+05	
36	-1.80000e+00	1.797753e+05	
37	-1.85000e+00	2.033325e+05	
38	-1.90000e+00	2.303485e+05	
39	-1.95000e+00	2.600397e+05	
40	-2.00000e+00	2.910962e+05	
41	-2.05000e+00	3.221992e+05	
42	-2.10000e+00	3.524945e+05	
43	-2.15000e+00	3.816750e+05	
44	-2.20000e+00	4.097849e+05	
45	-2.25000e+00	4.370061e+05	
46	-2.30000e+00	4.635353e+05	
47	-2.35000e+00	4.895379e+05	
48	-2.40000e+00	5.151393e+05	
49	-2.45000e+00	5.404306e+05	
50	-2.50000e+00	5.654771e+05	
51	-2.55000e+00	5.903254e+05	
52	-2.60000e+00	6.150089e+05	
53	-2.65000e+00	6.395519e+05	
54	-2.70000e+00	6.639719e+05	

Index   v-sweep         rds             
--------------------------------------------------------------------------------
55	-2.75000e+00	6.882822e+05	
56	-2.80000e+00	7.124926e+05	
57	-2.85000e+00	7.366106e+05	
58	-2.90000e+00	7.606419e+05	
59	-2.95000e+00	7.845911e+05	
60	-3.00000e+00	8.084617e+05	
61	-3.05000e+00	8.322564e+05	
62	-3.10000e+00	8.559776e+05	
63	-3.15000e+00	8.796270e+05	
64	-3.20000e+00	9.032062e+05	
65	-3.25000e+00	9.267164e+05	
66	-3.30000e+00	9.501585e+05	
Reset re-loads circuit ***************************

Circuit: ***************************

Note: No ".plot", ".print", or ".fourier" lines; no simulations run
