
Note: Compatibility modes selected: hs

Warning: m=xx on .subckt line will override multiplier m hierarchy!


Circuit: ***************************

Doing analysis at TEMP = 125.000000 and TNOM = 125.000000


No. of Data Rows : 67
                          ***************************
                          DC transfer characteristic  Mon Jan  9 13:58:26  2023
--------------------------------------------------------------------------------
Index   v-sweep         rds             
--------------------------------------------------------------------------------
0	0.000000e+00	1.221941e+05	
1	-5.00000e-02	1.711423e+05	
2	-1.00000e-01	2.779455e+05	
3	-1.50000e-01	5.964518e+05	
4	-2.00000e-01	1.749834e+06	
5	-2.50000e-01	4.593529e+06	
6	-3.00000e-01	8.170541e+06	
7	-3.50000e-01	1.106961e+07	
8	-4.00000e-01	1.314536e+07	
9	-4.50000e-01	1.468613e+07	
10	-5.00000e-01	1.591630e+07	
11	-5.50000e-01	1.696229e+07	
12	-6.00000e-01	1.789210e+07	
13	-6.50000e-01	1.874327e+07	
14	-7.00000e-01	1.953744e+07	
15	-7.50000e-01	2.028774e+07	
16	-8.00000e-01	2.100253e+07	
17	-8.50000e-01	2.168738e+07	
18	-9.00000e-01	2.234620e+07	
19	-9.50000e-01	2.298181e+07	
20	-1.00000e+00	2.359635e+07	
21	-1.05000e+00	2.419150e+07	
22	-1.10000e+00	2.476862e+07	
23	-1.15000e+00	2.532882e+07	
24	-1.20000e+00	2.587305e+07	
25	-1.25000e+00	2.640215e+07	
26	-1.30000e+00	2.691685e+07	
27	-1.35000e+00	2.741780e+07	
28	-1.40000e+00	2.790559e+07	
29	-1.45000e+00	2.838075e+07	
30	-1.50000e+00	2.884380e+07	
31	-1.55000e+00	2.929518e+07	
32	-1.60000e+00	2.973533e+07	
33	-1.65000e+00	3.016464e+07	
34	-1.70000e+00	3.058347e+07	
35	-1.75000e+00	3.099216e+07	
36	-1.80000e+00	3.139098e+07	
37	-1.85000e+00	3.178019e+07	
38	-1.90000e+00	3.215997e+07	
39	-1.95000e+00	3.253044e+07	
40	-2.00000e+00	3.289161e+07	
41	-2.05000e+00	3.324339e+07	
42	-2.10000e+00	3.358553e+07	
43	-2.15000e+00	3.391762e+07	
44	-2.20000e+00	3.423902e+07	
45	-2.25000e+00	3.454882e+07	
46	-2.30000e+00	3.484584e+07	
47	-2.35000e+00	3.512850e+07	
48	-2.40000e+00	3.539486e+07	
49	-2.45000e+00	3.564253e+07	
50	-2.50000e+00	3.586863e+07	
51	-2.55000e+00	3.606976e+07	
52	-2.60000e+00	3.624201e+07	
53	-2.65000e+00	3.638094e+07	
54	-2.70000e+00	3.648159e+07	

Index   v-sweep         rds             
--------------------------------------------------------------------------------
55	-2.75000e+00	3.653858e+07	
56	-2.80000e+00	3.654612e+07	
57	-2.85000e+00	3.649824e+07	
58	-2.90000e+00	3.638885e+07	
59	-2.95000e+00	3.621201e+07	
60	-3.00000e+00	3.596215e+07	
61	-3.05000e+00	3.563434e+07	
62	-3.10000e+00	3.522456e+07	
63	-3.15000e+00	3.472999e+07	
64	-3.20000e+00	3.414928e+07	
65	-3.25000e+00	3.348270e+07	
66	-3.30000e+00	3.273236e+07	
Reset re-loads circuit ***************************

Circuit: ***************************

Doing analysis at TEMP = 125.000000 and TNOM = 125.000000


No. of Data Rows : 67
                          ***************************
                          DC transfer characteristic  Mon Jan  9 13:58:27  2023
--------------------------------------------------------------------------------
Index   v-sweep         rds             
--------------------------------------------------------------------------------
0	0.000000e+00	3.002016e+04	
1	-5.00000e-02	3.291975e+04	
2	-1.00000e-01	3.640996e+04	
3	-1.50000e-01	4.069048e+04	
4	-2.00000e-01	4.606124e+04	
5	-2.50000e-01	5.299291e+04	
6	-3.00000e-01	6.226380e+04	
7	-3.50000e-01	7.524403e+04	
8	-4.00000e-01	9.452554e+04	
9	-4.50000e-01	1.253826e+05	
10	-5.00000e-01	1.789957e+05	
11	-5.50000e-01	2.770872e+05	
12	-6.00000e-01	4.461728e+05	
13	-6.50000e-01	6.811814e+05	
14	-7.00000e-01	9.294479e+05	
15	-7.50000e-01	1.146350e+06	
16	-8.00000e-01	1.323931e+06	
17	-8.50000e-01	1.471289e+06	
18	-9.00000e-01	1.598497e+06	
19	-9.50000e-01	1.712633e+06	
20	-1.00000e+00	1.818125e+06	
21	-1.05000e+00	1.917679e+06	
22	-1.10000e+00	2.012967e+06	
23	-1.15000e+00	2.105046e+06	
24	-1.20000e+00	2.194603e+06	
25	-1.25000e+00	2.282100e+06	
26	-1.30000e+00	2.367853e+06	
27	-1.35000e+00	2.452086e+06	
28	-1.40000e+00	2.534963e+06	
29	-1.45000e+00	2.616605e+06	
30	-1.50000e+00	2.697105e+06	
31	-1.55000e+00	2.776535e+06	
32	-1.60000e+00	2.854952e+06	
33	-1.65000e+00	2.932404e+06	
34	-1.70000e+00	3.008929e+06	
35	-1.75000e+00	3.084561e+06	
36	-1.80000e+00	3.159327e+06	
37	-1.85000e+00	3.233252e+06	
38	-1.90000e+00	3.306359e+06	
39	-1.95000e+00	3.378666e+06	
40	-2.00000e+00	3.450191e+06	
41	-2.05000e+00	3.520948e+06	
42	-2.10000e+00	3.590949e+06	
43	-2.15000e+00	3.660203e+06	
44	-2.20000e+00	3.728714e+06	
45	-2.25000e+00	3.796480e+06	
46	-2.30000e+00	3.863491e+06	
47	-2.35000e+00	3.929724e+06	
48	-2.40000e+00	3.995141e+06	
49	-2.45000e+00	4.059682e+06	
50	-2.50000e+00	4.123259e+06	
51	-2.55000e+00	4.185750e+06	
52	-2.60000e+00	4.246990e+06	
53	-2.65000e+00	4.306757e+06	
54	-2.70000e+00	4.364769e+06	

Index   v-sweep         rds             
--------------------------------------------------------------------------------
55	-2.75000e+00	4.420667e+06	
56	-2.80000e+00	4.474005e+06	
57	-2.85000e+00	4.524241e+06	
58	-2.90000e+00	4.570726e+06	
59	-2.95000e+00	4.612699e+06	
60	-3.00000e+00	4.649285e+06	
61	-3.05000e+00	4.679495e+06	
62	-3.10000e+00	4.702240e+06	
63	-3.15000e+00	4.716347e+06	
64	-3.20000e+00	4.720593e+06	
65	-3.25000e+00	4.713743e+06	
66	-3.30000e+00	4.694602e+06	
Reset re-loads circuit ***************************

Circuit: ***************************

Doing analysis at TEMP = 125.000000 and TNOM = 125.000000


No. of Data Rows : 67
                          ***************************
                          DC transfer characteristic  Mon Jan  9 13:58:27  2023
--------------------------------------------------------------------------------
Index   v-sweep         rds             
--------------------------------------------------------------------------------
0	0.000000e+00	1.822599e+04	
1	-5.00000e-02	1.923198e+04	
2	-1.00000e-01	2.034790e+04	
3	-1.50000e-01	2.159276e+04	
4	-2.00000e-01	2.299019e+04	
5	-2.50000e-01	2.456998e+04	
6	-3.00000e-01	2.637015e+04	
7	-3.50000e-01	2.844006e+04	
8	-4.00000e-01	3.084482e+04	
9	-4.50000e-01	3.367214e+04	
10	-5.00000e-01	3.704282e+04	
11	-5.50000e-01	4.112755e+04	
12	-6.00000e-01	4.617470e+04	
13	-6.50000e-01	5.255759e+04	
14	-7.00000e-01	6.085767e+04	
15	-7.50000e-01	7.201298e+04	
16	-8.00000e-01	8.757903e+04	
17	-8.50000e-01	1.101344e+05	
18	-9.00000e-01	1.436439e+05	
19	-9.50000e-01	1.927544e+05	
20	-1.00000e+00	2.591388e+05	
21	-1.05000e+00	3.367891e+05	
22	-1.10000e+00	4.146059e+05	
23	-1.15000e+00	4.848525e+05	
24	-1.20000e+00	5.458932e+05	
25	-1.25000e+00	5.992925e+05	
26	-1.30000e+00	6.471670e+05	
27	-1.35000e+00	6.912185e+05	
28	-1.40000e+00	7.326252e+05	
29	-1.45000e+00	7.721637e+05	
30	-1.50000e+00	8.103420e+05	
31	-1.55000e+00	8.474948e+05	
32	-1.60000e+00	8.838470e+05	
33	-1.65000e+00	9.195521e+05	
34	-1.70000e+00	9.547176e+05	
35	-1.75000e+00	9.894202e+05	
36	-1.80000e+00	1.023716e+06	
37	-1.85000e+00	1.057646e+06	
38	-1.90000e+00	1.091241e+06	
39	-1.95000e+00	1.124527e+06	
40	-2.00000e+00	1.157521e+06	
41	-2.05000e+00	1.190240e+06	
42	-2.10000e+00	1.222695e+06	
43	-2.15000e+00	1.254896e+06	
44	-2.20000e+00	1.286851e+06	
45	-2.25000e+00	1.318569e+06	
46	-2.30000e+00	1.350054e+06	
47	-2.35000e+00	1.381312e+06	
48	-2.40000e+00	1.412348e+06	
49	-2.45000e+00	1.443164e+06	
50	-2.50000e+00	1.473762e+06	
51	-2.55000e+00	1.504145e+06	
52	-2.60000e+00	1.534310e+06	
53	-2.65000e+00	1.564254e+06	
54	-2.70000e+00	1.593969e+06	

Index   v-sweep         rds             
--------------------------------------------------------------------------------
55	-2.75000e+00	1.623440e+06	
56	-2.80000e+00	1.652647e+06	
57	-2.85000e+00	1.681559e+06	
58	-2.90000e+00	1.710131e+06	
59	-2.95000e+00	1.738302e+06	
60	-3.00000e+00	1.765989e+06	
61	-3.05000e+00	1.793082e+06	
62	-3.10000e+00	1.819443e+06	
63	-3.15000e+00	1.844894e+06	
64	-3.20000e+00	1.869216e+06	
65	-3.25000e+00	1.892142e+06	
66	-3.30000e+00	1.913353e+06	
Reset re-loads circuit ***************************

Circuit: ***************************

Doing analysis at TEMP = 125.000000 and TNOM = 125.000000


No. of Data Rows : 67
                          ***************************
                          DC transfer characteristic  Mon Jan  9 13:58:27  2023
--------------------------------------------------------------------------------
Index   v-sweep         rds             
--------------------------------------------------------------------------------
0	0.000000e+00	1.368043e+04	
1	-5.00000e-02	1.421276e+04	
2	-1.00000e-01	1.478474e+04	
3	-1.50000e-01	1.540095e+04	
4	-2.00000e-01	1.606672e+04	
5	-2.50000e-01	1.678826e+04	
6	-3.00000e-01	1.757285e+04	
7	-3.50000e-01	1.842912e+04	
8	-4.00000e-01	1.936733e+04	
9	-4.50000e-01	2.039979e+04	
10	-5.00000e-01	2.154139e+04	
11	-5.50000e-01	2.281034e+04	
12	-6.00000e-01	2.422909e+04	
13	-6.50000e-01	2.582567e+04	
14	-7.00000e-01	2.763550e+04	
15	-7.50000e-01	2.970400e+04	
16	-8.00000e-01	3.209020e+04	
17	-8.50000e-01	3.487226e+04	
18	-9.00000e-01	3.815550e+04	
19	-9.50000e-01	4.208477e+04	
20	-1.00000e+00	4.686354e+04	
21	-1.05000e+00	5.278365e+04	
22	-1.10000e+00	6.027143e+04	
23	-1.15000e+00	6.995506e+04	
24	-1.20000e+00	8.274749e+04	
25	-1.25000e+00	9.989106e+04	
26	-1.30000e+00	1.227846e+05	
27	-1.35000e+00	1.522793e+05	
28	-1.40000e+00	1.875002e+05	
29	-1.45000e+00	2.254610e+05	
30	-1.50000e+00	2.626265e+05	
31	-1.55000e+00	2.968485e+05	
32	-1.60000e+00	3.276847e+05	
33	-1.65000e+00	3.556130e+05	
34	-1.70000e+00	3.813288e+05	
35	-1.75000e+00	4.054384e+05	
36	-1.80000e+00	4.283922e+05	
37	-1.85000e+00	4.505052e+05	
38	-1.90000e+00	4.719932e+05	
39	-1.95000e+00	4.930040e+05	
40	-2.00000e+00	5.136398e+05	
41	-2.05000e+00	5.339721e+05	
42	-2.10000e+00	5.540518e+05	
43	-2.15000e+00	5.739159e+05	
44	-2.20000e+00	5.935914e+05	
45	-2.25000e+00	6.130985e+05	
46	-2.30000e+00	6.324528e+05	
47	-2.35000e+00	6.516660e+05	
48	-2.40000e+00	6.707475e+05	
49	-2.45000e+00	6.897046e+05	
50	-2.50000e+00	7.085433e+05	
51	-2.55000e+00	7.272685e+05	
52	-2.60000e+00	7.458840e+05	
53	-2.65000e+00	7.643933e+05	
54	-2.70000e+00	7.827991e+05	

Index   v-sweep         rds             
--------------------------------------------------------------------------------
55	-2.75000e+00	8.011036e+05	
56	-2.80000e+00	8.193088e+05	
57	-2.85000e+00	8.374158e+05	
58	-2.90000e+00	8.554254e+05	
59	-2.95000e+00	8.733373e+05	
60	-3.00000e+00	8.911499e+05	
61	-3.05000e+00	9.088600e+05	
62	-3.10000e+00	9.264614e+05	
63	-3.15000e+00	9.439448e+05	
64	-3.20000e+00	9.612956e+05	
65	-3.25000e+00	9.784929e+05	
66	-3.30000e+00	9.955070e+05	
Reset re-loads circuit ***************************

Circuit: ***************************

Doing analysis at TEMP = 125.000000 and TNOM = 125.000000


No. of Data Rows : 67
                          ***************************
                          DC transfer characteristic  Mon Jan  9 13:58:27  2023
--------------------------------------------------------------------------------
Index   v-sweep         rds             
--------------------------------------------------------------------------------
0	0.000000e+00	1.112927e+04	
1	-5.00000e-02	1.146163e+04	
2	-1.00000e-01	1.181252e+04	
3	-1.50000e-01	1.218352e+04	
4	-2.00000e-01	1.257642e+04	
5	-2.50000e-01	1.299320e+04	
6	-3.00000e-01	1.343610e+04	
7	-3.50000e-01	1.390764e+04	
8	-4.00000e-01	1.441070e+04	
9	-4.50000e-01	1.494852e+04	
10	-5.00000e-01	1.552483e+04	
11	-5.50000e-01	1.614389e+04	
12	-6.00000e-01	1.681063e+04	
13	-6.50000e-01	1.753077e+04	
14	-7.00000e-01	1.831095e+04	
15	-7.50000e-01	1.915899e+04	
16	-8.00000e-01	2.008411e+04	
17	-8.50000e-01	2.109726e+04	
18	-9.00000e-01	2.221157e+04	
19	-9.50000e-01	2.344289e+04	
20	-1.00000e+00	2.481055e+04	
21	-1.05000e+00	2.633831e+04	
22	-1.10000e+00	2.805575e+04	
23	-1.15000e+00	3.000003e+04	
24	-1.20000e+00	3.221850e+04	
25	-1.25000e+00	3.477223e+04	
26	-1.30000e+00	3.774110e+04	
27	-1.35000e+00	4.123106e+04	
28	-1.40000e+00	4.538442e+04	
29	-1.45000e+00	5.039432e+04	
30	-1.50000e+00	5.652366e+04	
31	-1.55000e+00	6.412626e+04	
32	-1.60000e+00	7.365886e+04	
33	-1.65000e+00	8.565180e+04	
34	-1.70000e+00	1.005753e+05	
35	-1.75000e+00	1.185477e+05	
36	-1.80000e+00	1.389994e+05	
37	-1.85000e+00	1.606675e+05	
38	-1.90000e+00	1.821309e+05	
39	-1.95000e+00	2.024349e+05	
40	-2.00000e+00	2.212610e+05	
41	-2.05000e+00	2.387105e+05	
42	-2.10000e+00	2.550422e+05	
43	-2.15000e+00	2.705209e+05	
44	-2.20000e+00	2.853631e+05	
45	-2.25000e+00	2.997305e+05	
46	-2.30000e+00	3.137392e+05	
47	-2.35000e+00	3.274717e+05	
48	-2.40000e+00	3.409863e+05	
49	-2.45000e+00	3.543249e+05	
50	-2.50000e+00	3.675175e+05	
51	-2.55000e+00	3.805862e+05	
52	-2.60000e+00	3.935473e+05	
53	-2.65000e+00	4.064131e+05	
54	-2.70000e+00	4.191930e+05	

Index   v-sweep         rds             
--------------------------------------------------------------------------------
55	-2.75000e+00	4.318942e+05	
56	-2.80000e+00	4.445223e+05	
57	-2.85000e+00	4.570818e+05	
58	-2.90000e+00	4.695763e+05	
59	-2.95000e+00	4.820086e+05	
60	-3.00000e+00	4.943812e+05	
61	-3.05000e+00	5.066959e+05	
62	-3.10000e+00	5.189545e+05	
63	-3.15000e+00	5.311581e+05	
64	-3.20000e+00	5.433079e+05	
65	-3.25000e+00	5.554044e+05	
66	-3.30000e+00	5.674481e+05	
Reset re-loads circuit ***************************

Circuit: ***************************

Doing analysis at TEMP = 125.000000 and TNOM = 125.000000


No. of Data Rows : 67
                          ***************************
                          DC transfer characteristic  Mon Jan  9 13:58:27  2023
--------------------------------------------------------------------------------
Index   v-sweep         rds             
--------------------------------------------------------------------------------
0	0.000000e+00	9.591069e+03	
1	-5.00000e-02	9.824251e+03	
2	-1.00000e-01	1.006782e+04	
3	-1.50000e-01	1.032247e+04	
4	-2.00000e-01	1.058899e+04	
5	-2.50000e-01	1.086821e+04	
6	-3.00000e-01	1.116106e+04	
7	-3.50000e-01	1.146856e+04	
8	-4.00000e-01	1.179183e+04	
9	-4.50000e-01	1.213211e+04	
10	-5.00000e-01	1.249078e+04	
11	-5.50000e-01	1.286936e+04	
12	-6.00000e-01	1.326955e+04	
13	-6.50000e-01	1.369325e+04	
14	-7.00000e-01	1.414258e+04	
15	-7.50000e-01	1.461994e+04	
16	-8.00000e-01	1.512802e+04	
17	-8.50000e-01	1.566987e+04	
18	-9.00000e-01	1.624897e+04	
19	-9.50000e-01	1.686927e+04	
20	-1.00000e+00	1.753532e+04	
21	-1.05000e+00	1.825236e+04	
22	-1.10000e+00	1.902644e+04	
23	-1.15000e+00	1.986463e+04	
24	-1.20000e+00	2.077518e+04	
25	-1.25000e+00	2.176783e+04	
26	-1.30000e+00	2.285414e+04	
27	-1.35000e+00	2.404790e+04	
28	-1.40000e+00	2.536574e+04	
29	-1.45000e+00	2.682781e+04	
30	-1.50000e+00	2.845884e+04	
31	-1.55000e+00	3.028934e+04	
32	-1.60000e+00	3.235743e+04	
33	-1.65000e+00	3.471112e+04	
34	-1.70000e+00	3.741150e+04	
35	-1.75000e+00	4.053694e+04	
36	-1.80000e+00	4.418857e+04	
37	-1.85000e+00	4.849695e+04	
38	-1.90000e+00	5.362901e+04	
39	-1.95000e+00	5.979212e+04	
40	-2.00000e+00	6.722706e+04	
41	-2.05000e+00	7.617428e+04	
42	-2.10000e+00	8.679302e+04	
43	-2.15000e+00	9.903401e+04	
44	-2.20000e+00	1.125341e+05	
45	-2.25000e+00	1.266598e+05	
46	-2.30000e+00	1.407344e+05	
47	-2.35000e+00	1.542799e+05	
48	-2.40000e+00	1.670974e+05	
49	-2.45000e+00	1.791940e+05	
50	-2.50000e+00	1.906738e+05	
51	-2.55000e+00	2.016621e+05	
52	-2.60000e+00	2.122711e+05	
53	-2.65000e+00	2.225897e+05	
54	-2.70000e+00	2.326848e+05	

Index   v-sweep         rds             
--------------------------------------------------------------------------------
55	-2.75000e+00	2.426055e+05	
56	-2.80000e+00	2.523874e+05	
57	-2.85000e+00	2.620568e+05	
58	-2.90000e+00	2.716326e+05	
59	-2.95000e+00	2.811291e+05	
60	-3.00000e+00	2.905568e+05	
61	-3.05000e+00	2.999238e+05	
62	-3.10000e+00	3.092362e+05	
63	-3.15000e+00	3.184988e+05	
64	-3.20000e+00	3.277153e+05	
65	-3.25000e+00	3.368886e+05	
66	-3.30000e+00	3.460211e+05	
Reset re-loads circuit ***************************

Circuit: ***************************

Note: No ".plot", ".print", or ".fourier" lines; no simulations run
