
Note: Compatibility modes selected: hs

Warning: m=xx on .subckt line will override multiplier m hierarchy!


Circuit: ***************************

Doing analysis at TEMP = -40.000000 and TNOM = -40.000000


No. of Data Rows : 67
                          ***************************
                          DC transfer characteristic  Mon Jan  9 13:58:25  2023
--------------------------------------------------------------------------------
Index   v-sweep         rds             
--------------------------------------------------------------------------------
0	0.000000e+00	1.223155e+05	
1	-5.00000e-02	1.082238e+06	
2	-1.00000e-01	7.617735e+06	
3	-1.50000e-01	1.702160e+07	
4	-2.00000e-01	2.367192e+07	
5	-2.50000e-01	2.801862e+07	
6	-3.00000e-01	3.113853e+07	
7	-3.50000e-01	3.358437e+07	
8	-4.00000e-01	3.561644e+07	
9	-4.50000e-01	3.736632e+07	
10	-5.00000e-01	3.890732e+07	
11	-5.50000e-01	4.028427e+07	
12	-6.00000e-01	4.152693e+07	
13	-6.50000e-01	4.265639e+07	
14	-7.00000e-01	4.368842e+07	
15	-7.50000e-01	4.463532e+07	
16	-8.00000e-01	4.550699e+07	
17	-8.50000e-01	4.631157e+07	
18	-9.00000e-01	4.705593e+07	
19	-9.50000e-01	4.774591e+07	
20	-1.00000e+00	4.838656e+07	
21	-1.05000e+00	4.898226e+07	
22	-1.10000e+00	4.953688e+07	
23	-1.15000e+00	5.005383e+07	
24	-1.20000e+00	5.053614e+07	
25	-1.25000e+00	5.098652e+07	
26	-1.30000e+00	5.140739e+07	
27	-1.35000e+00	5.180094e+07	
28	-1.40000e+00	5.216915e+07	
29	-1.45000e+00	5.251380e+07	
30	-1.50000e+00	5.283651e+07	
31	-1.55000e+00	5.313875e+07	
32	-1.60000e+00	5.342185e+07	
33	-1.65000e+00	5.368701e+07	
34	-1.70000e+00	5.393530e+07	
35	-1.75000e+00	5.416769e+07	
36	-1.80000e+00	5.438500e+07	
37	-1.85000e+00	5.458795e+07	
38	-1.90000e+00	5.477709e+07	
39	-1.95000e+00	5.495285e+07	
40	-2.00000e+00	5.511547e+07	
41	-2.05000e+00	5.526503e+07	
42	-2.10000e+00	5.540139e+07	
43	-2.15000e+00	5.552419e+07	
44	-2.20000e+00	5.563281e+07	
45	-2.25000e+00	5.572637e+07	
46	-2.30000e+00	5.580368e+07	
47	-2.35000e+00	5.586324e+07	
48	-2.40000e+00	5.590321e+07	
49	-2.45000e+00	5.592141e+07	
50	-2.50000e+00	5.591528e+07	
51	-2.55000e+00	5.588192e+07	
52	-2.60000e+00	5.581810e+07	
53	-2.65000e+00	5.572023e+07	
54	-2.70000e+00	5.558447e+07	

Index   v-sweep         rds             
--------------------------------------------------------------------------------
55	-2.75000e+00	5.540672e+07	
56	-2.80000e+00	5.518272e+07	
57	-2.85000e+00	5.490812e+07	
58	-2.90000e+00	5.457858e+07	
59	-2.95000e+00	5.418988e+07	
60	-3.00000e+00	5.373807e+07	
61	-3.05000e+00	5.321956e+07	
62	-3.10000e+00	5.263131e+07	
63	-3.15000e+00	5.197094e+07	
64	-3.20000e+00	5.123689e+07	
65	-3.25000e+00	5.042850e+07	
66	-3.30000e+00	4.954615e+07	
Reset re-loads circuit ***************************

Circuit: ***************************

Doing analysis at TEMP = -40.000000 and TNOM = -40.000000


No. of Data Rows : 67
                          ***************************
                          DC transfer characteristic  Mon Jan  9 13:58:26  2023
--------------------------------------------------------------------------------
Index   v-sweep         rds             
--------------------------------------------------------------------------------
0	0.000000e+00	2.268036e+03	
1	-5.00000e-02	2.622972e+03	
2	-1.00000e-01	3.101027e+03	
3	-1.50000e-01	3.778073e+03	
4	-2.00000e-01	4.804652e+03	
5	-2.50000e-01	6.514263e+03	
6	-3.00000e-01	9.728637e+03	
7	-3.50000e-01	1.646969e+04	
8	-4.00000e-01	3.004280e+04	
9	-4.50000e-01	5.057388e+04	
10	-5.00000e-01	7.264460e+04	
11	-5.50000e-01	9.243040e+04	
12	-6.00000e-01	1.096092e+05	
13	-6.50000e-01	1.248938e+05	
14	-7.00000e-01	1.389088e+05	
15	-7.50000e-01	1.520542e+05	
16	-8.00000e-01	1.645712e+05	
17	-8.50000e-01	1.766067e+05	
18	-9.00000e-01	1.882530e+05	
19	-9.50000e-01	1.995703e+05	
20	-1.00000e+00	2.105997e+05	
21	-1.05000e+00	2.213705e+05	
22	-1.10000e+00	2.319039e+05	
23	-1.15000e+00	2.422166e+05	
24	-1.20000e+00	2.523214e+05	
25	-1.25000e+00	2.622290e+05	
26	-1.30000e+00	2.719483e+05	
27	-1.35000e+00	2.814869e+05	
28	-1.40000e+00	2.908515e+05	
29	-1.45000e+00	3.000481e+05	
30	-1.50000e+00	3.090820e+05	
31	-1.55000e+00	3.179583e+05	
32	-1.60000e+00	3.266815e+05	
33	-1.65000e+00	3.352559e+05	
34	-1.70000e+00	3.436854e+05	
35	-1.75000e+00	3.519738e+05	
36	-1.80000e+00	3.601247e+05	
37	-1.85000e+00	3.681413e+05	
38	-1.90000e+00	3.760265e+05	
39	-1.95000e+00	3.837829e+05	
40	-2.00000e+00	3.914127e+05	
41	-2.05000e+00	3.989173e+05	
42	-2.10000e+00	4.062972e+05	
43	-2.15000e+00	4.135518e+05	
44	-2.20000e+00	4.206786e+05	
45	-2.25000e+00	4.276733e+05	
46	-2.30000e+00	4.345284e+05	
47	-2.35000e+00	4.412332e+05	
48	-2.40000e+00	4.477723e+05	
49	-2.45000e+00	4.541253e+05	
50	-2.50000e+00	4.602651e+05	
51	-2.55000e+00	4.661573e+05	
52	-2.60000e+00	4.717587e+05	
53	-2.65000e+00	4.770168e+05	
54	-2.70000e+00	4.818685e+05	

Index   v-sweep         rds             
--------------------------------------------------------------------------------
55	-2.75000e+00	4.862396e+05	
56	-2.80000e+00	4.900444e+05	
57	-2.85000e+00	4.931864e+05	
58	-2.90000e+00	4.955589e+05	
59	-2.95000e+00	4.970470e+05	
60	-3.00000e+00	4.975305e+05	
61	-3.05000e+00	4.968877e+05	
62	-3.10000e+00	4.950003e+05	
63	-3.15000e+00	4.917594e+05	
64	-3.20000e+00	4.870721e+05	
65	-3.25000e+00	4.808683e+05	
66	-3.30000e+00	4.731072e+05	
Reset re-loads circuit ***************************

Circuit: ***************************

Doing analysis at TEMP = -40.000000 and TNOM = -40.000000


No. of Data Rows : 67
                          ***************************
                          DC transfer characteristic  Mon Jan  9 13:58:26  2023
--------------------------------------------------------------------------------
Index   v-sweep         rds             
--------------------------------------------------------------------------------
0	0.000000e+00	1.160930e+03	
1	-5.00000e-02	1.245201e+03	
2	-1.00000e-01	1.341466e+03	
3	-1.50000e-01	1.452468e+03	
4	-2.00000e-01	1.581850e+03	
5	-2.50000e-01	1.734555e+03	
6	-3.00000e-01	1.917453e+03	
7	-3.50000e-01	2.140364e+03	
8	-4.00000e-01	2.417785e+03	
9	-4.50000e-01	2.771924e+03	
10	-5.00000e-01	3.238235e+03	
11	-5.50000e-01	3.875827e+03	
12	-6.00000e-01	4.786900e+03	
13	-6.50000e-01	6.149000e+03	
14	-7.00000e-01	8.243793e+03	
15	-7.50000e-01	1.138430e+04	
16	-8.00000e-01	1.560523e+04	
17	-8.50000e-01	2.043961e+04	
18	-9.00000e-01	2.530225e+04	
19	-9.50000e-01	2.990614e+04	
20	-1.00000e+00	3.421882e+04	
21	-1.05000e+00	3.829486e+04	
22	-1.10000e+00	4.219403e+04	
23	-1.15000e+00	4.596144e+04	
24	-1.20000e+00	4.962792e+04	
25	-1.25000e+00	5.321407e+04	
26	-1.30000e+00	5.673370e+04	
27	-1.35000e+00	6.019630e+04	
28	-1.40000e+00	6.360848e+04	
29	-1.45000e+00	6.697501e+04	
30	-1.50000e+00	7.029941e+04	
31	-1.55000e+00	7.358435e+04	
32	-1.60000e+00	7.683191e+04	
33	-1.65000e+00	8.004373e+04	
34	-1.70000e+00	8.322116e+04	
35	-1.75000e+00	8.636533e+04	
36	-1.80000e+00	8.947719e+04	
37	-1.85000e+00	9.255759e+04	
38	-1.90000e+00	9.560725e+04	
39	-1.95000e+00	9.862684e+04	
40	-2.00000e+00	1.016169e+05	
41	-2.05000e+00	1.045781e+05	
42	-2.10000e+00	1.075109e+05	
43	-2.15000e+00	1.104156e+05	
44	-2.20000e+00	1.132928e+05	
45	-2.25000e+00	1.161428e+05	
46	-2.30000e+00	1.189659e+05	
47	-2.35000e+00	1.217621e+05	
48	-2.40000e+00	1.245314e+05	
49	-2.45000e+00	1.272736e+05	
50	-2.50000e+00	1.299880e+05	
51	-2.55000e+00	1.326732e+05	
52	-2.60000e+00	1.353276e+05	
53	-2.65000e+00	1.379480e+05	
54	-2.70000e+00	1.405305e+05	

Index   v-sweep         rds             
--------------------------------------------------------------------------------
55	-2.75000e+00	1.430694e+05	
56	-2.80000e+00	1.455569e+05	
57	-2.85000e+00	1.479830e+05	
58	-2.90000e+00	1.503347e+05	
59	-2.95000e+00	1.525956e+05	
60	-3.00000e+00	1.547457e+05	
61	-3.05000e+00	1.567603e+05	
62	-3.10000e+00	1.586103e+05	
63	-3.15000e+00	1.602617e+05	
64	-3.20000e+00	1.616756e+05	
65	-3.25000e+00	1.628087e+05	
66	-3.30000e+00	1.636140e+05	
Reset re-loads circuit ***************************

Circuit: ***************************

Doing analysis at TEMP = -40.000000 and TNOM = -40.000000


No. of Data Rows : 67
                          ***************************
                          DC transfer characteristic  Mon Jan  9 13:58:26  2023
--------------------------------------------------------------------------------
Index   v-sweep         rds             
--------------------------------------------------------------------------------
0	0.000000e+00	8.402602e+02	
1	-5.00000e-02	8.805927e+02	
2	-1.00000e-01	9.245310e+02	
3	-1.50000e-01	9.725785e+02	
4	-2.00000e-01	1.025336e+03	
5	-2.50000e-01	1.083529e+03	
6	-3.00000e-01	1.148038e+03	
7	-3.50000e-01	1.219943e+03	
8	-4.00000e-01	1.300586e+03	
9	-4.50000e-01	1.391652e+03	
10	-5.00000e-01	1.495287e+03	
11	-5.50000e-01	1.614262e+03	
12	-6.00000e-01	1.752217e+03	
13	-6.50000e-01	1.914020e+03	
14	-7.00000e-01	2.106318e+03	
15	-7.50000e-01	2.338389e+03	
16	-8.00000e-01	2.623488e+03	
17	-8.50000e-01	2.980985e+03	
18	-9.00000e-01	3.439706e+03	
19	-9.50000e-01	4.042674e+03	
20	-1.00000e+00	4.851957e+03	
21	-1.05000e+00	5.946848e+03	
22	-1.10000e+00	7.398670e+03	
23	-1.15000e+00	9.212556e+03	
24	-1.20000e+00	1.128716e+04	
25	-1.25000e+00	1.346810e+04	
26	-1.30000e+00	1.564019e+04	
27	-1.35000e+00	1.775480e+04	
28	-1.40000e+00	1.980479e+04	
29	-1.45000e+00	2.179825e+04	
30	-1.50000e+00	2.374574e+04	
31	-1.55000e+00	2.565623e+04	
32	-1.60000e+00	2.753648e+04	
33	-1.65000e+00	2.939135e+04	
34	-1.70000e+00	3.122431e+04	
35	-1.75000e+00	3.303786e+04	
36	-1.80000e+00	3.483383e+04	
37	-1.85000e+00	3.661356e+04	
38	-1.90000e+00	3.837809e+04	
39	-1.95000e+00	4.012819e+04	
40	-2.00000e+00	4.186449e+04	
41	-2.05000e+00	4.358748e+04	
42	-2.10000e+00	4.529758e+04	
43	-2.15000e+00	4.699512e+04	
44	-2.20000e+00	4.868039e+04	
45	-2.25000e+00	5.035365e+04	
46	-2.30000e+00	5.201510e+04	
47	-2.35000e+00	5.366496e+04	
48	-2.40000e+00	5.530339e+04	
49	-2.45000e+00	5.693055e+04	
50	-2.50000e+00	5.854659e+04	
51	-2.55000e+00	6.015162e+04	
52	-2.60000e+00	6.174574e+04	
53	-2.65000e+00	6.332901e+04	
54	-2.70000e+00	6.490142e+04	

Index   v-sweep         rds             
--------------------------------------------------------------------------------
55	-2.75000e+00	6.646289e+04	
56	-2.80000e+00	6.801319e+04	
57	-2.85000e+00	6.955192e+04	
58	-2.90000e+00	7.107840e+04	
59	-2.95000e+00	7.259156e+04	
60	-3.00000e+00	7.408984e+04	
61	-3.05000e+00	7.557101e+04	
62	-3.10000e+00	7.703196e+04	
63	-3.15000e+00	7.846849e+04	
64	-3.20000e+00	7.987506e+04	
65	-3.25000e+00	8.124446e+04	
66	-3.30000e+00	8.256757e+04	
Reset re-loads circuit ***************************

Circuit: ***************************

Doing analysis at TEMP = -40.000000 and TNOM = -40.000000


No. of Data Rows : 67
                          ***************************
                          DC transfer characteristic  Mon Jan  9 13:58:26  2023
--------------------------------------------------------------------------------
Index   v-sweep         rds             
--------------------------------------------------------------------------------
0	0.000000e+00	6.881653e+02	
1	-5.00000e-02	7.128945e+02	
2	-1.00000e-01	7.392258e+02	
3	-1.50000e-01	7.673187e+02	
4	-2.00000e-01	7.973550e+02	
5	-2.50000e-01	8.295418e+02	
6	-3.00000e-01	8.641173e+02	
7	-3.50000e-01	9.013557e+02	
8	-4.00000e-01	9.415749e+02	
9	-4.50000e-01	9.851457e+02	
10	-5.00000e-01	1.032503e+03	
11	-5.50000e-01	1.084159e+03	
12	-6.00000e-01	1.140723e+03	
13	-6.50000e-01	1.202927e+03	
14	-7.00000e-01	1.271651e+03	
15	-7.50000e-01	1.347970e+03	
16	-8.00000e-01	1.433207e+03	
17	-8.50000e-01	1.529006e+03	
18	-9.00000e-01	1.637439e+03	
19	-9.50000e-01	1.761144e+03	
20	-1.00000e+00	1.903532e+03	
21	-1.05000e+00	2.069075e+03	
22	-1.10000e+00	2.263723e+03	
23	-1.15000e+00	2.495508e+03	
24	-1.20000e+00	2.775396e+03	
25	-1.25000e+00	3.118415e+03	
26	-1.30000e+00	3.544922e+03	
27	-1.35000e+00	4.081241e+03	
28	-1.40000e+00	4.757587e+03	
29	-1.45000e+00	5.599615e+03	
30	-1.50000e+00	6.612473e+03	
31	-1.55000e+00	7.768022e+03	
32	-1.60000e+00	9.013114e+03	
33	-1.65000e+00	1.029527e+04	
34	-1.70000e+00	1.158039e+04	
35	-1.75000e+00	1.285289e+04	
36	-1.80000e+00	1.410822e+04	
37	-1.85000e+00	1.534663e+04	
38	-1.90000e+00	1.656987e+04	
39	-1.95000e+00	1.777985e+04	
40	-2.00000e+00	1.897821e+04	
41	-2.05000e+00	2.016624e+04	
42	-2.10000e+00	2.134494e+04	
43	-2.15000e+00	2.251506e+04	
44	-2.20000e+00	2.367718e+04	
45	-2.25000e+00	2.483172e+04	
46	-2.30000e+00	2.597904e+04	
47	-2.35000e+00	2.711941e+04	
48	-2.40000e+00	2.825305e+04	
49	-2.45000e+00	2.938012e+04	
50	-2.50000e+00	3.050078e+04	
51	-2.55000e+00	3.161516e+04	
52	-2.60000e+00	3.272336e+04	
53	-2.65000e+00	3.382547e+04	
54	-2.70000e+00	3.492158e+04	

Index   v-sweep         rds             
--------------------------------------------------------------------------------
55	-2.75000e+00	3.601177e+04	
56	-2.80000e+00	3.709609e+04	
57	-2.85000e+00	3.817460e+04	
58	-2.90000e+00	3.924736e+04	
59	-2.95000e+00	4.031439e+04	
60	-3.00000e+00	4.137572e+04	
61	-3.05000e+00	4.243132e+04	
62	-3.10000e+00	4.348112e+04	
63	-3.15000e+00	4.452499e+04	
64	-3.20000e+00	4.556266e+04	
65	-3.25000e+00	4.659371e+04	
66	-3.30000e+00	4.761748e+04	
Reset re-loads circuit ***************************

Circuit: ***************************

Doing analysis at TEMP = -40.000000 and TNOM = -40.000000


No. of Data Rows : 67
                          ***************************
                          DC transfer characteristic  Mon Jan  9 13:58:26  2023
--------------------------------------------------------------------------------
Index   v-sweep         rds             
--------------------------------------------------------------------------------
0	0.000000e+00	6.044819e+02	
1	-5.00000e-02	6.218943e+02	
2	-1.00000e-01	6.401907e+02	
3	-1.50000e-01	6.594394e+02	
4	-2.00000e-01	6.797160e+02	
5	-2.50000e-01	7.011043e+02	
6	-3.00000e-01	7.236975e+02	
7	-3.50000e-01	7.475996e+02	
8	-4.00000e-01	7.729267e+02	
9	-4.50000e-01	7.998091e+02	
10	-5.00000e-01	8.283936e+02	
11	-5.50000e-01	8.588461e+02	
12	-6.00000e-01	8.913544e+02	
13	-6.50000e-01	9.261328e+02	
14	-7.00000e-01	9.634261e+02	
15	-7.50000e-01	1.003516e+03	
16	-8.00000e-01	1.046726e+03	
17	-8.50000e-01	1.093434e+03	
18	-9.00000e-01	1.144080e+03	
19	-9.50000e-01	1.199181e+03	
20	-1.00000e+00	1.259347e+03	
21	-1.05000e+00	1.325305e+03	
22	-1.10000e+00	1.397926e+03	
23	-1.15000e+00	1.478266e+03	
24	-1.20000e+00	1.567609e+03	
25	-1.25000e+00	1.667539e+03	
26	-1.30000e+00	1.780022e+03	
27	-1.35000e+00	1.907531e+03	
28	-1.40000e+00	2.053204e+03	
29	-1.45000e+00	2.221063e+03	
30	-1.50000e+00	2.416308e+03	
31	-1.55000e+00	2.645693e+03	
32	-1.60000e+00	2.917956e+03	
33	-1.65000e+00	3.244198e+03	
34	-1.70000e+00	3.637842e+03	
35	-1.75000e+00	4.113435e+03	
36	-1.80000e+00	4.683215e+03	
37	-1.85000e+00	5.351287e+03	
38	-1.90000e+00	6.108386e+03	
39	-1.95000e+00	6.932806e+03	
40	-2.00000e+00	7.798557e+03	
41	-2.05000e+00	8.684095e+03	
42	-2.10000e+00	9.575699e+03	
43	-2.15000e+00	1.046621e+04	
44	-2.20000e+00	1.135249e+04	
45	-2.25000e+00	1.223344e+04	
46	-2.30000e+00	1.310886e+04	
47	-2.35000e+00	1.397892e+04	
48	-2.40000e+00	1.484387e+04	
49	-2.45000e+00	1.570397e+04	
50	-2.50000e+00	1.655945e+04	
51	-2.55000e+00	1.741051e+04	
52	-2.60000e+00	1.825730e+04	
53	-2.65000e+00	1.909996e+04	
54	-2.70000e+00	1.993859e+04	

Index   v-sweep         rds             
--------------------------------------------------------------------------------
55	-2.75000e+00	2.077327e+04	
56	-2.80000e+00	2.160409e+04	
57	-2.85000e+00	2.243110e+04	
58	-2.90000e+00	2.325434e+04	
59	-2.95000e+00	2.407388e+04	
60	-3.00000e+00	2.488975e+04	
61	-3.05000e+00	2.570198e+04	
62	-3.10000e+00	2.651061e+04	
63	-3.15000e+00	2.731566e+04	
64	-3.20000e+00	2.811717e+04	
65	-3.25000e+00	2.891515e+04	
66	-3.30000e+00	2.970961e+04	
Reset re-loads circuit ***************************

Circuit: ***************************

Note: No ".plot", ".print", or ".fourier" lines; no simulations run
