
Note: Compatibility modes selected: hs

Warning: m=xx on .subckt line will override multiplier m hierarchy!


Circuit: ***************************

Doing analysis at TEMP = 125.000000 and TNOM = 125.000000


No. of Data Rows : 67
                          ***************************
                          DC transfer characteristic  Mon Jan  9 13:58:26  2023
--------------------------------------------------------------------------------
Index   v-sweep         rds             
--------------------------------------------------------------------------------
0	0.000000e+00	2.562129e+04	
1	-5.00000e-02	3.758395e+04	
2	-1.00000e-01	6.702136e+04	
3	-1.50000e-01	1.705906e+05	
4	-2.00000e-01	5.463057e+05	
5	-2.50000e-01	1.288988e+06	
6	-3.00000e-01	2.054783e+06	
7	-3.50000e-01	2.637824e+06	
8	-4.00000e-01	3.066986e+06	
9	-4.50000e-01	3.402403e+06	
10	-5.00000e-01	3.682389e+06	
11	-5.50000e-01	3.927849e+06	
12	-6.00000e-01	4.150174e+06	
13	-6.50000e-01	4.355835e+06	
14	-7.00000e-01	4.548701e+06	
15	-7.50000e-01	4.731216e+06	
16	-8.00000e-01	4.905009e+06	
17	-8.50000e-01	5.071215e+06	
18	-9.00000e-01	5.230668e+06	
19	-9.50000e-01	5.384003e+06	
20	-1.00000e+00	5.531721e+06	
21	-1.05000e+00	5.674231e+06	
22	-1.10000e+00	5.811878e+06	
23	-1.15000e+00	5.944955e+06	
24	-1.20000e+00	6.073720e+06	
25	-1.25000e+00	6.198401e+06	
26	-1.30000e+00	6.319202e+06	
27	-1.35000e+00	6.436311e+06	
28	-1.40000e+00	6.549896e+06	
29	-1.45000e+00	6.660116e+06	
30	-1.50000e+00	6.767114e+06	
31	-1.55000e+00	6.871026e+06	
32	-1.60000e+00	6.971977e+06	
33	-1.65000e+00	7.070083e+06	
34	-1.70000e+00	7.165449e+06	
35	-1.75000e+00	7.258173e+06	
36	-1.80000e+00	7.348340e+06	
37	-1.85000e+00	7.436023e+06	
38	-1.90000e+00	7.521278e+06	
39	-1.95000e+00	7.604141e+06	
40	-2.00000e+00	7.684624e+06	
41	-2.05000e+00	7.762709e+06	
42	-2.10000e+00	7.838340e+06	
43	-2.15000e+00	7.911416e+06	
44	-2.20000e+00	7.981781e+06	
45	-2.25000e+00	8.049214e+06	
46	-2.30000e+00	8.113422e+06	
47	-2.35000e+00	8.174023e+06	
48	-2.40000e+00	8.230543e+06	
49	-2.45000e+00	8.282402e+06	
50	-2.50000e+00	8.328904e+06	
51	-2.55000e+00	8.369240e+06	
52	-2.60000e+00	8.402477e+06	
53	-2.65000e+00	8.427566e+06	
54	-2.70000e+00	8.443347e+06	

Index   v-sweep         rds             
--------------------------------------------------------------------------------
55	-2.75000e+00	8.448568e+06	
56	-2.80000e+00	8.441907e+06	
57	-2.85000e+00	8.422001e+06	
58	-2.90000e+00	8.387492e+06	
59	-2.95000e+00	8.337074e+06	
60	-3.00000e+00	8.269549e+06	
61	-3.05000e+00	8.183891e+06	
62	-3.10000e+00	8.079309e+06	
63	-3.15000e+00	7.955307e+06	
64	-3.20000e+00	7.811737e+06	
65	-3.25000e+00	7.648840e+06	
66	-3.30000e+00	7.467272e+06	
Reset re-loads circuit ***************************

Circuit: ***************************

Doing analysis at TEMP = 125.000000 and TNOM = 125.000000


No. of Data Rows : 67
                          ***************************
                          DC transfer characteristic  Mon Jan  9 13:58:26  2023
--------------------------------------------------------------------------------
Index   v-sweep         rds             
--------------------------------------------------------------------------------
0	0.000000e+00	5.731771e+03	
1	-5.00000e-02	6.318178e+03	
2	-1.00000e-01	7.031442e+03	
3	-1.50000e-01	7.917393e+03	
4	-2.00000e-01	9.046618e+03	
5	-2.50000e-01	1.053331e+04	
6	-3.00000e-01	1.257347e+04	
7	-3.50000e-01	1.552796e+04	
8	-4.00000e-01	2.011509e+04	
9	-4.50000e-01	2.786419e+04	
10	-5.00000e-01	4.201229e+04	
11	-5.50000e-01	6.792260e+04	
12	-6.00000e-01	1.086223e+05	
13	-6.50000e-01	1.573525e+05	
14	-7.00000e-01	2.035268e+05	
15	-7.50000e-01	2.428284e+05	
16	-8.00000e-01	2.759770e+05	
17	-8.50000e-01	3.047976e+05	
18	-9.00000e-01	3.307474e+05	
19	-9.50000e-01	3.547748e+05	
20	-1.00000e+00	3.774670e+05	
21	-1.05000e+00	3.991882e+05	
22	-1.10000e+00	4.201687e+05	
23	-1.15000e+00	4.405584e+05	
24	-1.20000e+00	4.604579e+05	
25	-1.25000e+00	4.799367e+05	
26	-1.30000e+00	4.990441e+05	
27	-1.35000e+00	5.178163e+05	
28	-1.40000e+00	5.362807e+05	
29	-1.45000e+00	5.544580e+05	
30	-1.50000e+00	5.723651e+05	
31	-1.55000e+00	5.900152e+05	
32	-1.60000e+00	6.074196e+05	
33	-1.65000e+00	6.245878e+05	
34	-1.70000e+00	6.415276e+05	
35	-1.75000e+00	6.582464e+05	
36	-1.80000e+00	6.747503e+05	
37	-1.85000e+00	6.910450e+05	
38	-1.90000e+00	7.071355e+05	
39	-1.95000e+00	7.230266e+05	
40	-2.00000e+00	7.387223e+05	
41	-2.05000e+00	7.542261e+05	
42	-2.10000e+00	7.695411e+05	
43	-2.15000e+00	7.846691e+05	
44	-2.20000e+00	7.996111e+05	
45	-2.25000e+00	8.143662e+05	
46	-2.30000e+00	8.289309e+05	
47	-2.35000e+00	8.432990e+05	
48	-2.40000e+00	8.574596e+05	
49	-2.45000e+00	8.713963e+05	
50	-2.50000e+00	8.850856e+05	
51	-2.55000e+00	8.984949e+05	
52	-2.60000e+00	9.115802e+05	
53	-2.65000e+00	9.242844e+05	
54	-2.70000e+00	9.365343e+05	

Index   v-sweep         rds             
--------------------------------------------------------------------------------
55	-2.75000e+00	9.482383e+05	
56	-2.80000e+00	9.592838e+05	
57	-2.85000e+00	9.695354e+05	
58	-2.90000e+00	9.788331e+05	
59	-2.95000e+00	9.869912e+05	
60	-3.00000e+00	9.937993e+05	
61	-3.05000e+00	9.990236e+05	
62	-3.10000e+00	1.002411e+06	
63	-3.15000e+00	1.003697e+06	
64	-3.20000e+00	1.002609e+06	
65	-3.25000e+00	9.988850e+05	
66	-3.30000e+00	9.922820e+05	
Reset re-loads circuit ***************************

Circuit: ***************************

Doing analysis at TEMP = 125.000000 and TNOM = 125.000000


No. of Data Rows : 67
                          ***************************
                          DC transfer characteristic  Mon Jan  9 13:58:26  2023
--------------------------------------------------------------------------------
Index   v-sweep         rds             
--------------------------------------------------------------------------------
0	0.000000e+00	3.446241e+03	
1	-5.00000e-02	3.644090e+03	
2	-1.00000e-01	3.864368e+03	
3	-1.50000e-01	4.111105e+03	
4	-2.00000e-01	4.389357e+03	
5	-2.50000e-01	4.705548e+03	
6	-3.00000e-01	5.067970e+03	
7	-3.50000e-01	5.487500e+03	
8	-4.00000e-01	5.978688e+03	
9	-4.50000e-01	6.561424e+03	
10	-5.00000e-01	7.263576e+03	
11	-5.50000e-01	8.125310e+03	
12	-6.00000e-01	9.206390e+03	
13	-6.50000e-01	1.059894e+04	
14	-7.00000e-01	1.245032e+04	
15	-7.50000e-01	1.500415e+04	
16	-8.00000e-01	1.866925e+04	
17	-8.50000e-01	2.410582e+04	
18	-9.00000e-01	3.220735e+04	
19	-9.50000e-01	4.363403e+04	
20	-1.00000e+00	5.784851e+04	
21	-1.05000e+00	7.299503e+04	
22	-1.10000e+00	8.732803e+04	
23	-1.15000e+00	1.001819e+05	
24	-1.20000e+00	1.116591e+05	
25	-1.25000e+00	1.220880e+05	
26	-1.30000e+00	1.317703e+05	
27	-1.35000e+00	1.409252e+05	
28	-1.40000e+00	1.497008e+05	
29	-1.45000e+00	1.581950e+05	
30	-1.50000e+00	1.664731e+05	
31	-1.55000e+00	1.745788e+05	
32	-1.60000e+00	1.825425e+05	
33	-1.65000e+00	1.903853e+05	
34	-1.70000e+00	1.981224e+05	
35	-1.75000e+00	2.057651e+05	
36	-1.80000e+00	2.133218e+05	
37	-1.85000e+00	2.207987e+05	
38	-1.90000e+00	2.282009e+05	
39	-1.95000e+00	2.355323e+05	
40	-2.00000e+00	2.427962e+05	
41	-2.05000e+00	2.499950e+05	
42	-2.10000e+00	2.571311e+05	
43	-2.15000e+00	2.642063e+05	
44	-2.20000e+00	2.712222e+05	
45	-2.25000e+00	2.781801e+05	
46	-2.30000e+00	2.850814e+05	
47	-2.35000e+00	2.919269e+05	
48	-2.40000e+00	2.987177e+05	
49	-2.45000e+00	3.054543e+05	
50	-2.50000e+00	3.121372e+05	
51	-2.55000e+00	3.187662e+05	
52	-2.60000e+00	3.253409e+05	
53	-2.65000e+00	3.318597e+05	
54	-2.70000e+00	3.383203e+05	

Index   v-sweep         rds             
--------------------------------------------------------------------------------
55	-2.75000e+00	3.447183e+05	
56	-2.80000e+00	3.510478e+05	
57	-2.85000e+00	3.572997e+05	
58	-2.90000e+00	3.634614e+05	
59	-2.95000e+00	3.695159e+05	
60	-3.00000e+00	3.754406e+05	
61	-3.05000e+00	3.812062e+05	
62	-3.10000e+00	3.867753e+05	
63	-3.15000e+00	3.921014e+05	
64	-3.20000e+00	3.971273e+05	
65	-3.25000e+00	4.017846e+05	
66	-3.30000e+00	4.059926e+05	
Reset re-loads circuit ***************************

Circuit: ***************************

Doing analysis at TEMP = 125.000000 and TNOM = 125.000000


No. of Data Rows : 67
                          ***************************
                          DC transfer characteristic  Mon Jan  9 13:58:26  2023
--------------------------------------------------------------------------------
Index   v-sweep         rds             
--------------------------------------------------------------------------------
0	0.000000e+00	2.567735e+03	
1	-5.00000e-02	2.670175e+03	
2	-1.00000e-01	2.780395e+03	
3	-1.50000e-01	2.899313e+03	
4	-2.00000e-01	3.027998e+03	
5	-2.50000e-01	3.167700e+03	
6	-3.00000e-01	3.319892e+03	
7	-3.50000e-01	3.486323e+03	
8	-4.00000e-01	3.669082e+03	
9	-4.50000e-01	3.870685e+03	
10	-5.00000e-01	4.094193e+03	
11	-5.50000e-01	4.343365e+03	
12	-6.00000e-01	4.622865e+03	
13	-6.50000e-01	4.938553e+03	
14	-7.00000e-01	5.297886e+03	
15	-7.50000e-01	5.710495e+03	
16	-8.00000e-01	6.189019e+03	
17	-8.50000e-01	6.750344e+03	
18	-9.00000e-01	7.417470e+03	
19	-9.50000e-01	8.222388e+03	
20	-1.00000e+00	9.210563e+03	
21	-1.05000e+00	1.044792e+04	
22	-1.10000e+00	1.203146e+04	
23	-1.15000e+00	1.410381e+04	
24	-1.20000e+00	1.686721e+04	
25	-1.25000e+00	2.057680e+04	
26	-1.30000e+00	2.546385e+04	
27	-1.35000e+00	3.155010e+04	
28	-1.40000e+00	3.847846e+04	
29	-1.45000e+00	4.563705e+04	
30	-1.50000e+00	5.251882e+04	
31	-1.55000e+00	5.891010e+04	
32	-1.60000e+00	6.481583e+04	
33	-1.65000e+00	7.032562e+04	
34	-1.70000e+00	7.553626e+04	
35	-1.75000e+00	8.052583e+04	
36	-1.80000e+00	8.535115e+04	
37	-1.85000e+00	9.005202e+04	
38	-1.90000e+00	9.465604e+04	
39	-1.95000e+00	9.918247e+04	
40	-2.00000e+00	1.036449e+05	
41	-2.05000e+00	1.080530e+05	
42	-2.10000e+00	1.124138e+05	
43	-2.15000e+00	1.167326e+05	
44	-2.20000e+00	1.210132e+05	
45	-2.25000e+00	1.252588e+05	
46	-2.30000e+00	1.294716e+05	
47	-2.35000e+00	1.336534e+05	
48	-2.40000e+00	1.378057e+05	
49	-2.45000e+00	1.419298e+05	
50	-2.50000e+00	1.460266e+05	
51	-2.55000e+00	1.500969e+05	
52	-2.60000e+00	1.541415e+05	
53	-2.65000e+00	1.581609e+05	
54	-2.70000e+00	1.621556e+05	

Index   v-sweep         rds             
--------------------------------------------------------------------------------
55	-2.75000e+00	1.661261e+05	
56	-2.80000e+00	1.700726e+05	
57	-2.85000e+00	1.739954e+05	
58	-2.90000e+00	1.778945e+05	
59	-2.95000e+00	1.817697e+05	
60	-3.00000e+00	1.856204e+05	
61	-3.05000e+00	1.894456e+05	
62	-3.10000e+00	1.932436e+05	
63	-3.15000e+00	1.970115e+05	
64	-3.20000e+00	2.007454e+05	
65	-3.25000e+00	2.044395e+05	
66	-3.30000e+00	2.080858e+05	
Reset re-loads circuit ***************************

Circuit: ***************************

Doing analysis at TEMP = 125.000000 and TNOM = 125.000000


No. of Data Rows : 67
                          ***************************
                          DC transfer characteristic  Mon Jan  9 13:58:26  2023
--------------------------------------------------------------------------------
Index   v-sweep         rds             
--------------------------------------------------------------------------------
0	0.000000e+00	2.117199e+03	
1	-5.00000e-02	2.182184e+03	
2	-1.00000e-01	2.250872e+03	
3	-1.50000e-01	2.323590e+03	
4	-2.00000e-01	2.400698e+03	
5	-2.50000e-01	2.482608e+03	
6	-3.00000e-01	2.569778e+03	
7	-3.50000e-01	2.662731e+03	
8	-4.00000e-01	2.762060e+03	
9	-4.50000e-01	2.868442e+03	
10	-5.00000e-01	2.982652e+03	
11	-5.50000e-01	3.105585e+03	
12	-6.00000e-01	3.238275e+03	
13	-6.50000e-01	3.381929e+03	
14	-7.00000e-01	3.537957e+03	
15	-7.50000e-01	3.708024e+03	
16	-8.00000e-01	3.894106e+03	
17	-8.50000e-01	4.098563e+03	
18	-9.00000e-01	4.324244e+03	
19	-9.50000e-01	4.574612e+03	
20	-1.00000e+00	4.853919e+03	
21	-1.05000e+00	5.167440e+03	
22	-1.10000e+00	5.521794e+03	
23	-1.15000e+00	5.925389e+03	
24	-1.20000e+00	6.389044e+03	
25	-1.25000e+00	6.926872e+03	
26	-1.30000e+00	7.557551e+03	
27	-1.35000e+00	8.306137e+03	
28	-1.40000e+00	9.206624e+03	
29	-1.45000e+00	1.030540e+04	
30	-1.50000e+00	1.166539e+04	
31	-1.55000e+00	1.336928e+04	
32	-1.60000e+00	1.551700e+04	
33	-1.65000e+00	1.820676e+04	
34	-1.70000e+00	2.148783e+04	
35	-1.75000e+00	2.529631e+04	
36	-1.80000e+00	2.943499e+04	
37	-1.85000e+00	3.365031e+04	
38	-1.90000e+00	3.774742e+04	
39	-1.95000e+00	4.163875e+04	
40	-2.00000e+00	4.531789e+04	
41	-2.05000e+00	4.881514e+04	
42	-2.10000e+00	5.216839e+04	
43	-2.15000e+00	5.541096e+04	
44	-2.20000e+00	5.856871e+04	
45	-2.25000e+00	6.166068e+04	
46	-2.30000e+00	6.470058e+04	
47	-2.35000e+00	6.769828e+04	
48	-2.40000e+00	7.066092e+04	
49	-2.45000e+00	7.359368e+04	
50	-2.50000e+00	7.650041e+04	
51	-2.55000e+00	7.938398e+04	
52	-2.60000e+00	8.224656e+04	
53	-2.65000e+00	8.508982e+04	
54	-2.70000e+00	8.791507e+04	

Index   v-sweep         rds             
--------------------------------------------------------------------------------
55	-2.75000e+00	9.072334e+04	
56	-2.80000e+00	9.351544e+04	
57	-2.85000e+00	9.629206e+04	
58	-2.90000e+00	9.905373e+04	
59	-2.95000e+00	1.018009e+05	
60	-3.00000e+00	1.045340e+05	
61	-3.05000e+00	1.072533e+05	
62	-3.10000e+00	1.099590e+05	
63	-3.15000e+00	1.126515e+05	
64	-3.20000e+00	1.153308e+05	
65	-3.25000e+00	1.179970e+05	
66	-3.30000e+00	1.206500e+05	
Reset re-loads circuit ***************************

Circuit: ***************************

Doing analysis at TEMP = 125.000000 and TNOM = 125.000000


No. of Data Rows : 67
                          ***************************
                          DC transfer characteristic  Mon Jan  9 13:58:26  2023
--------------------------------------------------------------------------------
Index   v-sweep         rds             
--------------------------------------------------------------------------------
0	0.000000e+00	1.837852e+03	
1	-5.00000e-02	1.883668e+03	
2	-1.00000e-01	1.931563e+03	
3	-1.50000e-01	1.981682e+03	
4	-2.00000e-01	2.034183e+03	
5	-2.50000e-01	2.089238e+03	
6	-3.00000e-01	2.147038e+03	
7	-3.50000e-01	2.207793e+03	
8	-4.00000e-01	2.271733e+03	
9	-4.50000e-01	2.339114e+03	
10	-5.00000e-01	2.410222e+03	
11	-5.50000e-01	2.485372e+03	
12	-6.00000e-01	2.564918e+03	
13	-6.50000e-01	2.649256e+03	
14	-7.00000e-01	2.738829e+03	
15	-7.50000e-01	2.834140e+03	
16	-8.00000e-01	2.935755e+03	
17	-8.50000e-01	3.044320e+03	
18	-9.00000e-01	3.160569e+03	
19	-9.50000e-01	3.285344e+03	
20	-1.00000e+00	3.419617e+03	
21	-1.05000e+00	3.564508e+03	
22	-1.10000e+00	3.721323e+03	
23	-1.15000e+00	3.891589e+03	
24	-1.20000e+00	4.077105e+03	
25	-1.25000e+00	4.280002e+03	
26	-1.30000e+00	4.502823e+03	
27	-1.35000e+00	4.748627e+03	
28	-1.40000e+00	5.021125e+03	
29	-1.45000e+00	5.324854e+03	
30	-1.50000e+00	5.665419e+03	
31	-1.55000e+00	6.049806e+03	
32	-1.60000e+00	6.486811e+03	
33	-1.65000e+00	6.987622e+03	
34	-1.70000e+00	7.566593e+03	
35	-1.75000e+00	8.242267e+03	
36	-1.80000e+00	9.038655e+03	
37	-1.85000e+00	9.986638e+03	
38	-1.90000e+00	1.112501e+04	
39	-1.95000e+00	1.249982e+04	
40	-2.00000e+00	1.415931e+04	
41	-2.05000e+00	1.614054e+04	
42	-2.10000e+00	1.844688e+04	
43	-2.15000e+00	2.102664e+04	
44	-2.20000e+00	2.377558e+04	
45	-2.25000e+00	2.657285e+04	
46	-2.30000e+00	2.932491e+04	
47	-2.35000e+00	3.198416e+04	
48	-2.40000e+00	3.454026e+04	
49	-2.45000e+00	3.700265e+04	
50	-2.50000e+00	3.938724e+04	
51	-2.55000e+00	4.170971e+04	
52	-2.60000e+00	4.398313e+04	
53	-2.65000e+00	4.621765e+04	
54	-2.70000e+00	4.842084e+04	

Index   v-sweep         rds             
--------------------------------------------------------------------------------
55	-2.75000e+00	5.059835e+04	
56	-2.80000e+00	5.275433e+04	
57	-2.85000e+00	5.489187e+04	
58	-2.90000e+00	5.701329e+04	
59	-2.95000e+00	5.912034e+04	
60	-3.00000e+00	6.121435e+04	
61	-3.05000e+00	6.329636e+04	
62	-3.10000e+00	6.536718e+04	
63	-3.15000e+00	6.742745e+04	
64	-3.20000e+00	6.947768e+04	
65	-3.25000e+00	7.151829e+04	
66	-3.30000e+00	7.354962e+04	
Reset re-loads circuit ***************************

Circuit: ***************************

Note: No ".plot", ".print", or ".fourier" lines; no simulations run
