
Note: Compatibility modes selected: hs

Warning: m=xx on .subckt line will override multiplier m hierarchy!


Circuit: ***************************

Doing analysis at TEMP = 25.000000 and TNOM = 25.000000


No. of Data Rows : 67
                          ***************************
                          DC transfer characteristic  Mon Jan  9 13:58:25  2023
--------------------------------------------------------------------------------
Index   v-sweep         rds             
--------------------------------------------------------------------------------
0	0.000000e+00	1.354174e+05	
1	-5.00000e-02	2.080558e+05	
2	-1.00000e-01	4.049020e+05	
3	-1.50000e-01	1.091321e+06	
4	-2.00000e-01	2.547845e+06	
5	-2.50000e-01	3.712317e+06	
6	-3.00000e-01	4.292547e+06	
7	-3.50000e-01	4.592179e+06	
8	-4.00000e-01	4.774227e+06	
9	-4.50000e-01	4.900885e+06	
10	-5.00000e-01	4.997071e+06	
11	-5.50000e-01	5.074003e+06	
12	-6.00000e-01	5.137386e+06	
13	-6.50000e-01	5.190464e+06	
14	-7.00000e-01	5.235274e+06	
15	-7.50000e-01	5.273205e+06	
16	-8.00000e-01	5.305271e+06	
17	-8.50000e-01	5.332251e+06	
18	-9.00000e-01	5.354764e+06	
19	-9.50000e-01	5.373322e+06	
20	-1.00000e+00	5.388355e+06	
21	-1.05000e+00	5.400229e+06	
22	-1.10000e+00	5.409262e+06	
23	-1.15000e+00	5.415732e+06	
24	-1.20000e+00	5.419883e+06	
25	-1.25000e+00	5.421932e+06	
26	-1.30000e+00	5.422071e+06	
27	-1.35000e+00	5.420473e+06	
28	-1.40000e+00	5.417294e+06	
29	-1.45000e+00	5.412673e+06	
30	-1.50000e+00	5.406736e+06	
31	-1.55000e+00	5.399597e+06	
32	-1.60000e+00	5.391359e+06	
33	-1.65000e+00	5.382117e+06	
34	-1.70000e+00	5.371954e+06	
35	-1.75000e+00	5.360947e+06	
36	-1.80000e+00	5.349166e+06	
37	-1.85000e+00	5.336670e+06	
38	-1.90000e+00	5.323515e+06	
39	-1.95000e+00	5.309745e+06	
40	-2.00000e+00	5.295398e+06	
41	-2.05000e+00	5.280503e+06	
42	-2.10000e+00	5.265081e+06	
43	-2.15000e+00	5.249139e+06	
44	-2.20000e+00	5.232678e+06	
45	-2.25000e+00	5.215681e+06	
46	-2.30000e+00	5.198121e+06	
47	-2.35000e+00	5.179955e+06	
48	-2.40000e+00	5.161124e+06	
49	-2.45000e+00	5.141551e+06	
50	-2.50000e+00	5.121141e+06	
51	-2.55000e+00	5.099780e+06	
52	-2.60000e+00	5.077333e+06	
53	-2.65000e+00	5.053648e+06	
54	-2.70000e+00	5.028548e+06	

Index   v-sweep         rds             
--------------------------------------------------------------------------------
55	-2.75000e+00	5.001839e+06	
56	-2.80000e+00	4.973309e+06	
57	-2.85000e+00	4.942728e+06	
58	-2.90000e+00	4.909850e+06	
59	-2.95000e+00	4.874419e+06	
60	-3.00000e+00	4.836171e+06	
61	-3.05000e+00	4.794838e+06	
62	-3.10000e+00	4.750154e+06	
63	-3.15000e+00	4.701861e+06	
64	-3.20000e+00	4.649716e+06	
65	-3.25000e+00	4.593498e+06	
66	-3.30000e+00	4.533015e+06	
Reset re-loads circuit ***************************

Circuit: ***************************

Doing analysis at TEMP = 25.000000 and TNOM = 25.000000


No. of Data Rows : 67
                          ***************************
                          DC transfer characteristic  Mon Jan  9 13:58:25  2023
--------------------------------------------------------------------------------
Index   v-sweep         rds             
--------------------------------------------------------------------------------
0	0.000000e+00	2.678883e+04	
1	-5.00000e-02	2.949440e+04	
2	-1.00000e-01	3.274899e+04	
3	-1.50000e-01	3.673679e+04	
4	-2.00000e-01	4.173339e+04	
5	-2.50000e-01	4.816857e+04	
6	-3.00000e-01	5.674544e+04	
7	-3.50000e-01	6.867701e+04	
8	-4.00000e-01	8.616241e+04	
9	-4.50000e-01	1.132510e+05	
10	-5.00000e-01	1.565622e+05	
11	-5.50000e-01	2.216964e+05	
12	-6.00000e-01	3.006628e+05	
13	-6.50000e-01	3.725611e+05	
14	-7.00000e-01	4.272492e+05	
15	-7.50000e-01	4.679112e+05	
16	-8.00000e-01	4.999236e+05	
17	-8.50000e-01	5.268342e+05	
18	-9.00000e-01	5.505868e+05	
19	-9.50000e-01	5.722226e+05	
20	-1.00000e+00	5.923179e+05	
21	-1.05000e+00	6.112095e+05	
22	-1.10000e+00	6.291060e+05	
23	-1.15000e+00	6.461451e+05	
24	-1.20000e+00	6.624229e+05	
25	-1.25000e+00	6.780108e+05	
26	-1.30000e+00	6.929640e+05	
27	-1.35000e+00	7.073270e+05	
28	-1.40000e+00	7.211375e+05	
29	-1.45000e+00	7.344274e+05	
30	-1.50000e+00	7.472253e+05	
31	-1.55000e+00	7.595563e+05	
32	-1.60000e+00	7.714435e+05	
33	-1.65000e+00	7.829079e+05	
34	-1.70000e+00	7.939689e+05	
35	-1.75000e+00	8.046445e+05	
36	-1.80000e+00	8.149515e+05	
37	-1.85000e+00	8.249056e+05	
38	-1.90000e+00	8.345216e+05	
39	-1.95000e+00	8.438134e+05	
40	-2.00000e+00	8.527941e+05	
41	-2.05000e+00	8.614757e+05	
42	-2.10000e+00	8.698697e+05	
43	-2.15000e+00	8.779866e+05	
44	-2.20000e+00	8.858358e+05	
45	-2.25000e+00	8.934258e+05	
46	-2.30000e+00	9.007634e+05	
47	-2.35000e+00	9.078540e+05	
48	-2.40000e+00	9.147008e+05	
49	-2.45000e+00	9.213047e+05	
50	-2.50000e+00	9.276633e+05	
51	-2.55000e+00	9.337707e+05	
52	-2.60000e+00	9.396165e+05	
53	-2.65000e+00	9.451853e+05	
54	-2.70000e+00	9.504555e+05	

Index   v-sweep         rds             
--------------------------------------------------------------------------------
55	-2.75000e+00	9.553989e+05	
56	-2.80000e+00	9.599794e+05	
57	-2.85000e+00	9.641524e+05	
58	-2.90000e+00	9.678643e+05	
59	-2.95000e+00	9.710513e+05	
60	-3.00000e+00	9.736397e+05	
61	-3.05000e+00	9.755453e+05	
62	-3.10000e+00	9.766739e+05	
63	-3.15000e+00	9.769218e+05	
64	-3.20000e+00	9.761771e+05	
65	-3.25000e+00	9.743214e+05	
66	-3.30000e+00	9.712326e+05	
Reset re-loads circuit ***************************

Circuit: ***************************

Doing analysis at TEMP = 25.000000 and TNOM = 25.000000


No. of Data Rows : 67
                          ***************************
                          DC transfer characteristic  Mon Jan  9 13:58:25  2023
--------------------------------------------------------------------------------
Index   v-sweep         rds             
--------------------------------------------------------------------------------
0	0.000000e+00	1.606077e+04	
1	-5.00000e-02	1.697650e+04	
2	-1.00000e-01	1.798859e+04	
3	-1.50000e-01	1.911298e+04	
4	-2.00000e-01	2.036927e+04	
5	-2.50000e-01	2.178193e+04	
6	-3.00000e-01	2.338181e+04	
7	-3.50000e-01	2.520840e+04	
8	-4.00000e-01	2.731302e+04	
9	-4.50000e-01	2.976350e+04	
10	-5.00000e-01	3.265119e+04	
11	-5.50000e-01	3.610175e+04	
12	-6.00000e-01	4.029178e+04	
13	-6.50000e-01	4.547501e+04	
14	-7.00000e-01	5.202242e+04	
15	-7.50000e-01	6.047872e+04	
16	-8.00000e-01	7.161777e+04	
17	-8.50000e-01	8.640059e+04	
18	-9.00000e-01	1.055531e+05	
19	-9.50000e-01	1.284905e+05	
20	-1.00000e+00	1.525616e+05	
21	-1.05000e+00	1.746118e+05	
22	-1.10000e+00	1.932776e+05	
23	-1.15000e+00	2.089258e+05	
24	-1.20000e+00	2.224235e+05	
25	-1.25000e+00	2.344877e+05	
26	-1.30000e+00	2.455852e+05	
27	-1.35000e+00	2.559996e+05	
28	-1.40000e+00	2.659016e+05	
29	-1.45000e+00	2.753966e+05	
30	-1.50000e+00	2.845516e+05	
31	-1.55000e+00	2.934112e+05	
32	-1.60000e+00	3.020065e+05	
33	-1.65000e+00	3.103599e+05	
34	-1.70000e+00	3.184885e+05	
35	-1.75000e+00	3.264057e+05	
36	-1.80000e+00	3.341226e+05	
37	-1.85000e+00	3.416484e+05	
38	-1.90000e+00	3.489912e+05	
39	-1.95000e+00	3.561581e+05	
40	-2.00000e+00	3.631555e+05	
41	-2.05000e+00	3.699894e+05	
42	-2.10000e+00	3.766651e+05	
43	-2.15000e+00	3.831877e+05	
44	-2.20000e+00	3.895621e+05	
45	-2.25000e+00	3.957926e+05	
46	-2.30000e+00	4.018837e+05	
47	-2.35000e+00	4.078392e+05	
48	-2.40000e+00	4.136630e+05	
49	-2.45000e+00	4.193588e+05	
50	-2.50000e+00	4.249297e+05	
51	-2.55000e+00	4.303788e+05	
52	-2.60000e+00	4.357087e+05	
53	-2.65000e+00	4.409212e+05	
54	-2.70000e+00	4.460178e+05	

Index   v-sweep         rds             
--------------------------------------------------------------------------------
55	-2.75000e+00	4.509987e+05	
56	-2.80000e+00	4.558631e+05	
57	-2.85000e+00	4.606084e+05	
58	-2.90000e+00	4.652302e+05	
59	-2.95000e+00	4.697215e+05	
60	-3.00000e+00	4.740724e+05	
61	-3.05000e+00	4.782694e+05	
62	-3.10000e+00	4.822945e+05	
63	-3.15000e+00	4.861251e+05	
64	-3.20000e+00	4.897328e+05	
65	-3.25000e+00	4.930833e+05	
66	-3.30000e+00	4.961352e+05	
Reset re-loads circuit ***************************

Circuit: ***************************

Doing analysis at TEMP = 25.000000 and TNOM = 25.000000


No. of Data Rows : 67
                          ***************************
                          DC transfer characteristic  Mon Jan  9 13:58:25  2023
--------------------------------------------------------------------------------
Index   v-sweep         rds             
--------------------------------------------------------------------------------
0	0.000000e+00	1.246236e+04	
1	-5.00000e-02	1.297512e+04	
2	-1.00000e-01	1.352525e+04	
3	-1.50000e-01	1.411696e+04	
4	-2.00000e-01	1.475507e+04	
5	-2.50000e-01	1.544523e+04	
6	-3.00000e-01	1.619398e+04	
7	-3.50000e-01	1.700907e+04	
8	-4.00000e-01	1.789961e+04	
9	-4.50000e-01	1.887650e+04	
10	-5.00000e-01	1.995282e+04	
11	-5.50000e-01	2.114440e+04	
12	-6.00000e-01	2.247059e+04	
13	-6.50000e-01	2.395531e+04	
14	-7.00000e-01	2.562837e+04	
15	-7.50000e-01	2.752744e+04	
16	-8.00000e-01	2.970063e+04	
17	-8.50000e-01	3.221023e+04	
18	-9.00000e-01	3.513784e+04	
19	-9.50000e-01	3.859150e+04	
20	-1.00000e+00	4.271510e+04	
21	-1.05000e+00	4.769923e+04	
22	-1.10000e+00	5.378860e+04	
23	-1.15000e+00	6.127011e+04	
24	-1.20000e+00	7.040231e+04	
25	-1.25000e+00	8.123098e+04	
26	-1.30000e+00	9.332366e+04	
27	-1.35000e+00	1.057239e+05	
28	-1.40000e+00	1.174169e+05	
29	-1.45000e+00	1.278849e+05	
30	-1.50000e+00	1.371467e+05	
31	-1.55000e+00	1.454582e+05	
32	-1.60000e+00	1.530837e+05	
33	-1.65000e+00	1.602212e+05	
34	-1.70000e+00	1.670028e+05	
35	-1.75000e+00	1.735133e+05	
36	-1.80000e+00	1.798074e+05	
37	-1.85000e+00	1.859207e+05	
38	-1.90000e+00	1.918771e+05	
39	-1.95000e+00	1.976932e+05	
40	-2.00000e+00	2.033809e+05	
41	-2.05000e+00	2.089491e+05	
42	-2.10000e+00	2.144048e+05	
43	-2.15000e+00	2.197533e+05	
44	-2.20000e+00	2.249992e+05	
45	-2.25000e+00	2.301463e+05	
46	-2.30000e+00	2.351981e+05	
47	-2.35000e+00	2.401574e+05	
48	-2.40000e+00	2.450269e+05	
49	-2.45000e+00	2.498093e+05	
50	-2.50000e+00	2.545066e+05	
51	-2.55000e+00	2.591211e+05	
52	-2.60000e+00	2.636549e+05	
53	-2.65000e+00	2.681098e+05	
54	-2.70000e+00	2.724876e+05	

Index   v-sweep         rds             
--------------------------------------------------------------------------------
55	-2.75000e+00	2.767901e+05	
56	-2.80000e+00	2.810189e+05	
57	-2.85000e+00	2.851754e+05	
58	-2.90000e+00	2.892608e+05	
59	-2.95000e+00	2.932762e+05	
60	-3.00000e+00	2.972221e+05	
61	-3.05000e+00	3.010986e+05	
62	-3.10000e+00	3.049052e+05	
63	-3.15000e+00	3.086403e+05	
64	-3.20000e+00	3.123013e+05	
65	-3.25000e+00	3.158840e+05	
66	-3.30000e+00	3.193822e+05	
Reset re-loads circuit ***************************

Circuit: ***************************

Doing analysis at TEMP = 25.000000 and TNOM = 25.000000


No. of Data Rows : 67
                          ***************************
                          DC transfer characteristic  Mon Jan  9 13:58:25  2023
--------------------------------------------------------------------------------
Index   v-sweep         rds             
--------------------------------------------------------------------------------
0	0.000000e+00	1.032770e+04	
1	-5.00000e-02	1.065784e+04	
2	-1.00000e-01	1.100613e+04	
3	-1.50000e-01	1.137406e+04	
4	-2.00000e-01	1.176333e+04	
5	-2.50000e-01	1.217583e+04	
6	-3.00000e-01	1.261367e+04	
7	-3.50000e-01	1.307922e+04	
8	-4.00000e-01	1.357518e+04	
9	-4.50000e-01	1.410458e+04	
10	-5.00000e-01	1.467088e+04	
11	-5.50000e-01	1.527804e+04	
12	-6.00000e-01	1.593060e+04	
13	-6.50000e-01	1.663380e+04	
14	-7.00000e-01	1.739370e+04	
15	-7.50000e-01	1.821739e+04	
16	-8.00000e-01	1.911314e+04	
17	-8.50000e-01	2.009075e+04	
18	-9.00000e-01	2.116184e+04	
19	-9.50000e-01	2.234030e+04	
20	-1.00000e+00	2.364288e+04	
21	-1.05000e+00	2.508990e+04	
22	-1.10000e+00	2.670625e+04	
23	-1.15000e+00	2.852263e+04	
24	-1.20000e+00	3.057717e+04	
25	-1.25000e+00	3.291750e+04	
26	-1.30000e+00	3.560324e+04	
27	-1.35000e+00	3.870863e+04	
28	-1.40000e+00	4.232422e+04	
29	-1.45000e+00	4.655512e+04	
30	-1.50000e+00	5.150948e+04	
31	-1.55000e+00	5.726641e+04	
32	-1.60000e+00	6.381367e+04	
33	-1.65000e+00	7.097182e+04	
34	-1.70000e+00	7.837964e+04	
35	-1.75000e+00	8.561788e+04	
36	-1.80000e+00	9.239695e+04	
37	-1.85000e+00	9.863267e+04	
38	-1.90000e+00	1.043814e+05	
39	-1.95000e+00	1.097458e+05	
40	-2.00000e+00	1.148210e+05	
41	-2.05000e+00	1.196786e+05	
42	-2.10000e+00	1.243685e+05	
43	-2.15000e+00	1.289243e+05	
44	-2.20000e+00	1.333684e+05	
45	-2.25000e+00	1.377162e+05	
46	-2.30000e+00	1.419783e+05	
47	-2.35000e+00	1.461624e+05	
48	-2.40000e+00	1.502739e+05	
49	-2.45000e+00	1.543172e+05	
50	-2.50000e+00	1.582955e+05	
51	-2.55000e+00	1.622115e+05	
52	-2.60000e+00	1.660674e+05	
53	-2.65000e+00	1.698651e+05	
54	-2.70000e+00	1.736061e+05	

Index   v-sweep         rds             
--------------------------------------------------------------------------------
55	-2.75000e+00	1.772921e+05	
56	-2.80000e+00	1.809242e+05	
57	-2.85000e+00	1.845038e+05	
58	-2.90000e+00	1.880320e+05	
59	-2.95000e+00	1.915098e+05	
60	-3.00000e+00	1.949382e+05	
61	-3.05000e+00	1.983182e+05	
62	-3.10000e+00	2.016507e+05	
63	-3.15000e+00	2.049365e+05	
64	-3.20000e+00	2.081763e+05	
65	-3.25000e+00	2.113707e+05	
66	-3.30000e+00	2.145202e+05	
Reset re-loads circuit ***************************

Circuit: ***************************

Doing analysis at TEMP = 25.000000 and TNOM = 25.000000


No. of Data Rows : 67
                          ***************************
                          DC transfer characteristic  Mon Jan  9 13:58:25  2023
--------------------------------------------------------------------------------
Index   v-sweep         rds             
--------------------------------------------------------------------------------
0	0.000000e+00	9.033777e+03	
1	-5.00000e-02	9.270887e+03	
2	-1.00000e-01	9.518462e+03	
3	-1.50000e-01	9.777198e+03	
4	-2.00000e-01	1.004785e+04	
5	-2.50000e-01	1.033125e+04	
6	-3.00000e-01	1.062830e+04	
7	-3.50000e-01	1.093999e+04	
8	-4.00000e-01	1.126742e+04	
9	-4.50000e-01	1.161179e+04	
10	-5.00000e-01	1.197444e+04	
11	-5.50000e-01	1.235683e+04	
12	-6.00000e-01	1.276060e+04	
13	-6.50000e-01	1.318758e+04	
14	-7.00000e-01	1.363979e+04	
15	-7.50000e-01	1.411952e+04	
16	-8.00000e-01	1.462933e+04	
17	-8.50000e-01	1.517210e+04	
18	-9.00000e-01	1.575110e+04	
19	-9.50000e-01	1.637004e+04	
20	-1.00000e+00	1.703316e+04	
21	-1.05000e+00	1.774531e+04	
22	-1.10000e+00	1.851208e+04	
23	-1.15000e+00	1.933990e+04	
24	-1.20000e+00	2.023630e+04	
25	-1.25000e+00	2.121001e+04	
26	-1.30000e+00	2.227133e+04	
27	-1.35000e+00	2.343241e+04	
28	-1.40000e+00	2.470765e+04	
29	-1.45000e+00	2.611426e+04	
30	-1.50000e+00	2.767284e+04	
31	-1.55000e+00	2.940818e+04	
32	-1.60000e+00	3.135006e+04	
33	-1.65000e+00	3.353411e+04	
34	-1.70000e+00	3.600232e+04	
35	-1.75000e+00	3.880264e+04	
36	-1.80000e+00	4.198613e+04	
37	-1.85000e+00	4.559916e+04	
38	-1.90000e+00	4.966723e+04	
39	-1.95000e+00	5.416899e+04	
40	-2.00000e+00	5.900933e+04	
41	-2.05000e+00	6.401711e+04	
42	-2.10000e+00	6.899128e+04	
43	-2.15000e+00	7.377436e+04	
44	-2.20000e+00	7.829498e+04	
45	-2.25000e+00	8.255539e+04	
46	-2.30000e+00	8.659400e+04	
47	-2.35000e+00	9.045606e+04	
48	-2.40000e+00	9.418021e+04	
49	-2.45000e+00	9.779546e+04	
50	-2.50000e+00	1.013224e+05	
51	-2.55000e+00	1.047755e+05	
52	-2.60000e+00	1.081645e+05	
53	-2.65000e+00	1.114966e+05	
54	-2.70000e+00	1.147768e+05	

Index   v-sweep         rds             
--------------------------------------------------------------------------------
55	-2.75000e+00	1.180088e+05	
56	-2.80000e+00	1.211952e+05	
57	-2.85000e+00	1.243384e+05	
58	-2.90000e+00	1.274398e+05	
59	-2.95000e+00	1.305011e+05	
60	-3.00000e+00	1.335233e+05	
61	-3.05000e+00	1.365074e+05	
62	-3.10000e+00	1.394543e+05	
63	-3.15000e+00	1.423648e+05	
64	-3.20000e+00	1.452397e+05	
65	-3.25000e+00	1.480796e+05	
66	-3.30000e+00	1.508852e+05	
Reset re-loads circuit ***************************

Circuit: ***************************

Note: No ".plot", ".print", or ".fourier" lines; no simulations run
