
Note: Compatibility modes selected: hs

Warning: m=xx on .subckt line will override multiplier m hierarchy!


Circuit: ***************************

Doing analysis at TEMP = -40.000000 and TNOM = -40.000000


No. of Data Rows : 798
                          ***************************
                          DC transfer characteristic  Mon Jan  9 13:58:50  2023
--------------------------------------------------------------------------------
Index   v-sweep         i(vds)          
--------------------------------------------------------------------------------
0	0.000000e+00	9.868960e-23	
1	-5.00000e-02	3.567224e-07	
2	-1.00000e-01	4.462621e-07	
3	-1.50000e-01	4.623902e-07	
4	-2.00000e-01	4.681678e-07	
5	-2.50000e-01	4.717268e-07	
6	-3.00000e-01	4.744712e-07	
7	-3.50000e-01	4.767929e-07	
8	-4.00000e-01	4.788455e-07	
9	-4.50000e-01	4.807048e-07	
10	-5.00000e-01	4.824151e-07	
11	-5.50000e-01	4.840050e-07	
12	-6.00000e-01	4.854947e-07	
13	-6.50000e-01	4.868991e-07	
14	-7.00000e-01	4.882298e-07	
15	-7.50000e-01	4.894958e-07	
16	-8.00000e-01	4.907048e-07	
17	-8.50000e-01	4.918627e-07	
18	-9.00000e-01	4.929749e-07	
19	-9.50000e-01	4.940457e-07	
20	-1.00000e+00	4.950789e-07	
21	-1.05000e+00	4.960777e-07	
22	-1.10000e+00	4.970450e-07	
23	-1.15000e+00	4.979833e-07	
24	-1.20000e+00	4.988949e-07	
25	-1.25000e+00	4.997817e-07	
26	-1.30000e+00	5.006454e-07	
27	-1.35000e+00	5.014876e-07	
28	-1.40000e+00	5.023098e-07	
29	-1.45000e+00	5.031132e-07	
30	-1.50000e+00	5.038990e-07	
31	-1.55000e+00	5.046682e-07	
32	-1.60000e+00	5.054219e-07	
33	-1.65000e+00	5.061608e-07	
34	-1.70000e+00	5.068858e-07	
35	-1.75000e+00	5.075977e-07	
36	-1.80000e+00	5.082971e-07	
37	-1.85000e+00	5.089847e-07	
38	-1.90000e+00	5.096610e-07	
39	-1.95000e+00	5.103267e-07	
40	-2.00000e+00	5.109821e-07	
41	-2.05000e+00	5.116279e-07	
42	-2.10000e+00	5.122643e-07	
43	-2.15000e+00	5.128919e-07	
44	-2.20000e+00	5.135110e-07	
45	-2.25000e+00	5.141220e-07	
46	-2.30000e+00	5.147252e-07	
47	-2.35000e+00	5.153209e-07	
48	-2.40000e+00	5.159095e-07	
49	-2.45000e+00	5.164911e-07	
50	-2.50000e+00	5.170662e-07	
51	-2.55000e+00	5.176349e-07	
52	-2.60000e+00	5.181975e-07	
53	-2.65000e+00	5.187542e-07	
54	-2.70000e+00	5.193052e-07	

Index   v-sweep         i(vds)          
--------------------------------------------------------------------------------
55	-2.75000e+00	5.198508e-07	
56	-2.80000e+00	5.203911e-07	
57	-2.85000e+00	5.209263e-07	
58	-2.90000e+00	5.214567e-07	
59	-2.95000e+00	5.219824e-07	
60	-3.00000e+00	5.225036e-07	
61	-3.05000e+00	5.230206e-07	
62	-3.10000e+00	5.235335e-07	
63	-3.15000e+00	5.240425e-07	
64	-3.20000e+00	5.245478e-07	
65	-3.25000e+00	5.250496e-07	
66	-3.30000e+00	5.255483e-07	
67	-3.35000e+00	5.260439e-07	
68	-3.40000e+00	5.265369e-07	
69	-3.45000e+00	5.270275e-07	
70	-3.50000e+00	5.275160e-07	
71	-3.55000e+00	5.280028e-07	
72	-3.60000e+00	5.284883e-07	
73	-3.65000e+00	5.289729e-07	
74	-3.70000e+00	5.294571e-07	
75	-3.75000e+00	5.299413e-07	
76	-3.80000e+00	5.304262e-07	
77	-3.85000e+00	5.309125e-07	
78	-3.90000e+00	5.314008e-07	
79	-3.95000e+00	5.318919e-07	
80	-4.00000e+00	5.323866e-07	
81	-4.05000e+00	5.328859e-07	
82	-4.10000e+00	5.333907e-07	
83	-4.15000e+00	5.339023e-07	
84	-4.20000e+00	5.344218e-07	
85	-4.25000e+00	5.349506e-07	
86	-4.30000e+00	5.354900e-07	
87	-4.35000e+00	5.360416e-07	
88	-4.40000e+00	5.366072e-07	
89	-4.45000e+00	5.371884e-07	
90	-4.50000e+00	5.377872e-07	
91	-4.55000e+00	5.384057e-07	
92	-4.60000e+00	5.390462e-07	
93	-4.65000e+00	5.397109e-07	
94	-4.70000e+00	5.404025e-07	
95	-4.75000e+00	5.411236e-07	
96	-4.80000e+00	5.418772e-07	
97	-4.85000e+00	5.426662e-07	
98	-4.90000e+00	5.434939e-07	
99	-4.95000e+00	5.443637e-07	
100	-5.00000e+00	5.452791e-07	
101	-5.05000e+00	5.462440e-07	
102	-5.10000e+00	5.472624e-07	
103	-5.15000e+00	5.483384e-07	
104	-5.20000e+00	5.494765e-07	
105	-5.25000e+00	5.506811e-07	
106	-5.30000e+00	5.519572e-07	
107	-5.35000e+00	5.533098e-07	
108	-5.40000e+00	5.547440e-07	
109	-5.45000e+00	5.562653e-07	
110	-5.50000e+00	5.578795e-07	
111	-5.55000e+00	5.595923e-07	
112	-5.60000e+00	5.614099e-07	

Index   v-sweep         i(vds)          
--------------------------------------------------------------------------------
113	-5.65000e+00	5.633387e-07	
114	-5.70000e+00	5.653852e-07	
115	-5.75000e+00	5.675562e-07	
116	-5.80000e+00	5.698586e-07	
117	-5.85000e+00	5.722999e-07	
118	-5.90000e+00	5.748873e-07	
119	-5.95000e+00	5.776286e-07	
120	-6.00000e+00	5.805318e-07	
121	-6.05000e+00	5.836049e-07	
122	-6.10000e+00	5.868563e-07	
123	-6.15000e+00	5.902947e-07	
124	-6.20000e+00	5.939287e-07	
125	-6.25000e+00	5.977675e-07	
126	-6.30000e+00	6.018203e-07	
127	-6.35000e+00	6.060965e-07	
128	-6.40000e+00	6.106057e-07	
129	-6.45000e+00	6.153580e-07	
130	-6.50000e+00	6.203633e-07	
131	-6.55000e+00	6.256319e-07	
132	-6.60000e+00	6.311744e-07	
133	0.000000e+00	-9.76480e-37	
134	-5.00000e-02	8.698634e-06	
135	-1.00000e-01	1.679961e-05	
136	-1.50000e-01	2.430753e-05	
137	-2.00000e-01	3.122704e-05	
138	-2.50000e-01	3.756279e-05	
139	-3.00000e-01	4.331953e-05	
140	-3.50000e-01	4.850219e-05	
141	-4.00000e-01	5.311599e-05	
142	-4.50000e-01	5.716671e-05	
143	-5.00000e-01	6.066126e-05	
144	-5.50000e-01	6.360880e-05	
145	-6.00000e-01	6.602314e-05	
146	-6.50000e-01	6.792791e-05	
147	-7.00000e-01	6.936578e-05	
148	-7.50000e-01	7.040905e-05	
149	-8.00000e-01	7.115709e-05	
150	-8.50000e-01	7.171004e-05	
151	-9.00000e-01	7.214221e-05	
152	-9.50000e-01	7.249860e-05	
153	-1.00000e+00	7.280453e-05	
154	-1.05000e+00	7.307456e-05	
155	-1.10000e+00	7.331755e-05	
156	-1.15000e+00	7.353931e-05	
157	-1.20000e+00	7.374382e-05	
158	-1.25000e+00	7.393400e-05	
159	-1.30000e+00	7.411202e-05	
160	-1.35000e+00	7.427960e-05	
161	-1.40000e+00	7.443806e-05	
162	-1.45000e+00	7.458853e-05	
163	-1.50000e+00	7.473189e-05	
164	-1.55000e+00	7.486890e-05	
165	-1.60000e+00	7.500021e-05	
166	-1.65000e+00	7.512635e-05	
167	-1.70000e+00	7.524779e-05	
168	-1.75000e+00	7.536494e-05	
169	-1.80000e+00	7.547817e-05	
170	-1.85000e+00	7.558777e-05	

Index   v-sweep         i(vds)          
--------------------------------------------------------------------------------
171	-1.90000e+00	7.569402e-05	
172	-1.95000e+00	7.579718e-05	
173	-2.00000e+00	7.589747e-05	
174	-2.05000e+00	7.599507e-05	
175	-2.10000e+00	7.609017e-05	
176	-2.15000e+00	7.618292e-05	
177	-2.20000e+00	7.627348e-05	
178	-2.25000e+00	7.636197e-05	
179	-2.30000e+00	7.644851e-05	
180	-2.35000e+00	7.653322e-05	
181	-2.40000e+00	7.661620e-05	
182	-2.45000e+00	7.669753e-05	
183	-2.50000e+00	7.677731e-05	
184	-2.55000e+00	7.685562e-05	
185	-2.60000e+00	7.693252e-05	
186	-2.65000e+00	7.700809e-05	
187	-2.70000e+00	7.708238e-05	
188	-2.75000e+00	7.715547e-05	
189	-2.80000e+00	7.722739e-05	
190	-2.85000e+00	7.729821e-05	
191	-2.90000e+00	7.736797e-05	
192	-2.95000e+00	7.743672e-05	
193	-3.00000e+00	7.750449e-05	
194	-3.05000e+00	7.757134e-05	
195	-3.10000e+00	7.763728e-05	
196	-3.15000e+00	7.770237e-05	
197	-3.20000e+00	7.776664e-05	
198	-3.25000e+00	7.783010e-05	
199	-3.30000e+00	7.789281e-05	
200	-3.35000e+00	7.795478e-05	
201	-3.40000e+00	7.801604e-05	
202	-3.45000e+00	7.807662e-05	
203	-3.50000e+00	7.813654e-05	
204	-3.55000e+00	7.819583e-05	
205	-3.60000e+00	7.825452e-05	
206	-3.65000e+00	7.831263e-05	
207	-3.70000e+00	7.837019e-05	
208	-3.75000e+00	7.842721e-05	
209	-3.80000e+00	7.848373e-05	
210	-3.85000e+00	7.853978e-05	
211	-3.90000e+00	7.859538e-05	
212	-3.95000e+00	7.865057e-05	
213	-4.00000e+00	7.870537e-05	
214	-4.05000e+00	7.875983e-05	
215	-4.10000e+00	7.881398e-05	
216	-4.15000e+00	7.886786e-05	
217	-4.20000e+00	7.892153e-05	
218	-4.25000e+00	7.897504e-05	
219	-4.30000e+00	7.902844e-05	
220	-4.35000e+00	7.908179e-05	
221	-4.40000e+00	7.913518e-05	
222	-4.45000e+00	7.918867e-05	
223	-4.50000e+00	7.924236e-05	
224	-4.55000e+00	7.929634e-05	
225	-4.60000e+00	7.935072e-05	
226	-4.65000e+00	7.940561e-05	
227	-4.70000e+00	7.946114e-05	
228	-4.75000e+00	7.951745e-05	

Index   v-sweep         i(vds)          
--------------------------------------------------------------------------------
229	-4.80000e+00	7.957471e-05	
230	-4.85000e+00	7.963307e-05	
231	-4.90000e+00	7.969271e-05	
232	-4.95000e+00	7.975385e-05	
233	-5.00000e+00	7.981669e-05	
234	-5.05000e+00	7.988147e-05	
235	-5.10000e+00	7.994843e-05	
236	-5.15000e+00	8.001786e-05	
237	-5.20000e+00	8.009005e-05	
238	-5.25000e+00	8.016530e-05	
239	-5.30000e+00	8.024395e-05	
240	-5.35000e+00	8.032636e-05	
241	-5.40000e+00	8.041291e-05	
242	-5.45000e+00	8.050401e-05	
243	-5.50000e+00	8.060009e-05	
244	-5.55000e+00	8.070159e-05	
245	-5.60000e+00	8.080902e-05	
246	-5.65000e+00	8.092286e-05	
247	-5.70000e+00	8.104367e-05	
248	-5.75000e+00	8.117201e-05	
249	-5.80000e+00	8.130847e-05	
250	-5.85000e+00	8.145368e-05	
251	-5.90000e+00	8.160829e-05	
252	-5.95000e+00	8.177297e-05	
253	-6.00000e+00	8.194846e-05	
254	-6.05000e+00	8.213549e-05	
255	-6.10000e+00	8.233484e-05	
256	-6.15000e+00	8.254731e-05	
257	-6.20000e+00	8.277375e-05	
258	-6.25000e+00	8.301502e-05	
259	-6.30000e+00	8.327204e-05	
260	-6.35000e+00	8.354573e-05	
261	-6.40000e+00	8.383707e-05	
262	-6.45000e+00	8.414705e-05	
263	-6.50000e+00	8.447670e-05	
264	-6.55000e+00	8.482710e-05	
265	-6.60000e+00	8.519934e-05	
266	0.000000e+00	5.330151e-36	
267	-5.00000e-02	1.506535e-05	
268	-1.00000e-01	2.957972e-05	
269	-1.50000e-01	4.354661e-05	
270	-2.00000e-01	5.696951e-05	
271	-2.50000e-01	6.985187e-05	
272	-3.00000e-01	8.219716e-05	
273	-3.50000e-01	9.400880e-05	
274	-4.00000e-01	1.052902e-04	
275	-4.50000e-01	1.160448e-04	
276	-5.00000e-01	1.262760e-04	
277	-5.50000e-01	1.359871e-04	
278	-6.00000e-01	1.451817e-04	
279	-6.50000e-01	1.538630e-04	
280	-7.00000e-01	1.620344e-04	
281	-7.50000e-01	1.696995e-04	
282	-8.00000e-01	1.768617e-04	
283	-8.50000e-01	1.835245e-04	
284	-9.00000e-01	1.896917e-04	
285	-9.50000e-01	1.953671e-04	
286	-1.00000e+00	2.005549e-04	

Index   v-sweep         i(vds)          
--------------------------------------------------------------------------------
287	-1.05000e+00	2.052599e-04	
288	-1.10000e+00	2.094877e-04	
289	-1.15000e+00	2.132456e-04	
290	-1.20000e+00	2.165437e-04	
291	-1.25000e+00	2.193967e-04	
292	-1.30000e+00	2.218273e-04	
293	-1.35000e+00	2.238697e-04	
294	-1.40000e+00	2.255715e-04	
295	-1.45000e+00	2.269909e-04	
296	-1.50000e+00	2.281873e-04	
297	-1.55000e+00	2.292126e-04	
298	-1.60000e+00	2.301075e-04	
299	-1.65000e+00	2.309017e-04	
300	-1.70000e+00	2.316165e-04	
301	-1.75000e+00	2.322676e-04	
302	-1.80000e+00	2.328663e-04	
303	-1.85000e+00	2.334213e-04	
304	-1.90000e+00	2.339392e-04	
305	-1.95000e+00	2.344253e-04	
306	-2.00000e+00	2.348838e-04	
307	-2.05000e+00	2.353181e-04	
308	-2.10000e+00	2.357310e-04	
309	-2.15000e+00	2.361249e-04	
310	-2.20000e+00	2.365017e-04	
311	-2.25000e+00	2.368631e-04	
312	-2.30000e+00	2.372106e-04	
313	-2.35000e+00	2.375455e-04	
314	-2.40000e+00	2.378687e-04	
315	-2.45000e+00	2.381813e-04	
316	-2.50000e+00	2.384841e-04	
317	-2.55000e+00	2.387779e-04	
318	-2.60000e+00	2.390633e-04	
319	-2.65000e+00	2.393409e-04	
320	-2.70000e+00	2.396113e-04	
321	-2.75000e+00	2.398748e-04	
322	-2.80000e+00	2.401321e-04	
323	-2.85000e+00	2.403834e-04	
324	-2.90000e+00	2.406291e-04	
325	-2.95000e+00	2.408695e-04	
326	-3.00000e+00	2.411049e-04	
327	-3.05000e+00	2.413357e-04	
328	-3.10000e+00	2.415620e-04	
329	-3.15000e+00	2.417842e-04	
330	-3.20000e+00	2.420023e-04	
331	-3.25000e+00	2.422166e-04	
332	-3.30000e+00	2.424273e-04	
333	-3.35000e+00	2.426346e-04	
334	-3.40000e+00	2.428386e-04	
335	-3.45000e+00	2.430395e-04	
336	-3.50000e+00	2.432374e-04	
337	-3.55000e+00	2.434324e-04	
338	-3.60000e+00	2.436247e-04	
339	-3.65000e+00	2.438143e-04	
340	-3.70000e+00	2.440015e-04	
341	-3.75000e+00	2.441862e-04	
342	-3.80000e+00	2.443686e-04	
343	-3.85000e+00	2.445487e-04	
344	-3.90000e+00	2.447268e-04	

Index   v-sweep         i(vds)          
--------------------------------------------------------------------------------
345	-3.95000e+00	2.449027e-04	
346	-4.00000e+00	2.450767e-04	
347	-4.05000e+00	2.452487e-04	
348	-4.10000e+00	2.454189e-04	
349	-4.15000e+00	2.455874e-04	
350	-4.20000e+00	2.457542e-04	
351	-4.25000e+00	2.459193e-04	
352	-4.30000e+00	2.460829e-04	
353	-4.35000e+00	2.462450e-04	
354	-4.40000e+00	2.464057e-04	
355	-4.45000e+00	2.465651e-04	
356	-4.50000e+00	2.467232e-04	
357	-4.55000e+00	2.468801e-04	
358	-4.60000e+00	2.470360e-04	
359	-4.65000e+00	2.471909e-04	
360	-4.70000e+00	2.473449e-04	
361	-4.75000e+00	2.474982e-04	
362	-4.80000e+00	2.476509e-04	
363	-4.85000e+00	2.478031e-04	
364	-4.90000e+00	2.479550e-04	
365	-4.95000e+00	2.481068e-04	
366	-5.00000e+00	2.482586e-04	
367	-5.05000e+00	2.484108e-04	
368	-5.10000e+00	2.485635e-04	
369	-5.15000e+00	2.487171e-04	
370	-5.20000e+00	2.488717e-04	
371	-5.25000e+00	2.490279e-04	
372	-5.30000e+00	2.491858e-04	
373	-5.35000e+00	2.493461e-04	
374	-5.40000e+00	2.495090e-04	
375	-5.45000e+00	2.496750e-04	
376	-5.50000e+00	2.498448e-04	
377	-5.55000e+00	2.500189e-04	
378	-5.60000e+00	2.501979e-04	
379	-5.65000e+00	2.503825e-04	
380	-5.70000e+00	2.505734e-04	
381	-5.75000e+00	2.507715e-04	
382	-5.80000e+00	2.509776e-04	
383	-5.85000e+00	2.511926e-04	
384	-5.90000e+00	2.514176e-04	
385	-5.95000e+00	2.516535e-04	
386	-6.00000e+00	2.519015e-04	
387	-6.05000e+00	2.521628e-04	
388	-6.10000e+00	2.524388e-04	
389	-6.15000e+00	2.527306e-04	
390	-6.20000e+00	2.530399e-04	
391	-6.25000e+00	2.533681e-04	
392	-6.30000e+00	2.537167e-04	
393	-6.35000e+00	2.540876e-04	
394	-6.40000e+00	2.544825e-04	
395	-6.45000e+00	2.549032e-04	
396	-6.50000e+00	2.553518e-04	
397	-6.55000e+00	2.558302e-04	
398	-6.60000e+00	2.563406e-04	
399	0.000000e+00	4.130150e-36	
400	-5.00000e-02	1.985919e-05	
401	-1.00000e-01	3.921502e-05	
402	-1.50000e-01	5.807027e-05	

Index   v-sweep         i(vds)          
--------------------------------------------------------------------------------
403	-2.00000e-01	7.642771e-05	
404	-2.50000e-01	9.429010e-05	
405	-3.00000e-01	1.116602e-04	
406	-3.50000e-01	1.285407e-04	
407	-4.00000e-01	1.449343e-04	
408	-4.50000e-01	1.608438e-04	
409	-5.00000e-01	1.762718e-04	
410	-5.50000e-01	1.912210e-04	
411	-6.00000e-01	2.056941e-04	
412	-6.50000e-01	2.196938e-04	
413	-7.00000e-01	2.332227e-04	
414	-7.50000e-01	2.462834e-04	
415	-8.00000e-01	2.588785e-04	
416	-8.50000e-01	2.710108e-04	
417	-9.00000e-01	2.826827e-04	
418	-9.50000e-01	2.938969e-04	
419	-1.00000e+00	3.046560e-04	
420	-1.05000e+00	3.149626e-04	
421	-1.10000e+00	3.248192e-04	
422	-1.15000e+00	3.342285e-04	
423	-1.20000e+00	3.431931e-04	
424	-1.25000e+00	3.517155e-04	
425	-1.30000e+00	3.597984e-04	
426	-1.35000e+00	3.674444e-04	
427	-1.40000e+00	3.746563e-04	
428	-1.45000e+00	3.814369e-04	
429	-1.50000e+00	3.877890e-04	
430	-1.55000e+00	3.937157e-04	
431	-1.60000e+00	3.992204e-04	
432	-1.65000e+00	4.043069e-04	
433	-1.70000e+00	4.089795e-04	
434	-1.75000e+00	4.132438e-04	
435	-1.80000e+00	4.171071e-04	
436	-1.85000e+00	4.205796e-04	
437	-1.90000e+00	4.236756e-04	
438	-1.95000e+00	4.264158e-04	
439	-2.00000e+00	4.288282e-04	
440	-2.05000e+00	4.309482e-04	
441	-2.10000e+00	4.328152e-04	
442	-2.15000e+00	4.344690e-04	
443	-2.20000e+00	4.359458e-04	
444	-2.25000e+00	4.372766e-04	
445	-2.30000e+00	4.384864e-04	
446	-2.35000e+00	4.395955e-04	
447	-2.40000e+00	4.406199e-04	
448	-2.45000e+00	4.415723e-04	
449	-2.50000e+00	4.424629e-04	
450	-2.55000e+00	4.433001e-04	
451	-2.60000e+00	4.440906e-04	
452	-2.65000e+00	4.448400e-04	
453	-2.70000e+00	4.455530e-04	
454	-2.75000e+00	4.462335e-04	
455	-2.80000e+00	4.468848e-04	
456	-2.85000e+00	4.475099e-04	
457	-2.90000e+00	4.481111e-04	
458	-2.95000e+00	4.486906e-04	
459	-3.00000e+00	4.492503e-04	
460	-3.05000e+00	4.497918e-04	

Index   v-sweep         i(vds)          
--------------------------------------------------------------------------------
461	-3.10000e+00	4.503165e-04	
462	-3.15000e+00	4.508258e-04	
463	-3.20000e+00	4.513207e-04	
464	-3.25000e+00	4.518022e-04	
465	-3.30000e+00	4.522714e-04	
466	-3.35000e+00	4.527289e-04	
467	-3.40000e+00	4.531756e-04	
468	-3.45000e+00	4.536121e-04	
469	-3.50000e+00	4.540391e-04	
470	-3.55000e+00	4.544571e-04	
471	-3.60000e+00	4.548665e-04	
472	-3.65000e+00	4.552680e-04	
473	-3.70000e+00	4.556619e-04	
474	-3.75000e+00	4.560486e-04	
475	-3.80000e+00	4.564285e-04	
476	-3.85000e+00	4.568019e-04	
477	-3.90000e+00	4.571692e-04	
478	-3.95000e+00	4.575306e-04	
479	-4.00000e+00	4.578864e-04	
480	-4.05000e+00	4.582369e-04	
481	-4.10000e+00	4.585822e-04	
482	-4.15000e+00	4.589227e-04	
483	-4.20000e+00	4.592586e-04	
484	-4.25000e+00	4.595899e-04	
485	-4.30000e+00	4.599170e-04	
486	-4.35000e+00	4.602400e-04	
487	-4.40000e+00	4.605590e-04	
488	-4.45000e+00	4.608742e-04	
489	-4.50000e+00	4.611857e-04	
490	-4.55000e+00	4.614938e-04	
491	-4.60000e+00	4.617985e-04	
492	-4.65000e+00	4.620999e-04	
493	-4.70000e+00	4.623982e-04	
494	-4.75000e+00	4.626936e-04	
495	-4.80000e+00	4.629860e-04	
496	-4.85000e+00	4.632757e-04	
497	-4.90000e+00	4.635628e-04	
498	-4.95000e+00	4.638473e-04	
499	-5.00000e+00	4.641295e-04	
500	-5.05000e+00	4.644095e-04	
501	-5.10000e+00	4.646873e-04	
502	-5.15000e+00	4.649632e-04	
503	-5.20000e+00	4.652373e-04	
504	-5.25000e+00	4.655097e-04	
505	-5.30000e+00	4.657808e-04	
506	-5.35000e+00	4.660507e-04	
507	-5.40000e+00	4.663196e-04	
508	-5.45000e+00	4.665878e-04	
509	-5.50000e+00	4.668556e-04	
510	-5.55000e+00	4.671234e-04	
511	-5.60000e+00	4.673914e-04	
512	-5.65000e+00	4.676602e-04	
513	-5.70000e+00	4.679301e-04	
514	-5.75000e+00	4.682016e-04	
515	-5.80000e+00	4.684754e-04	
516	-5.85000e+00	4.687520e-04	
517	-5.90000e+00	4.690322e-04	
518	-5.95000e+00	4.693166e-04	

Index   v-sweep         i(vds)          
--------------------------------------------------------------------------------
519	-6.00000e+00	4.696060e-04	
520	-6.05000e+00	4.699015e-04	
521	-6.10000e+00	4.702039e-04	
522	-6.15000e+00	4.705144e-04	
523	-6.20000e+00	4.708341e-04	
524	-6.25000e+00	4.711643e-04	
525	-6.30000e+00	4.715063e-04	
526	-6.35000e+00	4.718616e-04	
527	-6.40000e+00	4.722318e-04	
528	-6.45000e+00	4.726187e-04	
529	-6.50000e+00	4.730240e-04	
530	-6.55000e+00	4.734497e-04	
531	-6.60000e+00	4.738980e-04	
532	0.000000e+00	1.322902e-19	
533	-5.00000e-02	2.355159e-05	
534	-1.00000e-01	4.664277e-05	
535	-1.50000e-01	6.927582e-05	
536	-2.00000e-01	9.145299e-05	
537	-2.50000e-01	1.131765e-04	
538	-3.00000e-01	1.344487e-04	
539	-3.50000e-01	1.552716e-04	
540	-4.00000e-01	1.756476e-04	
541	-4.50000e-01	1.955789e-04	
542	-5.00000e-01	2.150676e-04	
543	-5.50000e-01	2.341160e-04	
544	-6.00000e-01	2.527262e-04	
545	-6.50000e-01	2.709004e-04	
546	-7.00000e-01	2.886407e-04	
547	-7.50000e-01	3.059494e-04	
548	-8.00000e-01	3.228285e-04	
549	-8.50000e-01	3.392802e-04	
550	-9.00000e-01	3.553067e-04	
551	-9.50000e-01	3.709100e-04	
552	-1.00000e+00	3.860922e-04	
553	-1.05000e+00	4.008555e-04	
554	-1.10000e+00	4.152019e-04	
555	-1.15000e+00	4.291335e-04	
556	-1.20000e+00	4.426525e-04	
557	-1.25000e+00	4.557608e-04	
558	-1.30000e+00	4.684606e-04	
559	-1.35000e+00	4.807538e-04	
560	-1.40000e+00	4.926426e-04	
561	-1.45000e+00	5.041290e-04	
562	-1.50000e+00	5.152150e-04	
563	-1.55000e+00	5.259026e-04	
564	-1.60000e+00	5.361939e-04	
565	-1.65000e+00	5.460910e-04	
566	-1.70000e+00	5.555958e-04	
567	-1.75000e+00	5.647104e-04	
568	-1.80000e+00	5.734368e-04	
569	-1.85000e+00	5.817770e-04	
570	-1.90000e+00	5.897332e-04	
571	-1.95000e+00	5.973075e-04	
572	-2.00000e+00	6.045019e-04	
573	-2.05000e+00	6.113186e-04	
574	-2.10000e+00	6.177598e-04	
575	-2.15000e+00	6.238280e-04	
576	-2.20000e+00	6.295256e-04	

Index   v-sweep         i(vds)          
--------------------------------------------------------------------------------
577	-2.25000e+00	6.348555e-04	
578	-2.30000e+00	6.398207e-04	
579	-2.35000e+00	6.444251e-04	
580	-2.40000e+00	6.486736e-04	
581	-2.45000e+00	6.525728e-04	
582	-2.50000e+00	6.561319e-04	
583	-2.55000e+00	6.593643e-04	
584	-2.60000e+00	6.622882e-04	
585	-2.65000e+00	6.649271e-04	
586	-2.70000e+00	6.673092e-04	
587	-2.75000e+00	6.694647e-04	
588	-2.80000e+00	6.714232e-04	
589	-2.85000e+00	6.732126e-04	
590	-2.90000e+00	6.748569e-04	
591	-2.95000e+00	6.763770e-04	
592	-3.00000e+00	6.777903e-04	
593	-3.05000e+00	6.791111e-04	
594	-3.10000e+00	6.803516e-04	
595	-3.15000e+00	6.815217e-04	
596	-3.20000e+00	6.826299e-04	
597	-3.25000e+00	6.836830e-04	
598	-3.30000e+00	6.846872e-04	
599	-3.35000e+00	6.856474e-04	
600	-3.40000e+00	6.865681e-04	
601	-3.45000e+00	6.874530e-04	
602	-3.50000e+00	6.883053e-04	
603	-3.55000e+00	6.891278e-04	
604	-3.60000e+00	6.899232e-04	
605	-3.65000e+00	6.906935e-04	
606	-3.70000e+00	6.914407e-04	
607	-3.75000e+00	6.921666e-04	
608	-3.80000e+00	6.928726e-04	
609	-3.85000e+00	6.935602e-04	
610	-3.90000e+00	6.942306e-04	
611	-3.95000e+00	6.948850e-04	
612	-4.00000e+00	6.955243e-04	
613	-4.05000e+00	6.961495e-04	
614	-4.10000e+00	6.967614e-04	
615	-4.15000e+00	6.973608e-04	
616	-4.20000e+00	6.979485e-04	
617	-4.25000e+00	6.985249e-04	
618	-4.30000e+00	6.990909e-04	
619	-4.35000e+00	6.996468e-04	
620	-4.40000e+00	7.001933e-04	
621	-4.45000e+00	7.007307e-04	
622	-4.50000e+00	7.012595e-04	
623	-4.55000e+00	7.017802e-04	
624	-4.60000e+00	7.022931e-04	
625	-4.65000e+00	7.027985e-04	
626	-4.70000e+00	7.032968e-04	
627	-4.75000e+00	7.037883e-04	
628	-4.80000e+00	7.042733e-04	
629	-4.85000e+00	7.047521e-04	
630	-4.90000e+00	7.052248e-04	
631	-4.95000e+00	7.056918e-04	
632	-5.00000e+00	7.061533e-04	
633	-5.05000e+00	7.066095e-04	
634	-5.10000e+00	7.070606e-04	

Index   v-sweep         i(vds)          
--------------------------------------------------------------------------------
635	-5.15000e+00	7.075068e-04	
636	-5.20000e+00	7.079483e-04	
637	-5.25000e+00	7.083852e-04	
638	-5.30000e+00	7.088178e-04	
639	-5.35000e+00	7.092463e-04	
640	-5.40000e+00	7.096707e-04	
641	-5.45000e+00	7.100913e-04	
642	-5.50000e+00	7.105082e-04	
643	-5.55000e+00	7.109216e-04	
644	-5.60000e+00	7.113318e-04	
645	-5.65000e+00	7.117389e-04	
646	-5.70000e+00	7.121431e-04	
647	-5.75000e+00	7.125446e-04	
648	-5.80000e+00	7.129437e-04	
649	-5.85000e+00	7.133407e-04	
650	-5.90000e+00	7.137359e-04	
651	-5.95000e+00	7.141295e-04	
652	-6.00000e+00	7.145220e-04	
653	-6.05000e+00	7.149137e-04	
654	-6.10000e+00	7.153052e-04	
655	-6.15000e+00	7.156968e-04	
656	-6.20000e+00	7.160893e-04	
657	-6.25000e+00	7.164832e-04	
658	-6.30000e+00	7.168792e-04	
659	-6.35000e+00	7.172781e-04	
660	-6.40000e+00	7.176808e-04	
661	-6.45000e+00	7.180881e-04	
662	-6.50000e+00	7.185013e-04	
663	-6.55000e+00	7.189214e-04	
664	-6.60000e+00	7.193496e-04	
665	0.000000e+00	-1.77496e-35	
666	-5.00000e-02	2.644344e-05	
667	-1.00000e-01	5.246446e-05	
668	-1.50000e-01	7.806494e-05	
669	-2.00000e-01	1.032467e-04	
670	-2.50000e-01	1.280117e-04	
671	-3.00000e-01	1.523618e-04	
672	-3.50000e-01	1.762987e-04	
673	-4.00000e-01	1.998244e-04	
674	-4.50000e-01	2.229407e-04	
675	-5.00000e-01	2.456493e-04	
676	-5.50000e-01	2.679522e-04	
677	-6.00000e-01	2.898511e-04	
678	-6.50000e-01	3.113479e-04	
679	-7.00000e-01	3.324443e-04	
680	-7.50000e-01	3.531422e-04	
681	-8.00000e-01	3.734433e-04	
682	-8.50000e-01	3.933494e-04	
683	-9.00000e-01	4.128622e-04	
684	-9.50000e-01	4.319836e-04	
685	-1.00000e+00	4.507153e-04	
686	-1.05000e+00	4.690591e-04	
687	-1.10000e+00	4.870167e-04	
688	-1.15000e+00	5.045898e-04	
689	-1.20000e+00	5.217801e-04	
690	-1.25000e+00	5.385895e-04	
691	-1.30000e+00	5.550195e-04	
692	-1.35000e+00	5.710720e-04	

Index   v-sweep         i(vds)          
--------------------------------------------------------------------------------
693	-1.40000e+00	5.867486e-04	
694	-1.45000e+00	6.020510e-04	
695	-1.50000e+00	6.169809e-04	
696	-1.55000e+00	6.315400e-04	
697	-1.60000e+00	6.457300e-04	
698	-1.65000e+00	6.595526e-04	
699	-1.70000e+00	6.730094e-04	
700	-1.75000e+00	6.861020e-04	
701	-1.80000e+00	6.988322e-04	
702	-1.85000e+00	7.112016e-04	
703	-1.90000e+00	7.232118e-04	
704	-1.95000e+00	7.348645e-04	
705	-2.00000e+00	7.461613e-04	
706	-2.05000e+00	7.571039e-04	
707	-2.10000e+00	7.676938e-04	
708	-2.15000e+00	7.779327e-04	
709	-2.20000e+00	7.878223e-04	
710	-2.25000e+00	7.973641e-04	
711	-2.30000e+00	8.065598e-04	
712	-2.35000e+00	8.154110e-04	
713	-2.40000e+00	8.239192e-04	
714	-2.45000e+00	8.320862e-04	
715	-2.50000e+00	8.399136e-04	
716	-2.55000e+00	8.474029e-04	
717	-2.60000e+00	8.545558e-04	
718	-2.65000e+00	8.613740e-04	
719	-2.70000e+00	8.678589e-04	
720	-2.75000e+00	8.740124e-04	
721	-2.80000e+00	8.798360e-04	
722	-2.85000e+00	8.853315e-04	
723	-2.90000e+00	8.905008e-04	
724	-2.95000e+00	8.953458e-04	
725	-3.00000e+00	8.998693e-04	
726	-3.05000e+00	9.040750e-04	
727	-3.10000e+00	9.079687e-04	
728	-3.15000e+00	9.115589e-04	
729	-3.20000e+00	9.148585e-04	
730	-3.25000e+00	9.178848e-04	
731	-3.30000e+00	9.206593e-04	
732	-3.35000e+00	9.232060e-04	
733	-3.40000e+00	9.255497e-04	
734	-3.45000e+00	9.277147e-04	
735	-3.50000e+00	9.297229e-04	
736	-3.55000e+00	9.315940e-04	
737	-3.60000e+00	9.333452e-04	
738	-3.65000e+00	9.349911e-04	
739	-3.70000e+00	9.365442e-04	
740	-3.75000e+00	9.380152e-04	
741	-3.80000e+00	9.394133e-04	
742	-3.85000e+00	9.407461e-04	
743	-3.90000e+00	9.420205e-04	
744	-3.95000e+00	9.432421e-04	
745	-4.00000e+00	9.444159e-04	
746	-4.05000e+00	9.455463e-04	
747	-4.10000e+00	9.466370e-04	
748	-4.15000e+00	9.476915e-04	
749	-4.20000e+00	9.487126e-04	
750	-4.25000e+00	9.497029e-04	

Index   v-sweep         i(vds)          
--------------------------------------------------------------------------------
751	-4.30000e+00	9.506648e-04	
752	-4.35000e+00	9.516003e-04	
753	-4.40000e+00	9.525114e-04	
754	-4.45000e+00	9.533996e-04	
755	-4.50000e+00	9.542664e-04	
756	-4.55000e+00	9.551133e-04	
757	-4.60000e+00	9.559415e-04	
758	-4.65000e+00	9.567521e-04	
759	-4.70000e+00	9.575462e-04	
760	-4.75000e+00	9.583246e-04	
761	-4.80000e+00	9.590883e-04	
762	-4.85000e+00	9.598380e-04	
763	-4.90000e+00	9.605745e-04	
764	-4.95000e+00	9.612985e-04	
765	-5.00000e+00	9.620106e-04	
766	-5.05000e+00	9.627113e-04	
767	-5.10000e+00	9.634013e-04	
768	-5.15000e+00	9.640809e-04	
769	-5.20000e+00	9.647508e-04	
770	-5.25000e+00	9.654113e-04	
771	-5.30000e+00	9.660629e-04	
772	-5.35000e+00	9.667058e-04	
773	-5.40000e+00	9.673406e-04	
774	-5.45000e+00	9.679674e-04	
775	-5.50000e+00	9.685868e-04	
776	-5.55000e+00	9.691988e-04	
777	-5.60000e+00	9.698039e-04	
778	-5.65000e+00	9.704023e-04	
779	-5.70000e+00	9.709942e-04	
780	-5.75000e+00	9.715800e-04	
781	-5.80000e+00	9.721598e-04	
782	-5.85000e+00	9.727339e-04	
783	-5.90000e+00	9.733025e-04	
784	-5.95000e+00	9.738658e-04	
785	-6.00000e+00	9.744241e-04	
786	-6.05000e+00	9.749776e-04	
787	-6.10000e+00	9.755264e-04	
788	-6.15000e+00	9.760710e-04	
789	-6.20000e+00	9.766114e-04	
790	-6.25000e+00	9.771480e-04	
791	-6.30000e+00	9.776810e-04	
792	-6.35000e+00	9.782109e-04	
793	-6.40000e+00	9.787378e-04	
794	-6.45000e+00	9.792622e-04	
795	-6.50000e+00	9.797845e-04	
796	-6.55000e+00	9.803051e-04	
797	-6.60000e+00	9.808246e-04	
Note: No ".plot", ".print", or ".fourier" lines; no simulations run
