
Note: Compatibility modes selected: hs

Warning: m=xx on .subckt line will override multiplier m hierarchy!


Circuit: ***************************

Doing analysis at TEMP = 125.000000 and TNOM = 125.000000


No. of Data Rows : 798
                          ***************************
                          DC transfer characteristic  Mon Jan  9 13:58:51  2023
--------------------------------------------------------------------------------
Index   v-sweep         i(vds)          
--------------------------------------------------------------------------------
0	0.000000e+00	-6.03026e-27	
1	-5.00000e-02	2.395232e-06	
2	-1.00000e-01	4.175517e-06	
3	-1.50000e-01	5.420373e-06	
4	-2.00000e-01	6.177832e-06	
5	-2.50000e-01	6.545511e-06	
6	-3.00000e-01	6.693319e-06	
7	-3.50000e-01	6.758761e-06	
8	-4.00000e-01	6.797265e-06	
9	-4.50000e-01	6.825584e-06	
10	-5.00000e-01	6.849102e-06	
11	-5.50000e-01	6.869869e-06	
12	-6.00000e-01	6.888810e-06	
13	-6.50000e-01	6.906407e-06	
14	-7.00000e-01	6.922944e-06	
15	-7.50000e-01	6.938607e-06	
16	-8.00000e-01	6.953524e-06	
17	-8.50000e-01	6.967791e-06	
18	-9.00000e-01	6.981483e-06	
19	-9.50000e-01	6.994660e-06	
20	-1.00000e+00	7.007371e-06	
21	-1.05000e+00	7.019659e-06	
22	-1.10000e+00	7.031557e-06	
23	-1.15000e+00	7.043099e-06	
24	-1.20000e+00	7.054309e-06	
25	-1.25000e+00	7.065213e-06	
26	-1.30000e+00	7.075832e-06	
27	-1.35000e+00	7.086184e-06	
28	-1.40000e+00	7.096286e-06	
29	-1.45000e+00	7.106154e-06	
30	-1.50000e+00	7.115802e-06	
31	-1.55000e+00	7.125243e-06	
32	-1.60000e+00	7.134488e-06	
33	-1.65000e+00	7.143548e-06	
34	-1.70000e+00	7.152432e-06	
35	-1.75000e+00	7.161151e-06	
36	-1.80000e+00	7.169711e-06	
37	-1.85000e+00	7.178121e-06	
38	-1.90000e+00	7.186388e-06	
39	-1.95000e+00	7.194519e-06	
40	-2.00000e+00	7.202519e-06	
41	-2.05000e+00	7.210395e-06	
42	-2.10000e+00	7.218152e-06	
43	-2.15000e+00	7.225795e-06	
44	-2.20000e+00	7.233329e-06	
45	-2.25000e+00	7.240759e-06	
46	-2.30000e+00	7.248087e-06	
47	-2.35000e+00	7.255319e-06	
48	-2.40000e+00	7.262459e-06	
49	-2.45000e+00	7.269508e-06	
50	-2.50000e+00	7.276472e-06	
51	-2.55000e+00	7.283353e-06	
52	-2.60000e+00	7.290154e-06	
53	-2.65000e+00	7.296878e-06	
54	-2.70000e+00	7.303528e-06	

Index   v-sweep         i(vds)          
--------------------------------------------------------------------------------
55	-2.75000e+00	7.310105e-06	
56	-2.80000e+00	7.316614e-06	
57	-2.85000e+00	7.323055e-06	
58	-2.90000e+00	7.329432e-06	
59	-2.95000e+00	7.335747e-06	
60	-3.00000e+00	7.342001e-06	
61	-3.05000e+00	7.348197e-06	
62	-3.10000e+00	7.354337e-06	
63	-3.15000e+00	7.360424e-06	
64	-3.20000e+00	7.366459e-06	
65	-3.25000e+00	7.372445e-06	
66	-3.30000e+00	7.378384e-06	
67	-3.35000e+00	7.384279e-06	
68	-3.40000e+00	7.390132e-06	
69	-3.45000e+00	7.395946e-06	
70	-3.50000e+00	7.401724e-06	
71	-3.55000e+00	7.407470e-06	
72	-3.60000e+00	7.413187e-06	
73	-3.65000e+00	7.418879e-06	
74	-3.70000e+00	7.424551e-06	
75	-3.75000e+00	7.430207e-06	
76	-3.80000e+00	7.435853e-06	
77	-3.85000e+00	7.441496e-06	
78	-3.90000e+00	7.447141e-06	
79	-3.95000e+00	7.452797e-06	
80	-4.00000e+00	7.458472e-06	
81	-4.05000e+00	7.464174e-06	
82	-4.10000e+00	7.469914e-06	
83	-4.15000e+00	7.475702e-06	
84	-4.20000e+00	7.481552e-06	
85	-4.25000e+00	7.487477e-06	
86	-4.30000e+00	7.493490e-06	
87	-4.35000e+00	7.499608e-06	
88	-4.40000e+00	7.505849e-06	
89	-4.45000e+00	7.512231e-06	
90	-4.50000e+00	7.518775e-06	
91	-4.55000e+00	7.525503e-06	
92	-4.60000e+00	7.532439e-06	
93	-4.65000e+00	7.539609e-06	
94	-4.70000e+00	7.547039e-06	
95	-4.75000e+00	7.554760e-06	
96	-4.80000e+00	7.562804e-06	
97	-4.85000e+00	7.571205e-06	
98	-4.90000e+00	7.579997e-06	
99	-4.95000e+00	7.589220e-06	
100	-5.00000e+00	7.598915e-06	
101	-5.05000e+00	7.609124e-06	
102	-5.10000e+00	7.619893e-06	
103	-5.15000e+00	7.631270e-06	
104	-5.20000e+00	7.643306e-06	
105	-5.25000e+00	7.656055e-06	
106	-5.30000e+00	7.669572e-06	
107	-5.35000e+00	7.683916e-06	
108	-5.40000e+00	7.699149e-06	
109	-5.45000e+00	7.715335e-06	
110	-5.50000e+00	7.732543e-06	
111	-5.55000e+00	7.750841e-06	
112	-5.60000e+00	7.770304e-06	

Index   v-sweep         i(vds)          
--------------------------------------------------------------------------------
113	-5.65000e+00	7.791007e-06	
114	-5.70000e+00	7.813030e-06	
115	-5.75000e+00	7.836454e-06	
116	-5.80000e+00	7.861366e-06	
117	-5.85000e+00	7.887854e-06	
118	-5.90000e+00	7.916008e-06	
119	-5.95000e+00	7.945924e-06	
120	-6.00000e+00	7.977698e-06	
121	-6.05000e+00	8.011432e-06	
122	-6.10000e+00	8.047228e-06	
123	-6.15000e+00	8.085193e-06	
124	-6.20000e+00	8.125437e-06	
125	-6.25000e+00	8.168073e-06	
126	-6.30000e+00	8.213216e-06	
127	-6.35000e+00	8.260985e-06	
128	-6.40000e+00	8.311501e-06	
129	-6.45000e+00	8.364888e-06	
130	-6.50000e+00	8.421275e-06	
131	-6.55000e+00	8.480791e-06	
132	-6.60000e+00	8.543569e-06	
133	0.000000e+00	-8.67497e-25	
134	-5.00000e-02	1.094887e-05	
135	-1.00000e-01	2.124690e-05	
136	-1.50000e-01	3.096232e-05	
137	-2.00000e-01	4.011215e-05	
138	-2.50000e-01	4.870124e-05	
139	-3.00000e-01	5.673159e-05	
140	-3.50000e-01	6.420454e-05	
141	-4.00000e-01	7.112136e-05	
142	-4.50000e-01	7.748337e-05	
143	-5.00000e-01	8.329203e-05	
144	-5.50000e-01	8.854909e-05	
145	-6.00000e-01	9.325671e-05	
146	-6.50000e-01	9.741781e-05	
147	-7.00000e-01	1.010366e-04	
148	-7.50000e-01	1.041200e-04	
149	-8.00000e-01	1.066793e-04	
150	-8.50000e-01	1.087351e-04	
151	-9.00000e-01	1.103240e-04	
152	-9.50000e-01	1.115072e-04	
153	-1.00000e+00	1.123713e-04	
154	-1.05000e+00	1.130123e-04	
155	-1.10000e+00	1.135114e-04	
156	-1.15000e+00	1.139233e-04	
157	-1.20000e+00	1.142799e-04	
158	-1.25000e+00	1.145995e-04	
159	-1.30000e+00	1.148923e-04	
160	-1.35000e+00	1.151646e-04	
161	-1.40000e+00	1.154204e-04	
162	-1.45000e+00	1.156624e-04	
163	-1.50000e+00	1.158927e-04	
164	-1.55000e+00	1.161127e-04	
165	-1.60000e+00	1.163236e-04	
166	-1.65000e+00	1.165264e-04	
167	-1.70000e+00	1.167218e-04	
168	-1.75000e+00	1.169105e-04	
169	-1.80000e+00	1.170930e-04	
170	-1.85000e+00	1.172699e-04	

Index   v-sweep         i(vds)          
--------------------------------------------------------------------------------
171	-1.90000e+00	1.174416e-04	
172	-1.95000e+00	1.176085e-04	
173	-2.00000e+00	1.177709e-04	
174	-2.05000e+00	1.179290e-04	
175	-2.10000e+00	1.180833e-04	
176	-2.15000e+00	1.182339e-04	
177	-2.20000e+00	1.183810e-04	
178	-2.25000e+00	1.185248e-04	
179	-2.30000e+00	1.186656e-04	
180	-2.35000e+00	1.188035e-04	
181	-2.40000e+00	1.189386e-04	
182	-2.45000e+00	1.190711e-04	
183	-2.50000e+00	1.192011e-04	
184	-2.55000e+00	1.193288e-04	
185	-2.60000e+00	1.194543e-04	
186	-2.65000e+00	1.195776e-04	
187	-2.70000e+00	1.196989e-04	
188	-2.75000e+00	1.198182e-04	
189	-2.80000e+00	1.199357e-04	
190	-2.85000e+00	1.200514e-04	
191	-2.90000e+00	1.201653e-04	
192	-2.95000e+00	1.202777e-04	
193	-3.00000e+00	1.203885e-04	
194	-3.05000e+00	1.204977e-04	
195	-3.10000e+00	1.206055e-04	
196	-3.15000e+00	1.207119e-04	
197	-3.20000e+00	1.208170e-04	
198	-3.25000e+00	1.209208e-04	
199	-3.30000e+00	1.210233e-04	
200	-3.35000e+00	1.211247e-04	
201	-3.40000e+00	1.212248e-04	
202	-3.45000e+00	1.213239e-04	
203	-3.50000e+00	1.214218e-04	
204	-3.55000e+00	1.215188e-04	
205	-3.60000e+00	1.216147e-04	
206	-3.65000e+00	1.217096e-04	
207	-3.70000e+00	1.218036e-04	
208	-3.75000e+00	1.218967e-04	
209	-3.80000e+00	1.219889e-04	
210	-3.85000e+00	1.220803e-04	
211	-3.90000e+00	1.221709e-04	
212	-3.95000e+00	1.222607e-04	
213	-4.00000e+00	1.223497e-04	
214	-4.05000e+00	1.224381e-04	
215	-4.10000e+00	1.225258e-04	
216	-4.15000e+00	1.226129e-04	
217	-4.20000e+00	1.226995e-04	
218	-4.25000e+00	1.227855e-04	
219	-4.30000e+00	1.228710e-04	
220	-4.35000e+00	1.229562e-04	
221	-4.40000e+00	1.230411e-04	
222	-4.45000e+00	1.231257e-04	
223	-4.50000e+00	1.232101e-04	
224	-4.55000e+00	1.232945e-04	
225	-4.60000e+00	1.233789e-04	
226	-4.65000e+00	1.234634e-04	
227	-4.70000e+00	1.235482e-04	
228	-4.75000e+00	1.236335e-04	

Index   v-sweep         i(vds)          
--------------------------------------------------------------------------------
229	-4.80000e+00	1.237193e-04	
230	-4.85000e+00	1.238059e-04	
231	-4.90000e+00	1.238935e-04	
232	-4.95000e+00	1.239822e-04	
233	-5.00000e+00	1.240723e-04	
234	-5.05000e+00	1.241640e-04	
235	-5.10000e+00	1.242577e-04	
236	-5.15000e+00	1.243536e-04	
237	-5.20000e+00	1.244521e-04	
238	-5.25000e+00	1.245535e-04	
239	-5.30000e+00	1.246581e-04	
240	-5.35000e+00	1.247665e-04	
241	-5.40000e+00	1.248790e-04	
242	-5.45000e+00	1.249961e-04	
243	-5.50000e+00	1.251184e-04	
244	-5.55000e+00	1.252464e-04	
245	-5.60000e+00	1.253806e-04	
246	-5.65000e+00	1.255217e-04	
247	-5.70000e+00	1.256703e-04	
248	-5.75000e+00	1.258272e-04	
249	-5.80000e+00	1.259930e-04	
250	-5.85000e+00	1.261687e-04	
251	-5.90000e+00	1.263549e-04	
252	-5.95000e+00	1.265525e-04	
253	-6.00000e+00	1.267625e-04	
254	-6.05000e+00	1.269859e-04	
255	-6.10000e+00	1.272235e-04	
256	-6.15000e+00	1.274766e-04	
257	-6.20000e+00	1.277461e-04	
258	-6.25000e+00	1.280332e-04	
259	-6.30000e+00	1.283392e-04	
260	-6.35000e+00	1.286652e-04	
261	-6.40000e+00	1.290126e-04	
262	-6.45000e+00	1.293827e-04	
263	-6.50000e+00	1.297769e-04	
264	-6.55000e+00	1.301966e-04	
265	-6.60000e+00	1.306434e-04	
266	0.000000e+00	-6.70062e-24	
267	-5.00000e-02	1.773410e-05	
268	-1.00000e-01	3.486094e-05	
269	-1.50000e-01	5.144726e-05	
270	-2.00000e-01	6.750970e-05	
271	-2.50000e-01	8.305288e-05	
272	-3.00000e-01	9.807852e-05	
273	-3.50000e-01	1.125876e-04	
274	-4.00000e-01	1.265811e-04	
275	-4.50000e-01	1.400597e-04	
276	-5.00000e-01	1.530243e-04	
277	-5.50000e-01	1.654756e-04	
278	-6.00000e-01	1.774146e-04	
279	-6.50000e-01	1.888421e-04	
280	-7.00000e-01	1.997588e-04	
281	-7.50000e-01	2.101658e-04	
282	-8.00000e-01	2.200638e-04	
283	-8.50000e-01	2.294538e-04	
284	-9.00000e-01	2.383367e-04	
285	-9.50000e-01	2.467135e-04	
286	-1.00000e+00	2.545853e-04	

Index   v-sweep         i(vds)          
--------------------------------------------------------------------------------
287	-1.05000e+00	2.619533e-04	
288	-1.10000e+00	2.688188e-04	
289	-1.15000e+00	2.751834e-04	
290	-1.20000e+00	2.810487e-04	
291	-1.25000e+00	2.864173e-04	
292	-1.30000e+00	2.912921e-04	
293	-1.35000e+00	2.956775e-04	
294	-1.40000e+00	2.995796e-04	
295	-1.45000e+00	3.030079e-04	
296	-1.50000e+00	3.059768e-04	
297	-1.55000e+00	3.085088e-04	
298	-1.60000e+00	3.106380e-04	
299	-1.65000e+00	3.124121e-04	
300	-1.70000e+00	3.138907e-04	
301	-1.75000e+00	3.151379e-04	
302	-1.80000e+00	3.162123e-04	
303	-1.85000e+00	3.171601e-04	
304	-1.90000e+00	3.180144e-04	
305	-1.95000e+00	3.187979e-04	
306	-2.00000e+00	3.195257e-04	
307	-2.05000e+00	3.202083e-04	
308	-2.10000e+00	3.208531e-04	
309	-2.15000e+00	3.214657e-04	
310	-2.20000e+00	3.220500e-04	
311	-2.25000e+00	3.226095e-04	
312	-2.30000e+00	3.231468e-04	
313	-2.35000e+00	3.236641e-04	
314	-2.40000e+00	3.241632e-04	
315	-2.45000e+00	3.246457e-04	
316	-2.50000e+00	3.251129e-04	
317	-2.55000e+00	3.255661e-04	
318	-2.60000e+00	3.260062e-04	
319	-2.65000e+00	3.264343e-04	
320	-2.70000e+00	3.268511e-04	
321	-2.75000e+00	3.272574e-04	
322	-2.80000e+00	3.276538e-04	
323	-2.85000e+00	3.280410e-04	
324	-2.90000e+00	3.284195e-04	
325	-2.95000e+00	3.287898e-04	
326	-3.00000e+00	3.291524e-04	
327	-3.05000e+00	3.295076e-04	
328	-3.10000e+00	3.298560e-04	
329	-3.15000e+00	3.301977e-04	
330	-3.20000e+00	3.305332e-04	
331	-3.25000e+00	3.308628e-04	
332	-3.30000e+00	3.311867e-04	
333	-3.35000e+00	3.315052e-04	
334	-3.40000e+00	3.318185e-04	
335	-3.45000e+00	3.321270e-04	
336	-3.50000e+00	3.324307e-04	
337	-3.55000e+00	3.327299e-04	
338	-3.60000e+00	3.330248e-04	
339	-3.65000e+00	3.333156e-04	
340	-3.70000e+00	3.336024e-04	
341	-3.75000e+00	3.338853e-04	
342	-3.80000e+00	3.341646e-04	
343	-3.85000e+00	3.344404e-04	
344	-3.90000e+00	3.347127e-04	

Index   v-sweep         i(vds)          
--------------------------------------------------------------------------------
345	-3.95000e+00	3.349818e-04	
346	-4.00000e+00	3.352477e-04	
347	-4.05000e+00	3.355105e-04	
348	-4.10000e+00	3.357705e-04	
349	-4.15000e+00	3.360275e-04	
350	-4.20000e+00	3.362819e-04	
351	-4.25000e+00	3.365335e-04	
352	-4.30000e+00	3.367827e-04	
353	-4.35000e+00	3.370293e-04	
354	-4.40000e+00	3.372736e-04	
355	-4.45000e+00	3.375156e-04	
356	-4.50000e+00	3.377553e-04	
357	-4.55000e+00	3.379929e-04	
358	-4.60000e+00	3.382285e-04	
359	-4.65000e+00	3.384622e-04	
360	-4.70000e+00	3.386940e-04	
361	-4.75000e+00	3.389240e-04	
362	-4.80000e+00	3.391524e-04	
363	-4.85000e+00	3.393793e-04	
364	-4.90000e+00	3.396048e-04	
365	-4.95000e+00	3.398290e-04	
366	-5.00000e+00	3.400521e-04	
367	-5.05000e+00	3.402742e-04	
368	-5.10000e+00	3.404956e-04	
369	-5.15000e+00	3.407164e-04	
370	-5.20000e+00	3.409369e-04	
371	-5.25000e+00	3.411574e-04	
372	-5.30000e+00	3.413780e-04	
373	-5.35000e+00	3.415992e-04	
374	-5.40000e+00	3.418213e-04	
375	-5.45000e+00	3.420447e-04	
376	-5.50000e+00	3.422698e-04	
377	-5.55000e+00	3.424970e-04	
378	-5.60000e+00	3.427271e-04	
379	-5.65000e+00	3.429604e-04	
380	-5.70000e+00	3.431977e-04	
381	-5.75000e+00	3.434396e-04	
382	-5.80000e+00	3.436869e-04	
383	-5.85000e+00	3.439404e-04	
384	-5.90000e+00	3.442011e-04	
385	-5.95000e+00	3.444699e-04	
386	-6.00000e+00	3.447478e-04	
387	-6.05000e+00	3.450361e-04	
388	-6.10000e+00	3.453358e-04	
389	-6.15000e+00	3.456484e-04	
390	-6.20000e+00	3.459752e-04	
391	-6.25000e+00	3.463177e-04	
392	-6.30000e+00	3.466776e-04	
393	-6.35000e+00	3.470565e-04	
394	-6.40000e+00	3.474562e-04	
395	-6.45000e+00	3.478787e-04	
396	-6.50000e+00	3.483260e-04	
397	-6.55000e+00	3.488003e-04	
398	-6.60000e+00	3.493037e-04	
399	0.000000e+00	2.827617e-24	
400	-5.00000e-02	2.337934e-05	
401	-1.00000e-01	4.619089e-05	
402	-1.50000e-01	6.850023e-05	

Index   v-sweep         i(vds)          
--------------------------------------------------------------------------------
403	-2.00000e-01	9.032378e-05	
404	-2.50000e-01	1.116661e-04	
405	-3.00000e-01	1.325287e-04	
406	-3.50000e-01	1.529125e-04	
407	-4.00000e-01	1.728184e-04	
408	-4.50000e-01	1.922469e-04	
409	-5.00000e-01	2.111988e-04	
410	-5.50000e-01	2.296748e-04	
411	-6.00000e-01	2.476755e-04	
412	-6.50000e-01	2.652016e-04	
413	-7.00000e-01	2.822539e-04	
414	-7.50000e-01	2.988330e-04	
415	-8.00000e-01	3.149396e-04	
416	-8.50000e-01	3.305743e-04	
417	-9.00000e-01	3.457380e-04	
418	-9.50000e-01	3.604313e-04	
419	-1.00000e+00	3.746549e-04	
420	-1.05000e+00	3.884095e-04	
421	-1.10000e+00	4.016958e-04	
422	-1.15000e+00	4.145145e-04	
423	-1.20000e+00	4.268664e-04	
424	-1.25000e+00	4.387522e-04	
425	-1.30000e+00	4.501727e-04	
426	-1.35000e+00	4.611286e-04	
427	-1.40000e+00	4.716207e-04	
428	-1.45000e+00	4.816499e-04	
429	-1.50000e+00	4.912170e-04	
430	-1.55000e+00	5.003228e-04	
431	-1.60000e+00	5.089685e-04	
432	-1.65000e+00	5.171550e-04	
433	-1.70000e+00	5.248834e-04	
434	-1.75000e+00	5.321552e-04	
435	-1.80000e+00	5.389718e-04	
436	-1.85000e+00	5.453353e-04	
437	-1.90000e+00	5.512478e-04	
438	-1.95000e+00	5.567125e-04	
439	-2.00000e+00	5.617333e-04	
440	-2.05000e+00	5.663160e-04	
441	-2.10000e+00	5.704684e-04	
442	-2.15000e+00	5.742019e-04	
443	-2.20000e+00	5.775327e-04	
444	-2.25000e+00	5.804838e-04	
445	-2.30000e+00	5.830865e-04	
446	-2.35000e+00	5.853799e-04	
447	-2.40000e+00	5.874090e-04	
448	-2.45000e+00	5.892200e-04	
449	-2.50000e+00	5.908549e-04	
450	-2.55000e+00	5.923491e-04	
451	-2.60000e+00	5.937298e-04	
452	-2.65000e+00	5.950179e-04	
453	-2.70000e+00	5.962288e-04	
454	-2.75000e+00	5.973740e-04	
455	-2.80000e+00	5.984625e-04	
456	-2.85000e+00	5.995014e-04	
457	-2.90000e+00	6.004961e-04	
458	-2.95000e+00	6.014514e-04	
459	-3.00000e+00	6.023711e-04	
460	-3.05000e+00	6.032584e-04	

Index   v-sweep         i(vds)          
--------------------------------------------------------------------------------
461	-3.10000e+00	6.041161e-04	
462	-3.15000e+00	6.049466e-04	
463	-3.20000e+00	6.057521e-04	
464	-3.25000e+00	6.065344e-04	
465	-3.30000e+00	6.072952e-04	
466	-3.35000e+00	6.080359e-04	
467	-3.40000e+00	6.087579e-04	
468	-3.45000e+00	6.094624e-04	
469	-3.50000e+00	6.101504e-04	
470	-3.55000e+00	6.108230e-04	
471	-3.60000e+00	6.114809e-04	
472	-3.65000e+00	6.121252e-04	
473	-3.70000e+00	6.127564e-04	
474	-3.75000e+00	6.133754e-04	
475	-3.80000e+00	6.139826e-04	
476	-3.85000e+00	6.145788e-04	
477	-3.90000e+00	6.151645e-04	
478	-3.95000e+00	6.157401e-04	
479	-4.00000e+00	6.163062e-04	
480	-4.05000e+00	6.168631e-04	
481	-4.10000e+00	6.174114e-04	
482	-4.15000e+00	6.179513e-04	
483	-4.20000e+00	6.184832e-04	
484	-4.25000e+00	6.190075e-04	
485	-4.30000e+00	6.195245e-04	
486	-4.35000e+00	6.200344e-04	
487	-4.40000e+00	6.205376e-04	
488	-4.45000e+00	6.210343e-04	
489	-4.50000e+00	6.215248e-04	
490	-4.55000e+00	6.220092e-04	
491	-4.60000e+00	6.224879e-04	
492	-4.65000e+00	6.229609e-04	
493	-4.70000e+00	6.234286e-04	
494	-4.75000e+00	6.238911e-04	
495	-4.80000e+00	6.243486e-04	
496	-4.85000e+00	6.248012e-04	
497	-4.90000e+00	6.252492e-04	
498	-4.95000e+00	6.256926e-04	
499	-5.00000e+00	6.261317e-04	
500	-5.05000e+00	6.265666e-04	
501	-5.10000e+00	6.269974e-04	
502	-5.15000e+00	6.274243e-04	
503	-5.20000e+00	6.278475e-04	
504	-5.25000e+00	6.282670e-04	
505	-5.30000e+00	6.286831e-04	
506	-5.35000e+00	6.290959e-04	
507	-5.40000e+00	6.295056e-04	
508	-5.45000e+00	6.299123e-04	
509	-5.50000e+00	6.303163e-04	
510	-5.55000e+00	6.307178e-04	
511	-5.60000e+00	6.311170e-04	
512	-5.65000e+00	6.315141e-04	
513	-5.70000e+00	6.319095e-04	
514	-5.75000e+00	6.323034e-04	
515	-5.80000e+00	6.326962e-04	
516	-5.85000e+00	6.330883e-04	
517	-5.90000e+00	6.334802e-04	
518	-5.95000e+00	6.338723e-04	

Index   v-sweep         i(vds)          
--------------------------------------------------------------------------------
519	-6.00000e+00	6.342651e-04	
520	-6.05000e+00	6.346594e-04	
521	-6.10000e+00	6.350556e-04	
522	-6.15000e+00	6.354546e-04	
523	-6.20000e+00	6.358573e-04	
524	-6.25000e+00	6.362644e-04	
525	-6.30000e+00	6.366771e-04	
526	-6.35000e+00	6.370964e-04	
527	-6.40000e+00	6.375236e-04	
528	-6.45000e+00	6.379599e-04	
529	-6.50000e+00	6.384068e-04	
530	-6.55000e+00	6.388659e-04	
531	-6.60000e+00	6.393388e-04	
532	0.000000e+00	-1.45892e-24	
533	-5.00000e-02	2.824249e-05	
534	-1.00000e-01	5.595004e-05	
535	-1.50000e-01	8.318724e-05	
536	-2.00000e-01	1.099704e-04	
537	-2.50000e-01	1.363038e-04	
538	-3.00000e-01	1.621892e-04	
539	-3.50000e-01	1.876274e-04	
540	-4.00000e-01	2.126190e-04	
541	-4.50000e-01	2.371646e-04	
542	-5.00000e-01	2.612648e-04	
543	-5.50000e-01	2.849203e-04	
544	-6.00000e-01	3.081317e-04	
545	-6.50000e-01	3.308996e-04	
546	-7.00000e-01	3.532245e-04	
547	-7.50000e-01	3.751071e-04	
548	-8.00000e-01	3.965481e-04	
549	-8.50000e-01	4.175479e-04	
550	-9.00000e-01	4.381073e-04	
551	-9.50000e-01	4.582268e-04	
552	-1.00000e+00	4.779070e-04	
553	-1.05000e+00	4.971486e-04	
554	-1.10000e+00	5.159522e-04	
555	-1.15000e+00	5.343183e-04	
556	-1.20000e+00	5.522476e-04	
557	-1.25000e+00	5.697408e-04	
558	-1.30000e+00	5.867983e-04	
559	-1.35000e+00	6.034209e-04	
560	-1.40000e+00	6.196091e-04	
561	-1.45000e+00	6.353636e-04	
562	-1.50000e+00	6.506849e-04	
563	-1.55000e+00	6.655738e-04	
564	-1.60000e+00	6.800309e-04	
565	-1.65000e+00	6.940568e-04	
566	-1.70000e+00	7.076521e-04	
567	-1.75000e+00	7.208174e-04	
568	-1.80000e+00	7.335536e-04	
569	-1.85000e+00	7.458611e-04	
570	-1.90000e+00	7.577408e-04	
571	-1.95000e+00	7.691932e-04	
572	-2.00000e+00	7.802192e-04	
573	-2.05000e+00	7.908195e-04	
574	-2.10000e+00	8.009948e-04	
575	-2.15000e+00	8.107460e-04	
576	-2.20000e+00	8.200740e-04	

Index   v-sweep         i(vds)          
--------------------------------------------------------------------------------
577	-2.25000e+00	8.289797e-04	
578	-2.30000e+00	8.374642e-04	
579	-2.35000e+00	8.455286e-04	
580	-2.40000e+00	8.531743e-04	
581	-2.45000e+00	8.604029e-04	
582	-2.50000e+00	8.672163e-04	
583	-2.55000e+00	8.736167e-04	
584	-2.60000e+00	8.796072e-04	
585	-2.65000e+00	8.851917e-04	
586	-2.70000e+00	8.903751e-04	
587	-2.75000e+00	8.951645e-04	
588	-2.80000e+00	8.995692e-04	
589	-2.85000e+00	9.036020e-04	
590	-2.90000e+00	9.072803e-04	
591	-2.95000e+00	9.106266e-04	
592	-3.00000e+00	9.136688e-04	
593	-3.05000e+00	9.164394e-04	
594	-3.10000e+00	9.189732e-04	
595	-3.15000e+00	9.213043e-04	
596	-3.20000e+00	9.234637e-04	
597	-3.25000e+00	9.254780e-04	
598	-3.30000e+00	9.273689e-04	
599	-3.35000e+00	9.291541e-04	
600	-3.40000e+00	9.308474e-04	
601	-3.45000e+00	9.324602e-04	
602	-3.50000e+00	9.340016e-04	
603	-3.55000e+00	9.354792e-04	
604	-3.60000e+00	9.368994e-04	
605	-3.65000e+00	9.382676e-04	
606	-3.70000e+00	9.395882e-04	
607	-3.75000e+00	9.408654e-04	
608	-3.80000e+00	9.421025e-04	
609	-3.85000e+00	9.433028e-04	
610	-3.90000e+00	9.444688e-04	
611	-3.95000e+00	9.456030e-04	
612	-4.00000e+00	9.467075e-04	
613	-4.05000e+00	9.477844e-04	
614	-4.10000e+00	9.488353e-04	
615	-4.15000e+00	9.498619e-04	
616	-4.20000e+00	9.508656e-04	
617	-4.25000e+00	9.518478e-04	
618	-4.30000e+00	9.528096e-04	
619	-4.35000e+00	9.537521e-04	
620	-4.40000e+00	9.546765e-04	
621	-4.45000e+00	9.555835e-04	
622	-4.50000e+00	9.564742e-04	
623	-4.55000e+00	9.573492e-04	
624	-4.60000e+00	9.582095e-04	
625	-4.65000e+00	9.590555e-04	
626	-4.70000e+00	9.598881e-04	
627	-4.75000e+00	9.607078e-04	
628	-4.80000e+00	9.615151e-04	
629	-4.85000e+00	9.623106e-04	
630	-4.90000e+00	9.630949e-04	
631	-4.95000e+00	9.638683e-04	
632	-5.00000e+00	9.646313e-04	
633	-5.05000e+00	9.653843e-04	
634	-5.10000e+00	9.661277e-04	

Index   v-sweep         i(vds)          
--------------------------------------------------------------------------------
635	-5.15000e+00	9.668618e-04	
636	-5.20000e+00	9.675871e-04	
637	-5.25000e+00	9.683038e-04	
638	-5.30000e+00	9.690122e-04	
639	-5.35000e+00	9.697127e-04	
640	-5.40000e+00	9.704055e-04	
641	-5.45000e+00	9.710909e-04	
642	-5.50000e+00	9.717692e-04	
643	-5.55000e+00	9.724405e-04	
644	-5.60000e+00	9.731051e-04	
645	-5.65000e+00	9.737633e-04	
646	-5.70000e+00	9.744153e-04	
647	-5.75000e+00	9.750613e-04	
648	-5.80000e+00	9.757015e-04	
649	-5.85000e+00	9.763361e-04	
650	-5.90000e+00	9.769653e-04	
651	-5.95000e+00	9.775895e-04	
652	-6.00000e+00	9.782088e-04	
653	-6.05000e+00	9.788234e-04	
654	-6.10000e+00	9.794337e-04	
655	-6.15000e+00	9.800398e-04	
656	-6.20000e+00	9.806422e-04	
657	-6.25000e+00	9.812411e-04	
658	-6.30000e+00	9.818370e-04	
659	-6.35000e+00	9.824302e-04	
660	-6.40000e+00	9.830212e-04	
661	-6.45000e+00	9.836105e-04	
662	-6.50000e+00	9.841987e-04	
663	-6.55000e+00	9.847864e-04	
664	-6.60000e+00	9.853743e-04	
665	0.000000e+00	5.222923e-24	
666	-5.00000e-02	3.255257e-05	
667	-1.00000e-01	6.459736e-05	
668	-1.50000e-01	9.619809e-05	
669	-2.00000e-01	1.273709e-04	
670	-2.50000e-01	1.581202e-04	
671	-3.00000e-01	1.884475e-04	
672	-3.50000e-01	2.183536e-04	
673	-4.00000e-01	2.478390e-04	
674	-4.50000e-01	2.769045e-04	
675	-5.00000e-01	3.055504e-04	
676	-5.50000e-01	3.337774e-04	
677	-6.00000e-01	3.615860e-04	
678	-6.50000e-01	3.889768e-04	
679	-7.00000e-01	4.159504e-04	
680	-7.50000e-01	4.425072e-04	
681	-8.00000e-01	4.686479e-04	
682	-8.50000e-01	4.943730e-04	
683	-9.00000e-01	5.196830e-04	
684	-9.50000e-01	5.445785e-04	
685	-1.00000e+00	5.690600e-04	
686	-1.05000e+00	5.931282e-04	
687	-1.10000e+00	6.167835e-04	
688	-1.15000e+00	6.400266e-04	
689	-1.20000e+00	6.628578e-04	
690	-1.25000e+00	6.852779e-04	
691	-1.30000e+00	7.072874e-04	
692	-1.35000e+00	7.288868e-04	

Index   v-sweep         i(vds)          
--------------------------------------------------------------------------------
693	-1.40000e+00	7.500766e-04	
694	-1.45000e+00	7.708574e-04	
695	-1.50000e+00	7.912299e-04	
696	-1.55000e+00	8.111944e-04	
697	-1.60000e+00	8.307516e-04	
698	-1.65000e+00	8.499021e-04	
699	-1.70000e+00	8.686464e-04	
700	-1.75000e+00	8.869850e-04	
701	-1.80000e+00	9.049184e-04	
702	-1.85000e+00	9.224474e-04	
703	-1.90000e+00	9.395724e-04	
704	-1.95000e+00	9.562939e-04	
705	-2.00000e+00	9.726127e-04	
706	-2.05000e+00	9.885291e-04	
707	-2.10000e+00	1.004044e-03	
708	-2.15000e+00	1.019157e-03	
709	-2.20000e+00	1.033870e-03	
710	-2.25000e+00	1.048183e-03	
711	-2.30000e+00	1.062097e-03	
712	-2.35000e+00	1.075612e-03	
713	-2.40000e+00	1.088729e-03	
714	-2.45000e+00	1.101448e-03	
715	-2.50000e+00	1.113770e-03	
716	-2.55000e+00	1.125696e-03	
717	-2.60000e+00	1.137226e-03	
718	-2.65000e+00	1.148362e-03	
719	-2.70000e+00	1.159103e-03	
720	-2.75000e+00	1.169451e-03	
721	-2.80000e+00	1.179406e-03	
722	-2.85000e+00	1.188970e-03	
723	-2.90000e+00	1.198143e-03	
724	-2.95000e+00	1.206926e-03	
725	-3.00000e+00	1.215320e-03	
726	-3.05000e+00	1.223328e-03	
727	-3.10000e+00	1.230949e-03	
728	-3.15000e+00	1.238188e-03	
729	-3.20000e+00	1.245044e-03	
730	-3.25000e+00	1.251523e-03	
731	-3.30000e+00	1.257626e-03	
732	-3.35000e+00	1.263360e-03	
733	-3.40000e+00	1.268729e-03	
734	-3.45000e+00	1.273743e-03	
735	-3.50000e+00	1.278412e-03	
736	-3.55000e+00	1.282749e-03	
737	-3.60000e+00	1.286772e-03	
738	-3.65000e+00	1.290502e-03	
739	-3.70000e+00	1.293963e-03	
740	-3.75000e+00	1.297182e-03	
741	-3.80000e+00	1.300186e-03	
742	-3.85000e+00	1.303000e-03	
743	-3.90000e+00	1.305647e-03	
744	-3.95000e+00	1.308149e-03	
745	-4.00000e+00	1.310521e-03	
746	-4.05000e+00	1.312780e-03	
747	-4.10000e+00	1.314938e-03	
748	-4.15000e+00	1.317004e-03	
749	-4.20000e+00	1.318988e-03	
750	-4.25000e+00	1.320898e-03	

Index   v-sweep         i(vds)          
--------------------------------------------------------------------------------
751	-4.30000e+00	1.322739e-03	
752	-4.35000e+00	1.324518e-03	
753	-4.40000e+00	1.326240e-03	
754	-4.45000e+00	1.327910e-03	
755	-4.50000e+00	1.329530e-03	
756	-4.55000e+00	1.331105e-03	
757	-4.60000e+00	1.332637e-03	
758	-4.65000e+00	1.334131e-03	
759	-4.70000e+00	1.335587e-03	
760	-4.75000e+00	1.337009e-03	
761	-4.80000e+00	1.338398e-03	
762	-4.85000e+00	1.339757e-03	
763	-4.90000e+00	1.341087e-03	
764	-4.95000e+00	1.342390e-03	
765	-5.00000e+00	1.343667e-03	
766	-5.05000e+00	1.344920e-03	
767	-5.10000e+00	1.346150e-03	
768	-5.15000e+00	1.347358e-03	
769	-5.20000e+00	1.348545e-03	
770	-5.25000e+00	1.349712e-03	
771	-5.30000e+00	1.350860e-03	
772	-5.35000e+00	1.351990e-03	
773	-5.40000e+00	1.353103e-03	
774	-5.45000e+00	1.354199e-03	
775	-5.50000e+00	1.355280e-03	
776	-5.55000e+00	1.356345e-03	
777	-5.60000e+00	1.357396e-03	
778	-5.65000e+00	1.358433e-03	
779	-5.70000e+00	1.359457e-03	
780	-5.75000e+00	1.360468e-03	
781	-5.80000e+00	1.361466e-03	
782	-5.85000e+00	1.362452e-03	
783	-5.90000e+00	1.363427e-03	
784	-5.95000e+00	1.364391e-03	
785	-6.00000e+00	1.365345e-03	
786	-6.05000e+00	1.366288e-03	
787	-6.10000e+00	1.367221e-03	
788	-6.15000e+00	1.368144e-03	
789	-6.20000e+00	1.369058e-03	
790	-6.25000e+00	1.369964e-03	
791	-6.30000e+00	1.370860e-03	
792	-6.35000e+00	1.371749e-03	
793	-6.40000e+00	1.372629e-03	
794	-6.45000e+00	1.373501e-03	
795	-6.50000e+00	1.374366e-03	
796	-6.55000e+00	1.375224e-03	
797	-6.60000e+00	1.376075e-03	
Note: No ".plot", ".print", or ".fourier" lines; no simulations run
