
Note: Compatibility modes selected: hs

Warning: m=xx on .subckt line will override multiplier m hierarchy!


Circuit: ***************************

Doing analysis at TEMP = -40.000000 and TNOM = -40.000000


No. of Data Rows : 798
                          ***************************
                          DC transfer characteristic  Mon Jan  9 13:58:50  2023
--------------------------------------------------------------------------------
Index   v-sweep         i(vds)          
--------------------------------------------------------------------------------
0	0.000000e+00	1.146039e-22	
1	-5.00000e-02	6.632438e-07	
2	-1.00000e-01	8.203191e-07	
3	-1.50000e-01	8.482031e-07	
4	-2.00000e-01	8.584447e-07	
5	-2.50000e-01	8.648351e-07	
6	-3.00000e-01	8.697868e-07	
7	-3.50000e-01	8.739840e-07	
8	-4.00000e-01	8.776981e-07	
9	-4.50000e-01	8.810642e-07	
10	-5.00000e-01	8.841614e-07	
11	-5.50000e-01	8.870414e-07	
12	-6.00000e-01	8.897404e-07	
13	-6.50000e-01	8.922854e-07	
14	-7.00000e-01	8.946973e-07	
15	-7.50000e-01	8.969925e-07	
16	-8.00000e-01	8.991845e-07	
17	-8.50000e-01	9.012845e-07	
18	-9.00000e-01	9.033019e-07	
19	-9.50000e-01	9.052445e-07	
20	-1.00000e+00	9.071193e-07	
21	-1.05000e+00	9.089320e-07	
22	-1.10000e+00	9.106880e-07	
23	-1.15000e+00	9.123916e-07	
24	-1.20000e+00	9.140469e-07	
25	-1.25000e+00	9.156574e-07	
26	-1.30000e+00	9.172264e-07	
27	-1.35000e+00	9.187566e-07	
28	-1.40000e+00	9.202506e-07	
29	-1.45000e+00	9.217108e-07	
30	-1.50000e+00	9.231392e-07	
31	-1.55000e+00	9.245377e-07	
32	-1.60000e+00	9.259082e-07	
33	-1.65000e+00	9.272521e-07	
34	-1.70000e+00	9.285709e-07	
35	-1.75000e+00	9.298660e-07	
36	-1.80000e+00	9.311386e-07	
37	-1.85000e+00	9.323899e-07	
38	-1.90000e+00	9.336210e-07	
39	-1.95000e+00	9.348327e-07	
40	-2.00000e+00	9.360261e-07	
41	-2.05000e+00	9.372019e-07	
42	-2.10000e+00	9.383611e-07	
43	-2.15000e+00	9.395042e-07	
44	-2.20000e+00	9.406321e-07	
45	-2.25000e+00	9.417453e-07	
46	-2.30000e+00	9.428444e-07	
47	-2.35000e+00	9.439302e-07	
48	-2.40000e+00	9.450030e-07	
49	-2.45000e+00	9.460634e-07	
50	-2.50000e+00	9.471119e-07	
51	-2.55000e+00	9.481489e-07	
52	-2.60000e+00	9.491749e-07	
53	-2.65000e+00	9.501903e-07	
54	-2.70000e+00	9.511955e-07	

Index   v-sweep         i(vds)          
--------------------------------------------------------------------------------
55	-2.75000e+00	9.521908e-07	
56	-2.80000e+00	9.531767e-07	
57	-2.85000e+00	9.541535e-07	
58	-2.90000e+00	9.551215e-07	
59	-2.95000e+00	9.560811e-07	
60	-3.00000e+00	9.570327e-07	
61	-3.05000e+00	9.579765e-07	
62	-3.10000e+00	9.589131e-07	
63	-3.15000e+00	9.598426e-07	
64	-3.20000e+00	9.607656e-07	
65	-3.25000e+00	9.616823e-07	
66	-3.30000e+00	9.625934e-07	
67	-3.35000e+00	9.634991e-07	
68	-3.40000e+00	9.644001e-07	
69	-3.45000e+00	9.652968e-07	
70	-3.50000e+00	9.661899e-07	
71	-3.55000e+00	9.670800e-07	
72	-3.60000e+00	9.679678e-07	
73	-3.65000e+00	9.688542e-07	
74	-3.70000e+00	9.697400e-07	
75	-3.75000e+00	9.706261e-07	
76	-3.80000e+00	9.715137e-07	
77	-3.85000e+00	9.724039e-07	
78	-3.90000e+00	9.732981e-07	
79	-3.95000e+00	9.741976e-07	
80	-4.00000e+00	9.751041e-07	
81	-4.05000e+00	9.760192e-07	
82	-4.10000e+00	9.769448e-07	
83	-4.15000e+00	9.778831e-07	
84	-4.20000e+00	9.788362e-07	
85	-4.25000e+00	9.798066e-07	
86	-4.30000e+00	9.807969e-07	
87	-4.35000e+00	9.818100e-07	
88	-4.40000e+00	9.828490e-07	
89	-4.45000e+00	9.839173e-07	
90	-4.50000e+00	9.850183e-07	
91	-4.55000e+00	9.861560e-07	
92	-4.60000e+00	9.873344e-07	
93	-4.65000e+00	9.885579e-07	
94	-4.70000e+00	9.898313e-07	
95	-4.75000e+00	9.911596e-07	
96	-4.80000e+00	9.925479e-07	
97	-4.85000e+00	9.940021e-07	
98	-4.90000e+00	9.955279e-07	
99	-4.95000e+00	9.971317e-07	
100	-5.00000e+00	9.988202e-07	
101	-5.05000e+00	1.000600e-06	
102	-5.10000e+00	1.002479e-06	
103	-5.15000e+00	1.004465e-06	
104	-5.20000e+00	1.006566e-06	
105	-5.25000e+00	1.008790e-06	
106	-5.30000e+00	1.011146e-06	
107	-5.35000e+00	1.013643e-06	
108	-5.40000e+00	1.016292e-06	
109	-5.45000e+00	1.019101e-06	
110	-5.50000e+00	1.022082e-06	
111	-5.55000e+00	1.025246e-06	
112	-5.60000e+00	1.028603e-06	

Index   v-sweep         i(vds)          
--------------------------------------------------------------------------------
113	-5.65000e+00	1.032166e-06	
114	-5.70000e+00	1.035946e-06	
115	-5.75000e+00	1.039956e-06	
116	-5.80000e+00	1.044209e-06	
117	-5.85000e+00	1.048718e-06	
118	-5.90000e+00	1.053497e-06	
119	-5.95000e+00	1.058561e-06	
120	-6.00000e+00	1.063923e-06	
121	-6.05000e+00	1.069599e-06	
122	-6.10000e+00	1.075604e-06	
123	-6.15000e+00	1.081953e-06	
124	-6.20000e+00	1.088664e-06	
125	-6.25000e+00	1.095753e-06	
126	-6.30000e+00	1.103237e-06	
127	-6.35000e+00	1.111132e-06	
128	-6.40000e+00	1.119458e-06	
129	-6.45000e+00	1.128232e-06	
130	-6.50000e+00	1.137472e-06	
131	-6.55000e+00	1.147198e-06	
132	-6.60000e+00	1.157429e-06	
133	0.000000e+00	4.276575e-37	
134	-5.00000e-02	1.745215e-05	
135	-1.00000e-01	3.369973e-05	
136	-1.50000e-01	4.875204e-05	
137	-2.00000e-01	6.261841e-05	
138	-2.50000e-01	7.530826e-05	
139	-3.00000e-01	8.683119e-05	
140	-3.50000e-01	9.719713e-05	
141	-4.00000e-01	1.064167e-04	
142	-4.50000e-01	1.145015e-04	
143	-5.00000e-01	1.214659e-04	
144	-5.50000e-01	1.273284e-04	
145	-6.00000e-01	1.321180e-04	
146	-6.50000e-01	1.358837e-04	
147	-7.00000e-01	1.387149e-04	
148	-7.50000e-01	1.407617e-04	
149	-8.00000e-01	1.422268e-04	
150	-8.50000e-01	1.433106e-04	
151	-9.00000e-01	1.441590e-04	
152	-9.50000e-01	1.448596e-04	
153	-1.00000e+00	1.454616e-04	
154	-1.05000e+00	1.459932e-04	
155	-1.10000e+00	1.464717e-04	
156	-1.15000e+00	1.469085e-04	
157	-1.20000e+00	1.473114e-04	
158	-1.25000e+00	1.476861e-04	
159	-1.30000e+00	1.480368e-04	
160	-1.35000e+00	1.483670e-04	
161	-1.40000e+00	1.486793e-04	
162	-1.45000e+00	1.489759e-04	
163	-1.50000e+00	1.492584e-04	
164	-1.55000e+00	1.495285e-04	
165	-1.60000e+00	1.497874e-04	
166	-1.65000e+00	1.500360e-04	
167	-1.70000e+00	1.502755e-04	
168	-1.75000e+00	1.505065e-04	
169	-1.80000e+00	1.507297e-04	
170	-1.85000e+00	1.509459e-04	

Index   v-sweep         i(vds)          
--------------------------------------------------------------------------------
171	-1.90000e+00	1.511555e-04	
172	-1.95000e+00	1.513589e-04	
173	-2.00000e+00	1.515567e-04	
174	-2.05000e+00	1.517493e-04	
175	-2.10000e+00	1.519369e-04	
176	-2.15000e+00	1.521199e-04	
177	-2.20000e+00	1.522986e-04	
178	-2.25000e+00	1.524732e-04	
179	-2.30000e+00	1.526440e-04	
180	-2.35000e+00	1.528112e-04	
181	-2.40000e+00	1.529750e-04	
182	-2.45000e+00	1.531355e-04	
183	-2.50000e+00	1.532930e-04	
184	-2.55000e+00	1.534476e-04	
185	-2.60000e+00	1.535994e-04	
186	-2.65000e+00	1.537486e-04	
187	-2.70000e+00	1.538953e-04	
188	-2.75000e+00	1.540397e-04	
189	-2.80000e+00	1.541817e-04	
190	-2.85000e+00	1.543216e-04	
191	-2.90000e+00	1.544594e-04	
192	-2.95000e+00	1.545952e-04	
193	-3.00000e+00	1.547290e-04	
194	-3.05000e+00	1.548611e-04	
195	-3.10000e+00	1.549914e-04	
196	-3.15000e+00	1.551200e-04	
197	-3.20000e+00	1.552470e-04	
198	-3.25000e+00	1.553724e-04	
199	-3.30000e+00	1.554963e-04	
200	-3.35000e+00	1.556188e-04	
201	-3.40000e+00	1.557398e-04	
202	-3.45000e+00	1.558596e-04	
203	-3.50000e+00	1.559780e-04	
204	-3.55000e+00	1.560952e-04	
205	-3.60000e+00	1.562113e-04	
206	-3.65000e+00	1.563262e-04	
207	-3.70000e+00	1.564400e-04	
208	-3.75000e+00	1.565527e-04	
209	-3.80000e+00	1.566645e-04	
210	-3.85000e+00	1.567753e-04	
211	-3.90000e+00	1.568853e-04	
212	-3.95000e+00	1.569945e-04	
213	-4.00000e+00	1.571029e-04	
214	-4.05000e+00	1.572106e-04	
215	-4.10000e+00	1.573178e-04	
216	-4.15000e+00	1.574244e-04	
217	-4.20000e+00	1.575307e-04	
218	-4.25000e+00	1.576366e-04	
219	-4.30000e+00	1.577424e-04	
220	-4.35000e+00	1.578481e-04	
221	-4.40000e+00	1.579538e-04	
222	-4.45000e+00	1.580599e-04	
223	-4.50000e+00	1.581663e-04	
224	-4.55000e+00	1.582733e-04	
225	-4.60000e+00	1.583812e-04	
226	-4.65000e+00	1.584902e-04	
227	-4.70000e+00	1.586004e-04	
228	-4.75000e+00	1.587123e-04	

Index   v-sweep         i(vds)          
--------------------------------------------------------------------------------
229	-4.80000e+00	1.588261e-04	
230	-4.85000e+00	1.589422e-04	
231	-4.90000e+00	1.590609e-04	
232	-4.95000e+00	1.591826e-04	
233	-5.00000e+00	1.593078e-04	
234	-5.05000e+00	1.594369e-04	
235	-5.10000e+00	1.595705e-04	
236	-5.15000e+00	1.597091e-04	
237	-5.20000e+00	1.598533e-04	
238	-5.25000e+00	1.600037e-04	
239	-5.30000e+00	1.601609e-04	
240	-5.35000e+00	1.603258e-04	
241	-5.40000e+00	1.604991e-04	
242	-5.45000e+00	1.606816e-04	
243	-5.50000e+00	1.608741e-04	
244	-5.55000e+00	1.610776e-04	
245	-5.60000e+00	1.612931e-04	
246	-5.65000e+00	1.615216e-04	
247	-5.70000e+00	1.617641e-04	
248	-5.75000e+00	1.620218e-04	
249	-5.80000e+00	1.622959e-04	
250	-5.85000e+00	1.625877e-04	
251	-5.90000e+00	1.628984e-04	
252	-5.95000e+00	1.632295e-04	
253	-6.00000e+00	1.635824e-04	
254	-6.05000e+00	1.639585e-04	
255	-6.10000e+00	1.643595e-04	
256	-6.15000e+00	1.647869e-04	
257	-6.20000e+00	1.652424e-04	
258	-6.25000e+00	1.657279e-04	
259	-6.30000e+00	1.662451e-04	
260	-6.35000e+00	1.667958e-04	
261	-6.40000e+00	1.673821e-04	
262	-6.45000e+00	1.680060e-04	
263	-6.50000e+00	1.686694e-04	
264	-6.55000e+00	1.693746e-04	
265	-6.60000e+00	1.701237e-04	
266	0.000000e+00	-1.36861e-35	
267	-5.00000e-02	3.027539e-05	
268	-1.00000e-01	5.944099e-05	
269	-1.50000e-01	8.750386e-05	
270	-2.00000e-01	1.144710e-04	
271	-2.50000e-01	1.403495e-04	
272	-3.00000e-01	1.651461e-04	
273	-3.50000e-01	1.888680e-04	
274	-4.00000e-01	2.115219e-04	
275	-4.50000e-01	2.331148e-04	
276	-5.00000e-01	2.536535e-04	
277	-5.50000e-01	2.731449e-04	
278	-6.00000e-01	2.915958e-04	
279	-6.50000e-01	3.090130e-04	
280	-7.00000e-01	3.254034e-04	
281	-7.50000e-01	3.407741e-04	
282	-8.00000e-01	3.551319e-04	
283	-8.50000e-01	3.684841e-04	
284	-9.00000e-01	3.808382e-04	
285	-9.50000e-01	3.922019e-04	
286	-1.00000e+00	4.025838e-04	

Index   v-sweep         i(vds)          
--------------------------------------------------------------------------------
287	-1.05000e+00	4.119935e-04	
288	-1.10000e+00	4.204427e-04	
289	-1.15000e+00	4.279460e-04	
290	-1.20000e+00	4.345240e-04	
291	-1.25000e+00	4.402071e-04	
292	-1.30000e+00	4.450420e-04	
293	-1.35000e+00	4.490988e-04	
294	-1.40000e+00	4.524751e-04	
295	-1.45000e+00	4.552886e-04	
296	-1.50000e+00	4.576589e-04	
297	-1.55000e+00	4.596900e-04	
298	-1.60000e+00	4.614625e-04	
299	-1.65000e+00	4.630354e-04	
300	-1.70000e+00	4.644512e-04	
301	-1.75000e+00	4.657406e-04	
302	-1.80000e+00	4.669263e-04	
303	-1.85000e+00	4.680254e-04	
304	-1.90000e+00	4.690510e-04	
305	-1.95000e+00	4.700137e-04	
306	-2.00000e+00	4.709217e-04	
307	-2.05000e+00	4.717817e-04	
308	-2.10000e+00	4.725994e-04	
309	-2.15000e+00	4.733795e-04	
310	-2.20000e+00	4.741258e-04	
311	-2.25000e+00	4.748416e-04	
312	-2.30000e+00	4.755300e-04	
313	-2.35000e+00	4.761932e-04	
314	-2.40000e+00	4.768335e-04	
315	-2.45000e+00	4.774528e-04	
316	-2.50000e+00	4.780528e-04	
317	-2.55000e+00	4.786349e-04	
318	-2.60000e+00	4.792004e-04	
319	-2.65000e+00	4.797505e-04	
320	-2.70000e+00	4.802862e-04	
321	-2.75000e+00	4.808086e-04	
322	-2.80000e+00	4.813184e-04	
323	-2.85000e+00	4.818165e-04	
324	-2.90000e+00	4.823035e-04	
325	-2.95000e+00	4.827801e-04	
326	-3.00000e+00	4.832469e-04	
327	-3.05000e+00	4.837044e-04	
328	-3.10000e+00	4.841531e-04	
329	-3.15000e+00	4.845936e-04	
330	-3.20000e+00	4.850261e-04	
331	-3.25000e+00	4.854512e-04	
332	-3.30000e+00	4.858691e-04	
333	-3.35000e+00	4.862802e-04	
334	-3.40000e+00	4.866848e-04	
335	-3.45000e+00	4.870833e-04	
336	-3.50000e+00	4.874758e-04	
337	-3.55000e+00	4.878627e-04	
338	-3.60000e+00	4.882442e-04	
339	-3.65000e+00	4.886205e-04	
340	-3.70000e+00	4.889918e-04	
341	-3.75000e+00	4.893583e-04	
342	-3.80000e+00	4.897203e-04	
343	-3.85000e+00	4.900778e-04	
344	-3.90000e+00	4.904311e-04	

Index   v-sweep         i(vds)          
--------------------------------------------------------------------------------
345	-3.95000e+00	4.907803e-04	
346	-4.00000e+00	4.911257e-04	
347	-4.05000e+00	4.914672e-04	
348	-4.10000e+00	4.918051e-04	
349	-4.15000e+00	4.921396e-04	
350	-4.20000e+00	4.924706e-04	
351	-4.25000e+00	4.927985e-04	
352	-4.30000e+00	4.931234e-04	
353	-4.35000e+00	4.934453e-04	
354	-4.40000e+00	4.937644e-04	
355	-4.45000e+00	4.940809e-04	
356	-4.50000e+00	4.943950e-04	
357	-4.55000e+00	4.947067e-04	
358	-4.60000e+00	4.950164e-04	
359	-4.65000e+00	4.953242e-04	
360	-4.70000e+00	4.956302e-04	
361	-4.75000e+00	4.959349e-04	
362	-4.80000e+00	4.962384e-04	
363	-4.85000e+00	4.965410e-04	
364	-4.90000e+00	4.968431e-04	
365	-4.95000e+00	4.971450e-04	
366	-5.00000e+00	4.974471e-04	
367	-5.05000e+00	4.977499e-04	
368	-5.10000e+00	4.980539e-04	
369	-5.15000e+00	4.983596e-04	
370	-5.20000e+00	4.986677e-04	
371	-5.25000e+00	4.989789e-04	
372	-5.30000e+00	4.992938e-04	
373	-5.35000e+00	4.996133e-04	
374	-5.40000e+00	4.999384e-04	
375	-5.45000e+00	5.002699e-04	
376	-5.50000e+00	5.006091e-04	
377	-5.55000e+00	5.009570e-04	
378	-5.60000e+00	5.013150e-04	
379	-5.65000e+00	5.016843e-04	
380	-5.70000e+00	5.020666e-04	
381	-5.75000e+00	5.024635e-04	
382	-5.80000e+00	5.028766e-04	
383	-5.85000e+00	5.033079e-04	
384	-5.90000e+00	5.037593e-04	
385	-5.95000e+00	5.042330e-04	
386	-6.00000e+00	5.047313e-04	
387	-6.05000e+00	5.052566e-04	
388	-6.10000e+00	5.058115e-04	
389	-6.15000e+00	5.063988e-04	
390	-6.20000e+00	5.070213e-04	
391	-6.25000e+00	5.076821e-04	
392	-6.30000e+00	5.083845e-04	
393	-6.35000e+00	5.091318e-04	
394	-6.40000e+00	5.099278e-04	
395	-6.45000e+00	5.107761e-04	
396	-6.50000e+00	5.116807e-04	
397	-6.55000e+00	5.126457e-04	
398	-6.60000e+00	5.136755e-04	
399	0.000000e+00	3.875676e-36	
400	-5.00000e-02	3.990251e-05	
401	-1.00000e-01	7.879188e-05	
402	-1.50000e-01	1.166737e-04	

Index   v-sweep         i(vds)          
--------------------------------------------------------------------------------
403	-2.00000e-01	1.535537e-04	
404	-2.50000e-01	1.894372e-04	
405	-3.00000e-01	2.243299e-04	
406	-3.50000e-01	2.582374e-04	
407	-4.00000e-01	2.911649e-04	
408	-4.50000e-01	3.231181e-04	
409	-5.00000e-01	3.541024e-04	
410	-5.50000e-01	3.841232e-04	
411	-6.00000e-01	4.131858e-04	
412	-6.50000e-01	4.412956e-04	
413	-7.00000e-01	4.684581e-04	
414	-7.50000e-01	4.946784e-04	
415	-8.00000e-01	5.199619e-04	
416	-8.50000e-01	5.443140e-04	
417	-9.00000e-01	5.677397e-04	
418	-9.50000e-01	5.902445e-04	
419	-1.00000e+00	6.118335e-04	
420	-1.05000e+00	6.325119e-04	
421	-1.10000e+00	6.522851e-04	
422	-1.15000e+00	6.711582e-04	
423	-1.20000e+00	6.891364e-04	
424	-1.25000e+00	7.062250e-04	
425	-1.30000e+00	7.224294e-04	
426	-1.35000e+00	7.377548e-04	
427	-1.40000e+00	7.522068e-04	
428	-1.45000e+00	7.657910e-04	
429	-1.50000e+00	7.785133e-04	
430	-1.55000e+00	7.903797e-04	
431	-1.60000e+00	8.013972e-04	
432	-1.65000e+00	8.115733e-04	
433	-1.70000e+00	8.209170e-04	
434	-1.75000e+00	8.294394e-04	
435	-1.80000e+00	8.371555e-04	
436	-1.85000e+00	8.440857e-04	
437	-1.90000e+00	8.502596e-04	
438	-1.95000e+00	8.557191e-04	
439	-2.00000e+00	8.605215e-04	
440	-2.05000e+00	8.647383e-04	
441	-2.10000e+00	8.684494e-04	
442	-2.15000e+00	8.717350e-04	
443	-2.20000e+00	8.746677e-04	
444	-2.25000e+00	8.773096e-04	
445	-2.30000e+00	8.797108e-04	
446	-2.35000e+00	8.819116e-04	
447	-2.40000e+00	8.839440e-04	
448	-2.45000e+00	8.858333e-04	
449	-2.50000e+00	8.876000e-04	
450	-2.55000e+00	8.892606e-04	
451	-2.60000e+00	8.908285e-04	
452	-2.65000e+00	8.923148e-04	
453	-2.70000e+00	8.937289e-04	
454	-2.75000e+00	8.950786e-04	
455	-2.80000e+00	8.963705e-04	
456	-2.85000e+00	8.976102e-04	
457	-2.90000e+00	8.988028e-04	
458	-2.95000e+00	8.999523e-04	
459	-3.00000e+00	9.010625e-04	
460	-3.05000e+00	9.021366e-04	

Index   v-sweep         i(vds)          
--------------------------------------------------------------------------------
461	-3.10000e+00	9.031775e-04	
462	-3.15000e+00	9.041878e-04	
463	-3.20000e+00	9.051696e-04	
464	-3.25000e+00	9.061250e-04	
465	-3.30000e+00	9.070558e-04	
466	-3.35000e+00	9.079637e-04	
467	-3.40000e+00	9.088501e-04	
468	-3.45000e+00	9.097164e-04	
469	-3.50000e+00	9.105638e-04	
470	-3.55000e+00	9.113933e-04	
471	-3.60000e+00	9.122061e-04	
472	-3.65000e+00	9.130030e-04	
473	-3.70000e+00	9.137848e-04	
474	-3.75000e+00	9.145525e-04	
475	-3.80000e+00	9.153067e-04	
476	-3.85000e+00	9.160481e-04	
477	-3.90000e+00	9.167773e-04	
478	-3.95000e+00	9.174949e-04	
479	-4.00000e+00	9.182015e-04	
480	-4.05000e+00	9.188975e-04	
481	-4.10000e+00	9.195834e-04	
482	-4.15000e+00	9.202596e-04	
483	-4.20000e+00	9.209267e-04	
484	-4.25000e+00	9.215849e-04	
485	-4.30000e+00	9.222346e-04	
486	-4.35000e+00	9.228762e-04	
487	-4.40000e+00	9.235099e-04	
488	-4.45000e+00	9.241362e-04	
489	-4.50000e+00	9.247552e-04	
490	-4.55000e+00	9.253673e-04	
491	-4.60000e+00	9.259727e-04	
492	-4.65000e+00	9.265718e-04	
493	-4.70000e+00	9.271646e-04	
494	-4.75000e+00	9.277516e-04	
495	-4.80000e+00	9.283328e-04	
496	-4.85000e+00	9.289087e-04	
497	-4.90000e+00	9.294793e-04	
498	-4.95000e+00	9.300450e-04	
499	-5.00000e+00	9.306060e-04	
500	-5.05000e+00	9.311626e-04	
501	-5.10000e+00	9.317150e-04	
502	-5.15000e+00	9.322637e-04	
503	-5.20000e+00	9.328088e-04	
504	-5.25000e+00	9.333508e-04	
505	-5.30000e+00	9.338900e-04	
506	-5.35000e+00	9.344269e-04	
507	-5.40000e+00	9.349620e-04	
508	-5.45000e+00	9.354958e-04	
509	-5.50000e+00	9.360289e-04	
510	-5.55000e+00	9.365620e-04	
511	-5.60000e+00	9.370958e-04	
512	-5.65000e+00	9.376311e-04	
513	-5.70000e+00	9.381689e-04	
514	-5.75000e+00	9.387102e-04	
515	-5.80000e+00	9.392561e-04	
516	-5.85000e+00	9.398078e-04	
517	-5.90000e+00	9.403668e-04	
518	-5.95000e+00	9.409345e-04	

Index   v-sweep         i(vds)          
--------------------------------------------------------------------------------
519	-6.00000e+00	9.415127e-04	
520	-6.05000e+00	9.421031e-04	
521	-6.10000e+00	9.427077e-04	
522	-6.15000e+00	9.433288e-04	
523	-6.20000e+00	9.439686e-04	
524	-6.25000e+00	9.446298e-04	
525	-6.30000e+00	9.453151e-04	
526	-6.35000e+00	9.460274e-04	
527	-6.40000e+00	9.467701e-04	
528	-6.45000e+00	9.475466e-04	
529	-6.50000e+00	9.483605e-04	
530	-6.55000e+00	9.492159e-04	
531	-6.60000e+00	9.501170e-04	
532	0.000000e+00	1.000583e-19	
533	-5.00000e-02	4.729118e-05	
534	-1.00000e-01	9.365641e-05	
535	-1.50000e-01	1.391003e-04	
536	-2.00000e-01	1.836273e-04	
537	-2.50000e-01	2.272421e-04	
538	-3.00000e-01	2.699490e-04	
539	-3.50000e-01	3.117527e-04	
540	-4.00000e-01	3.526576e-04	
541	-4.50000e-01	3.926682e-04	
542	-5.00000e-01	4.317889e-04	
543	-5.50000e-01	4.700241e-04	
544	-6.00000e-01	5.073782e-04	
545	-6.50000e-01	5.438557e-04	
546	-7.00000e-01	5.794608e-04	
547	-7.50000e-01	6.141980e-04	
548	-8.00000e-01	6.480715e-04	
549	-8.50000e-01	6.810857e-04	
550	-9.00000e-01	7.132448e-04	
551	-9.50000e-01	7.445532e-04	
552	-1.00000e+00	7.750151e-04	
553	-1.05000e+00	8.046347e-04	
554	-1.10000e+00	8.334163e-04	
555	-1.15000e+00	8.613640e-04	
556	-1.20000e+00	8.884821e-04	
557	-1.25000e+00	9.147747e-04	
558	-1.30000e+00	9.402460e-04	
559	-1.35000e+00	9.649002e-04	
560	-1.40000e+00	9.887413e-04	
561	-1.45000e+00	1.011774e-03	
562	-1.50000e+00	1.034001e-03	
563	-1.55000e+00	1.055428e-03	
564	-1.60000e+00	1.076058e-03	
565	-1.65000e+00	1.095896e-03	
566	-1.70000e+00	1.114945e-03	
567	-1.75000e+00	1.133210e-03	
568	-1.80000e+00	1.150695e-03	
569	-1.85000e+00	1.167403e-03	
570	-1.90000e+00	1.183340e-03	
571	-1.95000e+00	1.198510e-03	
572	-2.00000e+00	1.212915e-03	
573	-2.05000e+00	1.226562e-03	
574	-2.10000e+00	1.239454e-03	
575	-2.15000e+00	1.251597e-03	
576	-2.20000e+00	1.262995e-03	

Index   v-sweep         i(vds)          
--------------------------------------------------------------------------------
577	-2.25000e+00	1.273653e-03	
578	-2.30000e+00	1.283579e-03	
579	-2.35000e+00	1.292780e-03	
580	-2.40000e+00	1.301265e-03	
581	-2.45000e+00	1.309048e-03	
582	-2.50000e+00	1.316149e-03	
583	-2.55000e+00	1.322593e-03	
584	-2.60000e+00	1.328418e-03	
585	-2.65000e+00	1.333671e-03	
586	-2.70000e+00	1.338411e-03	
587	-2.75000e+00	1.342697e-03	
588	-2.80000e+00	1.346590e-03	
589	-2.85000e+00	1.350145e-03	
590	-2.90000e+00	1.353411e-03	
591	-2.95000e+00	1.356430e-03	
592	-3.00000e+00	1.359235e-03	
593	-3.05000e+00	1.361857e-03	
594	-3.10000e+00	1.364319e-03	
595	-3.15000e+00	1.366642e-03	
596	-3.20000e+00	1.368841e-03	
597	-3.25000e+00	1.370930e-03	
598	-3.30000e+00	1.372923e-03	
599	-3.35000e+00	1.374828e-03	
600	-3.40000e+00	1.376655e-03	
601	-3.45000e+00	1.378411e-03	
602	-3.50000e+00	1.380102e-03	
603	-3.55000e+00	1.381734e-03	
604	-3.60000e+00	1.383312e-03	
605	-3.65000e+00	1.384841e-03	
606	-3.70000e+00	1.386324e-03	
607	-3.75000e+00	1.387764e-03	
608	-3.80000e+00	1.389165e-03	
609	-3.85000e+00	1.390530e-03	
610	-3.90000e+00	1.391861e-03	
611	-3.95000e+00	1.393159e-03	
612	-4.00000e+00	1.394428e-03	
613	-4.05000e+00	1.395669e-03	
614	-4.10000e+00	1.396884e-03	
615	-4.15000e+00	1.398074e-03	
616	-4.20000e+00	1.399241e-03	
617	-4.25000e+00	1.400385e-03	
618	-4.30000e+00	1.401509e-03	
619	-4.35000e+00	1.402613e-03	
620	-4.40000e+00	1.403698e-03	
621	-4.45000e+00	1.404765e-03	
622	-4.50000e+00	1.405815e-03	
623	-4.55000e+00	1.406849e-03	
624	-4.60000e+00	1.407868e-03	
625	-4.65000e+00	1.408872e-03	
626	-4.70000e+00	1.409862e-03	
627	-4.75000e+00	1.410838e-03	
628	-4.80000e+00	1.411802e-03	
629	-4.85000e+00	1.412753e-03	
630	-4.90000e+00	1.413692e-03	
631	-4.95000e+00	1.414620e-03	
632	-5.00000e+00	1.415537e-03	
633	-5.05000e+00	1.416444e-03	
634	-5.10000e+00	1.417340e-03	

Index   v-sweep         i(vds)          
--------------------------------------------------------------------------------
635	-5.15000e+00	1.418227e-03	
636	-5.20000e+00	1.419104e-03	
637	-5.25000e+00	1.419973e-03	
638	-5.30000e+00	1.420833e-03	
639	-5.35000e+00	1.421684e-03	
640	-5.40000e+00	1.422528e-03	
641	-5.45000e+00	1.423364e-03	
642	-5.50000e+00	1.424193e-03	
643	-5.55000e+00	1.425015e-03	
644	-5.60000e+00	1.425831e-03	
645	-5.65000e+00	1.426640e-03	
646	-5.70000e+00	1.427444e-03	
647	-5.75000e+00	1.428242e-03	
648	-5.80000e+00	1.429036e-03	
649	-5.85000e+00	1.429826e-03	
650	-5.90000e+00	1.430612e-03	
651	-5.95000e+00	1.431396e-03	
652	-6.00000e+00	1.432177e-03	
653	-6.05000e+00	1.432956e-03	
654	-6.10000e+00	1.433736e-03	
655	-6.15000e+00	1.434516e-03	
656	-6.20000e+00	1.435297e-03	
657	-6.25000e+00	1.436082e-03	
658	-6.30000e+00	1.436871e-03	
659	-6.35000e+00	1.437666e-03	
660	-6.40000e+00	1.438469e-03	
661	-6.45000e+00	1.439282e-03	
662	-6.50000e+00	1.440107e-03	
663	-6.55000e+00	1.440945e-03	
664	-6.60000e+00	1.441801e-03	
665	0.000000e+00	-8.36863e-36	
666	-5.00000e-02	5.305311e-05	
667	-1.00000e-01	1.052573e-04	
668	-1.50000e-01	1.566165e-04	
669	-2.00000e-01	2.071343e-04	
670	-2.50000e-01	2.568146e-04	
671	-3.00000e-01	3.056611e-04	
672	-3.50000e-01	3.536775e-04	
673	-4.00000e-01	4.008676e-04	
674	-4.50000e-01	4.472351e-04	
675	-5.00000e-01	4.927836e-04	
676	-5.50000e-01	5.375169e-04	
677	-6.00000e-01	5.814386e-04	
678	-6.50000e-01	6.245523e-04	
679	-7.00000e-01	6.668617e-04	
680	-7.50000e-01	7.083704e-04	
681	-8.00000e-01	7.490820e-04	
682	-8.50000e-01	7.890002e-04	
683	-9.00000e-01	8.281284e-04	
684	-9.50000e-01	8.664703e-04	
685	-1.00000e+00	9.040293e-04	
686	-1.05000e+00	9.408091e-04	
687	-1.10000e+00	9.768132e-04	
688	-1.15000e+00	1.012045e-03	
689	-1.20000e+00	1.046508e-03	
690	-1.25000e+00	1.080206e-03	
691	-1.30000e+00	1.113142e-03	
692	-1.35000e+00	1.145320e-03	

Index   v-sweep         i(vds)          
--------------------------------------------------------------------------------
693	-1.40000e+00	1.176742e-03	
694	-1.45000e+00	1.207414e-03	
695	-1.50000e+00	1.237337e-03	
696	-1.55000e+00	1.266515e-03	
697	-1.60000e+00	1.294953e-03	
698	-1.65000e+00	1.322652e-03	
699	-1.70000e+00	1.349617e-03	
700	-1.75000e+00	1.375851e-03	
701	-1.80000e+00	1.401356e-03	
702	-1.85000e+00	1.426138e-03	
703	-1.90000e+00	1.450198e-03	
704	-1.95000e+00	1.473540e-03	
705	-2.00000e+00	1.496168e-03	
706	-2.05000e+00	1.518085e-03	
707	-2.10000e+00	1.539293e-03	
708	-2.15000e+00	1.559797e-03	
709	-2.20000e+00	1.579599e-03	
710	-2.25000e+00	1.598703e-03	
711	-2.30000e+00	1.617113e-03	
712	-2.35000e+00	1.634830e-03	
713	-2.40000e+00	1.651860e-03	
714	-2.45000e+00	1.668204e-03	
715	-2.50000e+00	1.683866e-03	
716	-2.55000e+00	1.698850e-03	
717	-2.60000e+00	1.713158e-03	
718	-2.65000e+00	1.726795e-03	
719	-2.70000e+00	1.739762e-03	
720	-2.75000e+00	1.752064e-03	
721	-2.80000e+00	1.763704e-03	
722	-2.85000e+00	1.774684e-03	
723	-2.90000e+00	1.785010e-03	
724	-2.95000e+00	1.794685e-03	
725	-3.00000e+00	1.803714e-03	
726	-3.05000e+00	1.812105e-03	
727	-3.10000e+00	1.819869e-03	
728	-3.15000e+00	1.827024e-03	
729	-3.20000e+00	1.833596e-03	
730	-3.25000e+00	1.839620e-03	
731	-3.30000e+00	1.845140e-03	
732	-3.35000e+00	1.850204e-03	
733	-3.40000e+00	1.854862e-03	
734	-3.45000e+00	1.859164e-03	
735	-3.50000e+00	1.863153e-03	
736	-3.55000e+00	1.866869e-03	
737	-3.60000e+00	1.870345e-03	
738	-3.65000e+00	1.873613e-03	
739	-3.70000e+00	1.876695e-03	
740	-3.75000e+00	1.879615e-03	
741	-3.80000e+00	1.882389e-03	
742	-3.85000e+00	1.885034e-03	
743	-3.90000e+00	1.887562e-03	
744	-3.95000e+00	1.889986e-03	
745	-4.00000e+00	1.892315e-03	
746	-4.05000e+00	1.894558e-03	
747	-4.10000e+00	1.896722e-03	
748	-4.15000e+00	1.898814e-03	
749	-4.20000e+00	1.900840e-03	
750	-4.25000e+00	1.902805e-03	

Index   v-sweep         i(vds)          
--------------------------------------------------------------------------------
751	-4.30000e+00	1.904713e-03	
752	-4.35000e+00	1.906570e-03	
753	-4.40000e+00	1.908377e-03	
754	-4.45000e+00	1.910140e-03	
755	-4.50000e+00	1.911860e-03	
756	-4.55000e+00	1.913541e-03	
757	-4.60000e+00	1.915184e-03	
758	-4.65000e+00	1.916793e-03	
759	-4.70000e+00	1.918369e-03	
760	-4.75000e+00	1.919914e-03	
761	-4.80000e+00	1.921430e-03	
762	-4.85000e+00	1.922918e-03	
763	-4.90000e+00	1.924380e-03	
764	-4.95000e+00	1.925818e-03	
765	-5.00000e+00	1.927231e-03	
766	-5.05000e+00	1.928623e-03	
767	-5.10000e+00	1.929993e-03	
768	-5.15000e+00	1.931342e-03	
769	-5.20000e+00	1.932672e-03	
770	-5.25000e+00	1.933984e-03	
771	-5.30000e+00	1.935278e-03	
772	-5.35000e+00	1.936555e-03	
773	-5.40000e+00	1.937816e-03	
774	-5.45000e+00	1.939061e-03	
775	-5.50000e+00	1.940291e-03	
776	-5.55000e+00	1.941507e-03	
777	-5.60000e+00	1.942709e-03	
778	-5.65000e+00	1.943898e-03	
779	-5.70000e+00	1.945074e-03	
780	-5.75000e+00	1.946238e-03	
781	-5.80000e+00	1.947390e-03	
782	-5.85000e+00	1.948530e-03	
783	-5.90000e+00	1.949660e-03	
784	-5.95000e+00	1.950780e-03	
785	-6.00000e+00	1.951889e-03	
786	-6.05000e+00	1.952989e-03	
787	-6.10000e+00	1.954080e-03	
788	-6.15000e+00	1.955163e-03	
789	-6.20000e+00	1.956237e-03	
790	-6.25000e+00	1.957304e-03	
791	-6.30000e+00	1.958363e-03	
792	-6.35000e+00	1.959417e-03	
793	-6.40000e+00	1.960465e-03	
794	-6.45000e+00	1.961508e-03	
795	-6.50000e+00	1.962547e-03	
796	-6.55000e+00	1.963582e-03	
797	-6.60000e+00	1.964616e-03	
Note: No ".plot", ".print", or ".fourier" lines; no simulations run
