
Note: Compatibility modes selected: hs

Warning: m=xx on .subckt line will override multiplier m hierarchy!


Circuit: ***************************

Doing analysis at TEMP = 125.000000 and TNOM = 125.000000


No. of Data Rows : 798
                          ***************************
                          DC transfer characteristic  Mon Jan  9 13:58:51  2023
--------------------------------------------------------------------------------
Index   v-sweep         i(vds)          
--------------------------------------------------------------------------------
0	0.000000e+00	-5.00708e-23	
1	-5.00000e-02	2.937531e-07	
2	-1.00000e-01	4.467984e-07	
3	-1.50000e-01	5.305531e-07	
4	-2.00000e-01	5.686867e-07	
5	-2.50000e-01	5.816766e-07	
6	-3.00000e-01	5.858171e-07	
7	-3.50000e-01	5.874519e-07	
8	-4.00000e-01	5.882923e-07	
9	-4.50000e-01	5.888257e-07	
10	-5.00000e-01	5.892180e-07	
11	-5.50000e-01	5.895362e-07	
12	-6.00000e-01	5.898111e-07	
13	-6.50000e-01	5.900584e-07	
14	-7.00000e-01	5.902869e-07	
15	-7.50000e-01	5.905019e-07	
16	-8.00000e-01	5.907069e-07	
17	-8.50000e-01	5.909039e-07	
18	-9.00000e-01	5.910945e-07	
19	-9.50000e-01	5.912799e-07	
20	-1.00000e+00	5.914608e-07	
21	-1.05000e+00	5.916380e-07	
22	-1.10000e+00	5.918118e-07	
23	-1.15000e+00	5.919827e-07	
24	-1.20000e+00	5.921510e-07	
25	-1.25000e+00	5.923169e-07	
26	-1.30000e+00	5.924807e-07	
27	-1.35000e+00	5.926426e-07	
28	-1.40000e+00	5.928027e-07	
29	-1.45000e+00	5.929611e-07	
30	-1.50000e+00	5.931180e-07	
31	-1.55000e+00	5.932736e-07	
32	-1.60000e+00	5.934278e-07	
33	-1.65000e+00	5.935807e-07	
34	-1.70000e+00	5.937325e-07	
35	-1.75000e+00	5.938833e-07	
36	-1.80000e+00	5.940329e-07	
37	-1.85000e+00	5.941817e-07	
38	-1.90000e+00	5.943295e-07	
39	-1.95000e+00	5.944764e-07	
40	-2.00000e+00	5.946225e-07	
41	-2.05000e+00	5.947678e-07	
42	-2.10000e+00	5.949124e-07	
43	-2.15000e+00	5.950563e-07	
44	-2.20000e+00	5.951994e-07	
45	-2.25000e+00	5.953419e-07	
46	-2.30000e+00	5.954838e-07	
47	-2.35000e+00	5.956251e-07	
48	-2.40000e+00	5.957658e-07	
49	-2.45000e+00	5.959060e-07	
50	-2.50000e+00	5.960456e-07	
51	-2.55000e+00	5.961848e-07	
52	-2.60000e+00	5.963234e-07	
53	-2.65000e+00	5.964616e-07	
54	-2.70000e+00	5.965993e-07	

Index   v-sweep         i(vds)          
--------------------------------------------------------------------------------
55	-2.75000e+00	5.967366e-07	
56	-2.80000e+00	5.968735e-07	
57	-2.85000e+00	5.970100e-07	
58	-2.90000e+00	5.971462e-07	
59	-2.95000e+00	5.972820e-07	
60	-3.00000e+00	5.974175e-07	
61	-3.05000e+00	5.975527e-07	
62	-3.10000e+00	5.976877e-07	
63	-3.15000e+00	5.978225e-07	
64	-3.20000e+00	5.979572e-07	
65	-3.25000e+00	5.980917e-07	
66	-3.30000e+00	5.982263e-07	
67	-3.35000e+00	5.983609e-07	
68	-3.40000e+00	5.984957e-07	
69	-3.45000e+00	5.986308e-07	
70	-3.50000e+00	5.987663e-07	
71	-3.55000e+00	5.989024e-07	
72	-3.60000e+00	5.990392e-07	
73	-3.65000e+00	5.991769e-07	
74	-3.70000e+00	5.993159e-07	
75	-3.75000e+00	5.994562e-07	
76	-3.80000e+00	5.995984e-07	
77	-3.85000e+00	5.997426e-07	
78	-3.90000e+00	5.998893e-07	
79	-3.95000e+00	6.000389e-07	
80	-4.00000e+00	6.001920e-07	
81	-4.05000e+00	6.003490e-07	
82	-4.10000e+00	6.005106e-07	
83	-4.15000e+00	6.006774e-07	
84	-4.20000e+00	6.008503e-07	
85	-4.25000e+00	6.010299e-07	
86	-4.30000e+00	6.012173e-07	
87	-4.35000e+00	6.014133e-07	
88	-4.40000e+00	6.016191e-07	
89	-4.45000e+00	6.018359e-07	
90	-4.50000e+00	6.020648e-07	
91	-4.55000e+00	6.023073e-07	
92	-4.60000e+00	6.025648e-07	
93	-4.65000e+00	6.028390e-07	
94	-4.70000e+00	6.031315e-07	
95	-4.75000e+00	6.034441e-07	
96	-4.80000e+00	6.037789e-07	
97	-4.85000e+00	6.041378e-07	
98	-4.90000e+00	6.045231e-07	
99	-4.95000e+00	6.049372e-07	
100	-5.00000e+00	6.053825e-07	
101	-5.05000e+00	6.058616e-07	
102	-5.10000e+00	6.063775e-07	
103	-5.15000e+00	6.069329e-07	
104	-5.20000e+00	6.075310e-07	
105	-5.25000e+00	6.081751e-07	
106	-5.30000e+00	6.088685e-07	
107	-5.35000e+00	6.096148e-07	
108	-5.40000e+00	6.104177e-07	
109	-5.45000e+00	6.112813e-07	
110	-5.50000e+00	6.122094e-07	
111	-5.55000e+00	6.132064e-07	
112	-5.60000e+00	6.142767e-07	

Index   v-sweep         i(vds)          
--------------------------------------------------------------------------------
113	-5.65000e+00	6.154249e-07	
114	-5.70000e+00	6.166557e-07	
115	-5.75000e+00	6.179741e-07	
116	-5.80000e+00	6.193851e-07	
117	-5.85000e+00	6.208941e-07	
118	-5.90000e+00	6.225065e-07	
119	-5.95000e+00	6.242280e-07	
120	-6.00000e+00	6.260644e-07	
121	-6.05000e+00	6.280216e-07	
122	-6.10000e+00	6.301058e-07	
123	-6.15000e+00	6.323233e-07	
124	-6.20000e+00	6.346807e-07	
125	-6.25000e+00	6.371847e-07	
126	-6.30000e+00	6.398420e-07	
127	-6.35000e+00	6.426597e-07	
128	-6.40000e+00	6.456449e-07	
129	-6.45000e+00	6.488051e-07	
130	-6.50000e+00	6.521476e-07	
131	-6.55000e+00	6.556803e-07	
132	-6.60000e+00	6.594108e-07	
133	0.000000e+00	-5.99518e-22	
134	-5.00000e-02	1.108571e-06	
135	-1.00000e-01	2.070445e-06	
136	-1.50000e-01	2.954793e-06	
137	-2.00000e-01	3.777772e-06	
138	-2.50000e-01	4.543167e-06	
139	-3.00000e-01	5.251883e-06	
140	-3.50000e-01	5.904156e-06	
141	-4.00000e-01	6.500080e-06	
142	-4.50000e-01	7.039729e-06	
143	-5.00000e-01	7.523199e-06	
144	-5.50000e-01	7.950637e-06	
145	-6.00000e-01	8.322281e-06	
146	-6.50000e-01	8.638536e-06	
147	-7.00000e-01	8.900134e-06	
148	-7.50000e-01	9.108437e-06	
149	-8.00000e-01	9.266029e-06	
150	-8.50000e-01	9.377651e-06	
151	-9.00000e-01	9.451065e-06	
152	-9.50000e-01	9.496528e-06	
153	-1.00000e+00	9.524234e-06	
154	-1.05000e+00	9.541800e-06	
155	-1.10000e+00	9.553830e-06	
156	-1.15000e+00	9.562807e-06	
157	-1.20000e+00	9.570028e-06	
158	-1.25000e+00	9.576183e-06	
159	-1.30000e+00	9.581655e-06	
160	-1.35000e+00	9.586664e-06	
161	-1.40000e+00	9.591345e-06	
162	-1.45000e+00	9.595783e-06	
163	-1.50000e+00	9.600034e-06	
164	-1.55000e+00	9.604136e-06	
165	-1.60000e+00	9.608118e-06	
166	-1.65000e+00	9.611999e-06	
167	-1.70000e+00	9.615794e-06	
168	-1.75000e+00	9.619515e-06	
169	-1.80000e+00	9.623172e-06	
170	-1.85000e+00	9.626771e-06	

Index   v-sweep         i(vds)          
--------------------------------------------------------------------------------
171	-1.90000e+00	9.630319e-06	
172	-1.95000e+00	9.633821e-06	
173	-2.00000e+00	9.637281e-06	
174	-2.05000e+00	9.640702e-06	
175	-2.10000e+00	9.644087e-06	
176	-2.15000e+00	9.647440e-06	
177	-2.20000e+00	9.650763e-06	
178	-2.25000e+00	9.654057e-06	
179	-2.30000e+00	9.657325e-06	
180	-2.35000e+00	9.660568e-06	
181	-2.40000e+00	9.663787e-06	
182	-2.45000e+00	9.666985e-06	
183	-2.50000e+00	9.670162e-06	
184	-2.55000e+00	9.673319e-06	
185	-2.60000e+00	9.676457e-06	
186	-2.65000e+00	9.679578e-06	
187	-2.70000e+00	9.682682e-06	
188	-2.75000e+00	9.685770e-06	
189	-2.80000e+00	9.688843e-06	
190	-2.85000e+00	9.691901e-06	
191	-2.90000e+00	9.694945e-06	
192	-2.95000e+00	9.697976e-06	
193	-3.00000e+00	9.700994e-06	
194	-3.05000e+00	9.704000e-06	
195	-3.10000e+00	9.706994e-06	
196	-3.15000e+00	9.709977e-06	
197	-3.20000e+00	9.712948e-06	
198	-3.25000e+00	9.715910e-06	
199	-3.30000e+00	9.718861e-06	
200	-3.35000e+00	9.721802e-06	
201	-3.40000e+00	9.724735e-06	
202	-3.45000e+00	9.727658e-06	
203	-3.50000e+00	9.730574e-06	
204	-3.55000e+00	9.733481e-06	
205	-3.60000e+00	9.736381e-06	
206	-3.65000e+00	9.739274e-06	
207	-3.70000e+00	9.742160e-06	
208	-3.75000e+00	9.745041e-06	
209	-3.80000e+00	9.747917e-06	
210	-3.85000e+00	9.750790e-06	
211	-3.90000e+00	9.753659e-06	
212	-3.95000e+00	9.756527e-06	
213	-4.00000e+00	9.759395e-06	
214	-4.05000e+00	9.762264e-06	
215	-4.10000e+00	9.765138e-06	
216	-4.15000e+00	9.768017e-06	
217	-4.20000e+00	9.770906e-06	
218	-4.25000e+00	9.773806e-06	
219	-4.30000e+00	9.776723e-06	
220	-4.35000e+00	9.779660e-06	
221	-4.40000e+00	9.782623e-06	
222	-4.45000e+00	9.785617e-06	
223	-4.50000e+00	9.788648e-06	
224	-4.55000e+00	9.791725e-06	
225	-4.60000e+00	9.794855e-06	
226	-4.65000e+00	9.798048e-06	
227	-4.70000e+00	9.801315e-06	
228	-4.75000e+00	9.804666e-06	

Index   v-sweep         i(vds)          
--------------------------------------------------------------------------------
229	-4.80000e+00	9.808116e-06	
230	-4.85000e+00	9.811679e-06	
231	-4.90000e+00	9.815370e-06	
232	-4.95000e+00	9.819208e-06	
233	-5.00000e+00	9.823211e-06	
234	-5.05000e+00	9.827401e-06	
235	-5.10000e+00	9.831801e-06	
236	-5.15000e+00	9.836436e-06	
237	-5.20000e+00	9.841333e-06	
238	-5.25000e+00	9.846521e-06	
239	-5.30000e+00	9.852032e-06	
240	-5.35000e+00	9.857901e-06	
241	-5.40000e+00	9.864164e-06	
242	-5.45000e+00	9.870859e-06	
243	-5.50000e+00	9.878030e-06	
244	-5.55000e+00	9.885721e-06	
245	-5.60000e+00	9.893979e-06	
246	-5.65000e+00	9.902856e-06	
247	-5.70000e+00	9.912404e-06	
248	-5.75000e+00	9.922680e-06	
249	-5.80000e+00	9.933745e-06	
250	-5.85000e+00	9.945662e-06	
251	-5.90000e+00	9.958497e-06	
252	-5.95000e+00	9.972320e-06	
253	-6.00000e+00	9.987204e-06	
254	-6.05000e+00	1.000323e-05	
255	-6.10000e+00	1.002047e-05	
256	-6.15000e+00	1.003901e-05	
257	-6.20000e+00	1.005895e-05	
258	-6.25000e+00	1.008037e-05	
259	-6.30000e+00	1.010336e-05	
260	-6.35000e+00	1.012803e-05	
261	-6.40000e+00	1.015448e-05	
262	-6.45000e+00	1.018281e-05	
263	-6.50000e+00	1.021314e-05	
264	-6.55000e+00	1.024558e-05	
265	-6.60000e+00	1.028024e-05	
266	0.000000e+00	3.482092e-27	
267	-5.00000e-02	1.795526e-06	
268	-1.00000e-01	3.448496e-06	
269	-1.50000e-01	5.027943e-06	
270	-2.00000e-01	6.550004e-06	
271	-2.50000e-01	8.018453e-06	
272	-3.00000e-01	9.434179e-06	
273	-3.50000e-01	1.079740e-05	
274	-4.00000e-01	1.210816e-05	
275	-4.50000e-01	1.336650e-05	
276	-5.00000e-01	1.457241e-05	
277	-5.50000e-01	1.572593e-05	
278	-6.00000e-01	1.682704e-05	
279	-6.50000e-01	1.787578e-05	
280	-7.00000e-01	1.887216e-05	
281	-7.50000e-01	1.981619e-05	
282	-8.00000e-01	2.070789e-05	
283	-8.50000e-01	2.154729e-05	
284	-9.00000e-01	2.233442e-05	
285	-9.50000e-01	2.306932e-05	
286	-1.00000e+00	2.375204e-05	

Index   v-sweep         i(vds)          
--------------------------------------------------------------------------------
287	-1.05000e+00	2.438265e-05	
288	-1.10000e+00	2.496123e-05	
289	-1.15000e+00	2.548791e-05	
290	-1.20000e+00	2.596287e-05	
291	-1.25000e+00	2.638638e-05	
292	-1.30000e+00	2.675886e-05	
293	-1.35000e+00	2.708093e-05	
294	-1.40000e+00	2.735363e-05	
295	-1.45000e+00	2.757857e-05	
296	-1.50000e+00	2.775837e-05	
297	-1.55000e+00	2.789702e-05	
298	-1.60000e+00	2.800016e-05	
299	-1.65000e+00	2.807482e-05	
300	-1.70000e+00	2.812844e-05	
301	-1.75000e+00	2.816762e-05	
302	-1.80000e+00	2.819737e-05	
303	-1.85000e+00	2.822111e-05	
304	-1.90000e+00	2.824099e-05	
305	-1.95000e+00	2.825833e-05	
306	-2.00000e+00	2.827396e-05	
307	-2.05000e+00	2.828838e-05	
308	-2.10000e+00	2.830194e-05	
309	-2.15000e+00	2.831483e-05	
310	-2.20000e+00	2.832722e-05	
311	-2.25000e+00	2.833920e-05	
312	-2.30000e+00	2.835084e-05	
313	-2.35000e+00	2.836221e-05	
314	-2.40000e+00	2.837334e-05	
315	-2.45000e+00	2.838426e-05	
316	-2.50000e+00	2.839501e-05	
317	-2.55000e+00	2.840559e-05	
318	-2.60000e+00	2.841603e-05	
319	-2.65000e+00	2.842634e-05	
320	-2.70000e+00	2.843654e-05	
321	-2.75000e+00	2.844662e-05	
322	-2.80000e+00	2.845661e-05	
323	-2.85000e+00	2.846650e-05	
324	-2.90000e+00	2.847631e-05	
325	-2.95000e+00	2.848604e-05	
326	-3.00000e+00	2.849570e-05	
327	-3.05000e+00	2.850528e-05	
328	-3.10000e+00	2.851480e-05	
329	-3.15000e+00	2.852425e-05	
330	-3.20000e+00	2.853365e-05	
331	-3.25000e+00	2.854299e-05	
332	-3.30000e+00	2.855228e-05	
333	-3.35000e+00	2.856152e-05	
334	-3.40000e+00	2.857071e-05	
335	-3.45000e+00	2.857985e-05	
336	-3.50000e+00	2.858895e-05	
337	-3.55000e+00	2.859801e-05	
338	-3.60000e+00	2.860703e-05	
339	-3.65000e+00	2.861601e-05	
340	-3.70000e+00	2.862496e-05	
341	-3.75000e+00	2.863387e-05	
342	-3.80000e+00	2.864274e-05	
343	-3.85000e+00	2.865159e-05	
344	-3.90000e+00	2.866040e-05	

Index   v-sweep         i(vds)          
--------------------------------------------------------------------------------
345	-3.95000e+00	2.866918e-05	
346	-4.00000e+00	2.867793e-05	
347	-4.05000e+00	2.868666e-05	
348	-4.10000e+00	2.869536e-05	
349	-4.15000e+00	2.870403e-05	
350	-4.20000e+00	2.871268e-05	
351	-4.25000e+00	2.872131e-05	
352	-4.30000e+00	2.872991e-05	
353	-4.35000e+00	2.873850e-05	
354	-4.40000e+00	2.874706e-05	
355	-4.45000e+00	2.875561e-05	
356	-4.50000e+00	2.876415e-05	
357	-4.55000e+00	2.877267e-05	
358	-4.60000e+00	2.878119e-05	
359	-4.65000e+00	2.878970e-05	
360	-4.70000e+00	2.879820e-05	
361	-4.75000e+00	2.880672e-05	
362	-4.80000e+00	2.881524e-05	
363	-4.85000e+00	2.882378e-05	
364	-4.90000e+00	2.883234e-05	
365	-4.95000e+00	2.884094e-05	
366	-5.00000e+00	2.884958e-05	
367	-5.05000e+00	2.885828e-05	
368	-5.10000e+00	2.886705e-05	
369	-5.15000e+00	2.887591e-05	
370	-5.20000e+00	2.888487e-05	
371	-5.25000e+00	2.889396e-05	
372	-5.30000e+00	2.890321e-05	
373	-5.35000e+00	2.891263e-05	
374	-5.40000e+00	2.892225e-05	
375	-5.45000e+00	2.893212e-05	
376	-5.50000e+00	2.894227e-05	
377	-5.55000e+00	2.895274e-05	
378	-5.60000e+00	2.896358e-05	
379	-5.65000e+00	2.897484e-05	
380	-5.70000e+00	2.898657e-05	
381	-5.75000e+00	2.899884e-05	
382	-5.80000e+00	2.901170e-05	
383	-5.85000e+00	2.902524e-05	
384	-5.90000e+00	2.903954e-05	
385	-5.95000e+00	2.905467e-05	
386	-6.00000e+00	2.907073e-05	
387	-6.05000e+00	2.908782e-05	
388	-6.10000e+00	2.910605e-05	
389	-6.15000e+00	2.912553e-05	
390	-6.20000e+00	2.914638e-05	
391	-6.25000e+00	2.916873e-05	
392	-6.30000e+00	2.919273e-05	
393	-6.35000e+00	2.921851e-05	
394	-6.40000e+00	2.924625e-05	
395	-6.45000e+00	2.927609e-05	
396	-6.50000e+00	2.930822e-05	
397	-6.55000e+00	2.934282e-05	
398	-6.60000e+00	2.938009e-05	
399	0.000000e+00	-4.41661e-25	
400	-5.00000e-02	2.390080e-06	
401	-1.00000e-01	4.641610e-06	
402	-1.50000e-01	6.823508e-06	

Index   v-sweep         i(vds)          
--------------------------------------------------------------------------------
403	-2.00000e-01	8.951899e-06	
404	-2.50000e-01	1.103056e-05	
405	-3.00000e-01	1.306038e-05	
406	-3.50000e-01	1.504156e-05	
407	-4.00000e-01	1.697417e-05	
408	-4.50000e-01	1.885822e-05	
409	-5.00000e-01	2.069373e-05	
410	-5.50000e-01	2.248069e-05	
411	-6.00000e-01	2.421913e-05	
412	-6.50000e-01	2.590903e-05	
413	-7.00000e-01	2.755042e-05	
414	-7.50000e-01	2.914331e-05	
415	-8.00000e-01	3.068769e-05	
416	-8.50000e-01	3.218357e-05	
417	-9.00000e-01	3.363098e-05	
418	-9.50000e-01	3.502991e-05	
419	-1.00000e+00	3.638037e-05	
420	-1.05000e+00	3.768238e-05	
421	-1.10000e+00	3.893595e-05	
422	-1.15000e+00	4.014108e-05	
423	-1.20000e+00	4.129779e-05	
424	-1.25000e+00	4.240610e-05	
425	-1.30000e+00	4.346602e-05	
426	-1.35000e+00	4.447757e-05	
427	-1.40000e+00	4.544076e-05	
428	-1.45000e+00	4.635563e-05	
429	-1.50000e+00	4.722221e-05	
430	-1.55000e+00	4.804052e-05	
431	-1.60000e+00	4.881061e-05	
432	-1.65000e+00	4.953254e-05	
433	-1.70000e+00	5.020637e-05	
434	-1.75000e+00	5.083220e-05	
435	-1.80000e+00	5.141014e-05	
436	-1.85000e+00	5.194035e-05	
437	-1.90000e+00	5.242307e-05	
438	-1.95000e+00	5.285861e-05	
439	-2.00000e+00	5.324741e-05	
440	-2.05000e+00	5.359013e-05	
441	-2.10000e+00	5.388774e-05	
442	-2.15000e+00	5.414167e-05	
443	-2.20000e+00	5.435399e-05	
444	-2.25000e+00	5.452766e-05	
445	-2.30000e+00	5.466670e-05	
446	-2.35000e+00	5.477612e-05	
447	-2.40000e+00	5.486156e-05	
448	-2.45000e+00	5.492867e-05	
449	-2.50000e+00	5.498242e-05	
450	-2.55000e+00	5.502677e-05	
451	-2.60000e+00	5.506461e-05	
452	-2.65000e+00	5.509794e-05	
453	-2.70000e+00	5.512810e-05	
454	-2.75000e+00	5.515598e-05	
455	-2.80000e+00	5.518219e-05	
456	-2.85000e+00	5.520714e-05	
457	-2.90000e+00	5.523111e-05	
458	-2.95000e+00	5.525429e-05	
459	-3.00000e+00	5.527683e-05	
460	-3.05000e+00	5.529884e-05	

Index   v-sweep         i(vds)          
--------------------------------------------------------------------------------
461	-3.10000e+00	5.532039e-05	
462	-3.15000e+00	5.534156e-05	
463	-3.20000e+00	5.536238e-05	
464	-3.25000e+00	5.538290e-05	
465	-3.30000e+00	5.540315e-05	
466	-3.35000e+00	5.542315e-05	
467	-3.40000e+00	5.544294e-05	
468	-3.45000e+00	5.546251e-05	
469	-3.50000e+00	5.548190e-05	
470	-3.55000e+00	5.550112e-05	
471	-3.60000e+00	5.552018e-05	
472	-3.65000e+00	5.553908e-05	
473	-3.70000e+00	5.555784e-05	
474	-3.75000e+00	5.557648e-05	
475	-3.80000e+00	5.559498e-05	
476	-3.85000e+00	5.561337e-05	
477	-3.90000e+00	5.563165e-05	
478	-3.95000e+00	5.564982e-05	
479	-4.00000e+00	5.566789e-05	
480	-4.05000e+00	5.568587e-05	
481	-4.10000e+00	5.570376e-05	
482	-4.15000e+00	5.572156e-05	
483	-4.20000e+00	5.573927e-05	
484	-4.25000e+00	5.575691e-05	
485	-4.30000e+00	5.577447e-05	
486	-4.35000e+00	5.579196e-05	
487	-4.40000e+00	5.580938e-05	
488	-4.45000e+00	5.582673e-05	
489	-4.50000e+00	5.584402e-05	
490	-4.55000e+00	5.586125e-05	
491	-4.60000e+00	5.587842e-05	
492	-4.65000e+00	5.589553e-05	
493	-4.70000e+00	5.591258e-05	
494	-4.75000e+00	5.592958e-05	
495	-4.80000e+00	5.594653e-05	
496	-4.85000e+00	5.596344e-05	
497	-4.90000e+00	5.598029e-05	
498	-4.95000e+00	5.599710e-05	
499	-5.00000e+00	5.601387e-05	
500	-5.05000e+00	5.603060e-05	
501	-5.10000e+00	5.604730e-05	
502	-5.15000e+00	5.606396e-05	
503	-5.20000e+00	5.608059e-05	
504	-5.25000e+00	5.609719e-05	
505	-5.30000e+00	5.611378e-05	
506	-5.35000e+00	5.613036e-05	
507	-5.40000e+00	5.614692e-05	
508	-5.45000e+00	5.616349e-05	
509	-5.50000e+00	5.618008e-05	
510	-5.55000e+00	5.619668e-05	
511	-5.60000e+00	5.621333e-05	
512	-5.65000e+00	5.623003e-05	
513	-5.70000e+00	5.624680e-05	
514	-5.75000e+00	5.626367e-05	
515	-5.80000e+00	5.628066e-05	
516	-5.85000e+00	5.629780e-05	
517	-5.90000e+00	5.631512e-05	
518	-5.95000e+00	5.633266e-05	

Index   v-sweep         i(vds)          
--------------------------------------------------------------------------------
519	-6.00000e+00	5.635047e-05	
520	-6.05000e+00	5.636859e-05	
521	-6.10000e+00	5.638707e-05	
522	-6.15000e+00	5.640599e-05	
523	-6.20000e+00	5.642540e-05	
524	-6.25000e+00	5.644538e-05	
525	-6.30000e+00	5.646601e-05	
526	-6.35000e+00	5.648740e-05	
527	-6.40000e+00	5.650963e-05	
528	-6.45000e+00	5.653283e-05	
529	-6.50000e+00	5.655711e-05	
530	-6.55000e+00	5.658261e-05	
531	-6.60000e+00	5.660948e-05	
532	0.000000e+00	9.031844e-21	
533	-5.00000e-02	2.918473e-06	
534	-1.00000e-01	5.701869e-06	
535	-1.50000e-01	8.419007e-06	
536	-2.00000e-01	1.108600e-05	
537	-2.50000e-01	1.370663e-05	
538	-3.00000e-01	1.628178e-05	
539	-3.50000e-01	1.881166e-05	
540	-4.00000e-01	2.129634e-05	
541	-4.50000e-01	2.373582e-05	
542	-5.00000e-01	2.613011e-05	
543	-5.50000e-01	2.847923e-05	
544	-6.00000e-01	3.078317e-05	
545	-6.50000e-01	3.304195e-05	
546	-7.00000e-01	3.525557e-05	
547	-7.50000e-01	3.742404e-05	
548	-8.00000e-01	3.954737e-05	
549	-8.50000e-01	4.162556e-05	
550	-9.00000e-01	4.365861e-05	
551	-9.50000e-01	4.564654e-05	
552	-1.00000e+00	4.758936e-05	
553	-1.05000e+00	4.948706e-05	
554	-1.10000e+00	5.133965e-05	
555	-1.15000e+00	5.314715e-05	
556	-1.20000e+00	5.490956e-05	
557	-1.25000e+00	5.662689e-05	
558	-1.30000e+00	5.829915e-05	
559	-1.35000e+00	5.992633e-05	
560	-1.40000e+00	6.150846e-05	
561	-1.45000e+00	6.304554e-05	
562	-1.50000e+00	6.453757e-05	
563	-1.55000e+00	6.598457e-05	
564	-1.60000e+00	6.738655e-05	
565	-1.65000e+00	6.874352e-05	
566	-1.70000e+00	7.005548e-05	
567	-1.75000e+00	7.132246e-05	
568	-1.80000e+00	7.254445e-05	
569	-1.85000e+00	7.372148e-05	
570	-1.90000e+00	7.485356e-05	
571	-1.95000e+00	7.594071e-05	
572	-2.00000e+00	7.698295e-05	
573	-2.05000e+00	7.798029e-05	
574	-2.10000e+00	7.893277e-05	
575	-2.15000e+00	7.984041e-05	
576	-2.20000e+00	8.070324e-05	

Index   v-sweep         i(vds)          
--------------------------------------------------------------------------------
577	-2.25000e+00	8.152132e-05	
578	-2.30000e+00	8.229468e-05	
579	-2.35000e+00	8.302339e-05	
580	-2.40000e+00	8.370753e-05	
581	-2.45000e+00	8.434719e-05	
582	-2.50000e+00	8.494252e-05	
583	-2.55000e+00	8.549366e-05	
584	-2.60000e+00	8.600084e-05	
585	-2.65000e+00	8.646436e-05	
586	-2.70000e+00	8.688463e-05	
587	-2.75000e+00	8.726219e-05	
588	-2.80000e+00	8.759784e-05	
589	-2.85000e+00	8.789266e-05	
590	-2.90000e+00	8.814815e-05	
591	-2.95000e+00	8.836638e-05	
592	-3.00000e+00	8.855010e-05	
593	-3.05000e+00	8.870282e-05	
594	-3.10000e+00	8.882869e-05	
595	-3.15000e+00	8.893230e-05	
596	-3.20000e+00	8.901823e-05	
597	-3.25000e+00	8.909062e-05	
598	-3.30000e+00	8.915297e-05	
599	-3.35000e+00	8.920798e-05	
600	-3.40000e+00	8.925764e-05	
601	-3.45000e+00	8.930339e-05	
602	-3.50000e+00	8.934624e-05	
603	-3.55000e+00	8.938689e-05	
604	-3.60000e+00	8.942584e-05	
605	-3.65000e+00	8.946344e-05	
606	-3.70000e+00	8.949996e-05	
607	-3.75000e+00	8.953557e-05	
608	-3.80000e+00	8.957044e-05	
609	-3.85000e+00	8.960465e-05	
610	-3.90000e+00	8.963831e-05	
611	-3.95000e+00	8.967147e-05	
612	-4.00000e+00	8.970419e-05	
613	-4.05000e+00	8.973651e-05	
614	-4.10000e+00	8.976847e-05	
615	-4.15000e+00	8.980011e-05	
616	-4.20000e+00	8.983144e-05	
617	-4.25000e+00	8.986250e-05	
618	-4.30000e+00	8.989329e-05	
619	-4.35000e+00	8.992385e-05	
620	-4.40000e+00	8.995418e-05	
621	-4.45000e+00	8.998430e-05	
622	-4.50000e+00	9.001422e-05	
623	-4.55000e+00	9.004395e-05	
624	-4.60000e+00	9.007351e-05	
625	-4.65000e+00	9.010289e-05	
626	-4.70000e+00	9.013212e-05	
627	-4.75000e+00	9.016119e-05	
628	-4.80000e+00	9.019012e-05	
629	-4.85000e+00	9.021891e-05	
630	-4.90000e+00	9.024757e-05	
631	-4.95000e+00	9.027610e-05	
632	-5.00000e+00	9.030451e-05	
633	-5.05000e+00	9.033281e-05	
634	-5.10000e+00	9.036099e-05	

Index   v-sweep         i(vds)          
--------------------------------------------------------------------------------
635	-5.15000e+00	9.038907e-05	
636	-5.20000e+00	9.041704e-05	
637	-5.25000e+00	9.044491e-05	
638	-5.30000e+00	9.047269e-05	
639	-5.35000e+00	9.050038e-05	
640	-5.40000e+00	9.052798e-05	
641	-5.45000e+00	9.055549e-05	
642	-5.50000e+00	9.058292e-05	
643	-5.55000e+00	9.061027e-05	
644	-5.60000e+00	9.063755e-05	
645	-5.65000e+00	9.066476e-05	
646	-5.70000e+00	9.069189e-05	
647	-5.75000e+00	9.071896e-05	
648	-5.80000e+00	9.074597e-05	
649	-5.85000e+00	9.077293e-05	
650	-5.90000e+00	9.079983e-05	
651	-5.95000e+00	9.082669e-05	
652	-6.00000e+00	9.085351e-05	
653	-6.05000e+00	9.088030e-05	
654	-6.10000e+00	9.090707e-05	
655	-6.15000e+00	9.093383e-05	
656	-6.20000e+00	9.096060e-05	
657	-6.25000e+00	9.098739e-05	
658	-6.30000e+00	9.101422e-05	
659	-6.35000e+00	9.104111e-05	
660	-6.40000e+00	9.106809e-05	
661	-6.45000e+00	9.109520e-05	
662	-6.50000e+00	9.112245e-05	
663	-6.55000e+00	9.114990e-05	
664	-6.60000e+00	9.117759e-05	
665	0.000000e+00	-6.33613e-25	
666	-5.00000e-02	3.398918e-06	
667	-1.00000e-01	6.665734e-06	
668	-1.50000e-01	9.869174e-06	
669	-2.00000e-01	1.302535e-05	
670	-2.50000e-01	1.613802e-05	
671	-3.00000e-01	1.920810e-05	
672	-3.50000e-01	2.223579e-05	
673	-4.00000e-01	2.522114e-05	
674	-4.50000e-01	2.816417e-05	
675	-5.00000e-01	3.106489e-05	
676	-5.50000e-01	3.392331e-05	
677	-6.00000e-01	3.673943e-05	
678	-6.50000e-01	3.951326e-05	
679	-7.00000e-01	4.224481e-05	
680	-7.50000e-01	4.493407e-05	
681	-8.00000e-01	4.758106e-05	
682	-8.50000e-01	5.018579e-05	
683	-9.00000e-01	5.274825e-05	
684	-9.50000e-01	5.526846e-05	
685	-1.00000e+00	5.774643e-05	
686	-1.05000e+00	6.018215e-05	
687	-1.10000e+00	6.257563e-05	
688	-1.15000e+00	6.492688e-05	
689	-1.20000e+00	6.723591e-05	
690	-1.25000e+00	6.950272e-05	
691	-1.30000e+00	7.172732e-05	
692	-1.35000e+00	7.390971e-05	

Index   v-sweep         i(vds)          
--------------------------------------------------------------------------------
693	-1.40000e+00	7.604991e-05	
694	-1.45000e+00	7.814791e-05	
695	-1.50000e+00	8.020373e-05	
696	-1.55000e+00	8.221736e-05	
697	-1.60000e+00	8.418883e-05	
698	-1.65000e+00	8.611813e-05	
699	-1.70000e+00	8.800527e-05	
700	-1.75000e+00	8.985026e-05	
701	-1.80000e+00	9.165311e-05	
702	-1.85000e+00	9.341382e-05	
703	-1.90000e+00	9.513239e-05	
704	-1.95000e+00	9.680885e-05	
705	-2.00000e+00	9.844319e-05	
706	-2.05000e+00	1.000354e-04	
707	-2.10000e+00	1.015856e-04	
708	-2.15000e+00	1.030936e-04	
709	-2.20000e+00	1.045596e-04	
710	-2.25000e+00	1.059835e-04	
711	-2.30000e+00	1.073653e-04	
712	-2.35000e+00	1.087051e-04	
713	-2.40000e+00	1.100029e-04	
714	-2.45000e+00	1.112586e-04	
715	-2.50000e+00	1.124723e-04	
716	-2.55000e+00	1.136441e-04	
717	-2.60000e+00	1.147738e-04	
718	-2.65000e+00	1.158616e-04	
719	-2.70000e+00	1.169074e-04	
720	-2.75000e+00	1.179114e-04	
721	-2.80000e+00	1.188734e-04	
722	-2.85000e+00	1.197936e-04	
723	-2.90000e+00	1.206720e-04	
724	-2.95000e+00	1.215086e-04	
725	-3.00000e+00	1.223034e-04	
726	-3.05000e+00	1.230566e-04	
727	-3.10000e+00	1.237682e-04	
728	-3.15000e+00	1.244383e-04	
729	-3.20000e+00	1.250671e-04	
730	-3.25000e+00	1.256546e-04	
731	-3.30000e+00	1.262011e-04	
732	-3.35000e+00	1.267068e-04	
733	-3.40000e+00	1.271720e-04	
734	-3.45000e+00	1.275972e-04	
735	-3.50000e+00	1.279829e-04	
736	-3.55000e+00	1.283300e-04	
737	-3.60000e+00	1.286393e-04	
738	-3.65000e+00	1.289124e-04	
739	-3.70000e+00	1.291510e-04	
740	-3.75000e+00	1.293574e-04	
741	-3.80000e+00	1.295345e-04	
742	-3.85000e+00	1.296857e-04	
743	-3.90000e+00	1.298147e-04	
744	-3.95000e+00	1.299254e-04	
745	-4.00000e+00	1.300214e-04	
746	-4.05000e+00	1.301061e-04	
747	-4.10000e+00	1.301822e-04	
748	-4.15000e+00	1.302516e-04	
749	-4.20000e+00	1.303162e-04	
750	-4.25000e+00	1.303770e-04	

Index   v-sweep         i(vds)          
--------------------------------------------------------------------------------
751	-4.30000e+00	1.304349e-04	
752	-4.35000e+00	1.304905e-04	
753	-4.40000e+00	1.305444e-04	
754	-4.45000e+00	1.305968e-04	
755	-4.50000e+00	1.306479e-04	
756	-4.55000e+00	1.306981e-04	
757	-4.60000e+00	1.307474e-04	
758	-4.65000e+00	1.307959e-04	
759	-4.70000e+00	1.308437e-04	
760	-4.75000e+00	1.308910e-04	
761	-4.80000e+00	1.309377e-04	
762	-4.85000e+00	1.309839e-04	
763	-4.90000e+00	1.310296e-04	
764	-4.95000e+00	1.310750e-04	
765	-5.00000e+00	1.311199e-04	
766	-5.05000e+00	1.311645e-04	
767	-5.10000e+00	1.312088e-04	
768	-5.15000e+00	1.312528e-04	
769	-5.20000e+00	1.312965e-04	
770	-5.25000e+00	1.313399e-04	
771	-5.30000e+00	1.313830e-04	
772	-5.35000e+00	1.314259e-04	
773	-5.40000e+00	1.314685e-04	
774	-5.45000e+00	1.315110e-04	
775	-5.50000e+00	1.315532e-04	
776	-5.55000e+00	1.315952e-04	
777	-5.60000e+00	1.316370e-04	
778	-5.65000e+00	1.316787e-04	
779	-5.70000e+00	1.317201e-04	
780	-5.75000e+00	1.317614e-04	
781	-5.80000e+00	1.318026e-04	
782	-5.85000e+00	1.318435e-04	
783	-5.90000e+00	1.318844e-04	
784	-5.95000e+00	1.319250e-04	
785	-6.00000e+00	1.319656e-04	
786	-6.05000e+00	1.320060e-04	
787	-6.10000e+00	1.320463e-04	
788	-6.15000e+00	1.320864e-04	
789	-6.20000e+00	1.321264e-04	
790	-6.25000e+00	1.321664e-04	
791	-6.30000e+00	1.322062e-04	
792	-6.35000e+00	1.322459e-04	
793	-6.40000e+00	1.322854e-04	
794	-6.45000e+00	1.323249e-04	
795	-6.50000e+00	1.323643e-04	
796	-6.55000e+00	1.324037e-04	
797	-6.60000e+00	1.324429e-04	
Note: No ".plot", ".print", or ".fourier" lines; no simulations run
