
Note: Compatibility modes selected: hs

Warning: m=xx on .subckt line will override multiplier m hierarchy!


Circuit: ***************************

Doing analysis at TEMP = 25.000000 and TNOM = 25.000000


No. of Data Rows : 798
                          ***************************
                          DC transfer characteristic  Mon Jan  9 13:58:50  2023
--------------------------------------------------------------------------------
Index   v-sweep         i(vds)          
--------------------------------------------------------------------------------
0	0.000000e+00	-5.58376e-23	
1	-5.00000e-02	1.389831e-07	
2	-1.00000e-01	2.156245e-07	
3	-1.50000e-01	2.444455e-07	
4	-2.00000e-01	2.525198e-07	
5	-2.50000e-01	2.555651e-07	
6	-3.00000e-01	2.573659e-07	
7	-3.50000e-01	2.587297e-07	
8	-4.00000e-01	2.598828e-07	
9	-4.50000e-01	2.609088e-07	
10	-5.00000e-01	2.618463e-07	
11	-5.50000e-01	2.627163e-07	
12	-6.00000e-01	2.635317e-07	
13	-6.50000e-01	2.643014e-07	
14	-7.00000e-01	2.650319e-07	
15	-7.50000e-01	2.657281e-07	
16	-8.00000e-01	2.663939e-07	
17	-8.50000e-01	2.670325e-07	
18	-9.00000e-01	2.676465e-07	
19	-9.50000e-01	2.682383e-07	
20	-1.00000e+00	2.688098e-07	
21	-1.05000e+00	2.693626e-07	
22	-1.10000e+00	2.698983e-07	
23	-1.15000e+00	2.704180e-07	
24	-1.20000e+00	2.709231e-07	
25	-1.25000e+00	2.714144e-07	
26	-1.30000e+00	2.718929e-07	
27	-1.35000e+00	2.723595e-07	
28	-1.40000e+00	2.728148e-07	
29	-1.45000e+00	2.732597e-07	
30	-1.50000e+00	2.736946e-07	
31	-1.55000e+00	2.741202e-07	
32	-1.60000e+00	2.745369e-07	
33	-1.65000e+00	2.749453e-07	
34	-1.70000e+00	2.753458e-07	
35	-1.75000e+00	2.757388e-07	
36	-1.80000e+00	2.761246e-07	
37	-1.85000e+00	2.765037e-07	
38	-1.90000e+00	2.768763e-07	
39	-1.95000e+00	2.772427e-07	
40	-2.00000e+00	2.776032e-07	
41	-2.05000e+00	2.779581e-07	
42	-2.10000e+00	2.783077e-07	
43	-2.15000e+00	2.786521e-07	
44	-2.20000e+00	2.789915e-07	
45	-2.25000e+00	2.793262e-07	
46	-2.30000e+00	2.796564e-07	
47	-2.35000e+00	2.799822e-07	
48	-2.40000e+00	2.803038e-07	
49	-2.45000e+00	2.806213e-07	
50	-2.50000e+00	2.809350e-07	
51	-2.55000e+00	2.812449e-07	
52	-2.60000e+00	2.815512e-07	
53	-2.65000e+00	2.818540e-07	
54	-2.70000e+00	2.821534e-07	

Index   v-sweep         i(vds)          
--------------------------------------------------------------------------------
55	-2.75000e+00	2.824496e-07	
56	-2.80000e+00	2.827427e-07	
57	-2.85000e+00	2.830328e-07	
58	-2.90000e+00	2.833199e-07	
59	-2.95000e+00	2.836043e-07	
60	-3.00000e+00	2.838859e-07	
61	-3.05000e+00	2.841649e-07	
62	-3.10000e+00	2.844415e-07	
63	-3.15000e+00	2.847156e-07	
64	-3.20000e+00	2.849874e-07	
65	-3.25000e+00	2.852571e-07	
66	-3.30000e+00	2.855247e-07	
67	-3.35000e+00	2.857903e-07	
68	-3.40000e+00	2.860542e-07	
69	-3.45000e+00	2.863163e-07	
70	-3.50000e+00	2.865770e-07	
71	-3.55000e+00	2.868363e-07	
72	-3.60000e+00	2.870944e-07	
73	-3.65000e+00	2.873515e-07	
74	-3.70000e+00	2.876078e-07	
75	-3.75000e+00	2.878636e-07	
76	-3.80000e+00	2.881192e-07	
77	-3.85000e+00	2.883748e-07	
78	-3.90000e+00	2.886307e-07	
79	-3.95000e+00	2.888873e-07	
80	-4.00000e+00	2.891450e-07	
81	-4.05000e+00	2.894042e-07	
82	-4.10000e+00	2.896654e-07	
83	-4.15000e+00	2.899291e-07	
84	-4.20000e+00	2.901958e-07	
85	-4.25000e+00	2.904662e-07	
86	-4.30000e+00	2.907409e-07	
87	-4.35000e+00	2.910207e-07	
88	-4.40000e+00	2.913062e-07	
89	-4.45000e+00	2.915985e-07	
90	-4.50000e+00	2.918983e-07	
91	-4.55000e+00	2.922067e-07	
92	-4.60000e+00	2.925247e-07	
93	-4.65000e+00	2.928535e-07	
94	-4.70000e+00	2.931942e-07	
95	-4.75000e+00	2.935481e-07	
96	-4.80000e+00	2.939167e-07	
97	-4.85000e+00	2.943013e-07	
98	-4.90000e+00	2.947036e-07	
99	-4.95000e+00	2.951251e-07	
100	-5.00000e+00	2.955677e-07	
101	-5.05000e+00	2.960331e-07	
102	-5.10000e+00	2.965234e-07	
103	-5.15000e+00	2.970405e-07	
104	-5.20000e+00	2.975865e-07	
105	-5.25000e+00	2.981638e-07	
106	-5.30000e+00	2.987748e-07	
107	-5.35000e+00	2.994218e-07	
108	-5.40000e+00	3.001074e-07	
109	-5.45000e+00	3.008344e-07	
110	-5.50000e+00	3.016056e-07	
111	-5.55000e+00	3.024239e-07	
112	-5.60000e+00	3.032924e-07	

Index   v-sweep         i(vds)          
--------------------------------------------------------------------------------
113	-5.65000e+00	3.042141e-07	
114	-5.70000e+00	3.051924e-07	
115	-5.75000e+00	3.062307e-07	
116	-5.80000e+00	3.073325e-07	
117	-5.85000e+00	3.085015e-07	
118	-5.90000e+00	3.097413e-07	
119	-5.95000e+00	3.110559e-07	
120	-6.00000e+00	3.124493e-07	
121	-6.05000e+00	3.139255e-07	
122	-6.10000e+00	3.154889e-07	
123	-6.15000e+00	3.171437e-07	
124	-6.20000e+00	3.188945e-07	
125	-6.25000e+00	3.207457e-07	
126	-6.30000e+00	3.227023e-07	
127	-6.35000e+00	3.247688e-07	
128	-6.40000e+00	3.269504e-07	
129	-6.45000e+00	3.292520e-07	
130	-6.50000e+00	3.316787e-07	
131	-6.55000e+00	3.342360e-07	
132	-6.60000e+00	3.369291e-07	
133	0.000000e+00	-3.35910e-31	
134	-5.00000e-02	1.309580e-06	
135	-1.00000e-01	2.539485e-06	
136	-1.50000e-01	3.690046e-06	
137	-2.00000e-01	4.761596e-06	
138	-2.50000e-01	5.754473e-06	
139	-3.00000e-01	6.669024e-06	
140	-3.50000e-01	7.505610e-06	
141	-4.00000e-01	8.264614e-06	
142	-4.50000e-01	8.946457e-06	
143	-5.00000e-01	9.551629e-06	
144	-5.50000e-01	1.008074e-05	
145	-6.00000e-01	1.053463e-05	
146	-6.50000e-01	1.091460e-05	
147	-7.00000e-01	1.122286e-05	
148	-7.50000e-01	1.146341e-05	
149	-8.00000e-01	1.164339e-05	
150	-8.50000e-01	1.177407e-05	
151	-9.00000e-01	1.186937e-05	
152	-9.50000e-01	1.194201e-05	
153	-1.00000e+00	1.200083e-05	
154	-1.05000e+00	1.205100e-05	
155	-1.10000e+00	1.209538e-05	
156	-1.15000e+00	1.213558e-05	
157	-1.20000e+00	1.217258e-05	
158	-1.25000e+00	1.220701e-05	
159	-1.30000e+00	1.223930e-05	
160	-1.35000e+00	1.226977e-05	
161	-1.40000e+00	1.229867e-05	
162	-1.45000e+00	1.232618e-05	
163	-1.50000e+00	1.235246e-05	
164	-1.55000e+00	1.237763e-05	
165	-1.60000e+00	1.240181e-05	
166	-1.65000e+00	1.242508e-05	
167	-1.70000e+00	1.244752e-05	
168	-1.75000e+00	1.246921e-05	
169	-1.80000e+00	1.249020e-05	
170	-1.85000e+00	1.251054e-05	

Index   v-sweep         i(vds)          
--------------------------------------------------------------------------------
171	-1.90000e+00	1.253028e-05	
172	-1.95000e+00	1.254947e-05	
173	-2.00000e+00	1.256814e-05	
174	-2.05000e+00	1.258632e-05	
175	-2.10000e+00	1.260405e-05	
176	-2.15000e+00	1.262135e-05	
177	-2.20000e+00	1.263825e-05	
178	-2.25000e+00	1.265477e-05	
179	-2.30000e+00	1.267093e-05	
180	-2.35000e+00	1.268676e-05	
181	-2.40000e+00	1.270226e-05	
182	-2.45000e+00	1.271746e-05	
183	-2.50000e+00	1.273238e-05	
184	-2.55000e+00	1.274701e-05	
185	-2.60000e+00	1.276139e-05	
186	-2.65000e+00	1.277552e-05	
187	-2.70000e+00	1.278941e-05	
188	-2.75000e+00	1.280307e-05	
189	-2.80000e+00	1.281651e-05	
190	-2.85000e+00	1.282975e-05	
191	-2.90000e+00	1.284278e-05	
192	-2.95000e+00	1.285563e-05	
193	-3.00000e+00	1.286829e-05	
194	-3.05000e+00	1.288078e-05	
195	-3.10000e+00	1.289309e-05	
196	-3.15000e+00	1.290525e-05	
197	-3.20000e+00	1.291724e-05	
198	-3.25000e+00	1.292908e-05	
199	-3.30000e+00	1.294078e-05	
200	-3.35000e+00	1.295234e-05	
201	-3.40000e+00	1.296376e-05	
202	-3.45000e+00	1.297505e-05	
203	-3.50000e+00	1.298622e-05	
204	-3.55000e+00	1.299726e-05	
205	-3.60000e+00	1.300819e-05	
206	-3.65000e+00	1.301900e-05	
207	-3.70000e+00	1.302971e-05	
208	-3.75000e+00	1.304030e-05	
209	-3.80000e+00	1.305080e-05	
210	-3.85000e+00	1.306120e-05	
211	-3.90000e+00	1.307151e-05	
212	-3.95000e+00	1.308174e-05	
213	-4.00000e+00	1.309188e-05	
214	-4.05000e+00	1.310194e-05	
215	-4.10000e+00	1.311193e-05	
216	-4.15000e+00	1.312186e-05	
217	-4.20000e+00	1.313173e-05	
218	-4.25000e+00	1.314154e-05	
219	-4.30000e+00	1.315131e-05	
220	-4.35000e+00	1.316104e-05	
221	-4.40000e+00	1.317075e-05	
222	-4.45000e+00	1.318044e-05	
223	-4.50000e+00	1.319013e-05	
224	-4.55000e+00	1.319982e-05	
225	-4.60000e+00	1.320954e-05	
226	-4.65000e+00	1.321930e-05	
227	-4.70000e+00	1.322911e-05	
228	-4.75000e+00	1.323900e-05	

Index   v-sweep         i(vds)          
--------------------------------------------------------------------------------
229	-4.80000e+00	1.324898e-05	
230	-4.85000e+00	1.325908e-05	
231	-4.90000e+00	1.326932e-05	
232	-4.95000e+00	1.327974e-05	
233	-5.00000e+00	1.329035e-05	
234	-5.05000e+00	1.330119e-05	
235	-5.10000e+00	1.331231e-05	
236	-5.15000e+00	1.332372e-05	
237	-5.20000e+00	1.333549e-05	
238	-5.25000e+00	1.334764e-05	
239	-5.30000e+00	1.336023e-05	
240	-5.35000e+00	1.337331e-05	
241	-5.40000e+00	1.338693e-05	
242	-5.45000e+00	1.340115e-05	
243	-5.50000e+00	1.341603e-05	
244	-5.55000e+00	1.343164e-05	
245	-5.60000e+00	1.344805e-05	
246	-5.65000e+00	1.346532e-05	
247	-5.70000e+00	1.348355e-05	
248	-5.75000e+00	1.350281e-05	
249	-5.80000e+00	1.352319e-05	
250	-5.85000e+00	1.354477e-05	
251	-5.90000e+00	1.356767e-05	
252	-5.95000e+00	1.359197e-05	
253	-6.00000e+00	1.361779e-05	
254	-6.05000e+00	1.364523e-05	
255	-6.10000e+00	1.367442e-05	
256	-6.15000e+00	1.370547e-05	
257	-6.20000e+00	1.373850e-05	
258	-6.25000e+00	1.377366e-05	
259	-6.30000e+00	1.381107e-05	
260	-6.35000e+00	1.385089e-05	
261	-6.40000e+00	1.389324e-05	
262	-6.45000e+00	1.393830e-05	
263	-6.50000e+00	1.398621e-05	
264	-6.55000e+00	1.403714e-05	
265	-6.60000e+00	1.409125e-05	
266	0.000000e+00	-2.02553e-30	
267	-5.00000e-02	2.231229e-06	
268	-1.00000e-01	4.388642e-06	
269	-1.50000e-01	6.472488e-06	
270	-2.00000e-01	8.483018e-06	
271	-2.50000e-01	1.042048e-05	
272	-3.00000e-01	1.228513e-05	
273	-3.50000e-01	1.407721e-05	
274	-4.00000e-01	1.579697e-05	
275	-4.50000e-01	1.744466e-05	
276	-5.00000e-01	1.902054e-05	
277	-5.50000e-01	2.052485e-05	
278	-6.00000e-01	2.195784e-05	
279	-6.50000e-01	2.331978e-05	
280	-7.00000e-01	2.461091e-05	
281	-7.50000e-01	2.583150e-05	
282	-8.00000e-01	2.698182e-05	
283	-8.50000e-01	2.806213e-05	
284	-9.00000e-01	2.907272e-05	
285	-9.50000e-01	3.001390e-05	
286	-1.00000e+00	3.088598e-05	

Index   v-sweep         i(vds)          
--------------------------------------------------------------------------------
287	-1.05000e+00	3.168934e-05	
288	-1.10000e+00	3.242439e-05	
289	-1.15000e+00	3.309166e-05	
290	-1.20000e+00	3.369180e-05	
291	-1.25000e+00	3.422576e-05	
292	-1.30000e+00	3.469488e-05	
293	-1.35000e+00	3.510123e-05	
294	-1.40000e+00	3.544805e-05	
295	-1.45000e+00	3.574019e-05	
296	-1.50000e+00	3.598449e-05	
297	-1.55000e+00	3.618929e-05	
298	-1.60000e+00	3.636330e-05	
299	-1.65000e+00	3.651415e-05	
300	-1.70000e+00	3.664771e-05	
301	-1.75000e+00	3.676814e-05	
302	-1.80000e+00	3.687830e-05	
303	-1.85000e+00	3.698020e-05	
304	-1.90000e+00	3.707527e-05	
305	-1.95000e+00	3.716455e-05	
306	-2.00000e+00	3.724886e-05	
307	-2.05000e+00	3.732883e-05	
308	-2.10000e+00	3.740497e-05	
309	-2.15000e+00	3.747770e-05	
310	-2.20000e+00	3.754738e-05	
311	-2.25000e+00	3.761428e-05	
312	-2.30000e+00	3.767868e-05	
313	-2.35000e+00	3.774078e-05	
314	-2.40000e+00	3.780078e-05	
315	-2.45000e+00	3.785884e-05	
316	-2.50000e+00	3.791511e-05	
317	-2.55000e+00	3.796973e-05	
318	-2.60000e+00	3.802281e-05	
319	-2.65000e+00	3.807445e-05	
320	-2.70000e+00	3.812475e-05	
321	-2.75000e+00	3.817380e-05	
322	-2.80000e+00	3.822167e-05	
323	-2.85000e+00	3.826843e-05	
324	-2.90000e+00	3.831414e-05	
325	-2.95000e+00	3.835887e-05	
326	-3.00000e+00	3.840267e-05	
327	-3.05000e+00	3.844559e-05	
328	-3.10000e+00	3.848767e-05	
329	-3.15000e+00	3.852896e-05	
330	-3.20000e+00	3.856949e-05	
331	-3.25000e+00	3.860930e-05	
332	-3.30000e+00	3.864843e-05	
333	-3.35000e+00	3.868691e-05	
334	-3.40000e+00	3.872476e-05	
335	-3.45000e+00	3.876202e-05	
336	-3.50000e+00	3.879870e-05	
337	-3.55000e+00	3.883484e-05	
338	-3.60000e+00	3.887046e-05	
339	-3.65000e+00	3.890557e-05	
340	-3.70000e+00	3.894020e-05	
341	-3.75000e+00	3.897436e-05	
342	-3.80000e+00	3.900808e-05	
343	-3.85000e+00	3.904137e-05	
344	-3.90000e+00	3.907424e-05	

Index   v-sweep         i(vds)          
--------------------------------------------------------------------------------
345	-3.95000e+00	3.910672e-05	
346	-4.00000e+00	3.913881e-05	
347	-4.05000e+00	3.917053e-05	
348	-4.10000e+00	3.920189e-05	
349	-4.15000e+00	3.923291e-05	
350	-4.20000e+00	3.926360e-05	
351	-4.25000e+00	3.929396e-05	
352	-4.30000e+00	3.932402e-05	
353	-4.35000e+00	3.935377e-05	
354	-4.40000e+00	3.938325e-05	
355	-4.45000e+00	3.941244e-05	
356	-4.50000e+00	3.944138e-05	
357	-4.55000e+00	3.947006e-05	
358	-4.60000e+00	3.949851e-05	
359	-4.65000e+00	3.952673e-05	
360	-4.70000e+00	3.955474e-05	
361	-4.75000e+00	3.958256e-05	
362	-4.80000e+00	3.961020e-05	
363	-4.85000e+00	3.963768e-05	
364	-4.90000e+00	3.966502e-05	
365	-4.95000e+00	3.969224e-05	
366	-5.00000e+00	3.971937e-05	
367	-5.05000e+00	3.974643e-05	
368	-5.10000e+00	3.977345e-05	
369	-5.15000e+00	3.980046e-05	
370	-5.20000e+00	3.982751e-05	
371	-5.25000e+00	3.985463e-05	
372	-5.30000e+00	3.988187e-05	
373	-5.35000e+00	3.990927e-05	
374	-5.40000e+00	3.993689e-05	
375	-5.45000e+00	3.996480e-05	
376	-5.50000e+00	3.999304e-05	
377	-5.55000e+00	4.002171e-05	
378	-5.60000e+00	4.005087e-05	
379	-5.65000e+00	4.008062e-05	
380	-5.70000e+00	4.011104e-05	
381	-5.75000e+00	4.014223e-05	
382	-5.80000e+00	4.017432e-05	
383	-5.85000e+00	4.020741e-05	
384	-5.90000e+00	4.024163e-05	
385	-5.95000e+00	4.027712e-05	
386	-6.00000e+00	4.031403e-05	
387	-6.05000e+00	4.035252e-05	
388	-6.10000e+00	4.039275e-05	
389	-6.15000e+00	4.043491e-05	
390	-6.20000e+00	4.047919e-05	
391	-6.25000e+00	4.052578e-05	
392	-6.30000e+00	4.057492e-05	
393	-6.35000e+00	4.062682e-05	
394	-6.40000e+00	4.068174e-05	
395	-6.45000e+00	4.073991e-05	
396	-6.50000e+00	4.080163e-05	
397	-6.55000e+00	4.086715e-05	
398	-6.60000e+00	4.093680e-05	
399	0.000000e+00	-4.39132e-31	
400	-5.00000e-02	2.970596e-06	
401	-1.00000e-01	5.873133e-06	
402	-1.50000e-01	8.707812e-06	

Index   v-sweep         i(vds)          
--------------------------------------------------------------------------------
403	-2.00000e-01	1.147483e-05	
404	-2.50000e-01	1.417440e-05	
405	-3.00000e-01	1.680672e-05	
406	-3.50000e-01	1.937199e-05	
407	-4.00000e-01	2.187040e-05	
408	-4.50000e-01	2.430216e-05	
409	-5.00000e-01	2.666748e-05	
410	-5.50000e-01	2.896654e-05	
411	-6.00000e-01	3.119955e-05	
412	-6.50000e-01	3.336671e-05	
413	-7.00000e-01	3.546822e-05	
414	-7.50000e-01	3.750427e-05	
415	-8.00000e-01	3.947507e-05	
416	-8.50000e-01	4.138081e-05	
417	-9.00000e-01	4.322170e-05	
418	-9.50000e-01	4.499794e-05	
419	-1.00000e+00	4.670972e-05	
420	-1.05000e+00	4.835724e-05	
421	-1.10000e+00	4.994072e-05	
422	-1.15000e+00	5.146034e-05	
423	-1.20000e+00	5.291632e-05	
424	-1.25000e+00	5.430887e-05	
425	-1.30000e+00	5.563818e-05	
426	-1.35000e+00	5.690449e-05	
427	-1.40000e+00	5.810801e-05	
428	-1.45000e+00	5.924896e-05	
429	-1.50000e+00	6.032760e-05	
430	-1.55000e+00	6.134417e-05	
431	-1.60000e+00	6.229897e-05	
432	-1.65000e+00	6.319228e-05	
433	-1.70000e+00	6.402449e-05	
434	-1.75000e+00	6.479602e-05	
435	-1.80000e+00	6.550742e-05	
436	-1.85000e+00	6.615938e-05	
437	-1.90000e+00	6.675287e-05	
438	-1.95000e+00	6.728924e-05	
439	-2.00000e+00	6.777043e-05	
440	-2.05000e+00	6.819918e-05	
441	-2.10000e+00	6.857931e-05	
442	-2.15000e+00	6.891568e-05	
443	-2.20000e+00	6.921403e-05	
444	-2.25000e+00	6.948035e-05	
445	-2.30000e+00	6.972025e-05	
446	-2.35000e+00	6.993852e-05	
447	-2.40000e+00	7.013902e-05	
448	-2.45000e+00	7.032474e-05	
449	-2.50000e+00	7.049800e-05	
450	-2.55000e+00	7.066062e-05	
451	-2.60000e+00	7.081403e-05	
452	-2.65000e+00	7.095939e-05	
453	-2.70000e+00	7.109763e-05	
454	-2.75000e+00	7.122954e-05	
455	-2.80000e+00	7.135576e-05	
456	-2.85000e+00	7.147686e-05	
457	-2.90000e+00	7.159331e-05	
458	-2.95000e+00	7.170552e-05	
459	-3.00000e+00	7.181385e-05	
460	-3.05000e+00	7.191862e-05	

Index   v-sweep         i(vds)          
--------------------------------------------------------------------------------
461	-3.10000e+00	7.202009e-05	
462	-3.15000e+00	7.211853e-05	
463	-3.20000e+00	7.221414e-05	
464	-3.25000e+00	7.230712e-05	
465	-3.30000e+00	7.239765e-05	
466	-3.35000e+00	7.248589e-05	
467	-3.40000e+00	7.257197e-05	
468	-3.45000e+00	7.265605e-05	
469	-3.50000e+00	7.273822e-05	
470	-3.55000e+00	7.281860e-05	
471	-3.60000e+00	7.289729e-05	
472	-3.65000e+00	7.297439e-05	
473	-3.70000e+00	7.304997e-05	
474	-3.75000e+00	7.312411e-05	
475	-3.80000e+00	7.319690e-05	
476	-3.85000e+00	7.326838e-05	
477	-3.90000e+00	7.333863e-05	
478	-3.95000e+00	7.340771e-05	
479	-4.00000e+00	7.347565e-05	
480	-4.05000e+00	7.354253e-05	
481	-4.10000e+00	7.360838e-05	
482	-4.15000e+00	7.367325e-05	
483	-4.20000e+00	7.373718e-05	
484	-4.25000e+00	7.380020e-05	
485	-4.30000e+00	7.386236e-05	
486	-4.35000e+00	7.392368e-05	
487	-4.40000e+00	7.398421e-05	
488	-4.45000e+00	7.404396e-05	
489	-4.50000e+00	7.410298e-05	
490	-4.55000e+00	7.416128e-05	
491	-4.60000e+00	7.421890e-05	
492	-4.65000e+00	7.427585e-05	
493	-4.70000e+00	7.433216e-05	
494	-4.75000e+00	7.438786e-05	
495	-4.80000e+00	7.444296e-05	
496	-4.85000e+00	7.449749e-05	
497	-4.90000e+00	7.455147e-05	
498	-4.95000e+00	7.460491e-05	
499	-5.00000e+00	7.465784e-05	
500	-5.05000e+00	7.471029e-05	
501	-5.10000e+00	7.476225e-05	
502	-5.15000e+00	7.481377e-05	
503	-5.20000e+00	7.486486e-05	
504	-5.25000e+00	7.491555e-05	
505	-5.30000e+00	7.496585e-05	
506	-5.35000e+00	7.501580e-05	
507	-5.40000e+00	7.506542e-05	
508	-5.45000e+00	7.511474e-05	
509	-5.50000e+00	7.516380e-05	
510	-5.55000e+00	7.521263e-05	
511	-5.60000e+00	7.526127e-05	
512	-5.65000e+00	7.530977e-05	
513	-5.70000e+00	7.535818e-05	
514	-5.75000e+00	7.540655e-05	
515	-5.80000e+00	7.545495e-05	
516	-5.85000e+00	7.550345e-05	
517	-5.90000e+00	7.555211e-05	
518	-5.95000e+00	7.560102e-05	

Index   v-sweep         i(vds)          
--------------------------------------------------------------------------------
519	-6.00000e+00	7.565029e-05	
520	-6.05000e+00	7.570000e-05	
521	-6.10000e+00	7.575027e-05	
522	-6.15000e+00	7.580123e-05	
523	-6.20000e+00	7.585301e-05	
524	-6.25000e+00	7.590577e-05	
525	-6.30000e+00	7.595965e-05	
526	-6.35000e+00	7.601485e-05	
527	-6.40000e+00	7.607155e-05	
528	-6.45000e+00	7.612995e-05	
529	-6.50000e+00	7.619029e-05	
530	-6.55000e+00	7.625280e-05	
531	-6.60000e+00	7.631775e-05	
532	0.000000e+00	-3.34176e-21	
533	-5.00000e-02	3.579548e-06	
534	-1.00000e-01	7.096111e-06	
535	-1.50000e-01	1.054986e-05	
536	-2.00000e-01	1.394095e-05	
537	-2.50000e-01	1.726956e-05	
538	-3.00000e-01	2.053586e-05	
539	-3.50000e-01	2.374001e-05	
540	-4.00000e-01	2.688218e-05	
541	-4.50000e-01	2.996253e-05	
542	-5.00000e-01	3.298124e-05	
543	-5.50000e-01	3.593846e-05	
544	-6.00000e-01	3.883436e-05	
545	-6.50000e-01	4.166912e-05	
546	-7.00000e-01	4.444289e-05	
547	-7.50000e-01	4.715584e-05	
548	-8.00000e-01	4.980813e-05	
549	-8.50000e-01	5.239993e-05	
550	-9.00000e-01	5.493140e-05	
551	-9.50000e-01	5.740271e-05	
552	-1.00000e+00	5.981402e-05	
553	-1.05000e+00	6.216549e-05	
554	-1.10000e+00	6.445729e-05	
555	-1.15000e+00	6.668958e-05	
556	-1.20000e+00	6.886253e-05	
557	-1.25000e+00	7.097630e-05	
558	-1.30000e+00	7.303105e-05	
559	-1.35000e+00	7.502694e-05	
560	-1.40000e+00	7.696415e-05	
561	-1.45000e+00	7.884282e-05	
562	-1.50000e+00	8.066314e-05	
563	-1.55000e+00	8.242526e-05	
564	-1.60000e+00	8.412934e-05	
565	-1.65000e+00	8.577557e-05	
566	-1.70000e+00	8.736409e-05	
567	-1.75000e+00	8.889509e-05	
568	-1.80000e+00	9.036873e-05	
569	-1.85000e+00	9.178520e-05	
570	-1.90000e+00	9.314466e-05	
571	-1.95000e+00	9.444730e-05	
572	-2.00000e+00	9.569331e-05	
573	-2.05000e+00	9.688288e-05	
574	-2.10000e+00	9.801622e-05	
575	-2.15000e+00	9.909356e-05	
576	-2.20000e+00	1.001151e-04	

Index   v-sweep         i(vds)          
--------------------------------------------------------------------------------
577	-2.25000e+00	1.010812e-04	
578	-2.30000e+00	1.019921e-04	
579	-2.35000e+00	1.028482e-04	
580	-2.40000e+00	1.036499e-04	
581	-2.45000e+00	1.043978e-04	
582	-2.50000e+00	1.050926e-04	
583	-2.55000e+00	1.057352e-04	
584	-2.60000e+00	1.063271e-04	
585	-2.65000e+00	1.068698e-04	
586	-2.70000e+00	1.073659e-04	
587	-2.75000e+00	1.078184e-04	
588	-2.80000e+00	1.082309e-04	
589	-2.85000e+00	1.086077e-04	
590	-2.90000e+00	1.089530e-04	
591	-2.95000e+00	1.092711e-04	
592	-3.00000e+00	1.095657e-04	
593	-3.05000e+00	1.098399e-04	
594	-3.10000e+00	1.100967e-04	
595	-3.15000e+00	1.103382e-04	
596	-3.20000e+00	1.105663e-04	
597	-3.25000e+00	1.107825e-04	
598	-3.30000e+00	1.109883e-04	
599	-3.35000e+00	1.111847e-04	
600	-3.40000e+00	1.113727e-04	
601	-3.45000e+00	1.115530e-04	
602	-3.50000e+00	1.117264e-04	
603	-3.55000e+00	1.118935e-04	
604	-3.60000e+00	1.120548e-04	
605	-3.65000e+00	1.122107e-04	
606	-3.70000e+00	1.123618e-04	
607	-3.75000e+00	1.125083e-04	
608	-3.80000e+00	1.126506e-04	
609	-3.85000e+00	1.127890e-04	
610	-3.90000e+00	1.129237e-04	
611	-3.95000e+00	1.130551e-04	
612	-4.00000e+00	1.131832e-04	
613	-4.05000e+00	1.133083e-04	
614	-4.10000e+00	1.134306e-04	
615	-4.15000e+00	1.135502e-04	
616	-4.20000e+00	1.136673e-04	
617	-4.25000e+00	1.137821e-04	
618	-4.30000e+00	1.138946e-04	
619	-4.35000e+00	1.140050e-04	
620	-4.40000e+00	1.141133e-04	
621	-4.45000e+00	1.142197e-04	
622	-4.50000e+00	1.143243e-04	
623	-4.55000e+00	1.144271e-04	
624	-4.60000e+00	1.145283e-04	
625	-4.65000e+00	1.146279e-04	
626	-4.70000e+00	1.147260e-04	
627	-4.75000e+00	1.148226e-04	
628	-4.80000e+00	1.149178e-04	
629	-4.85000e+00	1.150117e-04	
630	-4.90000e+00	1.151043e-04	
631	-4.95000e+00	1.151957e-04	
632	-5.00000e+00	1.152859e-04	
633	-5.05000e+00	1.153750e-04	
634	-5.10000e+00	1.154629e-04	

Index   v-sweep         i(vds)          
--------------------------------------------------------------------------------
635	-5.15000e+00	1.155498e-04	
636	-5.20000e+00	1.156357e-04	
637	-5.25000e+00	1.157207e-04	
638	-5.30000e+00	1.158046e-04	
639	-5.35000e+00	1.158877e-04	
640	-5.40000e+00	1.159699e-04	
641	-5.45000e+00	1.160512e-04	
642	-5.50000e+00	1.161318e-04	
643	-5.55000e+00	1.162115e-04	
644	-5.60000e+00	1.162905e-04	
645	-5.65000e+00	1.163688e-04	
646	-5.70000e+00	1.164463e-04	
647	-5.75000e+00	1.165232e-04	
648	-5.80000e+00	1.165995e-04	
649	-5.85000e+00	1.166751e-04	
650	-5.90000e+00	1.167502e-04	
651	-5.95000e+00	1.168248e-04	
652	-6.00000e+00	1.168988e-04	
653	-6.05000e+00	1.169725e-04	
654	-6.10000e+00	1.170457e-04	
655	-6.15000e+00	1.171185e-04	
656	-6.20000e+00	1.171911e-04	
657	-6.25000e+00	1.172634e-04	
658	-6.30000e+00	1.173356e-04	
659	-6.35000e+00	1.174077e-04	
660	-6.40000e+00	1.174799e-04	
661	-6.45000e+00	1.175521e-04	
662	-6.50000e+00	1.176245e-04	
663	-6.55000e+00	1.176973e-04	
664	-6.60000e+00	1.177706e-04	
665	0.000000e+00	-2.37978e-30	
666	-5.00000e-02	4.091777e-06	
667	-1.00000e-01	8.124984e-06	
668	-1.50000e-01	1.209976e-05	
669	-2.00000e-01	1.601626e-05	
670	-2.50000e-01	1.987461e-05	
671	-3.00000e-01	2.367496e-05	
672	-3.50000e-01	2.741745e-05	
673	-4.00000e-01	3.110222e-05	
674	-4.50000e-01	3.472942e-05	
675	-5.00000e-01	3.829919e-05	
676	-5.50000e-01	4.181165e-05	
677	-6.00000e-01	4.526697e-05	
678	-6.50000e-01	4.866527e-05	
679	-7.00000e-01	5.200670e-05	
680	-7.50000e-01	5.529140e-05	
681	-8.00000e-01	5.851950e-05	
682	-8.50000e-01	6.169115e-05	
683	-9.00000e-01	6.480649e-05	
684	-9.50000e-01	6.786565e-05	
685	-1.00000e+00	7.086877e-05	
686	-1.05000e+00	7.381599e-05	
687	-1.10000e+00	7.670746e-05	
688	-1.15000e+00	7.954331e-05	
689	-1.20000e+00	8.232367e-05	
690	-1.25000e+00	8.504868e-05	
691	-1.30000e+00	8.771849e-05	
692	-1.35000e+00	9.033323e-05	

Index   v-sweep         i(vds)          
--------------------------------------------------------------------------------
693	-1.40000e+00	9.289304e-05	
694	-1.45000e+00	9.539805e-05	
695	-1.50000e+00	9.784841e-05	
696	-1.55000e+00	1.002442e-04	
697	-1.60000e+00	1.025857e-04	
698	-1.65000e+00	1.048729e-04	
699	-1.70000e+00	1.071060e-04	
700	-1.75000e+00	1.092851e-04	
701	-1.80000e+00	1.114104e-04	
702	-1.85000e+00	1.134820e-04	
703	-1.90000e+00	1.155000e-04	
704	-1.95000e+00	1.174646e-04	
705	-2.00000e+00	1.193759e-04	
706	-2.05000e+00	1.212341e-04	
707	-2.10000e+00	1.230392e-04	
708	-2.15000e+00	1.247915e-04	
709	-2.20000e+00	1.264911e-04	
710	-2.25000e+00	1.281381e-04	
711	-2.30000e+00	1.297326e-04	
712	-2.35000e+00	1.312748e-04	
713	-2.40000e+00	1.327649e-04	
714	-2.45000e+00	1.342030e-04	
715	-2.50000e+00	1.355892e-04	
716	-2.55000e+00	1.369237e-04	
717	-2.60000e+00	1.382068e-04	
718	-2.65000e+00	1.394384e-04	
719	-2.70000e+00	1.406189e-04	
720	-2.75000e+00	1.417484e-04	
721	-2.80000e+00	1.428271e-04	
722	-2.85000e+00	1.438553e-04	
723	-2.90000e+00	1.448333e-04	
724	-2.95000e+00	1.457613e-04	
725	-3.00000e+00	1.466396e-04	
726	-3.05000e+00	1.474689e-04	
727	-3.10000e+00	1.482496e-04	
728	-3.15000e+00	1.489823e-04	
729	-3.20000e+00	1.496682e-04	
730	-3.25000e+00	1.503083e-04	
731	-3.30000e+00	1.509043e-04	
732	-3.35000e+00	1.514581e-04	
733	-3.40000e+00	1.519722e-04	
734	-3.45000e+00	1.524494e-04	
735	-3.50000e+00	1.528930e-04	
736	-3.55000e+00	1.533060e-04	
737	-3.60000e+00	1.536919e-04	
738	-3.65000e+00	1.540535e-04	
739	-3.70000e+00	1.543935e-04	
740	-3.75000e+00	1.547144e-04	
741	-3.80000e+00	1.550184e-04	
742	-3.85000e+00	1.553071e-04	
743	-3.90000e+00	1.555821e-04	
744	-3.95000e+00	1.558450e-04	
745	-4.00000e+00	1.560967e-04	
746	-4.05000e+00	1.563384e-04	
747	-4.10000e+00	1.565709e-04	
748	-4.15000e+00	1.567950e-04	
749	-4.20000e+00	1.570114e-04	
750	-4.25000e+00	1.572208e-04	

Index   v-sweep         i(vds)          
--------------------------------------------------------------------------------
751	-4.30000e+00	1.574236e-04	
752	-4.35000e+00	1.576204e-04	
753	-4.40000e+00	1.578116e-04	
754	-4.45000e+00	1.579975e-04	
755	-4.50000e+00	1.581786e-04	
756	-4.55000e+00	1.583551e-04	
757	-4.60000e+00	1.585274e-04	
758	-4.65000e+00	1.586956e-04	
759	-4.70000e+00	1.588601e-04	
760	-4.75000e+00	1.590210e-04	
761	-4.80000e+00	1.591786e-04	
762	-4.85000e+00	1.593330e-04	
763	-4.90000e+00	1.594844e-04	
764	-4.95000e+00	1.596330e-04	
765	-5.00000e+00	1.597788e-04	
766	-5.05000e+00	1.599221e-04	
767	-5.10000e+00	1.600630e-04	
768	-5.15000e+00	1.602015e-04	
769	-5.20000e+00	1.603378e-04	
770	-5.25000e+00	1.604720e-04	
771	-5.30000e+00	1.606041e-04	
772	-5.35000e+00	1.607343e-04	
773	-5.40000e+00	1.608627e-04	
774	-5.45000e+00	1.609893e-04	
775	-5.50000e+00	1.611142e-04	
776	-5.55000e+00	1.612374e-04	
777	-5.60000e+00	1.613590e-04	
778	-5.65000e+00	1.614792e-04	
779	-5.70000e+00	1.615979e-04	
780	-5.75000e+00	1.617152e-04	
781	-5.80000e+00	1.618311e-04	
782	-5.85000e+00	1.619457e-04	
783	-5.90000e+00	1.620591e-04	
784	-5.95000e+00	1.621713e-04	
785	-6.00000e+00	1.622823e-04	
786	-6.05000e+00	1.623921e-04	
787	-6.10000e+00	1.625009e-04	
788	-6.15000e+00	1.626086e-04	
789	-6.20000e+00	1.627153e-04	
790	-6.25000e+00	1.628211e-04	
791	-6.30000e+00	1.629259e-04	
792	-6.35000e+00	1.630298e-04	
793	-6.40000e+00	1.631329e-04	
794	-6.45000e+00	1.632352e-04	
795	-6.50000e+00	1.633367e-04	
796	-6.55000e+00	1.634375e-04	
797	-6.60000e+00	1.635376e-04	
Note: No ".plot", ".print", or ".fourier" lines; no simulations run
