
Note: Compatibility modes selected: hs

Warning: m=xx on .subckt line will override multiplier m hierarchy!


Circuit: ***************************

Doing analysis at TEMP = -40.000000 and TNOM = -40.000000


No. of Data Rows : 798
                          ***************************
                          DC transfer characteristic  Mon Jan  9 13:58:50  2023
--------------------------------------------------------------------------------
Index   v-sweep         i(vds)          
--------------------------------------------------------------------------------
0	0.000000e+00	-1.16283e-37	
1	-5.00000e-02	1.827135e-06	
2	-1.00000e-01	2.419531e-06	
3	-1.50000e-01	2.563119e-06	
4	-2.00000e-01	2.630465e-06	
5	-2.50000e-01	2.681355e-06	
6	-3.00000e-01	2.726003e-06	
7	-3.50000e-01	2.767245e-06	
8	-4.00000e-01	2.806229e-06	
9	-4.50000e-01	2.843554e-06	
10	-5.00000e-01	2.879589e-06	
11	-5.50000e-01	2.914583e-06	
12	-6.00000e-01	2.948719e-06	
13	-6.50000e-01	2.982135e-06	
14	-7.00000e-01	3.014939e-06	
15	-7.50000e-01	3.047220e-06	
16	-8.00000e-01	3.079050e-06	
17	-8.50000e-01	3.110488e-06	
18	-9.00000e-01	3.141584e-06	
19	-9.50000e-01	3.172382e-06	
20	-1.00000e+00	3.202918e-06	
21	-1.05000e+00	3.233226e-06	
22	-1.10000e+00	3.263331e-06	
23	-1.15000e+00	3.293260e-06	
24	-1.20000e+00	3.323033e-06	
25	-1.25000e+00	3.352670e-06	
26	-1.30000e+00	3.382187e-06	
27	-1.35000e+00	3.411601e-06	
28	-1.40000e+00	3.440925e-06	
29	-1.45000e+00	3.470171e-06	
30	-1.50000e+00	3.499350e-06	
31	-1.55000e+00	3.528474e-06	
32	-1.60000e+00	3.557550e-06	
33	-1.65000e+00	3.586588e-06	
34	-1.70000e+00	3.615596e-06	
35	-1.75000e+00	3.644580e-06	
36	-1.80000e+00	3.673547e-06	
37	-1.85000e+00	3.702503e-06	
38	-1.90000e+00	3.731455e-06	
39	-1.95000e+00	3.760406e-06	
40	-2.00000e+00	3.789362e-06	
41	-2.05000e+00	3.818327e-06	
42	-2.10000e+00	3.847306e-06	
43	-2.15000e+00	3.876302e-06	
44	-2.20000e+00	3.905319e-06	
45	-2.25000e+00	3.934361e-06	
46	-2.30000e+00	3.963430e-06	
47	-2.35000e+00	3.992531e-06	
48	-2.40000e+00	4.021664e-06	
49	-2.45000e+00	4.050834e-06	
50	-2.50000e+00	4.080043e-06	
51	-2.55000e+00	4.109293e-06	
52	-2.60000e+00	4.138586e-06	
53	-2.65000e+00	4.167925e-06	
54	-2.70000e+00	4.197312e-06	

Index   v-sweep         i(vds)          
--------------------------------------------------------------------------------
55	-2.75000e+00	4.226748e-06	
56	-2.80000e+00	4.256236e-06	
57	-2.85000e+00	4.285777e-06	
58	-2.90000e+00	4.315374e-06	
59	-2.95000e+00	4.345028e-06	
60	-3.00000e+00	4.374740e-06	
61	-3.05000e+00	4.404514e-06	
62	-3.10000e+00	4.434349e-06	
63	-3.15000e+00	4.464249e-06	
64	-3.20000e+00	4.494216e-06	
65	-3.25000e+00	4.524251e-06	
66	-3.30000e+00	4.554356e-06	
67	-3.35000e+00	4.584534e-06	
68	-3.40000e+00	4.614788e-06	
69	-3.45000e+00	4.645120e-06	
70	-3.50000e+00	4.675533e-06	
71	-3.55000e+00	4.706030e-06	
72	-3.60000e+00	4.736616e-06	
73	-3.65000e+00	4.767295e-06	
74	-3.70000e+00	4.798070e-06	
75	-3.75000e+00	4.828948e-06	
76	-3.80000e+00	4.859934e-06	
77	-3.85000e+00	4.891033e-06	
78	-3.90000e+00	4.922254e-06	
79	-3.95000e+00	4.953604e-06	
80	-4.00000e+00	4.985092e-06	
81	-4.05000e+00	5.016727e-06	
82	-4.10000e+00	5.048519e-06	
83	-4.15000e+00	5.080482e-06	
84	-4.20000e+00	5.112626e-06	
85	-4.25000e+00	5.144967e-06	
86	-4.30000e+00	5.177520e-06	
87	-4.35000e+00	5.210301e-06	
88	-4.40000e+00	5.243329e-06	
89	-4.45000e+00	5.276625e-06	
90	-4.50000e+00	5.310208e-06	
91	-4.55000e+00	5.344104e-06	
92	-4.60000e+00	5.378337e-06	
93	-4.65000e+00	5.412935e-06	
94	-4.70000e+00	5.447928e-06	
95	-4.75000e+00	5.483346e-06	
96	-4.80000e+00	5.519224e-06	
97	-4.85000e+00	5.555598e-06	
98	-4.90000e+00	5.592507e-06	
99	-4.95000e+00	5.629993e-06	
100	-5.00000e+00	5.668099e-06	
101	-5.05000e+00	5.706873e-06	
102	-5.10000e+00	5.746364e-06	
103	-5.15000e+00	5.786626e-06	
104	-5.20000e+00	5.827714e-06	
105	-5.25000e+00	5.869687e-06	
106	-5.30000e+00	5.912609e-06	
107	-5.35000e+00	5.956543e-06	
108	-5.40000e+00	6.001561e-06	
109	-5.45000e+00	6.047735e-06	
110	-5.50000e+00	6.095140e-06	
111	-5.55000e+00	6.143858e-06	
112	-5.60000e+00	6.193972e-06	

Index   v-sweep         i(vds)          
--------------------------------------------------------------------------------
113	-5.65000e+00	6.245571e-06	
114	-5.70000e+00	6.298746e-06	
115	-5.75000e+00	6.353593e-06	
116	-5.80000e+00	6.410213e-06	
117	-5.85000e+00	6.468709e-06	
118	-5.90000e+00	6.529190e-06	
119	-5.95000e+00	6.591769e-06	
120	-6.00000e+00	6.656564e-06	
121	-6.05000e+00	6.723697e-06	
122	-6.10000e+00	6.793293e-06	
123	-6.15000e+00	6.865483e-06	
124	-6.20000e+00	6.940404e-06	
125	-6.25000e+00	7.018196e-06	
126	-6.30000e+00	7.099003e-06	
127	-6.35000e+00	7.182975e-06	
128	-6.40000e+00	7.270268e-06	
129	-6.45000e+00	7.361041e-06	
130	-6.50000e+00	7.455458e-06	
131	-6.55000e+00	7.553689e-06	
132	-6.60000e+00	7.655908e-06	
133	0.000000e+00	1.948896e-35	
134	-5.00000e-02	3.429988e-05	
135	-1.00000e-01	6.626758e-05	
136	-1.50000e-01	9.593762e-05	
137	-2.00000e-01	1.233442e-04	
138	-2.50000e-01	1.485215e-04	
139	-3.00000e-01	1.715032e-04	
140	-3.50000e-01	1.923235e-04	
141	-4.00000e-01	2.110170e-04	
142	-4.50000e-01	2.276197e-04	
143	-5.00000e-01	2.421702e-04	
144	-5.50000e-01	2.547134e-04	
145	-6.00000e-01	2.653065e-04	
146	-6.50000e-01	2.740337e-04	
147	-7.00000e-01	2.810319e-04	
148	-7.50000e-01	2.865244e-04	
149	-8.00000e-01	2.908227e-04	
150	-8.50000e-01	2.942597e-04	
151	-9.00000e-01	2.971050e-04	
152	-9.50000e-01	2.995398e-04	
153	-1.00000e+00	3.016787e-04	
154	-1.05000e+00	3.035946e-04	
155	-1.10000e+00	3.053363e-04	
156	-1.15000e+00	3.069379e-04	
157	-1.20000e+00	3.084242e-04	
158	-1.25000e+00	3.098139e-04	
159	-1.30000e+00	3.111214e-04	
160	-1.35000e+00	3.123579e-04	
161	-1.40000e+00	3.135328e-04	
162	-1.45000e+00	3.146534e-04	
163	-1.50000e+00	3.157260e-04	
164	-1.55000e+00	3.167558e-04	
165	-1.60000e+00	3.177471e-04	
166	-1.65000e+00	3.187036e-04	
167	-1.70000e+00	3.196288e-04	
168	-1.75000e+00	3.205252e-04	
169	-1.80000e+00	3.213954e-04	
170	-1.85000e+00	3.222415e-04	

Index   v-sweep         i(vds)          
--------------------------------------------------------------------------------
171	-1.90000e+00	3.230655e-04	
172	-1.95000e+00	3.238689e-04	
173	-2.00000e+00	3.246534e-04	
174	-2.05000e+00	3.254201e-04	
175	-2.10000e+00	3.261704e-04	
176	-2.15000e+00	3.269054e-04	
177	-2.20000e+00	3.276259e-04	
178	-2.25000e+00	3.283330e-04	
179	-2.30000e+00	3.290274e-04	
180	-2.35000e+00	3.297099e-04	
181	-2.40000e+00	3.303811e-04	
182	-2.45000e+00	3.310417e-04	
183	-2.50000e+00	3.316923e-04	
184	-2.55000e+00	3.323333e-04	
185	-2.60000e+00	3.329653e-04	
186	-2.65000e+00	3.335888e-04	
187	-2.70000e+00	3.342041e-04	
188	-2.75000e+00	3.348116e-04	
189	-2.80000e+00	3.354118e-04	
190	-2.85000e+00	3.360049e-04	
191	-2.90000e+00	3.365912e-04	
192	-2.95000e+00	3.371712e-04	
193	-3.00000e+00	3.377450e-04	
194	-3.05000e+00	3.383129e-04	
195	-3.10000e+00	3.388751e-04	
196	-3.15000e+00	3.394319e-04	
197	-3.20000e+00	3.399836e-04	
198	-3.25000e+00	3.405302e-04	
199	-3.30000e+00	3.410721e-04	
200	-3.35000e+00	3.416093e-04	
201	-3.40000e+00	3.421421e-04	
202	-3.45000e+00	3.426707e-04	
203	-3.50000e+00	3.431952e-04	
204	-3.55000e+00	3.437158e-04	
205	-3.60000e+00	3.442326e-04	
206	-3.65000e+00	3.447457e-04	
207	-3.70000e+00	3.452554e-04	
208	-3.75000e+00	3.457618e-04	
209	-3.80000e+00	3.462650e-04	
210	-3.85000e+00	3.467652e-04	
211	-3.90000e+00	3.472626e-04	
212	-3.95000e+00	3.477573e-04	
213	-4.00000e+00	3.482494e-04	
214	-4.05000e+00	3.487393e-04	
215	-4.10000e+00	3.492271e-04	
216	-4.15000e+00	3.497129e-04	
217	-4.20000e+00	3.501971e-04	
218	-4.25000e+00	3.506799e-04	
219	-4.30000e+00	3.511615e-04	
220	-4.35000e+00	3.516423e-04	
221	-4.40000e+00	3.521227e-04	
222	-4.45000e+00	3.526029e-04	
223	-4.50000e+00	3.530834e-04	
224	-4.55000e+00	3.535646e-04	
225	-4.60000e+00	3.540471e-04	
226	-4.65000e+00	3.545314e-04	
227	-4.70000e+00	3.550180e-04	
228	-4.75000e+00	3.555076e-04	

Index   v-sweep         i(vds)          
--------------------------------------------------------------------------------
229	-4.80000e+00	3.560010e-04	
230	-4.85000e+00	3.564988e-04	
231	-4.90000e+00	3.570020e-04	
232	-4.95000e+00	3.575114e-04	
233	-5.00000e+00	3.580281e-04	
234	-5.05000e+00	3.585530e-04	
235	-5.10000e+00	3.590875e-04	
236	-5.15000e+00	3.596326e-04	
237	-5.20000e+00	3.601899e-04	
238	-5.25000e+00	3.607606e-04	
239	-5.30000e+00	3.613464e-04	
240	-5.35000e+00	3.619488e-04	
241	-5.40000e+00	3.625697e-04	
242	-5.45000e+00	3.632110e-04	
243	-5.50000e+00	3.638745e-04	
244	-5.55000e+00	3.645624e-04	
245	-5.60000e+00	3.652770e-04	
246	-5.65000e+00	3.660206e-04	
247	-5.70000e+00	3.667958e-04	
248	-5.75000e+00	3.676050e-04	
249	-5.80000e+00	3.684511e-04	
250	-5.85000e+00	3.693371e-04	
251	-5.90000e+00	3.702658e-04	
252	-5.95000e+00	3.712406e-04	
253	-6.00000e+00	3.722648e-04	
254	-6.05000e+00	3.733418e-04	
255	-6.10000e+00	3.744753e-04	
256	-6.15000e+00	3.756691e-04	
257	-6.20000e+00	3.769271e-04	
258	-6.25000e+00	3.782534e-04	
259	-6.30000e+00	3.796522e-04	
260	-6.35000e+00	3.811280e-04	
261	-6.40000e+00	3.826853e-04	
262	-6.45000e+00	3.843288e-04	
263	-6.50000e+00	3.860635e-04	
264	-6.55000e+00	3.878943e-04	
265	-6.60000e+00	3.898264e-04	
266	0.000000e+00	2.617647e-35	
267	-5.00000e-02	5.619625e-05	
268	-1.00000e-01	1.102582e-04	
269	-1.50000e-01	1.622102e-04	
270	-2.00000e-01	2.120767e-04	
271	-2.50000e-01	2.598815e-04	
272	-3.00000e-01	3.056485e-04	
273	-3.50000e-01	3.494014e-04	
274	-4.00000e-01	3.911635e-04	
275	-4.50000e-01	4.309579e-04	
276	-5.00000e-01	4.688077e-04	
277	-5.50000e-01	5.047357e-04	
278	-6.00000e-01	5.387644e-04	
279	-6.50000e-01	5.709163e-04	
280	-7.00000e-01	6.012138e-04	
281	-7.50000e-01	6.296788e-04	
282	-8.00000e-01	6.563337e-04	
283	-8.50000e-01	6.812004e-04	
284	-9.00000e-01	7.043011e-04	
285	-9.50000e-01	7.256585e-04	
286	-1.00000e+00	7.452955e-04	

Index   v-sweep         i(vds)          
--------------------------------------------------------------------------------
287	-1.05000e+00	7.632364e-04	
288	-1.10000e+00	7.795076e-04	
289	-1.15000e+00	7.941397e-04	
290	-1.20000e+00	8.071712e-04	
291	-1.25000e+00	8.186562e-04	
292	-1.30000e+00	8.286751e-04	
293	-1.35000e+00	8.373472e-04	
294	-1.40000e+00	8.448332e-04	
295	-1.45000e+00	8.513183e-04	
296	-1.50000e+00	8.569853e-04	
297	-1.55000e+00	8.619939e-04	
298	-1.60000e+00	8.664732e-04	
299	-1.65000e+00	8.705238e-04	
300	-1.70000e+00	8.742231e-04	
301	-1.75000e+00	8.776311e-04	
302	-1.80000e+00	8.807941e-04	
303	-1.85000e+00	8.837490e-04	
304	-1.90000e+00	8.865249e-04	
305	-1.95000e+00	8.891457e-04	
306	-2.00000e+00	8.916306e-04	
307	-2.05000e+00	8.939956e-04	
308	-2.10000e+00	8.962543e-04	
309	-2.15000e+00	8.984178e-04	
310	-2.20000e+00	9.004959e-04	
311	-2.25000e+00	9.024967e-04	
312	-2.30000e+00	9.044273e-04	
313	-2.35000e+00	9.062940e-04	
314	-2.40000e+00	9.081021e-04	
315	-2.45000e+00	9.098565e-04	
316	-2.50000e+00	9.115613e-04	
317	-2.55000e+00	9.132202e-04	
318	-2.60000e+00	9.148367e-04	
319	-2.65000e+00	9.164137e-04	
320	-2.70000e+00	9.179538e-04	
321	-2.75000e+00	9.194596e-04	
322	-2.80000e+00	9.209331e-04	
323	-2.85000e+00	9.223765e-04	
324	-2.90000e+00	9.237914e-04	
325	-2.95000e+00	9.251796e-04	
326	-3.00000e+00	9.265426e-04	
327	-3.05000e+00	9.278818e-04	
328	-3.10000e+00	9.291984e-04	
329	-3.15000e+00	9.304936e-04	
330	-3.20000e+00	9.317687e-04	
331	-3.25000e+00	9.330244e-04	
332	-3.30000e+00	9.342618e-04	
333	-3.35000e+00	9.354818e-04	
334	-3.40000e+00	9.366852e-04	
335	-3.45000e+00	9.378727e-04	
336	-3.50000e+00	9.390451e-04	
337	-3.55000e+00	9.402030e-04	
338	-3.60000e+00	9.413470e-04	
339	-3.65000e+00	9.424777e-04	
340	-3.70000e+00	9.435957e-04	
341	-3.75000e+00	9.447015e-04	
342	-3.80000e+00	9.457955e-04	
343	-3.85000e+00	9.468783e-04	
344	-3.90000e+00	9.479502e-04	

Index   v-sweep         i(vds)          
--------------------------------------------------------------------------------
345	-3.95000e+00	9.490118e-04	
346	-4.00000e+00	9.500633e-04	
347	-4.05000e+00	9.511053e-04	
348	-4.10000e+00	9.521380e-04	
349	-4.15000e+00	9.531618e-04	
350	-4.20000e+00	9.541772e-04	
351	-4.25000e+00	9.551844e-04	
352	-4.30000e+00	9.561837e-04	
353	-4.35000e+00	9.571757e-04	
354	-4.40000e+00	9.581606e-04	
355	-4.45000e+00	9.591389e-04	
356	-4.50000e+00	9.601108e-04	
357	-4.55000e+00	9.610770e-04	
358	-4.60000e+00	9.620377e-04	
359	-4.65000e+00	9.629935e-04	
360	-4.70000e+00	9.639450e-04	
361	-4.75000e+00	9.648927e-04	
362	-4.80000e+00	9.658372e-04	
363	-4.85000e+00	9.667792e-04	
364	-4.90000e+00	9.677195e-04	
365	-4.95000e+00	9.686590e-04	
366	-5.00000e+00	9.695986e-04	
367	-5.05000e+00	9.705393e-04	
368	-5.10000e+00	9.714822e-04	
369	-5.15000e+00	9.724286e-04	
370	-5.20000e+00	9.733799e-04	
371	-5.25000e+00	9.743375e-04	
372	-5.30000e+00	9.753032e-04	
373	-5.35000e+00	9.762788e-04	
374	-5.40000e+00	9.772662e-04	
375	-5.45000e+00	9.782676e-04	
376	-5.50000e+00	9.792854e-04	
377	-5.55000e+00	9.803222e-04	
378	-5.60000e+00	9.813806e-04	
379	-5.65000e+00	9.824638e-04	
380	-5.70000e+00	9.835749e-04	
381	-5.75000e+00	9.847174e-04	
382	-5.80000e+00	9.858950e-04	
383	-5.85000e+00	9.871118e-04	
384	-5.90000e+00	9.883720e-04	
385	-5.95000e+00	9.896803e-04	
386	-6.00000e+00	9.910413e-04	
387	-6.05000e+00	9.924605e-04	
388	-6.10000e+00	9.939431e-04	
389	-6.15000e+00	9.954950e-04	
390	-6.20000e+00	9.971225e-04	
391	-6.25000e+00	9.988318e-04	
392	-6.30000e+00	1.000630e-03	
393	-6.35000e+00	1.002524e-03	
394	-6.40000e+00	1.004522e-03	
395	-6.45000e+00	1.006631e-03	
396	-6.50000e+00	1.008860e-03	
397	-6.55000e+00	1.011217e-03	
398	-6.60000e+00	1.013712e-03	
399	0.000000e+00	-6.02474e-36	
400	-5.00000e-02	7.163453e-05	
401	-1.00000e-01	1.413353e-04	
402	-1.50000e-01	2.091207e-04	

Index   v-sweep         i(vds)          
--------------------------------------------------------------------------------
403	-2.00000e-01	2.750088e-04	
404	-2.50000e-01	3.390177e-04	
405	-3.00000e-01	4.011654e-04	
406	-3.50000e-01	4.614697e-04	
407	-4.00000e-01	5.199483e-04	
408	-4.50000e-01	5.766186e-04	
409	-5.00000e-01	6.314982e-04	
410	-5.50000e-01	6.846042e-04	
411	-6.00000e-01	7.359539e-04	
412	-6.50000e-01	7.855643e-04	
413	-7.00000e-01	8.334522e-04	
414	-7.50000e-01	8.796344e-04	
415	-8.00000e-01	9.241276e-04	
416	-8.50000e-01	9.669481e-04	
417	-9.00000e-01	1.008112e-03	
418	-9.50000e-01	1.047636e-03	
419	-1.00000e+00	1.085537e-03	
420	-1.05000e+00	1.121829e-03	
421	-1.10000e+00	1.156528e-03	
422	-1.15000e+00	1.189651e-03	
423	-1.20000e+00	1.221213e-03	
424	-1.25000e+00	1.251229e-03	
425	-1.30000e+00	1.279714e-03	
426	-1.35000e+00	1.306682e-03	
427	-1.40000e+00	1.332148e-03	
428	-1.45000e+00	1.356126e-03	
429	-1.50000e+00	1.378629e-03	
430	-1.55000e+00	1.399668e-03	
431	-1.60000e+00	1.419253e-03	
432	-1.65000e+00	1.437394e-03	
433	-1.70000e+00	1.454096e-03	
434	-1.75000e+00	1.469366e-03	
435	-1.80000e+00	1.483216e-03	
436	-1.85000e+00	1.495676e-03	
437	-1.90000e+00	1.506805e-03	
438	-1.95000e+00	1.516705e-03	
439	-2.00000e+00	1.525510e-03	
440	-2.05000e+00	1.533370e-03	
441	-2.10000e+00	1.540428e-03	
442	-2.15000e+00	1.546815e-03	
443	-2.20000e+00	1.552640e-03	
444	-2.25000e+00	1.557992e-03	
445	-2.30000e+00	1.562943e-03	
446	-2.35000e+00	1.567553e-03	
447	-2.40000e+00	1.571870e-03	
448	-2.45000e+00	1.575931e-03	
449	-2.50000e+00	1.579771e-03	
450	-2.55000e+00	1.583414e-03	
451	-2.60000e+00	1.586884e-03	
452	-2.65000e+00	1.590199e-03	
453	-2.70000e+00	1.593375e-03	
454	-2.75000e+00	1.596426e-03	
455	-2.80000e+00	1.599365e-03	
456	-2.85000e+00	1.602200e-03	
457	-2.90000e+00	1.604941e-03	
458	-2.95000e+00	1.607596e-03	
459	-3.00000e+00	1.610172e-03	
460	-3.05000e+00	1.612674e-03	

Index   v-sweep         i(vds)          
--------------------------------------------------------------------------------
461	-3.10000e+00	1.615109e-03	
462	-3.15000e+00	1.617482e-03	
463	-3.20000e+00	1.619795e-03	
464	-3.25000e+00	1.622055e-03	
465	-3.30000e+00	1.624263e-03	
466	-3.35000e+00	1.626424e-03	
467	-3.40000e+00	1.628539e-03	
468	-3.45000e+00	1.630613e-03	
469	-3.50000e+00	1.632647e-03	
470	-3.55000e+00	1.634644e-03	
471	-3.60000e+00	1.636605e-03	
472	-3.65000e+00	1.638533e-03	
473	-3.70000e+00	1.640429e-03	
474	-3.75000e+00	1.642295e-03	
475	-3.80000e+00	1.644132e-03	
476	-3.85000e+00	1.645942e-03	
477	-3.90000e+00	1.647727e-03	
478	-3.95000e+00	1.649486e-03	
479	-4.00000e+00	1.651222e-03	
480	-4.05000e+00	1.652935e-03	
481	-4.10000e+00	1.654627e-03	
482	-4.15000e+00	1.656298e-03	
483	-4.20000e+00	1.657949e-03	
484	-4.25000e+00	1.659581e-03	
485	-4.30000e+00	1.661195e-03	
486	-4.35000e+00	1.662792e-03	
487	-4.40000e+00	1.664372e-03	
488	-4.45000e+00	1.665935e-03	
489	-4.50000e+00	1.667484e-03	
490	-4.55000e+00	1.669017e-03	
491	-4.60000e+00	1.670536e-03	
492	-4.65000e+00	1.672041e-03	
493	-4.70000e+00	1.673533e-03	
494	-4.75000e+00	1.675012e-03	
495	-4.80000e+00	1.676480e-03	
496	-4.85000e+00	1.677936e-03	
497	-4.90000e+00	1.679381e-03	
498	-4.95000e+00	1.680815e-03	
499	-5.00000e+00	1.682240e-03	
500	-5.05000e+00	1.683656e-03	
501	-5.10000e+00	1.685064e-03	
502	-5.15000e+00	1.686464e-03	
503	-5.20000e+00	1.687858e-03	
504	-5.25000e+00	1.689246e-03	
505	-5.30000e+00	1.690629e-03	
506	-5.35000e+00	1.692008e-03	
507	-5.40000e+00	1.693385e-03	
508	-5.45000e+00	1.694760e-03	
509	-5.50000e+00	1.696137e-03	
510	-5.55000e+00	1.697515e-03	
511	-5.60000e+00	1.698897e-03	
512	-5.65000e+00	1.700286e-03	
513	-5.70000e+00	1.701682e-03	
514	-5.75000e+00	1.703089e-03	
515	-5.80000e+00	1.704510e-03	
516	-5.85000e+00	1.705947e-03	
517	-5.90000e+00	1.707403e-03	
518	-5.95000e+00	1.708883e-03	

Index   v-sweep         i(vds)          
--------------------------------------------------------------------------------
519	-6.00000e+00	1.710390e-03	
520	-6.05000e+00	1.711928e-03	
521	-6.10000e+00	1.713502e-03	
522	-6.15000e+00	1.715117e-03	
523	-6.20000e+00	1.716779e-03	
524	-6.25000e+00	1.718492e-03	
525	-6.30000e+00	1.720263e-03	
526	-6.35000e+00	1.722100e-03	
527	-6.40000e+00	1.724008e-03	
528	-6.45000e+00	1.725996e-03	
529	-6.50000e+00	1.728072e-03	
530	-6.55000e+00	1.730244e-03	
531	-6.60000e+00	1.732521e-03	
532	0.000000e+00	-5.48813e-36	
533	-5.00000e-02	8.306199e-05	
534	-1.00000e-01	1.643662e-04	
535	-1.50000e-01	2.439269e-04	
536	-2.00000e-01	3.217583e-04	
537	-2.50000e-01	3.978745e-04	
538	-3.00000e-01	4.722895e-04	
539	-3.50000e-01	5.450173e-04	
540	-4.00000e-01	6.160718e-04	
541	-4.50000e-01	6.854668e-04	
542	-5.00000e-01	7.532159e-04	
543	-5.50000e-01	8.193327e-04	
544	-6.00000e-01	8.838309e-04	
545	-6.50000e-01	9.467237e-04	
546	-7.00000e-01	1.008025e-03	
547	-7.50000e-01	1.067747e-03	
548	-8.00000e-01	1.125904e-03	
549	-8.50000e-01	1.182508e-03	
550	-9.00000e-01	1.237573e-03	
551	-9.50000e-01	1.291112e-03	
552	-1.00000e+00	1.343136e-03	
553	-1.05000e+00	1.393660e-03	
554	-1.10000e+00	1.442695e-03	
555	-1.15000e+00	1.490255e-03	
556	-1.20000e+00	1.536351e-03	
557	-1.25000e+00	1.580996e-03	
558	-1.30000e+00	1.624202e-03	
559	-1.35000e+00	1.665981e-03	
560	-1.40000e+00	1.706346e-03	
561	-1.45000e+00	1.745307e-03	
562	-1.50000e+00	1.782878e-03	
563	-1.55000e+00	1.819069e-03	
564	-1.60000e+00	1.853891e-03	
565	-1.65000e+00	1.887357e-03	
566	-1.70000e+00	1.919476e-03	
567	-1.75000e+00	1.950260e-03	
568	-1.80000e+00	1.979718e-03	
569	-1.85000e+00	2.007859e-03	
570	-1.90000e+00	2.034691e-03	
571	-1.95000e+00	2.060222e-03	
572	-2.00000e+00	2.084455e-03	
573	-2.05000e+00	2.107392e-03	
574	-2.10000e+00	2.129030e-03	
575	-2.15000e+00	2.149362e-03	
576	-2.20000e+00	2.168371e-03	

Index   v-sweep         i(vds)          
--------------------------------------------------------------------------------
577	-2.25000e+00	2.186039e-03	
578	-2.30000e+00	2.202345e-03	
579	-2.35000e+00	2.217281e-03	
580	-2.40000e+00	2.230865e-03	
581	-2.45000e+00	2.243154e-03	
582	-2.50000e+00	2.254246e-03	
583	-2.55000e+00	2.264264e-03	
584	-2.60000e+00	2.273341e-03	
585	-2.65000e+00	2.281608e-03	
586	-2.70000e+00	2.289181e-03	
587	-2.75000e+00	2.296160e-03	
588	-2.80000e+00	2.302630e-03	
589	-2.85000e+00	2.308662e-03	
590	-2.90000e+00	2.314314e-03	
591	-2.95000e+00	2.319635e-03	
592	-3.00000e+00	2.324666e-03	
593	-3.05000e+00	2.329440e-03	
594	-3.10000e+00	2.333987e-03	
595	-3.15000e+00	2.338330e-03	
596	-3.20000e+00	2.342491e-03	
597	-3.25000e+00	2.346487e-03	
598	-3.30000e+00	2.350334e-03	
599	-3.35000e+00	2.354046e-03	
600	-3.40000e+00	2.357633e-03	
601	-3.45000e+00	2.361107e-03	
602	-3.50000e+00	2.364477e-03	
603	-3.55000e+00	2.367750e-03	
604	-3.60000e+00	2.370934e-03	
605	-3.65000e+00	2.374035e-03	
606	-3.70000e+00	2.377059e-03	
607	-3.75000e+00	2.380011e-03	
608	-3.80000e+00	2.382896e-03	
609	-3.85000e+00	2.385718e-03	
610	-3.90000e+00	2.388482e-03	
611	-3.95000e+00	2.391189e-03	
612	-4.00000e+00	2.393845e-03	
613	-4.05000e+00	2.396451e-03	
614	-4.10000e+00	2.399011e-03	
615	-4.15000e+00	2.401527e-03	
616	-4.20000e+00	2.404001e-03	
617	-4.25000e+00	2.406435e-03	
618	-4.30000e+00	2.408832e-03	
619	-4.35000e+00	2.411193e-03	
620	-4.40000e+00	2.413520e-03	
621	-4.45000e+00	2.415814e-03	
622	-4.50000e+00	2.418077e-03	
623	-4.55000e+00	2.420310e-03	
624	-4.60000e+00	2.422516e-03	
625	-4.65000e+00	2.424694e-03	
626	-4.70000e+00	2.426846e-03	
627	-4.75000e+00	2.428973e-03	
628	-4.80000e+00	2.431076e-03	
629	-4.85000e+00	2.433156e-03	
630	-4.90000e+00	2.435214e-03	
631	-4.95000e+00	2.437251e-03	
632	-5.00000e+00	2.439268e-03	
633	-5.05000e+00	2.441265e-03	
634	-5.10000e+00	2.443243e-03	

Index   v-sweep         i(vds)          
--------------------------------------------------------------------------------
635	-5.15000e+00	2.445203e-03	
636	-5.20000e+00	2.447147e-03	
637	-5.25000e+00	2.449073e-03	
638	-5.30000e+00	2.450984e-03	
639	-5.35000e+00	2.452880e-03	
640	-5.40000e+00	2.454761e-03	
641	-5.45000e+00	2.456629e-03	
642	-5.50000e+00	2.458485e-03	
643	-5.55000e+00	2.460329e-03	
644	-5.60000e+00	2.462162e-03	
645	-5.65000e+00	2.463986e-03	
646	-5.70000e+00	2.465802e-03	
647	-5.75000e+00	2.467610e-03	
648	-5.80000e+00	2.469413e-03	
649	-5.85000e+00	2.471211e-03	
650	-5.90000e+00	2.473007e-03	
651	-5.95000e+00	2.474803e-03	
652	-6.00000e+00	2.476600e-03	
653	-6.05000e+00	2.478402e-03	
654	-6.10000e+00	2.480210e-03	
655	-6.15000e+00	2.482028e-03	
656	-6.20000e+00	2.483858e-03	
657	-6.25000e+00	2.485705e-03	
658	-6.30000e+00	2.487573e-03	
659	-6.35000e+00	2.489464e-03	
660	-6.40000e+00	2.491385e-03	
661	-6.45000e+00	2.493341e-03	
662	-6.50000e+00	2.495336e-03	
663	-6.55000e+00	2.497377e-03	
664	-6.60000e+00	2.499471e-03	
665	0.000000e+00	6.089135e-21	
666	-5.00000e-02	9.181312e-05	
667	-1.00000e-01	1.820194e-04	
668	-1.50000e-01	2.706302e-04	
669	-2.00000e-01	3.576571e-04	
670	-2.50000e-01	4.431114e-04	
671	-3.00000e-01	5.270043e-04	
672	-3.50000e-01	6.093472e-04	
673	-4.00000e-01	6.901512e-04	
674	-4.50000e-01	7.694276e-04	
675	-5.00000e-01	8.471872e-04	
676	-5.50000e-01	9.234413e-04	
677	-6.00000e-01	9.982006e-04	
678	-6.50000e-01	1.071476e-03	
679	-7.00000e-01	1.143279e-03	
680	-7.50000e-01	1.213619e-03	
681	-8.00000e-01	1.282509e-03	
682	-8.50000e-01	1.349957e-03	
683	-9.00000e-01	1.415975e-03	
684	-9.50000e-01	1.480573e-03	
685	-1.00000e+00	1.543763e-03	
686	-1.05000e+00	1.605553e-03	
687	-1.10000e+00	1.665955e-03	
688	-1.15000e+00	1.724979e-03	
689	-1.20000e+00	1.782634e-03	
690	-1.25000e+00	1.838932e-03	
691	-1.30000e+00	1.893882e-03	
692	-1.35000e+00	1.947494e-03	

Index   v-sweep         i(vds)          
--------------------------------------------------------------------------------
693	-1.40000e+00	1.999779e-03	
694	-1.45000e+00	2.050745e-03	
695	-1.50000e+00	2.100403e-03	
696	-1.55000e+00	2.148763e-03	
697	-1.60000e+00	2.195834e-03	
698	-1.65000e+00	2.241626e-03	
699	-1.70000e+00	2.286148e-03	
700	-1.75000e+00	2.329410e-03	
701	-1.80000e+00	2.371420e-03	
702	-1.85000e+00	2.412189e-03	
703	-1.90000e+00	2.451725e-03	
704	-1.95000e+00	2.490037e-03	
705	-2.00000e+00	2.527134e-03	
706	-2.05000e+00	2.563024e-03	
707	-2.10000e+00	2.597716e-03	
708	-2.15000e+00	2.631217e-03	
709	-2.20000e+00	2.663534e-03	
710	-2.25000e+00	2.694675e-03	
711	-2.30000e+00	2.724645e-03	
712	-2.35000e+00	2.753449e-03	
713	-2.40000e+00	2.781088e-03	
714	-2.45000e+00	2.807563e-03	
715	-2.50000e+00	2.832871e-03	
716	-2.55000e+00	2.857004e-03	
717	-2.60000e+00	2.879945e-03	
718	-2.65000e+00	2.901673e-03	
719	-2.70000e+00	2.922157e-03	
720	-2.75000e+00	2.941358e-03	
721	-2.80000e+00	2.959240e-03	
722	-2.85000e+00	2.975778e-03	
723	-2.90000e+00	2.990975e-03	
724	-2.95000e+00	3.004873e-03	
725	-3.00000e+00	3.017549e-03	
726	-3.05000e+00	3.029112e-03	
727	-3.10000e+00	3.039681e-03	
728	-3.15000e+00	3.049378e-03	
729	-3.20000e+00	3.058316e-03	
730	-3.25000e+00	3.066595e-03	
731	-3.30000e+00	3.074301e-03	
732	-3.35000e+00	3.081510e-03	
733	-3.40000e+00	3.088283e-03	
734	-3.45000e+00	3.094674e-03	
735	-3.50000e+00	3.100728e-03	
736	-3.55000e+00	3.106483e-03	
737	-3.60000e+00	3.111970e-03	
738	-3.65000e+00	3.117219e-03	
739	-3.70000e+00	3.122252e-03	
740	-3.75000e+00	3.127090e-03	
741	-3.80000e+00	3.131751e-03	
742	-3.85000e+00	3.136252e-03	
743	-3.90000e+00	3.140604e-03	
744	-3.95000e+00	3.144821e-03	
745	-4.00000e+00	3.148914e-03	
746	-4.05000e+00	3.152891e-03	
747	-4.10000e+00	3.156761e-03	
748	-4.15000e+00	3.160532e-03	
749	-4.20000e+00	3.164211e-03	
750	-4.25000e+00	3.167803e-03	

Index   v-sweep         i(vds)          
--------------------------------------------------------------------------------
751	-4.30000e+00	3.171315e-03	
752	-4.35000e+00	3.174751e-03	
753	-4.40000e+00	3.178117e-03	
754	-4.45000e+00	3.181416e-03	
755	-4.50000e+00	3.184651e-03	
756	-4.55000e+00	3.187828e-03	
757	-4.60000e+00	3.190948e-03	
758	-4.65000e+00	3.194015e-03	
759	-4.70000e+00	3.197032e-03	
760	-4.75000e+00	3.200001e-03	
761	-4.80000e+00	3.202925e-03	
762	-4.85000e+00	3.205805e-03	
763	-4.90000e+00	3.208645e-03	
764	-4.95000e+00	3.211445e-03	
765	-5.00000e+00	3.214207e-03	
766	-5.05000e+00	3.216934e-03	
767	-5.10000e+00	3.219626e-03	
768	-5.15000e+00	3.222285e-03	
769	-5.20000e+00	3.224913e-03	
770	-5.25000e+00	3.227511e-03	
771	-5.30000e+00	3.230080e-03	
772	-5.35000e+00	3.232621e-03	
773	-5.40000e+00	3.235136e-03	
774	-5.45000e+00	3.237625e-03	
775	-5.50000e+00	3.240089e-03	
776	-5.55000e+00	3.242530e-03	
777	-5.60000e+00	3.244948e-03	
778	-5.65000e+00	3.247344e-03	
779	-5.70000e+00	3.249719e-03	
780	-5.75000e+00	3.252075e-03	
781	-5.80000e+00	3.254412e-03	
782	-5.85000e+00	3.256730e-03	
783	-5.90000e+00	3.259032e-03	
784	-5.95000e+00	3.261317e-03	
785	-6.00000e+00	3.263588e-03	
786	-6.05000e+00	3.265845e-03	
787	-6.10000e+00	3.268090e-03	
788	-6.15000e+00	3.270324e-03	
789	-6.20000e+00	3.272548e-03	
790	-6.25000e+00	3.274764e-03	
791	-6.30000e+00	3.276975e-03	
792	-6.35000e+00	3.279182e-03	
793	-6.40000e+00	3.281387e-03	
794	-6.45000e+00	3.283594e-03	
795	-6.50000e+00	3.285804e-03	
796	-6.55000e+00	3.288022e-03	
797	-6.60000e+00	3.290250e-03	
Note: No ".plot", ".print", or ".fourier" lines; no simulations run
