
Note: Compatibility modes selected: hs

Warning: m=xx on .subckt line will override multiplier m hierarchy!


Circuit: ***************************

Doing analysis at TEMP = 125.000000 and TNOM = 125.000000


No. of Data Rows : 798
                          ***************************
                          DC transfer characteristic  Mon Jan  9 13:58:51  2023
--------------------------------------------------------------------------------
Index   v-sweep         i(vds)          
--------------------------------------------------------------------------------
0	0.000000e+00	-3.93191e-26	
1	-5.00000e-02	2.428944e-06	
2	-1.00000e-01	4.336071e-06	
3	-1.50000e-01	5.763337e-06	
4	-2.00000e-01	6.736636e-06	
5	-2.50000e-01	7.307432e-06	
6	-3.00000e-01	7.591341e-06	
7	-3.50000e-01	7.735051e-06	
8	-4.00000e-01	7.827510e-06	
9	-4.50000e-01	7.900976e-06	
10	-5.00000e-01	7.965816e-06	
11	-5.50000e-01	8.025772e-06	
12	-6.00000e-01	8.082452e-06	
13	-6.50000e-01	8.136677e-06	
14	-7.00000e-01	8.188928e-06	
15	-7.50000e-01	8.239520e-06	
16	-8.00000e-01	8.288680e-06	
17	-8.50000e-01	8.336580e-06	
18	-9.00000e-01	8.383357e-06	
19	-9.50000e-01	8.429123e-06	
20	-1.00000e+00	8.473973e-06	
21	-1.05000e+00	8.517988e-06	
22	-1.10000e+00	8.561237e-06	
23	-1.15000e+00	8.603783e-06	
24	-1.20000e+00	8.645679e-06	
25	-1.25000e+00	8.686973e-06	
26	-1.30000e+00	8.727709e-06	
27	-1.35000e+00	8.767925e-06	
28	-1.40000e+00	8.807657e-06	
29	-1.45000e+00	8.846936e-06	
30	-1.50000e+00	8.885791e-06	
31	-1.55000e+00	8.924249e-06	
32	-1.60000e+00	8.962334e-06	
33	-1.65000e+00	9.000067e-06	
34	-1.70000e+00	9.037471e-06	
35	-1.75000e+00	9.074562e-06	
36	-1.80000e+00	9.111360e-06	
37	-1.85000e+00	9.147880e-06	
38	-1.90000e+00	9.184137e-06	
39	-1.95000e+00	9.220145e-06	
40	-2.00000e+00	9.255918e-06	
41	-2.05000e+00	9.291467e-06	
42	-2.10000e+00	9.326803e-06	
43	-2.15000e+00	9.361939e-06	
44	-2.20000e+00	9.396882e-06	
45	-2.25000e+00	9.431644e-06	
46	-2.30000e+00	9.466232e-06	
47	-2.35000e+00	9.500655e-06	
48	-2.40000e+00	9.534921e-06	
49	-2.45000e+00	9.569037e-06	
50	-2.50000e+00	9.603011e-06	
51	-2.55000e+00	9.636848e-06	
52	-2.60000e+00	9.670555e-06	
53	-2.65000e+00	9.704138e-06	
54	-2.70000e+00	9.737603e-06	

Index   v-sweep         i(vds)          
--------------------------------------------------------------------------------
55	-2.75000e+00	9.770955e-06	
56	-2.80000e+00	9.804200e-06	
57	-2.85000e+00	9.837341e-06	
58	-2.90000e+00	9.870384e-06	
59	-2.95000e+00	9.903333e-06	
60	-3.00000e+00	9.936193e-06	
61	-3.05000e+00	9.968969e-06	
62	-3.10000e+00	1.000166e-05	
63	-3.15000e+00	1.003428e-05	
64	-3.20000e+00	1.006683e-05	
65	-3.25000e+00	1.009930e-05	
66	-3.30000e+00	1.013172e-05	
67	-3.35000e+00	1.016407e-05	
68	-3.40000e+00	1.019637e-05	
69	-3.45000e+00	1.022861e-05	
70	-3.50000e+00	1.026081e-05	
71	-3.55000e+00	1.029298e-05	
72	-3.60000e+00	1.032510e-05	
73	-3.65000e+00	1.035720e-05	
74	-3.70000e+00	1.038927e-05	
75	-3.75000e+00	1.042133e-05	
76	-3.80000e+00	1.045339e-05	
77	-3.85000e+00	1.048544e-05	
78	-3.90000e+00	1.051751e-05	
79	-3.95000e+00	1.054960e-05	
80	-4.00000e+00	1.058172e-05	
81	-4.05000e+00	1.061389e-05	
82	-4.10000e+00	1.064613e-05	
83	-4.15000e+00	1.067844e-05	
84	-4.20000e+00	1.071084e-05	
85	-4.25000e+00	1.074336e-05	
86	-4.30000e+00	1.077602e-05	
87	-4.35000e+00	1.080884e-05	
88	-4.40000e+00	1.084184e-05	
89	-4.45000e+00	1.087505e-05	
90	-4.50000e+00	1.090850e-05	
91	-4.55000e+00	1.094223e-05	
92	-4.60000e+00	1.097627e-05	
93	-4.65000e+00	1.101066e-05	
94	-4.70000e+00	1.104544e-05	
95	-4.75000e+00	1.108065e-05	
96	-4.80000e+00	1.111634e-05	
97	-4.85000e+00	1.115257e-05	
98	-4.90000e+00	1.118938e-05	
99	-4.95000e+00	1.122684e-05	
100	-5.00000e+00	1.126501e-05	
101	-5.05000e+00	1.130396e-05	
102	-5.10000e+00	1.134375e-05	
103	-5.15000e+00	1.138447e-05	
104	-5.20000e+00	1.142619e-05	
105	-5.25000e+00	1.146899e-05	
106	-5.30000e+00	1.151297e-05	
107	-5.35000e+00	1.155822e-05	
108	-5.40000e+00	1.160484e-05	
109	-5.45000e+00	1.165293e-05	
110	-5.50000e+00	1.170260e-05	
111	-5.55000e+00	1.175396e-05	
112	-5.60000e+00	1.180714e-05	

Index   v-sweep         i(vds)          
--------------------------------------------------------------------------------
113	-5.65000e+00	1.186226e-05	
114	-5.70000e+00	1.191945e-05	
115	-5.75000e+00	1.197885e-05	
116	-5.80000e+00	1.204060e-05	
117	-5.85000e+00	1.210485e-05	
118	-5.90000e+00	1.217174e-05	
119	-5.95000e+00	1.224145e-05	
120	-6.00000e+00	1.231414e-05	
121	-6.05000e+00	1.238997e-05	
122	-6.10000e+00	1.246914e-05	
123	-6.15000e+00	1.255181e-05	
124	-6.20000e+00	1.263818e-05	
125	-6.25000e+00	1.272846e-05	
126	-6.30000e+00	1.282283e-05	
127	-6.35000e+00	1.292152e-05	
128	-6.40000e+00	1.302472e-05	
129	-6.45000e+00	1.313268e-05	
130	-6.50000e+00	1.324561e-05	
131	-6.55000e+00	1.336375e-05	
132	-6.60000e+00	1.348733e-05	
133	0.000000e+00	9.633154e-25	
134	-5.00000e-02	1.033447e-05	
135	-1.00000e-01	2.012427e-05	
136	-1.50000e-01	2.940388e-05	
137	-2.00000e-01	3.818303e-05	
138	-2.50000e-01	4.646549e-05	
139	-3.00000e-01	5.425358e-05	
140	-3.50000e-01	6.154933e-05	
141	-4.00000e-01	6.835470e-05	
142	-4.50000e-01	7.467173e-05	
143	-5.00000e-01	8.050253e-05	
144	-5.50000e-01	8.584939e-05	
145	-6.00000e-01	9.071484e-05	
146	-6.50000e-01	9.510185e-05	
147	-7.00000e-01	9.901411e-05	
148	-7.50000e-01	1.024566e-04	
149	-8.00000e-01	1.054367e-04	
150	-8.50000e-01	1.079661e-04	
151	-9.00000e-01	1.100648e-04	
152	-9.50000e-01	1.117667e-04	
153	-1.00000e+00	1.131256e-04	
154	-1.05000e+00	1.142141e-04	
155	-1.10000e+00	1.151094e-04	
156	-1.15000e+00	1.158753e-04	
157	-1.20000e+00	1.165549e-04	
158	-1.25000e+00	1.171744e-04	
159	-1.30000e+00	1.177493e-04	
160	-1.35000e+00	1.182890e-04	
161	-1.40000e+00	1.187999e-04	
162	-1.45000e+00	1.192864e-04	
163	-1.50000e+00	1.197516e-04	
164	-1.55000e+00	1.201981e-04	
165	-1.60000e+00	1.206279e-04	
166	-1.65000e+00	1.210427e-04	
167	-1.70000e+00	1.214438e-04	
168	-1.75000e+00	1.218324e-04	
169	-1.80000e+00	1.222097e-04	
170	-1.85000e+00	1.225764e-04	

Index   v-sweep         i(vds)          
--------------------------------------------------------------------------------
171	-1.90000e+00	1.229333e-04	
172	-1.95000e+00	1.232813e-04	
173	-2.00000e+00	1.236209e-04	
174	-2.05000e+00	1.239526e-04	
175	-2.10000e+00	1.242770e-04	
176	-2.15000e+00	1.245946e-04	
177	-2.20000e+00	1.249057e-04	
178	-2.25000e+00	1.252108e-04	
179	-2.30000e+00	1.255101e-04	
180	-2.35000e+00	1.258041e-04	
181	-2.40000e+00	1.260929e-04	
182	-2.45000e+00	1.263770e-04	
183	-2.50000e+00	1.266564e-04	
184	-2.55000e+00	1.269315e-04	
185	-2.60000e+00	1.272025e-04	
186	-2.65000e+00	1.274695e-04	
187	-2.70000e+00	1.277328e-04	
188	-2.75000e+00	1.279925e-04	
189	-2.80000e+00	1.282488e-04	
190	-2.85000e+00	1.285018e-04	
191	-2.90000e+00	1.287517e-04	
192	-2.95000e+00	1.289986e-04	
193	-3.00000e+00	1.292426e-04	
194	-3.05000e+00	1.294839e-04	
195	-3.10000e+00	1.297226e-04	
196	-3.15000e+00	1.299587e-04	
197	-3.20000e+00	1.301923e-04	
198	-3.25000e+00	1.304236e-04	
199	-3.30000e+00	1.306527e-04	
200	-3.35000e+00	1.308796e-04	
201	-3.40000e+00	1.311043e-04	
202	-3.45000e+00	1.313271e-04	
203	-3.50000e+00	1.315479e-04	
204	-3.55000e+00	1.317668e-04	
205	-3.60000e+00	1.319839e-04	
206	-3.65000e+00	1.321992e-04	
207	-3.70000e+00	1.324129e-04	
208	-3.75000e+00	1.326249e-04	
209	-3.80000e+00	1.328353e-04	
210	-3.85000e+00	1.330442e-04	
211	-3.90000e+00	1.332517e-04	
212	-3.95000e+00	1.334577e-04	
213	-4.00000e+00	1.336624e-04	
214	-4.05000e+00	1.338657e-04	
215	-4.10000e+00	1.340679e-04	
216	-4.15000e+00	1.342688e-04	
217	-4.20000e+00	1.344686e-04	
218	-4.25000e+00	1.346674e-04	
219	-4.30000e+00	1.348651e-04	
220	-4.35000e+00	1.350620e-04	
221	-4.40000e+00	1.352580e-04	
222	-4.45000e+00	1.354533e-04	
223	-4.50000e+00	1.356479e-04	
224	-4.55000e+00	1.358420e-04	
225	-4.60000e+00	1.360357e-04	
226	-4.65000e+00	1.362290e-04	
227	-4.70000e+00	1.364222e-04	
228	-4.75000e+00	1.366153e-04	

Index   v-sweep         i(vds)          
--------------------------------------------------------------------------------
229	-4.80000e+00	1.368086e-04	
230	-4.85000e+00	1.370023e-04	
231	-4.90000e+00	1.371965e-04	
232	-4.95000e+00	1.373915e-04	
233	-5.00000e+00	1.375874e-04	
234	-5.05000e+00	1.377847e-04	
235	-5.10000e+00	1.379835e-04	
236	-5.15000e+00	1.381842e-04	
237	-5.20000e+00	1.383871e-04	
238	-5.25000e+00	1.385926e-04	
239	-5.30000e+00	1.388011e-04	
240	-5.35000e+00	1.390131e-04	
241	-5.40000e+00	1.392290e-04	
242	-5.45000e+00	1.394493e-04	
243	-5.50000e+00	1.396745e-04	
244	-5.55000e+00	1.399054e-04	
245	-5.60000e+00	1.401423e-04	
246	-5.65000e+00	1.403862e-04	
247	-5.70000e+00	1.406375e-04	
248	-5.75000e+00	1.408972e-04	
249	-5.80000e+00	1.411660e-04	
250	-5.85000e+00	1.414447e-04	
251	-5.90000e+00	1.417343e-04	
252	-5.95000e+00	1.420356e-04	
253	-6.00000e+00	1.423498e-04	
254	-6.05000e+00	1.426778e-04	
255	-6.10000e+00	1.430207e-04	
256	-6.15000e+00	1.433798e-04	
257	-6.20000e+00	1.437561e-04	
258	-6.25000e+00	1.441511e-04	
259	-6.30000e+00	1.445660e-04	
260	-6.35000e+00	1.450022e-04	
261	-6.40000e+00	1.454611e-04	
262	-6.45000e+00	1.459443e-04	
263	-6.50000e+00	1.464533e-04	
264	-6.55000e+00	1.469897e-04	
265	-6.60000e+00	1.475552e-04	
266	0.000000e+00	-2.63091e-21	
267	-5.00000e-02	1.628577e-05	
268	-1.00000e-01	3.206748e-05	
269	-1.50000e-01	4.737803e-05	
270	-2.00000e-01	6.222660e-05	
271	-2.50000e-01	7.661647e-05	
272	-3.00000e-01	9.054948e-05	
273	-3.50000e-01	1.040271e-04	
274	-4.00000e-01	1.170508e-04	
275	-4.50000e-01	1.296220e-04	
276	-5.00000e-01	1.417420e-04	
277	-5.50000e-01	1.534121e-04	
278	-6.00000e-01	1.646339e-04	
279	-6.50000e-01	1.754087e-04	
280	-7.00000e-01	1.857379e-04	
281	-7.50000e-01	1.956230e-04	
282	-8.00000e-01	2.050653e-04	
283	-8.50000e-01	2.140664e-04	
284	-9.00000e-01	2.226278e-04	
285	-9.50000e-01	2.307509e-04	
286	-1.00000e+00	2.384373e-04	

Index   v-sweep         i(vds)          
--------------------------------------------------------------------------------
287	-1.05000e+00	2.456887e-04	
288	-1.10000e+00	2.525069e-04	
289	-1.15000e+00	2.588938e-04	
290	-1.20000e+00	2.648514e-04	
291	-1.25000e+00	2.703822e-04	
292	-1.30000e+00	2.754891e-04	
293	-1.35000e+00	2.801759e-04	
294	-1.40000e+00	2.844474e-04	
295	-1.45000e+00	2.883105e-04	
296	-1.50000e+00	2.917754e-04	
297	-1.55000e+00	2.948571e-04	
298	-1.60000e+00	2.975780e-04	
299	-1.65000e+00	2.999701e-04	
300	-1.70000e+00	3.020752e-04	
301	-1.75000e+00	3.039413e-04	
302	-1.80000e+00	3.056158e-04	
303	-1.85000e+00	3.071392e-04	
304	-1.90000e+00	3.085430e-04	
305	-1.95000e+00	3.098502e-04	
306	-2.00000e+00	3.110775e-04	
307	-2.05000e+00	3.122371e-04	
308	-2.10000e+00	3.133383e-04	
309	-2.15000e+00	3.143883e-04	
310	-2.20000e+00	3.153929e-04	
311	-2.25000e+00	3.163570e-04	
312	-2.30000e+00	3.172844e-04	
313	-2.35000e+00	3.181786e-04	
314	-2.40000e+00	3.190424e-04	
315	-2.45000e+00	3.198785e-04	
316	-2.50000e+00	3.206890e-04	
317	-2.55000e+00	3.214759e-04	
318	-2.60000e+00	3.222410e-04	
319	-2.65000e+00	3.229856e-04	
320	-2.70000e+00	3.237114e-04	
321	-2.75000e+00	3.244194e-04	
322	-2.80000e+00	3.251109e-04	
323	-2.85000e+00	3.257868e-04	
324	-2.90000e+00	3.264481e-04	
325	-2.95000e+00	3.270956e-04	
326	-3.00000e+00	3.277302e-04	
327	-3.05000e+00	3.283524e-04	
328	-3.10000e+00	3.289631e-04	
329	-3.15000e+00	3.295628e-04	
330	-3.20000e+00	3.301520e-04	
331	-3.25000e+00	3.307313e-04	
332	-3.30000e+00	3.313011e-04	
333	-3.35000e+00	3.318619e-04	
334	-3.40000e+00	3.324142e-04	
335	-3.45000e+00	3.329583e-04	
336	-3.50000e+00	3.334945e-04	
337	-3.55000e+00	3.340232e-04	
338	-3.60000e+00	3.345448e-04	
339	-3.65000e+00	3.350595e-04	
340	-3.70000e+00	3.355676e-04	
341	-3.75000e+00	3.360694e-04	
342	-3.80000e+00	3.365651e-04	
343	-3.85000e+00	3.370550e-04	
344	-3.90000e+00	3.375392e-04	

Index   v-sweep         i(vds)          
--------------------------------------------------------------------------------
345	-3.95000e+00	3.380181e-04	
346	-4.00000e+00	3.384917e-04	
347	-4.05000e+00	3.389603e-04	
348	-4.10000e+00	3.394240e-04	
349	-4.15000e+00	3.398831e-04	
350	-4.20000e+00	3.403377e-04	
351	-4.25000e+00	3.407879e-04	
352	-4.30000e+00	3.412339e-04	
353	-4.35000e+00	3.416759e-04	
354	-4.40000e+00	3.421139e-04	
355	-4.45000e+00	3.425481e-04	
356	-4.50000e+00	3.429787e-04	
357	-4.55000e+00	3.434058e-04	
358	-4.60000e+00	3.438294e-04	
359	-4.65000e+00	3.442498e-04	
360	-4.70000e+00	3.446670e-04	
361	-4.75000e+00	3.450813e-04	
362	-4.80000e+00	3.454927e-04	
363	-4.85000e+00	3.459014e-04	
364	-4.90000e+00	3.463075e-04	
365	-4.95000e+00	3.467112e-04	
366	-5.00000e+00	3.471127e-04	
367	-5.05000e+00	3.475121e-04	
368	-5.10000e+00	3.479097e-04	
369	-5.15000e+00	3.483057e-04	
370	-5.20000e+00	3.487004e-04	
371	-5.25000e+00	3.490939e-04	
372	-5.30000e+00	3.494867e-04	
373	-5.35000e+00	3.498790e-04	
374	-5.40000e+00	3.502712e-04	
375	-5.45000e+00	3.506637e-04	
376	-5.50000e+00	3.510569e-04	
377	-5.55000e+00	3.514513e-04	
378	-5.60000e+00	3.518475e-04	
379	-5.65000e+00	3.522460e-04	
380	-5.70000e+00	3.526475e-04	
381	-5.75000e+00	3.530526e-04	
382	-5.80000e+00	3.534621e-04	
383	-5.85000e+00	3.538769e-04	
384	-5.90000e+00	3.542979e-04	
385	-5.95000e+00	3.547260e-04	
386	-6.00000e+00	3.551622e-04	
387	-6.05000e+00	3.556078e-04	
388	-6.10000e+00	3.560639e-04	
389	-6.15000e+00	3.565319e-04	
390	-6.20000e+00	3.570131e-04	
391	-6.25000e+00	3.575091e-04	
392	-6.30000e+00	3.580215e-04	
393	-6.35000e+00	3.585521e-04	
394	-6.40000e+00	3.591025e-04	
395	-6.45000e+00	3.596748e-04	
396	-6.50000e+00	3.602711e-04	
397	-6.55000e+00	3.608935e-04	
398	-6.60000e+00	3.615443e-04	
399	0.000000e+00	1.828048e-19	
400	-5.00000e-02	2.108150e-05	
401	-1.00000e-01	4.169496e-05	
402	-1.50000e-01	6.187214e-05	

Index   v-sweep         i(vds)          
--------------------------------------------------------------------------------
403	-2.00000e-01	8.162187e-05	
404	-2.50000e-01	1.009472e-04	
405	-3.00000e-01	1.198497e-04	
406	-3.50000e-01	1.383306e-04	
407	-4.00000e-01	1.563911e-04	
408	-4.50000e-01	1.740322e-04	
409	-5.00000e-01	1.912552e-04	
410	-5.50000e-01	2.080611e-04	
411	-6.00000e-01	2.244511e-04	
412	-6.50000e-01	2.404262e-04	
413	-7.00000e-01	2.559876e-04	
414	-7.50000e-01	2.711363e-04	
415	-8.00000e-01	2.858737e-04	
416	-8.50000e-01	3.002007e-04	
417	-9.00000e-01	3.141184e-04	
418	-9.50000e-01	3.276281e-04	
419	-1.00000e+00	3.407308e-04	
420	-1.05000e+00	3.534277e-04	
421	-1.10000e+00	3.657199e-04	
422	-1.15000e+00	3.776086e-04	
423	-1.20000e+00	3.890949e-04	
424	-1.25000e+00	4.001800e-04	
425	-1.30000e+00	4.108651e-04	
426	-1.35000e+00	4.211513e-04	
427	-1.40000e+00	4.310399e-04	
428	-1.45000e+00	4.405320e-04	
429	-1.50000e+00	4.496291e-04	
430	-1.55000e+00	4.583323e-04	
431	-1.60000e+00	4.666430e-04	
432	-1.65000e+00	4.745626e-04	
433	-1.70000e+00	4.820928e-04	
434	-1.75000e+00	4.892350e-04	
435	-1.80000e+00	4.959912e-04	
436	-1.85000e+00	5.023634e-04	
437	-1.90000e+00	5.083542e-04	
438	-1.95000e+00	5.139666e-04	
439	-2.00000e+00	5.192043e-04	
440	-2.05000e+00	5.240725e-04	
441	-2.10000e+00	5.285781e-04	
442	-2.15000e+00	5.327304e-04	
443	-2.20000e+00	5.365427e-04	
444	-2.25000e+00	5.400331e-04	
445	-2.30000e+00	5.432251e-04	
446	-2.35000e+00	5.461475e-04	
447	-2.40000e+00	5.488321e-04	
448	-2.45000e+00	5.513112e-04	
449	-2.50000e+00	5.536141e-04	
450	-2.55000e+00	5.557664e-04	
451	-2.60000e+00	5.577889e-04	
452	-2.65000e+00	5.596988e-04	
453	-2.70000e+00	5.615099e-04	
454	-2.75000e+00	5.632338e-04	
455	-2.80000e+00	5.648798e-04	
456	-2.85000e+00	5.664560e-04	
457	-2.90000e+00	5.679692e-04	
458	-2.95000e+00	5.694252e-04	
459	-3.00000e+00	5.708290e-04	
460	-3.05000e+00	5.721850e-04	

Index   v-sweep         i(vds)          
--------------------------------------------------------------------------------
461	-3.10000e+00	5.734971e-04	
462	-3.15000e+00	5.747688e-04	
463	-3.20000e+00	5.760029e-04	
464	-3.25000e+00	5.772023e-04	
465	-3.30000e+00	5.783693e-04	
466	-3.35000e+00	5.795062e-04	
467	-3.40000e+00	5.806149e-04	
468	-3.45000e+00	5.816971e-04	
469	-3.50000e+00	5.827545e-04	
470	-3.55000e+00	5.837886e-04	
471	-3.60000e+00	5.848007e-04	
472	-3.65000e+00	5.857920e-04	
473	-3.70000e+00	5.867637e-04	
474	-3.75000e+00	5.877169e-04	
475	-3.80000e+00	5.886524e-04	
476	-3.85000e+00	5.895712e-04	
477	-3.90000e+00	5.904742e-04	
478	-3.95000e+00	5.913620e-04	
479	-4.00000e+00	5.922354e-04	
480	-4.05000e+00	5.930950e-04	
481	-4.10000e+00	5.939415e-04	
482	-4.15000e+00	5.947755e-04	
483	-4.20000e+00	5.955975e-04	
484	-4.25000e+00	5.964079e-04	
485	-4.30000e+00	5.972074e-04	
486	-4.35000e+00	5.979963e-04	
487	-4.40000e+00	5.987750e-04	
488	-4.45000e+00	5.995440e-04	
489	-4.50000e+00	6.003036e-04	
490	-4.55000e+00	6.010542e-04	
491	-4.60000e+00	6.017961e-04	
492	-4.65000e+00	6.025296e-04	
493	-4.70000e+00	6.032551e-04	
494	-4.75000e+00	6.039728e-04	
495	-4.80000e+00	6.046830e-04	
496	-4.85000e+00	6.053859e-04	
497	-4.90000e+00	6.060818e-04	
498	-4.95000e+00	6.067710e-04	
499	-5.00000e+00	6.074536e-04	
500	-5.05000e+00	6.081300e-04	
501	-5.10000e+00	6.088002e-04	
502	-5.15000e+00	6.094646e-04	
503	-5.20000e+00	6.101233e-04	
504	-5.25000e+00	6.107766e-04	
505	-5.30000e+00	6.114247e-04	
506	-5.35000e+00	6.120677e-04	
507	-5.40000e+00	6.127059e-04	
508	-5.45000e+00	6.133396e-04	
509	-5.50000e+00	6.139690e-04	
510	-5.55000e+00	6.145943e-04	
511	-5.60000e+00	6.152158e-04	
512	-5.65000e+00	6.158338e-04	
513	-5.70000e+00	6.164487e-04	
514	-5.75000e+00	6.170608e-04	
515	-5.80000e+00	6.176705e-04	
516	-5.85000e+00	6.182782e-04	
517	-5.90000e+00	6.188844e-04	
518	-5.95000e+00	6.194896e-04	

Index   v-sweep         i(vds)          
--------------------------------------------------------------------------------
519	-6.00000e+00	6.200943e-04	
520	-6.05000e+00	6.206993e-04	
521	-6.10000e+00	6.213053e-04	
522	-6.15000e+00	6.219129e-04	
523	-6.20000e+00	6.225231e-04	
524	-6.25000e+00	6.231367e-04	
525	-6.30000e+00	6.237549e-04	
526	-6.35000e+00	6.243788e-04	
527	-6.40000e+00	6.250095e-04	
528	-6.45000e+00	6.256484e-04	
529	-6.50000e+00	6.262971e-04	
530	-6.55000e+00	6.269570e-04	
531	-6.60000e+00	6.276299e-04	
532	0.000000e+00	2.934556e-24	
533	-5.00000e-02	2.511185e-05	
534	-1.00000e-01	4.978531e-05	
535	-1.50000e-01	7.405123e-05	
536	-2.00000e-01	9.791817e-05	
537	-2.50000e-01	1.213890e-04	
538	-3.00000e-01	1.444653e-04	
539	-3.50000e-01	1.671479e-04	
540	-4.00000e-01	1.894379e-04	
541	-4.50000e-01	2.113363e-04	
542	-5.00000e-01	2.328440e-04	
543	-5.50000e-01	2.539620e-04	
544	-6.00000e-01	2.746912e-04	
545	-6.50000e-01	2.950325e-04	
546	-7.00000e-01	3.149869e-04	
547	-7.50000e-01	3.345553e-04	
548	-8.00000e-01	3.537388e-04	
549	-8.50000e-01	3.725381e-04	
550	-9.00000e-01	3.909544e-04	
551	-9.50000e-01	4.089885e-04	
552	-1.00000e+00	4.266414e-04	
553	-1.05000e+00	4.439140e-04	
554	-1.10000e+00	4.608073e-04	
555	-1.15000e+00	4.773222e-04	
556	-1.20000e+00	4.934597e-04	
557	-1.25000e+00	5.092207e-04	
558	-1.30000e+00	5.246063e-04	
559	-1.35000e+00	5.396172e-04	
560	-1.40000e+00	5.542546e-04	
561	-1.45000e+00	5.685194e-04	
562	-1.50000e+00	5.824124e-04	
563	-1.55000e+00	5.959348e-04	
564	-1.60000e+00	6.090874e-04	
565	-1.65000e+00	6.218713e-04	
566	-1.70000e+00	6.342874e-04	
567	-1.75000e+00	6.463366e-04	
568	-1.80000e+00	6.580201e-04	
569	-1.85000e+00	6.693388e-04	
570	-1.90000e+00	6.802937e-04	
571	-1.95000e+00	6.908859e-04	
572	-2.00000e+00	7.011164e-04	
573	-2.05000e+00	7.109863e-04	
574	-2.10000e+00	7.204967e-04	
575	-2.15000e+00	7.296487e-04	
576	-2.20000e+00	7.384436e-04	

Index   v-sweep         i(vds)          
--------------------------------------------------------------------------------
577	-2.25000e+00	7.468827e-04	
578	-2.30000e+00	7.549673e-04	
579	-2.35000e+00	7.626988e-04	
580	-2.40000e+00	7.700790e-04	
581	-2.45000e+00	7.771097e-04	
582	-2.50000e+00	7.837930e-04	
583	-2.55000e+00	7.901317e-04	
584	-2.60000e+00	7.961287e-04	
585	-2.65000e+00	8.017882e-04	
586	-2.70000e+00	8.071154e-04	
587	-2.75000e+00	8.121171e-04	
588	-2.80000e+00	8.168022e-04	
589	-2.85000e+00	8.211825e-04	
590	-2.90000e+00	8.252728e-04	
591	-2.95000e+00	8.290912e-04	
592	-3.00000e+00	8.326586e-04	
593	-3.05000e+00	8.359974e-04	
594	-3.10000e+00	8.391299e-04	
595	-3.15000e+00	8.420777e-04	
596	-3.20000e+00	8.448606e-04	
597	-3.25000e+00	8.474962e-04	
598	-3.30000e+00	8.499998e-04	
599	-3.35000e+00	8.523851e-04	
600	-3.40000e+00	8.546637e-04	
601	-3.45000e+00	8.568458e-04	
602	-3.50000e+00	8.589404e-04	
603	-3.55000e+00	8.609552e-04	
604	-3.60000e+00	8.628971e-04	
605	-3.65000e+00	8.647721e-04	
606	-3.70000e+00	8.665854e-04	
607	-3.75000e+00	8.683419e-04	
608	-3.80000e+00	8.700458e-04	
609	-3.85000e+00	8.717008e-04	
610	-3.90000e+00	8.733104e-04	
611	-3.95000e+00	8.748776e-04	
612	-4.00000e+00	8.764051e-04	
613	-4.05000e+00	8.778955e-04	
614	-4.10000e+00	8.793510e-04	
615	-4.15000e+00	8.807738e-04	
616	-4.20000e+00	8.821657e-04	
617	-4.25000e+00	8.835285e-04	
618	-4.30000e+00	8.848637e-04	
619	-4.35000e+00	8.861729e-04	
620	-4.40000e+00	8.874574e-04	
621	-4.45000e+00	8.887184e-04	
622	-4.50000e+00	8.899572e-04	
623	-4.55000e+00	8.911748e-04	
624	-4.60000e+00	8.923722e-04	
625	-4.65000e+00	8.935503e-04	
626	-4.70000e+00	8.947101e-04	
627	-4.75000e+00	8.958523e-04	
628	-4.80000e+00	8.969778e-04	
629	-4.85000e+00	8.980871e-04	
630	-4.90000e+00	8.991810e-04	
631	-4.95000e+00	9.002602e-04	
632	-5.00000e+00	9.013252e-04	
633	-5.05000e+00	9.023765e-04	
634	-5.10000e+00	9.034147e-04	

Index   v-sweep         i(vds)          
--------------------------------------------------------------------------------
635	-5.15000e+00	9.044404e-04	
636	-5.20000e+00	9.054539e-04	
637	-5.25000e+00	9.064557e-04	
638	-5.30000e+00	9.074462e-04	
639	-5.35000e+00	9.084259e-04	
640	-5.40000e+00	9.093951e-04	
641	-5.45000e+00	9.103542e-04	
642	-5.50000e+00	9.113035e-04	
643	-5.55000e+00	9.122434e-04	
644	-5.60000e+00	9.131741e-04	
645	-5.65000e+00	9.140961e-04	
646	-5.70000e+00	9.150096e-04	
647	-5.75000e+00	9.159149e-04	
648	-5.80000e+00	9.168123e-04	
649	-5.85000e+00	9.177021e-04	
650	-5.90000e+00	9.185846e-04	
651	-5.95000e+00	9.194601e-04	
652	-6.00000e+00	9.203289e-04	
653	-6.05000e+00	9.211913e-04	
654	-6.10000e+00	9.220478e-04	
655	-6.15000e+00	9.228986e-04	
656	-6.20000e+00	9.237441e-04	
657	-6.25000e+00	9.245847e-04	
658	-6.30000e+00	9.254210e-04	
659	-6.35000e+00	9.262534e-04	
660	-6.40000e+00	9.270825e-04	
661	-6.45000e+00	9.279088e-04	
662	-6.50000e+00	9.287330e-04	
663	-6.55000e+00	9.295560e-04	
664	-6.60000e+00	9.303784e-04	
665	0.000000e+00	2.515066e-19	
666	-5.00000e-02	2.861218e-05	
667	-1.00000e-01	5.681027e-05	
668	-1.50000e-01	8.462439e-05	
669	-2.00000e-01	1.120629e-04	
670	-2.50000e-01	1.391286e-04	
671	-3.00000e-01	1.658228e-04	
672	-3.50000e-01	1.921465e-04	
673	-4.00000e-01	2.181004e-04	
674	-4.50000e-01	2.436856e-04	
675	-5.00000e-01	2.689027e-04	
676	-5.50000e-01	2.937526e-04	
677	-6.00000e-01	3.182362e-04	
678	-6.50000e-01	3.423542e-04	
679	-7.00000e-01	3.661076e-04	
680	-7.50000e-01	3.894970e-04	
681	-8.00000e-01	4.125235e-04	
682	-8.50000e-01	4.351877e-04	
683	-9.00000e-01	4.574904e-04	
684	-9.50000e-01	4.794327e-04	
685	-1.00000e+00	5.010152e-04	
686	-1.05000e+00	5.222387e-04	
687	-1.10000e+00	5.431042e-04	
688	-1.15000e+00	5.636124e-04	
689	-1.20000e+00	5.837642e-04	
690	-1.25000e+00	6.035604e-04	
691	-1.30000e+00	6.230017e-04	
692	-1.35000e+00	6.420891e-04	

Index   v-sweep         i(vds)          
--------------------------------------------------------------------------------
693	-1.40000e+00	6.608234e-04	
694	-1.45000e+00	6.792054e-04	
695	-1.50000e+00	6.972359e-04	
696	-1.55000e+00	7.149157e-04	
697	-1.60000e+00	7.322457e-04	
698	-1.65000e+00	7.492268e-04	
699	-1.70000e+00	7.658596e-04	
700	-1.75000e+00	7.821451e-04	
701	-1.80000e+00	7.980842e-04	
702	-1.85000e+00	8.136775e-04	
703	-1.90000e+00	8.289260e-04	
704	-1.95000e+00	8.438305e-04	
705	-2.00000e+00	8.583919e-04	
706	-2.05000e+00	8.726109e-04	
707	-2.10000e+00	8.864885e-04	
708	-2.15000e+00	9.000254e-04	
709	-2.20000e+00	9.132226e-04	
710	-2.25000e+00	9.260809e-04	
711	-2.30000e+00	9.386011e-04	
712	-2.35000e+00	9.507842e-04	
713	-2.40000e+00	9.626310e-04	
714	-2.45000e+00	9.741423e-04	
715	-2.50000e+00	9.853192e-04	
716	-2.55000e+00	9.961626e-04	
717	-2.60000e+00	1.006673e-03	
718	-2.65000e+00	1.016852e-03	
719	-2.70000e+00	1.026701e-03	
720	-2.75000e+00	1.036220e-03	
721	-2.80000e+00	1.045410e-03	
722	-2.85000e+00	1.054273e-03	
723	-2.90000e+00	1.062810e-03	
724	-2.95000e+00	1.071023e-03	
725	-3.00000e+00	1.078912e-03	
726	-3.05000e+00	1.086479e-03	
727	-3.10000e+00	1.093727e-03	
728	-3.15000e+00	1.100657e-03	
729	-3.20000e+00	1.107273e-03	
730	-3.25000e+00	1.113576e-03	
731	-3.30000e+00	1.119572e-03	
732	-3.35000e+00	1.125266e-03	
733	-3.40000e+00	1.130663e-03	
734	-3.45000e+00	1.135771e-03	
735	-3.50000e+00	1.140600e-03	
736	-3.55000e+00	1.145161e-03	
737	-3.60000e+00	1.149469e-03	
738	-3.65000e+00	1.153539e-03	
739	-3.70000e+00	1.157388e-03	
740	-3.75000e+00	1.161032e-03	
741	-3.80000e+00	1.164489e-03	
742	-3.85000e+00	1.167776e-03	
743	-3.90000e+00	1.170907e-03	
744	-3.95000e+00	1.173896e-03	
745	-4.00000e+00	1.176757e-03	
746	-4.05000e+00	1.179500e-03	
747	-4.10000e+00	1.182136e-03	
748	-4.15000e+00	1.184673e-03	
749	-4.20000e+00	1.187121e-03	
750	-4.25000e+00	1.189485e-03	

Index   v-sweep         i(vds)          
--------------------------------------------------------------------------------
751	-4.30000e+00	1.191772e-03	
752	-4.35000e+00	1.193988e-03	
753	-4.40000e+00	1.196139e-03	
754	-4.45000e+00	1.198228e-03	
755	-4.50000e+00	1.200260e-03	
756	-4.55000e+00	1.202239e-03	
757	-4.60000e+00	1.204169e-03	
758	-4.65000e+00	1.206051e-03	
759	-4.70000e+00	1.207890e-03	
760	-4.75000e+00	1.209687e-03	
761	-4.80000e+00	1.211446e-03	
762	-4.85000e+00	1.213168e-03	
763	-4.90000e+00	1.214855e-03	
764	-4.95000e+00	1.216509e-03	
765	-5.00000e+00	1.218133e-03	
766	-5.05000e+00	1.219726e-03	
767	-5.10000e+00	1.221292e-03	
768	-5.15000e+00	1.222830e-03	
769	-5.20000e+00	1.224344e-03	
770	-5.25000e+00	1.225833e-03	
771	-5.30000e+00	1.227298e-03	
772	-5.35000e+00	1.228742e-03	
773	-5.40000e+00	1.230164e-03	
774	-5.45000e+00	1.231566e-03	
775	-5.50000e+00	1.232949e-03	
776	-5.55000e+00	1.234312e-03	
777	-5.60000e+00	1.235658e-03	
778	-5.65000e+00	1.236987e-03	
779	-5.70000e+00	1.238299e-03	
780	-5.75000e+00	1.239595e-03	
781	-5.80000e+00	1.240876e-03	
782	-5.85000e+00	1.242142e-03	
783	-5.90000e+00	1.243394e-03	
784	-5.95000e+00	1.244632e-03	
785	-6.00000e+00	1.245857e-03	
786	-6.05000e+00	1.247069e-03	
787	-6.10000e+00	1.248269e-03	
788	-6.15000e+00	1.249456e-03	
789	-6.20000e+00	1.250633e-03	
790	-6.25000e+00	1.251798e-03	
791	-6.30000e+00	1.252952e-03	
792	-6.35000e+00	1.254096e-03	
793	-6.40000e+00	1.255230e-03	
794	-6.45000e+00	1.256354e-03	
795	-6.50000e+00	1.257470e-03	
796	-6.55000e+00	1.258576e-03	
797	-6.60000e+00	1.259674e-03	
Note: No ".plot", ".print", or ".fourier" lines; no simulations run
