
Note: Compatibility modes selected: hs

Warning: m=xx on .subckt line will override multiplier m hierarchy!


Circuit: ***************************

Doing analysis at TEMP = -40.000000 and TNOM = -40.000000


No. of Data Rows : 798
                          ***************************
                          DC transfer characteristic  Mon Jan  9 13:58:50  2023
--------------------------------------------------------------------------------
Index   v-sweep         i(vds)          
--------------------------------------------------------------------------------
0	0.000000e+00	-3.65455e-25	
1	-5.00000e-02	1.921950e-09	
2	-1.00000e-01	2.336428e-09	
3	-1.50000e-01	2.397607e-09	
4	-2.00000e-01	2.413577e-09	
5	-2.50000e-01	2.420528e-09	
6	-3.00000e-01	2.424653e-09	
7	-3.50000e-01	2.427598e-09	
8	-4.00000e-01	2.429950e-09	
9	-4.50000e-01	2.431960e-09	
10	-5.00000e-01	2.433753e-09	
11	-5.50000e-01	2.435396e-09	
12	-6.00000e-01	2.436931e-09	
13	-6.50000e-01	2.438384e-09	
14	-7.00000e-01	2.439771e-09	
15	-7.50000e-01	2.441106e-09	
16	-8.00000e-01	2.442397e-09	
17	-8.50000e-01	2.443651e-09	
18	-9.00000e-01	2.444874e-09	
19	-9.50000e-01	2.446068e-09	
20	-1.00000e+00	2.447238e-09	
21	-1.05000e+00	2.448387e-09	
22	-1.10000e+00	2.449517e-09	
23	-1.15000e+00	2.450629e-09	
24	-1.20000e+00	2.451725e-09	
25	-1.25000e+00	2.452806e-09	
26	-1.30000e+00	2.453875e-09	
27	-1.35000e+00	2.454931e-09	
28	-1.40000e+00	2.455976e-09	
29	-1.45000e+00	2.457010e-09	
30	-1.50000e+00	2.458034e-09	
31	-1.55000e+00	2.459050e-09	
32	-1.60000e+00	2.460057e-09	
33	-1.65000e+00	2.461056e-09	
34	-1.70000e+00	2.462047e-09	
35	-1.75000e+00	2.463032e-09	
36	-1.80000e+00	2.464010e-09	
37	-1.85000e+00	2.464981e-09	
38	-1.90000e+00	2.465947e-09	
39	-1.95000e+00	2.466906e-09	
40	-2.00000e+00	2.467861e-09	
41	-2.05000e+00	2.468810e-09	
42	-2.10000e+00	2.469755e-09	
43	-2.15000e+00	2.470695e-09	
44	-2.20000e+00	2.471630e-09	
45	-2.25000e+00	2.472562e-09	
46	-2.30000e+00	2.473489e-09	
47	-2.35000e+00	2.474412e-09	
48	-2.40000e+00	2.475332e-09	
49	-2.45000e+00	2.476248e-09	
50	-2.50000e+00	2.477161e-09	
51	-2.55000e+00	2.478070e-09	
52	-2.60000e+00	2.478977e-09	
53	-2.65000e+00	2.479880e-09	
54	-2.70000e+00	2.480781e-09	

Index   v-sweep         i(vds)          
--------------------------------------------------------------------------------
55	-2.75000e+00	2.481679e-09	
56	-2.80000e+00	2.482574e-09	
57	-2.85000e+00	2.483467e-09	
58	-2.90000e+00	2.484358e-09	
59	-2.95000e+00	2.485247e-09	
60	-3.00000e+00	2.486134e-09	
61	-3.05000e+00	2.487019e-09	
62	-3.10000e+00	2.487904e-09	
63	-3.15000e+00	2.488787e-09	
64	-3.20000e+00	2.489670e-09	
65	-3.25000e+00	2.490553e-09	
66	-3.30000e+00	2.491436e-09	
67	-3.35000e+00	2.492321e-09	
68	-3.40000e+00	2.493207e-09	
69	-3.45000e+00	2.494095e-09	
70	-3.50000e+00	2.494988e-09	
71	-3.55000e+00	2.495884e-09	
72	-3.60000e+00	2.496787e-09	
73	-3.65000e+00	2.497697e-09	
74	-3.70000e+00	2.498615e-09	
75	-3.75000e+00	2.499544e-09	
76	-3.80000e+00	2.500486e-09	
77	-3.85000e+00	2.501442e-09	
78	-3.90000e+00	2.502416e-09	
79	-3.95000e+00	2.503410e-09	
80	-4.00000e+00	2.504428e-09	
81	-4.05000e+00	2.505473e-09	
82	-4.10000e+00	2.506548e-09	
83	-4.15000e+00	2.507659e-09	
84	-4.20000e+00	2.508809e-09	
85	-4.25000e+00	2.510004e-09	
86	-4.30000e+00	2.511249e-09	
87	-4.35000e+00	2.512551e-09	
88	-4.40000e+00	2.513916e-09	
89	-4.45000e+00	2.515351e-09	
90	-4.50000e+00	2.516864e-09	
91	-4.55000e+00	2.518463e-09	
92	-4.60000e+00	2.520156e-09	
93	-4.65000e+00	2.521954e-09	
94	-4.70000e+00	2.523866e-09	
95	-4.75000e+00	2.525904e-09	
96	-4.80000e+00	2.528078e-09	
97	-4.85000e+00	2.530402e-09	
98	-4.90000e+00	2.532887e-09	
99	-4.95000e+00	2.535548e-09	
100	-5.00000e+00	2.538400e-09	
101	-5.05000e+00	2.541457e-09	
102	-5.10000e+00	2.544736e-09	
103	-5.15000e+00	2.548254e-09	
104	-5.20000e+00	2.552028e-09	
105	-5.25000e+00	2.556077e-09	
106	-5.30000e+00	2.560421e-09	
107	-5.35000e+00	2.565080e-09	
108	-5.40000e+00	2.570075e-09	
109	-5.45000e+00	2.575430e-09	
110	-5.50000e+00	2.581166e-09	
111	-5.55000e+00	2.587307e-09	
112	-5.60000e+00	2.593880e-09	

Index   v-sweep         i(vds)          
--------------------------------------------------------------------------------
113	-5.65000e+00	2.600909e-09	
114	-5.70000e+00	2.608422e-09	
115	-5.75000e+00	2.616446e-09	
116	-5.80000e+00	2.625011e-09	
117	-5.85000e+00	2.634144e-09	
118	-5.90000e+00	2.643879e-09	
119	-5.95000e+00	2.654245e-09	
120	-6.00000e+00	2.665275e-09	
121	-6.05000e+00	2.677003e-09	
122	-6.10000e+00	2.689462e-09	
123	-6.15000e+00	2.702690e-09	
124	-6.20000e+00	2.716720e-09	
125	-6.25000e+00	2.731591e-09	
126	-6.30000e+00	2.747340e-09	
127	-6.35000e+00	2.764006e-09	
128	-6.40000e+00	2.781630e-09	
129	-6.45000e+00	2.800251e-09	
130	-6.50000e+00	2.819911e-09	
131	-6.55000e+00	2.840652e-09	
132	-6.60000e+00	2.862518e-09	
133	0.000000e+00	-1.23599e-23	
134	-5.00000e-02	5.218615e-08	
135	-1.00000e-01	1.006656e-07	
136	-1.50000e-01	1.454404e-07	
137	-2.00000e-01	1.865134e-07	
138	-2.50000e-01	2.238877e-07	
139	-3.00000e-01	2.575677e-07	
140	-3.50000e-01	2.875595e-07	
141	-4.00000e-01	3.138727e-07	
142	-4.50000e-01	3.365224e-07	
143	-5.00000e-01	3.555359e-07	
144	-5.50000e-01	3.709643e-07	
145	-6.00000e-01	3.829093e-07	
146	-6.50000e-01	3.915773e-07	
147	-7.00000e-01	3.973642e-07	
148	-7.50000e-01	4.009079e-07	
149	-8.00000e-01	4.029714e-07	
150	-8.50000e-01	4.041962e-07	
151	-9.00000e-01	4.049819e-07	
152	-9.50000e-01	4.055374e-07	
153	-1.00000e+00	4.059658e-07	
154	-1.05000e+00	4.063190e-07	
155	-1.10000e+00	4.066246e-07	
156	-1.15000e+00	4.068980e-07	
157	-1.20000e+00	4.071486e-07	
158	-1.25000e+00	4.073821e-07	
159	-1.30000e+00	4.076025e-07	
160	-1.35000e+00	4.078123e-07	
161	-1.40000e+00	4.080136e-07	
162	-1.45000e+00	4.082078e-07	
163	-1.50000e+00	4.083959e-07	
164	-1.55000e+00	4.085787e-07	
165	-1.60000e+00	4.087570e-07	
166	-1.65000e+00	4.089313e-07	
167	-1.70000e+00	4.091020e-07	
168	-1.75000e+00	4.092695e-07	
169	-1.80000e+00	4.094341e-07	
170	-1.85000e+00	4.095960e-07	

Index   v-sweep         i(vds)          
--------------------------------------------------------------------------------
171	-1.90000e+00	4.097556e-07	
172	-1.95000e+00	4.099130e-07	
173	-2.00000e+00	4.100683e-07	
174	-2.05000e+00	4.102218e-07	
175	-2.10000e+00	4.103735e-07	
176	-2.15000e+00	4.105236e-07	
177	-2.20000e+00	4.106723e-07	
178	-2.25000e+00	4.108195e-07	
179	-2.30000e+00	4.109654e-07	
180	-2.35000e+00	4.111100e-07	
181	-2.40000e+00	4.112535e-07	
182	-2.45000e+00	4.113959e-07	
183	-2.50000e+00	4.115373e-07	
184	-2.55000e+00	4.116776e-07	
185	-2.60000e+00	4.118170e-07	
186	-2.65000e+00	4.119556e-07	
187	-2.70000e+00	4.120933e-07	
188	-2.75000e+00	4.122302e-07	
189	-2.80000e+00	4.123663e-07	
190	-2.85000e+00	4.125017e-07	
191	-2.90000e+00	4.126364e-07	
192	-2.95000e+00	4.127704e-07	
193	-3.00000e+00	4.129038e-07	
194	-3.05000e+00	4.130366e-07	
195	-3.10000e+00	4.131688e-07	
196	-3.15000e+00	4.133004e-07	
197	-3.20000e+00	4.134315e-07	
198	-3.25000e+00	4.135621e-07	
199	-3.30000e+00	4.136922e-07	
200	-3.35000e+00	4.138218e-07	
201	-3.40000e+00	4.139510e-07	
202	-3.45000e+00	4.140797e-07	
203	-3.50000e+00	4.142081e-07	
204	-3.55000e+00	4.143361e-07	
205	-3.60000e+00	4.144637e-07	
206	-3.65000e+00	4.145911e-07	
207	-3.70000e+00	4.147182e-07	
208	-3.75000e+00	4.148451e-07	
209	-3.80000e+00	4.149719e-07	
210	-3.85000e+00	4.150985e-07	
211	-3.90000e+00	4.152251e-07	
212	-3.95000e+00	4.153518e-07	
213	-4.00000e+00	4.154786e-07	
214	-4.05000e+00	4.156056e-07	
215	-4.10000e+00	4.157331e-07	
216	-4.15000e+00	4.158611e-07	
217	-4.20000e+00	4.159898e-07	
218	-4.25000e+00	4.161195e-07	
219	-4.30000e+00	4.162502e-07	
220	-4.35000e+00	4.163824e-07	
221	-4.40000e+00	4.165162e-07	
222	-4.45000e+00	4.166521e-07	
223	-4.50000e+00	4.167903e-07	
224	-4.55000e+00	4.169313e-07	
225	-4.60000e+00	4.170756e-07	
226	-4.65000e+00	4.172236e-07	
227	-4.70000e+00	4.173759e-07	
228	-4.75000e+00	4.175332e-07	

Index   v-sweep         i(vds)          
--------------------------------------------------------------------------------
229	-4.80000e+00	4.176961e-07	
230	-4.85000e+00	4.178654e-07	
231	-4.90000e+00	4.180420e-07	
232	-4.95000e+00	4.182267e-07	
233	-5.00000e+00	4.184205e-07	
234	-5.05000e+00	4.186245e-07	
235	-5.10000e+00	4.188399e-07	
236	-5.15000e+00	4.190678e-07	
237	-5.20000e+00	4.193097e-07	
238	-5.25000e+00	4.195670e-07	
239	-5.30000e+00	4.198412e-07	
240	-5.35000e+00	4.201341e-07	
241	-5.40000e+00	4.204473e-07	
242	-5.45000e+00	4.207828e-07	
243	-5.50000e+00	4.211425e-07	
244	-5.55000e+00	4.215287e-07	
245	-5.60000e+00	4.219435e-07	
246	-5.65000e+00	4.223893e-07	
247	-5.70000e+00	4.228687e-07	
248	-5.75000e+00	4.233843e-07	
249	-5.80000e+00	4.239389e-07	
250	-5.85000e+00	4.245355e-07	
251	-5.90000e+00	4.251770e-07	
252	-5.95000e+00	4.258668e-07	
253	-6.00000e+00	4.266081e-07	
254	-6.05000e+00	4.274045e-07	
255	-6.10000e+00	4.282597e-07	
256	-6.15000e+00	4.291775e-07	
257	-6.20000e+00	4.301618e-07	
258	-6.25000e+00	4.312167e-07	
259	-6.30000e+00	4.323466e-07	
260	-6.35000e+00	4.335559e-07	
261	-6.40000e+00	4.348491e-07	
262	-6.45000e+00	4.362310e-07	
263	-6.50000e+00	4.377065e-07	
264	-6.55000e+00	4.392806e-07	
265	-6.60000e+00	4.409587e-07	
266	0.000000e+00	-2.54415e-22	
267	-5.00000e-02	9.824758e-08	
268	-1.00000e-01	1.929957e-07	
269	-1.50000e-01	2.842454e-07	
270	-2.00000e-01	3.719979e-07	
271	-2.50000e-01	4.562543e-07	
272	-3.00000e-01	5.370159e-07	
273	-3.50000e-01	6.142839e-07	
274	-4.00000e-01	6.880595e-07	
275	-4.50000e-01	7.583442e-07	
276	-5.00000e-01	8.251393e-07	
277	-5.50000e-01	8.884464e-07	
278	-6.00000e-01	9.482673e-07	
279	-6.50000e-01	1.004604e-06	
280	-7.00000e-01	1.057458e-06	
281	-7.50000e-01	1.106833e-06	
282	-8.00000e-01	1.152732e-06	
283	-8.50000e-01	1.195158e-06	
284	-9.00000e-01	1.234117e-06	
285	-9.50000e-01	1.269616e-06	
286	-1.00000e+00	1.301665e-06	

Index   v-sweep         i(vds)          
--------------------------------------------------------------------------------
287	-1.05000e+00	1.330280e-06	
288	-1.10000e+00	1.355482e-06	
289	-1.15000e+00	1.377307e-06	
290	-1.20000e+00	1.395814e-06	
291	-1.25000e+00	1.411096e-06	
292	-1.30000e+00	1.423313e-06	
293	-1.35000e+00	1.432717e-06	
294	-1.40000e+00	1.439682e-06	
295	-1.45000e+00	1.444689e-06	
296	-1.50000e+00	1.448259e-06	
297	-1.55000e+00	1.450852e-06	
298	-1.60000e+00	1.452814e-06	
299	-1.65000e+00	1.454372e-06	
300	-1.70000e+00	1.455671e-06	
301	-1.75000e+00	1.456795e-06	
302	-1.80000e+00	1.457798e-06	
303	-1.85000e+00	1.458714e-06	
304	-1.90000e+00	1.459565e-06	
305	-1.95000e+00	1.460366e-06	
306	-2.00000e+00	1.461126e-06	
307	-2.05000e+00	1.461854e-06	
308	-2.10000e+00	1.462555e-06	
309	-2.15000e+00	1.463233e-06	
310	-2.20000e+00	1.463891e-06	
311	-2.25000e+00	1.464532e-06	
312	-2.30000e+00	1.465159e-06	
313	-2.35000e+00	1.465772e-06	
314	-2.40000e+00	1.466373e-06	
315	-2.45000e+00	1.466963e-06	
316	-2.50000e+00	1.467543e-06	
317	-2.55000e+00	1.468115e-06	
318	-2.60000e+00	1.468679e-06	
319	-2.65000e+00	1.469235e-06	
320	-2.70000e+00	1.469784e-06	
321	-2.75000e+00	1.470327e-06	
322	-2.80000e+00	1.470864e-06	
323	-2.85000e+00	1.471396e-06	
324	-2.90000e+00	1.471922e-06	
325	-2.95000e+00	1.472444e-06	
326	-3.00000e+00	1.472961e-06	
327	-3.05000e+00	1.473474e-06	
328	-3.10000e+00	1.473983e-06	
329	-3.15000e+00	1.474488e-06	
330	-3.20000e+00	1.474989e-06	
331	-3.25000e+00	1.475487e-06	
332	-3.30000e+00	1.475982e-06	
333	-3.35000e+00	1.476474e-06	
334	-3.40000e+00	1.476963e-06	
335	-3.45000e+00	1.477449e-06	
336	-3.50000e+00	1.477933e-06	
337	-3.55000e+00	1.478414e-06	
338	-3.60000e+00	1.478892e-06	
339	-3.65000e+00	1.479369e-06	
340	-3.70000e+00	1.479843e-06	
341	-3.75000e+00	1.480315e-06	
342	-3.80000e+00	1.480785e-06	
343	-3.85000e+00	1.481253e-06	
344	-3.90000e+00	1.481719e-06	

Index   v-sweep         i(vds)          
--------------------------------------------------------------------------------
345	-3.95000e+00	1.482183e-06	
346	-4.00000e+00	1.482646e-06	
347	-4.05000e+00	1.483107e-06	
348	-4.10000e+00	1.483567e-06	
349	-4.15000e+00	1.484025e-06	
350	-4.20000e+00	1.484481e-06	
351	-4.25000e+00	1.484937e-06	
352	-4.30000e+00	1.485391e-06	
353	-4.35000e+00	1.485845e-06	
354	-4.40000e+00	1.486297e-06	
355	-4.45000e+00	1.486749e-06	
356	-4.50000e+00	1.487200e-06	
357	-4.55000e+00	1.487651e-06	
358	-4.60000e+00	1.488102e-06	
359	-4.65000e+00	1.488553e-06	
360	-4.70000e+00	1.489005e-06	
361	-4.75000e+00	1.489458e-06	
362	-4.80000e+00	1.489912e-06	
363	-4.85000e+00	1.490369e-06	
364	-4.90000e+00	1.490828e-06	
365	-4.95000e+00	1.491290e-06	
366	-5.00000e+00	1.491757e-06	
367	-5.05000e+00	1.492229e-06	
368	-5.10000e+00	1.492707e-06	
369	-5.15000e+00	1.493193e-06	
370	-5.20000e+00	1.493687e-06	
371	-5.25000e+00	1.494191e-06	
372	-5.30000e+00	1.494708e-06	
373	-5.35000e+00	1.495238e-06	
374	-5.40000e+00	1.495784e-06	
375	-5.45000e+00	1.496348e-06	
376	-5.50000e+00	1.496933e-06	
377	-5.55000e+00	1.497541e-06	
378	-5.60000e+00	1.498176e-06	
379	-5.65000e+00	1.498840e-06	
380	-5.70000e+00	1.499537e-06	
381	-5.75000e+00	1.500272e-06	
382	-5.80000e+00	1.501047e-06	
383	-5.85000e+00	1.501869e-06	
384	-5.90000e+00	1.502741e-06	
385	-5.95000e+00	1.503670e-06	
386	-6.00000e+00	1.504660e-06	
387	-6.05000e+00	1.505717e-06	
388	-6.10000e+00	1.506848e-06	
389	-6.15000e+00	1.508061e-06	
390	-6.20000e+00	1.509361e-06	
391	-6.25000e+00	1.510757e-06	
392	-6.30000e+00	1.512256e-06	
393	-6.35000e+00	1.513869e-06	
394	-6.40000e+00	1.515602e-06	
395	-6.45000e+00	1.517467e-06	
396	-6.50000e+00	1.519473e-06	
397	-6.55000e+00	1.521631e-06	
398	-6.60000e+00	1.523951e-06	
399	0.000000e+00	-2.11768e-22	
400	-5.00000e-02	1.384784e-07	
401	-1.00000e-01	2.736898e-07	
402	-1.50000e-01	4.056350e-07	

Index   v-sweep         i(vds)          
--------------------------------------------------------------------------------
403	-2.00000e-01	5.343149e-07	
404	-2.50000e-01	6.597304e-07	
405	-3.00000e-01	7.818823e-07	
406	-3.50000e-01	9.007716e-07	
407	-4.00000e-01	1.016399e-06	
408	-4.50000e-01	1.128766e-06	
409	-5.00000e-01	1.237873e-06	
410	-5.50000e-01	1.343721e-06	
411	-6.00000e-01	1.446310e-06	
412	-6.50000e-01	1.545643e-06	
413	-7.00000e-01	1.641720e-06	
414	-7.50000e-01	1.734541e-06	
415	-8.00000e-01	1.824109e-06	
416	-8.50000e-01	1.910423e-06	
417	-9.00000e-01	1.993485e-06	
418	-9.50000e-01	2.073297e-06	
419	-1.00000e+00	2.149858e-06	
420	-1.05000e+00	2.223172e-06	
421	-1.10000e+00	2.293238e-06	
422	-1.15000e+00	2.360059e-06	
423	-1.20000e+00	2.423637e-06	
424	-1.25000e+00	2.483972e-06	
425	-1.30000e+00	2.541067e-06	
426	-1.35000e+00	2.594926e-06	
427	-1.40000e+00	2.645550e-06	
428	-1.45000e+00	2.692944e-06	
429	-1.50000e+00	2.737113e-06	
430	-1.55000e+00	2.778062e-06	
431	-1.60000e+00	2.815800e-06	
432	-1.65000e+00	2.850337e-06	
433	-1.70000e+00	2.881689e-06	
434	-1.75000e+00	2.909879e-06	
435	-1.80000e+00	2.934937e-06	
436	-1.85000e+00	2.956911e-06	
437	-1.90000e+00	2.975872e-06	
438	-1.95000e+00	2.991927e-06	
439	-2.00000e+00	3.005235e-06	
440	-2.05000e+00	3.016022e-06	
441	-2.10000e+00	3.024593e-06	
442	-2.15000e+00	3.031315e-06	
443	-2.20000e+00	3.036583e-06	
444	-2.25000e+00	3.040767e-06	
445	-2.30000e+00	3.044172e-06	
446	-2.35000e+00	3.047029e-06	
447	-2.40000e+00	3.049498e-06	
448	-2.45000e+00	3.051691e-06	
449	-2.50000e+00	3.053681e-06	
450	-2.55000e+00	3.055519e-06	
451	-2.60000e+00	3.057240e-06	
452	-2.65000e+00	3.058868e-06	
453	-2.70000e+00	3.060421e-06	
454	-2.75000e+00	3.061912e-06	
455	-2.80000e+00	3.063352e-06	
456	-2.85000e+00	3.064746e-06	
457	-2.90000e+00	3.066103e-06	
458	-2.95000e+00	3.067425e-06	
459	-3.00000e+00	3.068718e-06	
460	-3.05000e+00	3.069985e-06	

Index   v-sweep         i(vds)          
--------------------------------------------------------------------------------
461	-3.10000e+00	3.071228e-06	
462	-3.15000e+00	3.072450e-06	
463	-3.20000e+00	3.073653e-06	
464	-3.25000e+00	3.074838e-06	
465	-3.30000e+00	3.076006e-06	
466	-3.35000e+00	3.077160e-06	
467	-3.40000e+00	3.078300e-06	
468	-3.45000e+00	3.079427e-06	
469	-3.50000e+00	3.080542e-06	
470	-3.55000e+00	3.081647e-06	
471	-3.60000e+00	3.082740e-06	
472	-3.65000e+00	3.083824e-06	
473	-3.70000e+00	3.084899e-06	
474	-3.75000e+00	3.085966e-06	
475	-3.80000e+00	3.087024e-06	
476	-3.85000e+00	3.088074e-06	
477	-3.90000e+00	3.089118e-06	
478	-3.95000e+00	3.090154e-06	
479	-4.00000e+00	3.091184e-06	
480	-4.05000e+00	3.092208e-06	
481	-4.10000e+00	3.093226e-06	
482	-4.15000e+00	3.094238e-06	
483	-4.20000e+00	3.095245e-06	
484	-4.25000e+00	3.096246e-06	
485	-4.30000e+00	3.097243e-06	
486	-4.35000e+00	3.098235e-06	
487	-4.40000e+00	3.099223e-06	
488	-4.45000e+00	3.100206e-06	
489	-4.50000e+00	3.101185e-06	
490	-4.55000e+00	3.102160e-06	
491	-4.60000e+00	3.103131e-06	
492	-4.65000e+00	3.104099e-06	
493	-4.70000e+00	3.105063e-06	
494	-4.75000e+00	3.106024e-06	
495	-4.80000e+00	3.106982e-06	
496	-4.85000e+00	3.107937e-06	
497	-4.90000e+00	3.108889e-06	
498	-4.95000e+00	3.109839e-06	
499	-5.00000e+00	3.110786e-06	
500	-5.05000e+00	3.111731e-06	
501	-5.10000e+00	3.112675e-06	
502	-5.15000e+00	3.113617e-06	
503	-5.20000e+00	3.114558e-06	
504	-5.25000e+00	3.115498e-06	
505	-5.30000e+00	3.116438e-06	
506	-5.35000e+00	3.117379e-06	
507	-5.40000e+00	3.118321e-06	
508	-5.45000e+00	3.119266e-06	
509	-5.50000e+00	3.120213e-06	
510	-5.55000e+00	3.121165e-06	
511	-5.60000e+00	3.122122e-06	
512	-5.65000e+00	3.123086e-06	
513	-5.70000e+00	3.124059e-06	
514	-5.75000e+00	3.125042e-06	
515	-5.80000e+00	3.126039e-06	
516	-5.85000e+00	3.127050e-06	
517	-5.90000e+00	3.128080e-06	
518	-5.95000e+00	3.129130e-06	

Index   v-sweep         i(vds)          
--------------------------------------------------------------------------------
519	-6.00000e+00	3.130206e-06	
520	-6.05000e+00	3.131309e-06	
521	-6.10000e+00	3.132446e-06	
522	-6.15000e+00	3.133620e-06	
523	-6.20000e+00	3.134836e-06	
524	-6.25000e+00	3.136101e-06	
525	-6.30000e+00	3.137420e-06	
526	-6.35000e+00	3.138801e-06	
527	-6.40000e+00	3.140250e-06	
528	-6.45000e+00	3.141776e-06	
529	-6.50000e+00	3.143388e-06	
530	-6.55000e+00	3.145094e-06	
531	-6.60000e+00	3.146906e-06	
532	0.000000e+00	-6.55690e-23	
533	-5.00000e-02	1.736918e-07	
534	-1.00000e-01	3.443382e-07	
535	-1.50000e-01	5.119400e-07	
536	-2.00000e-01	6.764978e-07	
537	-2.50000e-01	8.380124e-07	
538	-3.00000e-01	9.964846e-07	
539	-3.50000e-01	1.151915e-06	
540	-4.00000e-01	1.304304e-06	
541	-4.50000e-01	1.453654e-06	
542	-5.00000e-01	1.599963e-06	
543	-5.50000e-01	1.743234e-06	
544	-6.00000e-01	1.883467e-06	
545	-6.50000e-01	2.020662e-06	
546	-7.00000e-01	2.154821e-06	
547	-7.50000e-01	2.285944e-06	
548	-8.00000e-01	2.414032e-06	
549	-8.50000e-01	2.539086e-06	
550	-9.00000e-01	2.661106e-06	
551	-9.50000e-01	2.780093e-06	
552	-1.00000e+00	2.896049e-06	
553	-1.05000e+00	3.008973e-06	
554	-1.10000e+00	3.118867e-06	
555	-1.15000e+00	3.225731e-06	
556	-1.20000e+00	3.329566e-06	
557	-1.25000e+00	3.430373e-06	
558	-1.30000e+00	3.528154e-06	
559	-1.35000e+00	3.622908e-06	
560	-1.40000e+00	3.714636e-06	
561	-1.45000e+00	3.803341e-06	
562	-1.50000e+00	3.889022e-06	
563	-1.55000e+00	3.971680e-06	
564	-1.60000e+00	4.051318e-06	
565	-1.65000e+00	4.127935e-06	
566	-1.70000e+00	4.201534e-06	
567	-1.75000e+00	4.272115e-06	
568	-1.80000e+00	4.339680e-06	
569	-1.85000e+00	4.404232e-06	
570	-1.90000e+00	4.465771e-06	
571	-1.95000e+00	4.524300e-06	
572	-2.00000e+00	4.579822e-06	
573	-2.05000e+00	4.632340e-06	
574	-2.10000e+00	4.681858e-06	
575	-2.15000e+00	4.728380e-06	
576	-2.20000e+00	4.771913e-06	

Index   v-sweep         i(vds)          
--------------------------------------------------------------------------------
577	-2.25000e+00	4.812463e-06	
578	-2.30000e+00	4.850042e-06	
579	-2.35000e+00	4.884662e-06	
580	-2.40000e+00	4.916342e-06	
581	-2.45000e+00	4.945105e-06	
582	-2.50000e+00	4.970987e-06	
583	-2.55000e+00	4.994035e-06	
584	-2.60000e+00	5.014319e-06	
585	-2.65000e+00	5.031936e-06	
586	-2.70000e+00	5.047022e-06	
587	-2.75000e+00	5.059761e-06	
588	-2.80000e+00	5.070389e-06	
589	-2.85000e+00	5.079189e-06	
590	-2.90000e+00	5.086474e-06	
591	-2.95000e+00	5.092551e-06	
592	-3.00000e+00	5.097698e-06	
593	-3.05000e+00	5.102146e-06	
594	-3.10000e+00	5.106070e-06	
595	-3.15000e+00	5.109603e-06	
596	-3.20000e+00	5.112838e-06	
597	-3.25000e+00	5.115844e-06	
598	-3.30000e+00	5.118670e-06	
599	-3.35000e+00	5.121352e-06	
600	-3.40000e+00	5.123915e-06	
601	-3.45000e+00	5.126380e-06	
602	-3.50000e+00	5.128762e-06	
603	-3.55000e+00	5.131073e-06	
604	-3.60000e+00	5.133322e-06	
605	-3.65000e+00	5.135516e-06	
606	-3.70000e+00	5.137663e-06	
607	-3.75000e+00	5.139768e-06	
608	-3.80000e+00	5.141834e-06	
609	-3.85000e+00	5.143865e-06	
610	-3.90000e+00	5.145864e-06	
611	-3.95000e+00	5.147835e-06	
612	-4.00000e+00	5.149780e-06	
613	-4.05000e+00	5.151700e-06	
614	-4.10000e+00	5.153597e-06	
615	-4.15000e+00	5.155474e-06	
616	-4.20000e+00	5.157331e-06	
617	-4.25000e+00	5.159170e-06	
618	-4.30000e+00	5.160992e-06	
619	-4.35000e+00	5.162799e-06	
620	-4.40000e+00	5.164590e-06	
621	-4.45000e+00	5.166367e-06	
622	-4.50000e+00	5.168131e-06	
623	-4.55000e+00	5.169882e-06	
624	-4.60000e+00	5.171621e-06	
625	-4.65000e+00	5.173349e-06	
626	-4.70000e+00	5.175066e-06	
627	-4.75000e+00	5.176773e-06	
628	-4.80000e+00	5.178471e-06	
629	-4.85000e+00	5.180159e-06	
630	-4.90000e+00	5.181838e-06	
631	-4.95000e+00	5.183509e-06	
632	-5.00000e+00	5.185171e-06	
633	-5.05000e+00	5.186826e-06	
634	-5.10000e+00	5.188474e-06	

Index   v-sweep         i(vds)          
--------------------------------------------------------------------------------
635	-5.15000e+00	5.190114e-06	
636	-5.20000e+00	5.191748e-06	
637	-5.25000e+00	5.193375e-06	
638	-5.30000e+00	5.194996e-06	
639	-5.35000e+00	5.196611e-06	
640	-5.40000e+00	5.198220e-06	
641	-5.45000e+00	5.199824e-06	
642	-5.50000e+00	5.201423e-06	
643	-5.55000e+00	5.203016e-06	
644	-5.60000e+00	5.204605e-06	
645	-5.65000e+00	5.206190e-06	
646	-5.70000e+00	5.207771e-06	
647	-5.75000e+00	5.209348e-06	
648	-5.80000e+00	5.210923e-06	
649	-5.85000e+00	5.212495e-06	
650	-5.90000e+00	5.214064e-06	
651	-5.95000e+00	5.215633e-06	
652	-6.00000e+00	5.217202e-06	
653	-6.05000e+00	5.218771e-06	
654	-6.10000e+00	5.220341e-06	
655	-6.15000e+00	5.221915e-06	
656	-6.20000e+00	5.223494e-06	
657	-6.25000e+00	5.225078e-06	
658	-6.30000e+00	5.226672e-06	
659	-6.35000e+00	5.228276e-06	
660	-6.40000e+00	5.229893e-06	
661	-6.45000e+00	5.231527e-06	
662	-6.50000e+00	5.233181e-06	
663	-6.55000e+00	5.234859e-06	
664	-6.60000e+00	5.236565e-06	
665	0.000000e+00	1.588233e-21	
666	-5.00000e-02	2.046119e-07	
667	-1.00000e-01	4.063837e-07	
668	-1.50000e-01	6.053157e-07	
669	-2.00000e-01	8.014088e-07	
670	-2.50000e-01	9.946636e-07	
671	-3.00000e-01	1.185081e-06	
672	-3.50000e-01	1.372660e-06	
673	-4.00000e-01	1.557404e-06	
674	-4.50000e-01	1.739311e-06	
675	-5.00000e-01	1.918383e-06	
676	-5.50000e-01	2.094621e-06	
677	-6.00000e-01	2.268025e-06	
678	-6.50000e-01	2.438595e-06	
679	-7.00000e-01	2.606332e-06	
680	-7.50000e-01	2.771237e-06	
681	-8.00000e-01	2.933311e-06	
682	-8.50000e-01	3.092554e-06	
683	-9.00000e-01	3.248967e-06	
684	-9.50000e-01	3.402550e-06	
685	-1.00000e+00	3.553303e-06	
686	-1.05000e+00	3.701229e-06	
687	-1.10000e+00	3.846327e-06	
688	-1.15000e+00	3.988597e-06	
689	-1.20000e+00	4.128041e-06	
690	-1.25000e+00	4.264659e-06	
691	-1.30000e+00	4.398452e-06	
692	-1.35000e+00	4.529421e-06	

Index   v-sweep         i(vds)          
--------------------------------------------------------------------------------
693	-1.40000e+00	4.657565e-06	
694	-1.45000e+00	4.782887e-06	
695	-1.50000e+00	4.905385e-06	
696	-1.55000e+00	5.025062e-06	
697	-1.60000e+00	5.141917e-06	
698	-1.65000e+00	5.255952e-06	
699	-1.70000e+00	5.367167e-06	
700	-1.75000e+00	5.475563e-06	
701	-1.80000e+00	5.581140e-06	
702	-1.85000e+00	5.683900e-06	
703	-1.90000e+00	5.783843e-06	
704	-1.95000e+00	5.880969e-06	
705	-2.00000e+00	5.975281e-06	
706	-2.05000e+00	6.066777e-06	
707	-2.10000e+00	6.155461e-06	
708	-2.15000e+00	6.241331e-06	
709	-2.20000e+00	6.324390e-06	
710	-2.25000e+00	6.404638e-06	
711	-2.30000e+00	6.482077e-06	
712	-2.35000e+00	6.556708e-06	
713	-2.40000e+00	6.628532e-06	
714	-2.45000e+00	6.697550e-06	
715	-2.50000e+00	6.763765e-06	
716	-2.55000e+00	6.827178e-06	
717	-2.60000e+00	6.887791e-06	
718	-2.65000e+00	6.945607e-06	
719	-2.70000e+00	7.000629e-06	
720	-2.75000e+00	7.052860e-06	
721	-2.80000e+00	7.102305e-06	
722	-2.85000e+00	7.148969e-06	
723	-2.90000e+00	7.192859e-06	
724	-2.95000e+00	7.233981e-06	
725	-3.00000e+00	7.272348e-06	
726	-3.05000e+00	7.307973e-06	
727	-3.10000e+00	7.340872e-06	
728	-3.15000e+00	7.371071e-06	
729	-3.20000e+00	7.398600e-06	
730	-3.25000e+00	7.423503e-06	
731	-3.30000e+00	7.445838e-06	
732	-3.35000e+00	7.465684e-06	
733	-3.40000e+00	7.483147e-06	
734	-3.45000e+00	7.498368e-06	
735	-3.50000e+00	7.511523e-06	
736	-3.55000e+00	7.522829e-06	
737	-3.60000e+00	7.532529e-06	
738	-3.65000e+00	7.540881e-06	
739	-3.70000e+00	7.548134e-06	
740	-3.75000e+00	7.554514e-06	
741	-3.80000e+00	7.560212e-06	
742	-3.85000e+00	7.565378e-06	
743	-3.90000e+00	7.570129e-06	
744	-3.95000e+00	7.574555e-06	
745	-4.00000e+00	7.578721e-06	
746	-4.05000e+00	7.582677e-06	
747	-4.10000e+00	7.586459e-06	
748	-4.15000e+00	7.590098e-06	
749	-4.20000e+00	7.593614e-06	
750	-4.25000e+00	7.597025e-06	

Index   v-sweep         i(vds)          
--------------------------------------------------------------------------------
751	-4.30000e+00	7.600346e-06	
752	-4.35000e+00	7.603587e-06	
753	-4.40000e+00	7.606758e-06	
754	-4.45000e+00	7.609865e-06	
755	-4.50000e+00	7.612916e-06	
756	-4.55000e+00	7.615916e-06	
757	-4.60000e+00	7.618870e-06	
758	-4.65000e+00	7.621781e-06	
759	-4.70000e+00	7.624653e-06	
760	-4.75000e+00	7.627490e-06	
761	-4.80000e+00	7.630293e-06	
762	-4.85000e+00	7.633066e-06	
763	-4.90000e+00	7.635809e-06	
764	-4.95000e+00	7.638526e-06	
765	-5.00000e+00	7.641219e-06	
766	-5.05000e+00	7.643887e-06	
767	-5.10000e+00	7.646534e-06	
768	-5.15000e+00	7.649160e-06	
769	-5.20000e+00	7.651766e-06	
770	-5.25000e+00	7.654354e-06	
771	-5.30000e+00	7.656924e-06	
772	-5.35000e+00	7.659477e-06	
773	-5.40000e+00	7.662015e-06	
774	-5.45000e+00	7.664538e-06	
775	-5.50000e+00	7.667046e-06	
776	-5.55000e+00	7.669541e-06	
777	-5.60000e+00	7.672023e-06	
778	-5.65000e+00	7.674492e-06	
779	-5.70000e+00	7.676950e-06	
780	-5.75000e+00	7.679396e-06	
781	-5.80000e+00	7.681831e-06	
782	-5.85000e+00	7.684256e-06	
783	-5.90000e+00	7.686670e-06	
784	-5.95000e+00	7.689075e-06	
785	-6.00000e+00	7.691471e-06	
786	-6.05000e+00	7.693858e-06	
787	-6.10000e+00	7.696237e-06	
788	-6.15000e+00	7.698607e-06	
789	-6.20000e+00	7.700970e-06	
790	-6.25000e+00	7.703326e-06	
791	-6.30000e+00	7.705674e-06	
792	-6.35000e+00	7.708016e-06	
793	-6.40000e+00	7.710352e-06	
794	-6.45000e+00	7.712683e-06	
795	-6.50000e+00	7.715009e-06	
796	-6.55000e+00	7.717331e-06	
797	-6.60000e+00	7.719649e-06	
Note: No ".plot", ".print", or ".fourier" lines; no simulations run
