
Note: Compatibility modes selected: hs

Warning: m=xx on .subckt line will override multiplier m hierarchy!


Circuit: ***************************

Doing analysis at TEMP = 25.000000 and TNOM = 25.000000


No. of Data Rows : 798
                          ***************************
                          DC transfer characteristic  Mon Jan  9 13:58:50  2023
--------------------------------------------------------------------------------
Index   v-sweep         i(vds)          
--------------------------------------------------------------------------------
0	0.000000e+00	1.991914e-24	
1	-5.00000e-02	3.843444e-09	
2	-1.00000e-01	5.771280e-09	
3	-1.50000e-01	6.373745e-09	
4	-2.00000e-01	6.512288e-09	
5	-2.50000e-01	6.553751e-09	
6	-3.00000e-01	6.572005e-09	
7	-3.50000e-01	6.582658e-09	
8	-4.00000e-01	6.590134e-09	
9	-4.50000e-01	6.596027e-09	
10	-5.00000e-01	6.601024e-09	
11	-5.50000e-01	6.605460e-09	
12	-6.00000e-01	6.609517e-09	
13	-6.50000e-01	6.613302e-09	
14	-7.00000e-01	6.616884e-09	
15	-7.50000e-01	6.620306e-09	
16	-8.00000e-01	6.623599e-09	
17	-8.50000e-01	6.626786e-09	
18	-9.00000e-01	6.629883e-09	
19	-9.50000e-01	6.632903e-09	
20	-1.00000e+00	6.635857e-09	
21	-1.05000e+00	6.638751e-09	
22	-1.10000e+00	6.641594e-09	
23	-1.15000e+00	6.644389e-09	
24	-1.20000e+00	6.647141e-09	
25	-1.25000e+00	6.649856e-09	
26	-1.30000e+00	6.652534e-09	
27	-1.35000e+00	6.655181e-09	
28	-1.40000e+00	6.657797e-09	
29	-1.45000e+00	6.660386e-09	
30	-1.50000e+00	6.662949e-09	
31	-1.55000e+00	6.665488e-09	
32	-1.60000e+00	6.668005e-09	
33	-1.65000e+00	6.670501e-09	
34	-1.70000e+00	6.672977e-09	
35	-1.75000e+00	6.675434e-09	
36	-1.80000e+00	6.677873e-09	
37	-1.85000e+00	6.680297e-09	
38	-1.90000e+00	6.682704e-09	
39	-1.95000e+00	6.685097e-09	
40	-2.00000e+00	6.687475e-09	
41	-2.05000e+00	6.689840e-09	
42	-2.10000e+00	6.692192e-09	
43	-2.15000e+00	6.694532e-09	
44	-2.20000e+00	6.696860e-09	
45	-2.25000e+00	6.699177e-09	
46	-2.30000e+00	6.701484e-09	
47	-2.35000e+00	6.703780e-09	
48	-2.40000e+00	6.706066e-09	
49	-2.45000e+00	6.708343e-09	
50	-2.50000e+00	6.710611e-09	
51	-2.55000e+00	6.712871e-09	
52	-2.60000e+00	6.715122e-09	
53	-2.65000e+00	6.717365e-09	
54	-2.70000e+00	6.719601e-09	

Index   v-sweep         i(vds)          
--------------------------------------------------------------------------------
55	-2.75000e+00	6.721830e-09	
56	-2.80000e+00	6.724051e-09	
57	-2.85000e+00	6.726266e-09	
58	-2.90000e+00	6.728476e-09	
59	-2.95000e+00	6.730679e-09	
60	-3.00000e+00	6.732878e-09	
61	-3.05000e+00	6.735072e-09	
62	-3.10000e+00	6.737262e-09	
63	-3.15000e+00	6.739449e-09	
64	-3.20000e+00	6.741634e-09	
65	-3.25000e+00	6.743817e-09	
66	-3.30000e+00	6.746001e-09	
67	-3.35000e+00	6.748186e-09	
68	-3.40000e+00	6.750374e-09	
69	-3.45000e+00	6.752566e-09	
70	-3.50000e+00	6.754766e-09	
71	-3.55000e+00	6.756975e-09	
72	-3.60000e+00	6.759196e-09	
73	-3.65000e+00	6.761433e-09	
74	-3.70000e+00	6.763688e-09	
75	-3.75000e+00	6.765968e-09	
76	-3.80000e+00	6.768276e-09	
77	-3.85000e+00	6.770617e-09	
78	-3.90000e+00	6.772999e-09	
79	-3.95000e+00	6.775427e-09	
80	-4.00000e+00	6.777909e-09	
81	-4.05000e+00	6.780454e-09	
82	-4.10000e+00	6.783071e-09	
83	-4.15000e+00	6.785771e-09	
84	-4.20000e+00	6.788564e-09	
85	-4.25000e+00	6.791464e-09	
86	-4.30000e+00	6.794484e-09	
87	-4.35000e+00	6.797639e-09	
88	-4.40000e+00	6.800946e-09	
89	-4.45000e+00	6.804421e-09	
90	-4.50000e+00	6.808085e-09	
91	-4.55000e+00	6.811957e-09	
92	-4.60000e+00	6.816059e-09	
93	-4.65000e+00	6.820417e-09	
94	-4.70000e+00	6.825055e-09	
95	-4.75000e+00	6.830000e-09	
96	-4.80000e+00	6.835281e-09	
97	-4.85000e+00	6.840930e-09	
98	-4.90000e+00	6.846980e-09	
99	-4.95000e+00	6.853466e-09	
100	-5.00000e+00	6.860424e-09	
101	-5.05000e+00	6.867893e-09	
102	-5.10000e+00	6.875916e-09	
103	-5.15000e+00	6.884535e-09	
104	-5.20000e+00	6.893797e-09	
105	-5.25000e+00	6.903748e-09	
106	-5.30000e+00	6.914441e-09	
107	-5.35000e+00	6.925927e-09	
108	-5.40000e+00	6.938261e-09	
109	-5.45000e+00	6.951501e-09	
110	-5.50000e+00	6.965708e-09	
111	-5.55000e+00	6.980943e-09	
112	-5.60000e+00	6.997271e-09	

Index   v-sweep         i(vds)          
--------------------------------------------------------------------------------
113	-5.65000e+00	7.014760e-09	
114	-5.70000e+00	7.033480e-09	
115	-5.75000e+00	7.053503e-09	
116	-5.80000e+00	7.074904e-09	
117	-5.85000e+00	7.097761e-09	
118	-5.90000e+00	7.122154e-09	
119	-5.95000e+00	7.148166e-09	
120	-6.00000e+00	7.175882e-09	
121	-6.05000e+00	7.205389e-09	
122	-6.10000e+00	7.236778e-09	
123	-6.15000e+00	7.270142e-09	
124	-6.20000e+00	7.305575e-09	
125	-6.25000e+00	7.343176e-09	
126	-6.30000e+00	7.383046e-09	
127	-6.35000e+00	7.425285e-09	
128	-6.40000e+00	7.470000e-09	
129	-6.45000e+00	7.517298e-09	
130	-6.50000e+00	7.567289e-09	
131	-6.55000e+00	7.620085e-09	
132	-6.60000e+00	7.675801e-09	
133	0.000000e+00	-4.41503e-23	
134	-5.00000e-02	4.020013e-08	
135	-1.00000e-01	7.780251e-08	
136	-1.50000e-01	1.128079e-07	
137	-2.00000e-01	1.452173e-07	
138	-2.50000e-01	1.750319e-07	
139	-3.00000e-01	2.022534e-07	
140	-3.50000e-01	2.268843e-07	
141	-4.00000e-01	2.489282e-07	
142	-4.50000e-01	2.683907e-07	
143	-5.00000e-01	2.852813e-07	
144	-5.50000e-01	2.996167e-07	
145	-6.00000e-01	3.114273e-07	
146	-6.50000e-01	3.207723e-07	
147	-7.00000e-01	3.277683e-07	
148	-7.50000e-01	3.326388e-07	
149	-8.00000e-01	3.357620e-07	
150	-8.50000e-01	3.376402e-07	
151	-9.00000e-01	3.387583e-07	
152	-9.50000e-01	3.394601e-07	
153	-1.00000e+00	3.399411e-07	
154	-1.05000e+00	3.403020e-07	
155	-1.10000e+00	3.405937e-07	
156	-1.15000e+00	3.408430e-07	
157	-1.20000e+00	3.410645e-07	
158	-1.25000e+00	3.412668e-07	
159	-1.30000e+00	3.414552e-07	
160	-1.35000e+00	3.416330e-07	
161	-1.40000e+00	3.418026e-07	
162	-1.45000e+00	3.419655e-07	
163	-1.50000e+00	3.421229e-07	
164	-1.55000e+00	3.422756e-07	
165	-1.60000e+00	3.424244e-07	
166	-1.65000e+00	3.425697e-07	
167	-1.70000e+00	3.427120e-07	
168	-1.75000e+00	3.428515e-07	
169	-1.80000e+00	3.429887e-07	
170	-1.85000e+00	3.431236e-07	

Index   v-sweep         i(vds)          
--------------------------------------------------------------------------------
171	-1.90000e+00	3.432566e-07	
172	-1.95000e+00	3.433877e-07	
173	-2.00000e+00	3.435172e-07	
174	-2.05000e+00	3.436452e-07	
175	-2.10000e+00	3.437717e-07	
176	-2.15000e+00	3.438969e-07	
177	-2.20000e+00	3.440209e-07	
178	-2.25000e+00	3.441437e-07	
179	-2.30000e+00	3.442654e-07	
180	-2.35000e+00	3.443862e-07	
181	-2.40000e+00	3.445059e-07	
182	-2.45000e+00	3.446248e-07	
183	-2.50000e+00	3.447429e-07	
184	-2.55000e+00	3.448601e-07	
185	-2.60000e+00	3.449766e-07	
186	-2.65000e+00	3.450923e-07	
187	-2.70000e+00	3.452074e-07	
188	-2.75000e+00	3.453217e-07	
189	-2.80000e+00	3.454355e-07	
190	-2.85000e+00	3.455487e-07	
191	-2.90000e+00	3.456613e-07	
192	-2.95000e+00	3.457733e-07	
193	-3.00000e+00	3.458849e-07	
194	-3.05000e+00	3.459959e-07	
195	-3.10000e+00	3.461065e-07	
196	-3.15000e+00	3.462166e-07	
197	-3.20000e+00	3.463262e-07	
198	-3.25000e+00	3.464354e-07	
199	-3.30000e+00	3.465442e-07	
200	-3.35000e+00	3.466527e-07	
201	-3.40000e+00	3.467607e-07	
202	-3.45000e+00	3.468684e-07	
203	-3.50000e+00	3.469758e-07	
204	-3.55000e+00	3.470829e-07	
205	-3.60000e+00	3.471896e-07	
206	-3.65000e+00	3.472961e-07	
207	-3.70000e+00	3.474024e-07	
208	-3.75000e+00	3.475084e-07	
209	-3.80000e+00	3.476143e-07	
210	-3.85000e+00	3.477200e-07	
211	-3.90000e+00	3.478257e-07	
212	-3.95000e+00	3.479313e-07	
213	-4.00000e+00	3.480370e-07	
214	-4.05000e+00	3.481427e-07	
215	-4.10000e+00	3.482487e-07	
216	-4.15000e+00	3.483549e-07	
217	-4.20000e+00	3.484616e-07	
218	-4.25000e+00	3.485688e-07	
219	-4.30000e+00	3.486768e-07	
220	-4.35000e+00	3.487856e-07	
221	-4.40000e+00	3.488955e-07	
222	-4.45000e+00	3.490067e-07	
223	-4.50000e+00	3.491195e-07	
224	-4.55000e+00	3.492342e-07	
225	-4.60000e+00	3.493511e-07	
226	-4.65000e+00	3.494706e-07	
227	-4.70000e+00	3.495930e-07	
228	-4.75000e+00	3.497189e-07	

Index   v-sweep         i(vds)          
--------------------------------------------------------------------------------
229	-4.80000e+00	3.498488e-07	
230	-4.85000e+00	3.499831e-07	
231	-4.90000e+00	3.501226e-07	
232	-4.95000e+00	3.502678e-07	
233	-5.00000e+00	3.504196e-07	
234	-5.05000e+00	3.505787e-07	
235	-5.10000e+00	3.507460e-07	
236	-5.15000e+00	3.509224e-07	
237	-5.20000e+00	3.511089e-07	
238	-5.25000e+00	3.513067e-07	
239	-5.30000e+00	3.515170e-07	
240	-5.35000e+00	3.517409e-07	
241	-5.40000e+00	3.519798e-07	
242	-5.45000e+00	3.522353e-07	
243	-5.50000e+00	3.525088e-07	
244	-5.55000e+00	3.528019e-07	
245	-5.60000e+00	3.531165e-07	
246	-5.65000e+00	3.534543e-07	
247	-5.70000e+00	3.538174e-07	
248	-5.75000e+00	3.542078e-07	
249	-5.80000e+00	3.546276e-07	
250	-5.85000e+00	3.550792e-07	
251	-5.90000e+00	3.555649e-07	
252	-5.95000e+00	3.560874e-07	
253	-6.00000e+00	3.566492e-07	
254	-6.05000e+00	3.572531e-07	
255	-6.10000e+00	3.579020e-07	
256	-6.15000e+00	3.585990e-07	
257	-6.20000e+00	3.593471e-07	
258	-6.25000e+00	3.601497e-07	
259	-6.30000e+00	3.610101e-07	
260	-6.35000e+00	3.619319e-07	
261	-6.40000e+00	3.629188e-07	
262	-6.45000e+00	3.639745e-07	
263	-6.50000e+00	3.651030e-07	
264	-6.55000e+00	3.663083e-07	
265	-6.60000e+00	3.675946e-07	
266	0.000000e+00	-3.97316e-24	
267	-5.00000e-02	7.334093e-08	
268	-1.00000e-01	1.442034e-07	
269	-1.50000e-01	2.125876e-07	
270	-2.00000e-01	2.784939e-07	
271	-2.50000e-01	3.419226e-07	
272	-3.00000e-01	4.028739e-07	
273	-3.50000e-01	4.613482e-07	
274	-4.00000e-01	5.173459e-07	
275	-4.50000e-01	5.708674e-07	
276	-5.00000e-01	6.219131e-07	
277	-5.50000e-01	6.704834e-07	
278	-6.00000e-01	7.165791e-07	
279	-6.50000e-01	7.602008e-07	
280	-7.00000e-01	8.013492e-07	
281	-7.50000e-01	8.400255e-07	
282	-8.00000e-01	8.762309e-07	
283	-8.50000e-01	9.099672e-07	
284	-9.00000e-01	9.412365e-07	
285	-9.50000e-01	9.700418e-07	
286	-1.00000e+00	9.963874e-07	

Index   v-sweep         i(vds)          
--------------------------------------------------------------------------------
287	-1.05000e+00	1.020279e-06	
288	-1.10000e+00	1.041727e-06	
289	-1.15000e+00	1.060743e-06	
290	-1.20000e+00	1.077349e-06	
291	-1.25000e+00	1.091580e-06	
292	-1.30000e+00	1.103490e-06	
293	-1.35000e+00	1.113171e-06	
294	-1.40000e+00	1.120770e-06	
295	-1.45000e+00	1.126510e-06	
296	-1.50000e+00	1.130698e-06	
297	-1.55000e+00	1.133693e-06	
298	-1.60000e+00	1.135846e-06	
299	-1.65000e+00	1.137441e-06	
300	-1.70000e+00	1.138680e-06	
301	-1.75000e+00	1.139691e-06	
302	-1.80000e+00	1.140554e-06	
303	-1.85000e+00	1.141316e-06	
304	-1.90000e+00	1.142009e-06	
305	-1.95000e+00	1.142651e-06	
306	-2.00000e+00	1.143254e-06	
307	-2.05000e+00	1.143827e-06	
308	-2.10000e+00	1.144377e-06	
309	-2.15000e+00	1.144907e-06	
310	-2.20000e+00	1.145421e-06	
311	-2.25000e+00	1.145920e-06	
312	-2.30000e+00	1.146408e-06	
313	-2.35000e+00	1.146885e-06	
314	-2.40000e+00	1.147352e-06	
315	-2.45000e+00	1.147811e-06	
316	-2.50000e+00	1.148263e-06	
317	-2.55000e+00	1.148708e-06	
318	-2.60000e+00	1.149146e-06	
319	-2.65000e+00	1.149579e-06	
320	-2.70000e+00	1.150007e-06	
321	-2.75000e+00	1.150430e-06	
322	-2.80000e+00	1.150848e-06	
323	-2.85000e+00	1.151263e-06	
324	-2.90000e+00	1.151673e-06	
325	-2.95000e+00	1.152080e-06	
326	-3.00000e+00	1.152483e-06	
327	-3.05000e+00	1.152883e-06	
328	-3.10000e+00	1.153280e-06	
329	-3.15000e+00	1.153674e-06	
330	-3.20000e+00	1.154065e-06	
331	-3.25000e+00	1.154454e-06	
332	-3.30000e+00	1.154840e-06	
333	-3.35000e+00	1.155224e-06	
334	-3.40000e+00	1.155606e-06	
335	-3.45000e+00	1.155986e-06	
336	-3.50000e+00	1.156364e-06	
337	-3.55000e+00	1.156739e-06	
338	-3.60000e+00	1.157113e-06	
339	-3.65000e+00	1.157485e-06	
340	-3.70000e+00	1.157856e-06	
341	-3.75000e+00	1.158225e-06	
342	-3.80000e+00	1.158592e-06	
343	-3.85000e+00	1.158958e-06	
344	-3.90000e+00	1.159323e-06	

Index   v-sweep         i(vds)          
--------------------------------------------------------------------------------
345	-3.95000e+00	1.159686e-06	
346	-4.00000e+00	1.160047e-06	
347	-4.05000e+00	1.160408e-06	
348	-4.10000e+00	1.160767e-06	
349	-4.15000e+00	1.161125e-06	
350	-4.20000e+00	1.161482e-06	
351	-4.25000e+00	1.161838e-06	
352	-4.30000e+00	1.162194e-06	
353	-4.35000e+00	1.162548e-06	
354	-4.40000e+00	1.162901e-06	
355	-4.45000e+00	1.163254e-06	
356	-4.50000e+00	1.163606e-06	
357	-4.55000e+00	1.163958e-06	
358	-4.60000e+00	1.164310e-06	
359	-4.65000e+00	1.164661e-06	
360	-4.70000e+00	1.165013e-06	
361	-4.75000e+00	1.165365e-06	
362	-4.80000e+00	1.165718e-06	
363	-4.85000e+00	1.166072e-06	
364	-4.90000e+00	1.166427e-06	
365	-4.95000e+00	1.166784e-06	
366	-5.00000e+00	1.167144e-06	
367	-5.05000e+00	1.167506e-06	
368	-5.10000e+00	1.167873e-06	
369	-5.15000e+00	1.168243e-06	
370	-5.20000e+00	1.168619e-06	
371	-5.25000e+00	1.169002e-06	
372	-5.30000e+00	1.169392e-06	
373	-5.35000e+00	1.169790e-06	
374	-5.40000e+00	1.170199e-06	
375	-5.45000e+00	1.170619e-06	
376	-5.50000e+00	1.171053e-06	
377	-5.55000e+00	1.171501e-06	
378	-5.60000e+00	1.171967e-06	
379	-5.65000e+00	1.172452e-06	
380	-5.70000e+00	1.172960e-06	
381	-5.75000e+00	1.173492e-06	
382	-5.80000e+00	1.174051e-06	
383	-5.85000e+00	1.174641e-06	
384	-5.90000e+00	1.175265e-06	
385	-5.95000e+00	1.175927e-06	
386	-6.00000e+00	1.176631e-06	
387	-6.05000e+00	1.177381e-06	
388	-6.10000e+00	1.178181e-06	
389	-6.15000e+00	1.179036e-06	
390	-6.20000e+00	1.179952e-06	
391	-6.25000e+00	1.180934e-06	
392	-6.30000e+00	1.181988e-06	
393	-6.35000e+00	1.183121e-06	
394	-6.40000e+00	1.184337e-06	
395	-6.45000e+00	1.185645e-06	
396	-6.50000e+00	1.187053e-06	
397	-6.55000e+00	1.188566e-06	
398	-6.60000e+00	1.190194e-06	
399	0.000000e+00	-1.82406e-22	
400	-5.00000e-02	1.031887e-07	
401	-1.00000e-01	2.040355e-07	
402	-1.50000e-01	3.025405e-07	

Index   v-sweep         i(vds)          
--------------------------------------------------------------------------------
403	-2.00000e-01	3.987039e-07	
404	-2.50000e-01	4.925260e-07	
405	-3.00000e-01	5.840068e-07	
406	-3.50000e-01	6.731467e-07	
407	-4.00000e-01	7.599457e-07	
408	-4.50000e-01	8.444042e-07	
409	-5.00000e-01	9.265223e-07	
410	-5.50000e-01	1.006300e-06	
411	-6.00000e-01	1.083738e-06	
412	-6.50000e-01	1.158836e-06	
413	-7.00000e-01	1.231595e-06	
414	-7.50000e-01	1.302015e-06	
415	-8.00000e-01	1.370095e-06	
416	-8.50000e-01	1.435837e-06	
417	-9.00000e-01	1.499241e-06	
418	-9.50000e-01	1.560307e-06	
419	-1.00000e+00	1.619035e-06	
420	-1.05000e+00	1.675425e-06	
421	-1.10000e+00	1.729479e-06	
422	-1.15000e+00	1.781197e-06	
423	-1.20000e+00	1.830580e-06	
424	-1.25000e+00	1.877627e-06	
425	-1.30000e+00	1.922341e-06	
426	-1.35000e+00	1.964722e-06	
427	-1.40000e+00	2.004771e-06	
428	-1.45000e+00	2.042490e-06	
429	-1.50000e+00	2.077882e-06	
430	-1.55000e+00	2.110949e-06	
431	-1.60000e+00	2.141694e-06	
432	-1.65000e+00	2.170123e-06	
433	-1.70000e+00	2.196242e-06	
434	-1.75000e+00	2.220060e-06	
435	-1.80000e+00	2.241591e-06	
436	-1.85000e+00	2.260853e-06	
437	-1.90000e+00	2.277875e-06	
438	-1.95000e+00	2.292698e-06	
439	-2.00000e+00	2.305383e-06	
440	-2.05000e+00	2.316024e-06	
441	-2.10000e+00	2.324756e-06	
442	-2.15000e+00	2.331765e-06	
443	-2.20000e+00	2.337290e-06	
444	-2.25000e+00	2.341608e-06	
445	-2.30000e+00	2.344997e-06	
446	-2.35000e+00	2.347708e-06	
447	-2.40000e+00	2.349940e-06	
448	-2.45000e+00	2.351837e-06	
449	-2.50000e+00	2.353499e-06	
450	-2.55000e+00	2.354994e-06	
451	-2.60000e+00	2.356368e-06	
452	-2.65000e+00	2.357650e-06	
453	-2.70000e+00	2.358862e-06	
454	-2.75000e+00	2.360018e-06	
455	-2.80000e+00	2.361129e-06	
456	-2.85000e+00	2.362202e-06	
457	-2.90000e+00	2.363244e-06	
458	-2.95000e+00	2.364260e-06	
459	-3.00000e+00	2.365251e-06	
460	-3.05000e+00	2.366222e-06	

Index   v-sweep         i(vds)          
--------------------------------------------------------------------------------
461	-3.10000e+00	2.367175e-06	
462	-3.15000e+00	2.368112e-06	
463	-3.20000e+00	2.369034e-06	
464	-3.25000e+00	2.369942e-06	
465	-3.30000e+00	2.370838e-06	
466	-3.35000e+00	2.371723e-06	
467	-3.40000e+00	2.372598e-06	
468	-3.45000e+00	2.373463e-06	
469	-3.50000e+00	2.374319e-06	
470	-3.55000e+00	2.375167e-06	
471	-3.60000e+00	2.376007e-06	
472	-3.65000e+00	2.376840e-06	
473	-3.70000e+00	2.377666e-06	
474	-3.75000e+00	2.378486e-06	
475	-3.80000e+00	2.379300e-06	
476	-3.85000e+00	2.380107e-06	
477	-3.90000e+00	2.380910e-06	
478	-3.95000e+00	2.381707e-06	
479	-4.00000e+00	2.382500e-06	
480	-4.05000e+00	2.383287e-06	
481	-4.10000e+00	2.384071e-06	
482	-4.15000e+00	2.384850e-06	
483	-4.20000e+00	2.385625e-06	
484	-4.25000e+00	2.386396e-06	
485	-4.30000e+00	2.387164e-06	
486	-4.35000e+00	2.387928e-06	
487	-4.40000e+00	2.388689e-06	
488	-4.45000e+00	2.389446e-06	
489	-4.50000e+00	2.390201e-06	
490	-4.55000e+00	2.390952e-06	
491	-4.60000e+00	2.391700e-06	
492	-4.65000e+00	2.392446e-06	
493	-4.70000e+00	2.393189e-06	
494	-4.75000e+00	2.393930e-06	
495	-4.80000e+00	2.394668e-06	
496	-4.85000e+00	2.395404e-06	
497	-4.90000e+00	2.396138e-06	
498	-4.95000e+00	2.396869e-06	
499	-5.00000e+00	2.397599e-06	
500	-5.05000e+00	2.398327e-06	
501	-5.10000e+00	2.399053e-06	
502	-5.15000e+00	2.399778e-06	
503	-5.20000e+00	2.400502e-06	
504	-5.25000e+00	2.401225e-06	
505	-5.30000e+00	2.401948e-06	
506	-5.35000e+00	2.402670e-06	
507	-5.40000e+00	2.403393e-06	
508	-5.45000e+00	2.404116e-06	
509	-5.50000e+00	2.404840e-06	
510	-5.55000e+00	2.405567e-06	
511	-5.60000e+00	2.406296e-06	
512	-5.65000e+00	2.407029e-06	
513	-5.70000e+00	2.407767e-06	
514	-5.75000e+00	2.408511e-06	
515	-5.80000e+00	2.409262e-06	
516	-5.85000e+00	2.410022e-06	
517	-5.90000e+00	2.410792e-06	
518	-5.95000e+00	2.411575e-06	

Index   v-sweep         i(vds)          
--------------------------------------------------------------------------------
519	-6.00000e+00	2.412373e-06	
520	-6.05000e+00	2.413188e-06	
521	-6.10000e+00	2.414023e-06	
522	-6.15000e+00	2.414882e-06	
523	-6.20000e+00	2.415766e-06	
524	-6.25000e+00	2.416682e-06	
525	-6.30000e+00	2.417631e-06	
526	-6.35000e+00	2.418620e-06	
527	-6.40000e+00	2.419652e-06	
528	-6.45000e+00	2.420734e-06	
529	-6.50000e+00	2.421871e-06	
530	-6.55000e+00	2.423069e-06	
531	-6.60000e+00	2.424336e-06	
532	0.000000e+00	3.098351e-22	
533	-5.00000e-02	1.302984e-07	
534	-1.00000e-01	2.583845e-07	
535	-1.50000e-01	3.842585e-07	
536	-2.00000e-01	5.079206e-07	
537	-2.50000e-01	6.293709e-07	
538	-3.00000e-01	7.486095e-07	
539	-3.50000e-01	8.656367e-07	
540	-4.00000e-01	9.804525e-07	
541	-4.50000e-01	1.093057e-06	
542	-5.00000e-01	1.203451e-06	
543	-5.50000e-01	1.311634e-06	
544	-6.00000e-01	1.417606e-06	
545	-6.50000e-01	1.521367e-06	
546	-7.00000e-01	1.622918e-06	
547	-7.50000e-01	1.722259e-06	
548	-8.00000e-01	1.819390e-06	
549	-8.50000e-01	1.914311e-06	
550	-9.00000e-01	2.007022e-06	
551	-9.50000e-01	2.097524e-06	
552	-1.00000e+00	2.185816e-06	
553	-1.05000e+00	2.271900e-06	
554	-1.10000e+00	2.355774e-06	
555	-1.15000e+00	2.437439e-06	
556	-1.20000e+00	2.516896e-06	
557	-1.25000e+00	2.594145e-06	
558	-1.30000e+00	2.669186e-06	
559	-1.35000e+00	2.742018e-06	
560	-1.40000e+00	2.812643e-06	
561	-1.45000e+00	2.881061e-06	
562	-1.50000e+00	2.947272e-06	
563	-1.55000e+00	3.011276e-06	
564	-1.60000e+00	3.073074e-06	
565	-1.65000e+00	3.132666e-06	
566	-1.70000e+00	3.190053e-06	
567	-1.75000e+00	3.245235e-06	
568	-1.80000e+00	3.298212e-06	
569	-1.85000e+00	3.348986e-06	
570	-1.90000e+00	3.397558e-06	
571	-1.95000e+00	3.443928e-06	
572	-2.00000e+00	3.488097e-06	
573	-2.05000e+00	3.530067e-06	
574	-2.10000e+00	3.569841e-06	
575	-2.15000e+00	3.607419e-06	
576	-2.20000e+00	3.642805e-06	

Index   v-sweep         i(vds)          
--------------------------------------------------------------------------------
577	-2.25000e+00	3.676002e-06	
578	-2.30000e+00	3.707015e-06	
579	-2.35000e+00	3.735850e-06	
580	-2.40000e+00	3.762515e-06	
581	-2.45000e+00	3.787021e-06	
582	-2.50000e+00	3.809382e-06	
583	-2.55000e+00	3.829619e-06	
584	-2.60000e+00	3.847761e-06	
585	-2.65000e+00	3.863847e-06	
586	-2.70000e+00	3.877935e-06	
587	-2.75000e+00	3.890104e-06	
588	-2.80000e+00	3.900464e-06	
589	-2.85000e+00	3.909161e-06	
590	-2.90000e+00	3.916380e-06	
591	-2.95000e+00	3.922336e-06	
592	-3.00000e+00	3.927258e-06	
593	-3.05000e+00	3.931368e-06	
594	-3.10000e+00	3.934862e-06	
595	-3.15000e+00	3.937898e-06	
596	-3.20000e+00	3.940596e-06	
597	-3.25000e+00	3.943044e-06	
598	-3.30000e+00	3.945304e-06	
599	-3.35000e+00	3.947420e-06	
600	-3.40000e+00	3.949424e-06	
601	-3.45000e+00	3.951338e-06	
602	-3.50000e+00	3.953179e-06	
603	-3.55000e+00	3.954960e-06	
604	-3.60000e+00	3.956690e-06	
605	-3.65000e+00	3.958376e-06	
606	-3.70000e+00	3.960024e-06	
607	-3.75000e+00	3.961638e-06	
608	-3.80000e+00	3.963223e-06	
609	-3.85000e+00	3.964780e-06	
610	-3.90000e+00	3.966314e-06	
611	-3.95000e+00	3.967826e-06	
612	-4.00000e+00	3.969318e-06	
613	-4.05000e+00	3.970792e-06	
614	-4.10000e+00	3.972249e-06	
615	-4.15000e+00	3.973690e-06	
616	-4.20000e+00	3.975116e-06	
617	-4.25000e+00	3.976529e-06	
618	-4.30000e+00	3.977930e-06	
619	-4.35000e+00	3.979318e-06	
620	-4.40000e+00	3.980695e-06	
621	-4.45000e+00	3.982062e-06	
622	-4.50000e+00	3.983419e-06	
623	-4.55000e+00	3.984766e-06	
624	-4.60000e+00	3.986105e-06	
625	-4.65000e+00	3.987435e-06	
626	-4.70000e+00	3.988757e-06	
627	-4.75000e+00	3.990071e-06	
628	-4.80000e+00	3.991379e-06	
629	-4.85000e+00	3.992679e-06	
630	-4.90000e+00	3.993972e-06	
631	-4.95000e+00	3.995260e-06	
632	-5.00000e+00	3.996541e-06	
633	-5.05000e+00	3.997816e-06	
634	-5.10000e+00	3.999086e-06	

Index   v-sweep         i(vds)          
--------------------------------------------------------------------------------
635	-5.15000e+00	4.000350e-06	
636	-5.20000e+00	4.001610e-06	
637	-5.25000e+00	4.002864e-06	
638	-5.30000e+00	4.004114e-06	
639	-5.35000e+00	4.005359e-06	
640	-5.40000e+00	4.006600e-06	
641	-5.45000e+00	4.007837e-06	
642	-5.50000e+00	4.009069e-06	
643	-5.55000e+00	4.010298e-06	
644	-5.60000e+00	4.011523e-06	
645	-5.65000e+00	4.012745e-06	
646	-5.70000e+00	4.013963e-06	
647	-5.75000e+00	4.015179e-06	
648	-5.80000e+00	4.016392e-06	
649	-5.85000e+00	4.017602e-06	
650	-5.90000e+00	4.018811e-06	
651	-5.95000e+00	4.020018e-06	
652	-6.00000e+00	4.021223e-06	
653	-6.05000e+00	4.022428e-06	
654	-6.10000e+00	4.023633e-06	
655	-6.15000e+00	4.024839e-06	
656	-6.20000e+00	4.026047e-06	
657	-6.25000e+00	4.027258e-06	
658	-6.30000e+00	4.028472e-06	
659	-6.35000e+00	4.029692e-06	
660	-6.40000e+00	4.030919e-06	
661	-6.45000e+00	4.032154e-06	
662	-6.50000e+00	4.033401e-06	
663	-6.55000e+00	4.034661e-06	
664	-6.60000e+00	4.035937e-06	
665	0.000000e+00	8.799565e-22	
666	-5.00000e-02	1.551067e-07	
667	-1.00000e-01	3.081208e-07	
668	-1.50000e-01	4.590423e-07	
669	-2.00000e-01	6.078715e-07	
670	-2.50000e-01	7.546084e-07	
671	-3.00000e-01	8.992532e-07	
672	-3.50000e-01	1.041806e-06	
673	-4.00000e-01	1.182267e-06	
674	-4.50000e-01	1.320636e-06	
675	-5.00000e-01	1.456914e-06	
676	-5.50000e-01	1.591100e-06	
677	-6.00000e-01	1.723195e-06	
678	-6.50000e-01	1.853198e-06	
679	-7.00000e-01	1.981111e-06	
680	-7.50000e-01	2.106933e-06	
681	-8.00000e-01	2.230664e-06	
682	-8.50000e-01	2.352304e-06	
683	-9.00000e-01	2.471854e-06	
684	-9.50000e-01	2.589313e-06	
685	-1.00000e+00	2.704682e-06	
686	-1.05000e+00	2.817961e-06	
687	-1.10000e+00	2.929150e-06	
688	-1.15000e+00	3.038249e-06	
689	-1.20000e+00	3.145259e-06	
690	-1.25000e+00	3.250178e-06	
691	-1.30000e+00	3.353009e-06	
692	-1.35000e+00	3.453750e-06	

Index   v-sweep         i(vds)          
--------------------------------------------------------------------------------
693	-1.40000e+00	3.552402e-06	
694	-1.45000e+00	3.648966e-06	
695	-1.50000e+00	3.743440e-06	
696	-1.55000e+00	3.835826e-06	
697	-1.60000e+00	3.926123e-06	
698	-1.65000e+00	4.014332e-06	
699	-1.70000e+00	4.100453e-06	
700	-1.75000e+00	4.184487e-06	
701	-1.80000e+00	4.266432e-06	
702	-1.85000e+00	4.346290e-06	
703	-1.90000e+00	4.424061e-06	
704	-1.95000e+00	4.499744e-06	
705	-2.00000e+00	4.573341e-06	
706	-2.05000e+00	4.644852e-06	
707	-2.10000e+00	4.714276e-06	
708	-2.15000e+00	4.781615e-06	
709	-2.20000e+00	4.846868e-06	
710	-2.25000e+00	4.910035e-06	
711	-2.30000e+00	4.971119e-06	
712	-2.35000e+00	5.030118e-06	
713	-2.40000e+00	5.087033e-06	
714	-2.45000e+00	5.141866e-06	
715	-2.50000e+00	5.194616e-06	
716	-2.55000e+00	5.245285e-06	
717	-2.60000e+00	5.293874e-06	
718	-2.65000e+00	5.340384e-06	
719	-2.70000e+00	5.384816e-06	
720	-2.75000e+00	5.427172e-06	
721	-2.80000e+00	5.467454e-06	
722	-2.85000e+00	5.505664e-06	
723	-2.90000e+00	5.541807e-06	
724	-2.95000e+00	5.575885e-06	
725	-3.00000e+00	5.607903e-06	
726	-3.05000e+00	5.637869e-06	
727	-3.10000e+00	5.665790e-06	
728	-3.15000e+00	5.691676e-06	
729	-3.20000e+00	5.715543e-06	
730	-3.25000e+00	5.737408e-06	
731	-3.30000e+00	5.757298e-06	
732	-3.35000e+00	5.775245e-06	
733	-3.40000e+00	5.791297e-06	
734	-3.45000e+00	5.805517e-06	
735	-3.50000e+00	5.817987e-06	
736	-3.55000e+00	5.828816e-06	
737	-3.60000e+00	5.838143e-06	
738	-3.65000e+00	5.846130e-06	
739	-3.70000e+00	5.852963e-06	
740	-3.75000e+00	5.858836e-06	
741	-3.80000e+00	5.863933e-06	
742	-3.85000e+00	5.868420e-06	
743	-3.90000e+00	5.872436e-06	
744	-3.95000e+00	5.876091e-06	
745	-4.00000e+00	5.879468e-06	
746	-4.05000e+00	5.882629e-06	
747	-4.10000e+00	5.885621e-06	
748	-4.15000e+00	5.888476e-06	
749	-4.20000e+00	5.891221e-06	
750	-4.25000e+00	5.893875e-06	

Index   v-sweep         i(vds)          
--------------------------------------------------------------------------------
751	-4.30000e+00	5.896450e-06	
752	-4.35000e+00	5.898960e-06	
753	-4.40000e+00	5.901413e-06	
754	-4.45000e+00	5.903815e-06	
755	-4.50000e+00	5.906173e-06	
756	-4.55000e+00	5.908490e-06	
757	-4.60000e+00	5.910773e-06	
758	-4.65000e+00	5.913022e-06	
759	-4.70000e+00	5.915242e-06	
760	-4.75000e+00	5.917434e-06	
761	-4.80000e+00	5.919602e-06	
762	-4.85000e+00	5.921746e-06	
763	-4.90000e+00	5.923868e-06	
764	-4.95000e+00	5.925971e-06	
765	-5.00000e+00	5.928054e-06	
766	-5.05000e+00	5.930120e-06	
767	-5.10000e+00	5.932170e-06	
768	-5.15000e+00	5.934203e-06	
769	-5.20000e+00	5.936222e-06	
770	-5.25000e+00	5.938227e-06	
771	-5.30000e+00	5.940219e-06	
772	-5.35000e+00	5.942199e-06	
773	-5.40000e+00	5.944166e-06	
774	-5.45000e+00	5.946122e-06	
775	-5.50000e+00	5.948068e-06	
776	-5.55000e+00	5.950003e-06	
777	-5.60000e+00	5.951928e-06	
778	-5.65000e+00	5.953844e-06	
779	-5.70000e+00	5.955750e-06	
780	-5.75000e+00	5.957649e-06	
781	-5.80000e+00	5.959539e-06	
782	-5.85000e+00	5.961421e-06	
783	-5.90000e+00	5.963295e-06	
784	-5.95000e+00	5.965162e-06	
785	-6.00000e+00	5.967022e-06	
786	-6.05000e+00	5.968876e-06	
787	-6.10000e+00	5.970723e-06	
788	-6.15000e+00	5.972563e-06	
789	-6.20000e+00	5.974398e-06	
790	-6.25000e+00	5.976227e-06	
791	-6.30000e+00	5.978050e-06	
792	-6.35000e+00	5.979868e-06	
793	-6.40000e+00	5.981682e-06	
794	-6.45000e+00	5.983491e-06	
795	-6.50000e+00	5.985295e-06	
796	-6.55000e+00	5.987096e-06	
797	-6.60000e+00	5.988893e-06	
Note: No ".plot", ".print", or ".fourier" lines; no simulations run
