
Note: Compatibility modes selected: hs

Warning: m=xx on .subckt line will override multiplier m hierarchy!


Circuit: ***************************

Doing analysis at TEMP = -40.000000 and TNOM = -40.000000


No. of Data Rows : 798
                          ***************************
                          DC transfer characteristic  Mon Jan  9 13:58:51  2023
--------------------------------------------------------------------------------
Index   v-sweep         i(vds)          
--------------------------------------------------------------------------------
0	0.000000e+00	-4.22475e-38	
1	-5.00000e-02	1.367199e-07	
2	-1.00000e-01	2.156901e-07	
3	-1.50000e-01	2.493086e-07	
4	-2.00000e-01	2.615337e-07	
5	-2.50000e-01	2.681004e-07	
6	-3.00000e-01	2.731649e-07	
7	-3.50000e-01	2.776337e-07	
8	-4.00000e-01	2.817669e-07	
9	-4.50000e-01	2.856673e-07	
10	-5.00000e-01	2.893870e-07	
11	-5.50000e-01	2.929580e-07	
12	-6.00000e-01	2.964025e-07	
13	-6.50000e-01	2.997369e-07	
14	-7.00000e-01	3.029743e-07	
15	-7.50000e-01	3.061254e-07	
16	-8.00000e-01	3.091991e-07	
17	-8.50000e-01	3.122028e-07	
18	-9.00000e-01	3.151432e-07	
19	-9.50000e-01	3.180257e-07	
20	-1.00000e+00	3.208554e-07	
21	-1.05000e+00	3.236366e-07	
22	-1.10000e+00	3.263732e-07	
23	-1.15000e+00	3.290686e-07	
24	-1.20000e+00	3.317260e-07	
25	-1.25000e+00	3.343480e-07	
26	-1.30000e+00	3.369373e-07	
27	-1.35000e+00	3.394960e-07	
28	-1.40000e+00	3.420264e-07	
29	-1.45000e+00	3.445302e-07	
30	-1.50000e+00	3.470092e-07	
31	-1.55000e+00	3.494649e-07	
32	-1.60000e+00	3.518990e-07	
33	-1.65000e+00	3.543126e-07	
34	-1.70000e+00	3.567071e-07	
35	-1.75000e+00	3.590835e-07	
36	-1.80000e+00	3.614430e-07	
37	-1.85000e+00	3.637865e-07	
38	-1.90000e+00	3.661150e-07	
39	-1.95000e+00	3.684293e-07	
40	-2.00000e+00	3.707302e-07	
41	-2.05000e+00	3.730185e-07	
42	-2.10000e+00	3.752949e-07	
43	-2.15000e+00	3.775600e-07	
44	-2.20000e+00	3.798144e-07	
45	-2.25000e+00	3.820588e-07	
46	-2.30000e+00	3.842937e-07	
47	-2.35000e+00	3.865195e-07	
48	-2.40000e+00	3.887368e-07	
49	-2.45000e+00	3.909461e-07	
50	-2.50000e+00	3.931477e-07	
51	-2.55000e+00	3.953421e-07	
52	-2.60000e+00	3.975296e-07	
53	-2.65000e+00	3.997107e-07	
54	-2.70000e+00	4.018857e-07	

Index   v-sweep         i(vds)          
--------------------------------------------------------------------------------
55	-2.75000e+00	4.040549e-07	
56	-2.80000e+00	4.062186e-07	
57	-2.85000e+00	4.083772e-07	
58	-2.90000e+00	4.105309e-07	
59	-2.95000e+00	4.126800e-07	
60	-3.00000e+00	4.148249e-07	
61	-3.05000e+00	4.169657e-07	
62	-3.10000e+00	4.191027e-07	
63	-3.15000e+00	4.212361e-07	
64	-3.20000e+00	4.233663e-07	
65	-3.25000e+00	4.254934e-07	
66	-3.30000e+00	4.276178e-07	
67	-3.35000e+00	4.297396e-07	
68	-3.40000e+00	4.318591e-07	
69	-3.45000e+00	4.339765e-07	
70	-3.50000e+00	4.360922e-07	
71	-3.55000e+00	4.382065e-07	
72	-3.60000e+00	4.403195e-07	
73	-3.65000e+00	4.424316e-07	
74	-3.70000e+00	4.445432e-07	
75	-3.75000e+00	4.466547e-07	
76	-3.80000e+00	4.487663e-07	
77	-3.85000e+00	4.508786e-07	
78	-3.90000e+00	4.529920e-07	
79	-3.95000e+00	4.551070e-07	
80	-4.00000e+00	4.572242e-07	
81	-4.05000e+00	4.593441e-07	
82	-4.10000e+00	4.614674e-07	
83	-4.15000e+00	4.635948e-07	
84	-4.20000e+00	4.657271e-07	
85	-4.25000e+00	4.678652e-07	
86	-4.30000e+00	4.700100e-07	
87	-4.35000e+00	4.721625e-07	
88	-4.40000e+00	4.743238e-07	
89	-4.45000e+00	4.764952e-07	
90	-4.50000e+00	4.786779e-07	
91	-4.55000e+00	4.808733e-07	
92	-4.60000e+00	4.830831e-07	
93	-4.65000e+00	4.853088e-07	
94	-4.70000e+00	4.875522e-07	
95	-4.75000e+00	4.898153e-07	
96	-4.80000e+00	4.921002e-07	
97	-4.85000e+00	4.944089e-07	
98	-4.90000e+00	4.967440e-07	
99	-4.95000e+00	4.991079e-07	
100	-5.00000e+00	5.015034e-07	
101	-5.05000e+00	5.039333e-07	
102	-5.10000e+00	5.064006e-07	
103	-5.15000e+00	5.089088e-07	
104	-5.20000e+00	5.114611e-07	
105	-5.25000e+00	5.140612e-07	
106	-5.30000e+00	5.167130e-07	
107	-5.35000e+00	5.194207e-07	
108	-5.40000e+00	5.221883e-07	
109	-5.45000e+00	5.250206e-07	
110	-5.50000e+00	5.279223e-07	
111	-5.55000e+00	5.308982e-07	
112	-5.60000e+00	5.339538e-07	

Index   v-sweep         i(vds)          
--------------------------------------------------------------------------------
113	-5.65000e+00	5.370944e-07	
114	-5.70000e+00	5.403258e-07	
115	-5.75000e+00	5.436541e-07	
116	-5.80000e+00	5.470854e-07	
117	-5.85000e+00	5.506264e-07	
118	-5.90000e+00	5.542837e-07	
119	-5.95000e+00	5.580646e-07	
120	-6.00000e+00	5.619763e-07	
121	-6.05000e+00	5.660266e-07	
122	-6.10000e+00	5.702233e-07	
123	-6.15000e+00	5.745747e-07	
124	-6.20000e+00	5.790893e-07	
125	-6.25000e+00	5.837760e-07	
126	-6.30000e+00	5.886438e-07	
127	-6.35000e+00	5.937023e-07	
128	-6.40000e+00	5.989611e-07	
129	-6.45000e+00	6.044302e-07	
130	-6.50000e+00	6.101201e-07	
131	-6.55000e+00	6.160414e-07	
132	-6.60000e+00	6.222051e-07	
133	0.000000e+00	-1.30833e-22	
134	-5.00000e-02	1.099396e-06	
135	-1.00000e-01	2.126306e-06	
136	-1.50000e-01	3.081932e-06	
137	-2.00000e-01	3.967462e-06	
138	-2.50000e-01	4.784075e-06	
139	-3.00000e-01	5.532943e-06	
140	-3.50000e-01	6.215237e-06	
141	-4.00000e-01	6.832137e-06	
142	-4.50000e-01	7.384851e-06	
143	-5.00000e-01	7.874650e-06	
144	-5.50000e-01	8.302943e-06	
145	-6.00000e-01	8.671422e-06	
146	-6.50000e-01	8.982375e-06	
147	-7.00000e-01	9.239297e-06	
148	-7.50000e-01	9.447845e-06	
149	-8.00000e-01	9.616501e-06	
150	-8.50000e-01	9.755466e-06	
151	-9.00000e-01	9.873901e-06	
152	-9.50000e-01	9.978202e-06	
153	-1.00000e+00	1.007229e-05	
154	-1.05000e+00	1.015856e-05	
155	-1.10000e+00	1.023853e-05	
156	-1.15000e+00	1.031327e-05	
157	-1.20000e+00	1.038355e-05	
158	-1.25000e+00	1.044997e-05	
159	-1.30000e+00	1.051301e-05	
160	-1.35000e+00	1.057305e-05	
161	-1.40000e+00	1.063041e-05	
162	-1.45000e+00	1.068537e-05	
163	-1.50000e+00	1.073815e-05	
164	-1.55000e+00	1.078896e-05	
165	-1.60000e+00	1.083796e-05	
166	-1.65000e+00	1.088531e-05	
167	-1.70000e+00	1.093113e-05	
168	-1.75000e+00	1.097555e-05	
169	-1.80000e+00	1.101867e-05	
170	-1.85000e+00	1.106057e-05	

Index   v-sweep         i(vds)          
--------------------------------------------------------------------------------
171	-1.90000e+00	1.110136e-05	
172	-1.95000e+00	1.114109e-05	
173	-2.00000e+00	1.117983e-05	
174	-2.05000e+00	1.121766e-05	
175	-2.10000e+00	1.125462e-05	
176	-2.15000e+00	1.129076e-05	
177	-2.20000e+00	1.132614e-05	
178	-2.25000e+00	1.136079e-05	
179	-2.30000e+00	1.139476e-05	
180	-2.35000e+00	1.142808e-05	
181	-2.40000e+00	1.146078e-05	
182	-2.45000e+00	1.149289e-05	
183	-2.50000e+00	1.152445e-05	
184	-2.55000e+00	1.155548e-05	
185	-2.60000e+00	1.158601e-05	
186	-2.65000e+00	1.161605e-05	
187	-2.70000e+00	1.164563e-05	
188	-2.75000e+00	1.167477e-05	
189	-2.80000e+00	1.170350e-05	
190	-2.85000e+00	1.173181e-05	
191	-2.90000e+00	1.175975e-05	
192	-2.95000e+00	1.178731e-05	
193	-3.00000e+00	1.181451e-05	
194	-3.05000e+00	1.184138e-05	
195	-3.10000e+00	1.186791e-05	
196	-3.15000e+00	1.189413e-05	
197	-3.20000e+00	1.192005e-05	
198	-3.25000e+00	1.194567e-05	
199	-3.30000e+00	1.197100e-05	
200	-3.35000e+00	1.199607e-05	
201	-3.40000e+00	1.202087e-05	
202	-3.45000e+00	1.204542e-05	
203	-3.50000e+00	1.206972e-05	
204	-3.55000e+00	1.209378e-05	
205	-3.60000e+00	1.211761e-05	
206	-3.65000e+00	1.214123e-05	
207	-3.70000e+00	1.216463e-05	
208	-3.75000e+00	1.218782e-05	
209	-3.80000e+00	1.221081e-05	
210	-3.85000e+00	1.223362e-05	
211	-3.90000e+00	1.225623e-05	
212	-3.95000e+00	1.227867e-05	
213	-4.00000e+00	1.230094e-05	
214	-4.05000e+00	1.232304e-05	
215	-4.10000e+00	1.234498e-05	
216	-4.15000e+00	1.236678e-05	
217	-4.20000e+00	1.238843e-05	
218	-4.25000e+00	1.240995e-05	
219	-4.30000e+00	1.243135e-05	
220	-4.35000e+00	1.245263e-05	
221	-4.40000e+00	1.247381e-05	
222	-4.45000e+00	1.249489e-05	
223	-4.50000e+00	1.251588e-05	
224	-4.55000e+00	1.253681e-05	
225	-4.60000e+00	1.255768e-05	
226	-4.65000e+00	1.257850e-05	
227	-4.70000e+00	1.259930e-05	
228	-4.75000e+00	1.262009e-05	

Index   v-sweep         i(vds)          
--------------------------------------------------------------------------------
229	-4.80000e+00	1.264089e-05	
230	-4.85000e+00	1.266171e-05	
231	-4.90000e+00	1.268259e-05	
232	-4.95000e+00	1.270354e-05	
233	-5.00000e+00	1.272459e-05	
234	-5.05000e+00	1.274577e-05	
235	-5.10000e+00	1.276711e-05	
236	-5.15000e+00	1.278864e-05	
237	-5.20000e+00	1.281040e-05	
238	-5.25000e+00	1.283242e-05	
239	-5.30000e+00	1.285475e-05	
240	-5.35000e+00	1.287743e-05	
241	-5.40000e+00	1.290051e-05	
242	-5.45000e+00	1.292403e-05	
243	-5.50000e+00	1.294806e-05	
244	-5.55000e+00	1.297264e-05	
245	-5.60000e+00	1.299784e-05	
246	-5.65000e+00	1.302372e-05	
247	-5.70000e+00	1.305035e-05	
248	-5.75000e+00	1.307781e-05	
249	-5.80000e+00	1.310616e-05	
250	-5.85000e+00	1.313549e-05	
251	-5.90000e+00	1.316589e-05	
252	-5.95000e+00	1.319743e-05	
253	-6.00000e+00	1.323022e-05	
254	-6.05000e+00	1.326436e-05	
255	-6.10000e+00	1.329994e-05	
256	-6.15000e+00	1.333707e-05	
257	-6.20000e+00	1.337587e-05	
258	-6.25000e+00	1.341645e-05	
259	-6.30000e+00	1.345894e-05	
260	-6.35000e+00	1.350345e-05	
261	-6.40000e+00	1.355012e-05	
262	-6.45000e+00	1.359910e-05	
263	-6.50000e+00	1.365051e-05	
264	-6.55000e+00	1.370451e-05	
265	-6.60000e+00	1.376125e-05	
266	0.000000e+00	7.334248e-38	
267	-5.00000e-02	1.791996e-06	
268	-1.00000e-01	3.515979e-06	
269	-1.50000e-01	5.172770e-06	
270	-2.00000e-01	6.763185e-06	
271	-2.50000e-01	8.288034e-06	
272	-3.00000e-01	9.748119e-06	
273	-3.50000e-01	1.114424e-05	
274	-4.00000e-01	1.247719e-05	
275	-4.50000e-01	1.374775e-05	
276	-5.00000e-01	1.495670e-05	
277	-5.50000e-01	1.610482e-05	
278	-6.00000e-01	1.719288e-05	
279	-6.50000e-01	1.822165e-05	
280	-7.00000e-01	1.919188e-05	
281	-7.50000e-01	2.010435e-05	
282	-8.00000e-01	2.095981e-05	
283	-8.50000e-01	2.175904e-05	
284	-9.00000e-01	2.250283e-05	
285	-9.50000e-01	2.319197e-05	
286	-1.00000e+00	2.382733e-05	

Index   v-sweep         i(vds)          
--------------------------------------------------------------------------------
287	-1.05000e+00	2.440983e-05	
288	-1.10000e+00	2.494054e-05	
289	-1.15000e+00	2.542078e-05	
290	-1.20000e+00	2.585226e-05	
291	-1.25000e+00	2.623742e-05	
292	-1.30000e+00	2.657963e-05	
293	-1.35000e+00	2.688342e-05	
294	-1.40000e+00	2.715412e-05	
295	-1.45000e+00	2.739715e-05	
296	-1.50000e+00	2.761733e-05	
297	-1.55000e+00	2.781863e-05	
298	-1.60000e+00	2.800415e-05	
299	-1.65000e+00	2.817634e-05	
300	-1.70000e+00	2.833713e-05	
301	-1.75000e+00	2.848805e-05	
302	-1.80000e+00	2.863036e-05	
303	-1.85000e+00	2.876508e-05	
304	-1.90000e+00	2.889306e-05	
305	-1.95000e+00	2.901502e-05	
306	-2.00000e+00	2.913157e-05	
307	-2.05000e+00	2.924324e-05	
308	-2.10000e+00	2.935048e-05	
309	-2.15000e+00	2.945367e-05	
310	-2.20000e+00	2.955315e-05	
311	-2.25000e+00	2.964923e-05	
312	-2.30000e+00	2.974218e-05	
313	-2.35000e+00	2.983222e-05	
314	-2.40000e+00	2.991958e-05	
315	-2.45000e+00	3.000443e-05	
316	-2.50000e+00	3.008694e-05	
317	-2.55000e+00	3.016728e-05	
318	-2.60000e+00	3.024557e-05	
319	-2.65000e+00	3.032195e-05	
320	-2.70000e+00	3.039652e-05	
321	-2.75000e+00	3.046940e-05	
322	-2.80000e+00	3.054067e-05	
323	-2.85000e+00	3.061044e-05	
324	-2.90000e+00	3.067877e-05	
325	-2.95000e+00	3.074574e-05	
326	-3.00000e+00	3.081142e-05	
327	-3.05000e+00	3.087588e-05	
328	-3.10000e+00	3.093917e-05	
329	-3.15000e+00	3.100136e-05	
330	-3.20000e+00	3.106248e-05	
331	-3.25000e+00	3.112260e-05	
332	-3.30000e+00	3.118174e-05	
333	-3.35000e+00	3.123997e-05	
334	-3.40000e+00	3.129731e-05	
335	-3.45000e+00	3.135380e-05	
336	-3.50000e+00	3.140948e-05	
337	-3.55000e+00	3.146438e-05	
338	-3.60000e+00	3.151852e-05	
339	-3.65000e+00	3.157195e-05	
340	-3.70000e+00	3.162469e-05	
341	-3.75000e+00	3.167675e-05	
342	-3.80000e+00	3.172817e-05	
343	-3.85000e+00	3.177898e-05	
344	-3.90000e+00	3.182918e-05	

Index   v-sweep         i(vds)          
--------------------------------------------------------------------------------
345	-3.95000e+00	3.187881e-05	
346	-4.00000e+00	3.192788e-05	
347	-4.05000e+00	3.197641e-05	
348	-4.10000e+00	3.202443e-05	
349	-4.15000e+00	3.207194e-05	
350	-4.20000e+00	3.211897e-05	
351	-4.25000e+00	3.216553e-05	
352	-4.30000e+00	3.221164e-05	
353	-4.35000e+00	3.225731e-05	
354	-4.40000e+00	3.230256e-05	
355	-4.45000e+00	3.234741e-05	
356	-4.50000e+00	3.239187e-05	
357	-4.55000e+00	3.243596e-05	
358	-4.60000e+00	3.247969e-05	
359	-4.65000e+00	3.252308e-05	
360	-4.70000e+00	3.256615e-05	
361	-4.75000e+00	3.260892e-05	
362	-4.80000e+00	3.265141e-05	
363	-4.85000e+00	3.269363e-05	
364	-4.90000e+00	3.273561e-05	
365	-4.95000e+00	3.277738e-05	
366	-5.00000e+00	3.281895e-05	
367	-5.05000e+00	3.286036e-05	
368	-5.10000e+00	3.290164e-05	
369	-5.15000e+00	3.294283e-05	
370	-5.20000e+00	3.298394e-05	
371	-5.25000e+00	3.302504e-05	
372	-5.30000e+00	3.306616e-05	
373	-5.35000e+00	3.310734e-05	
374	-5.40000e+00	3.314864e-05	
375	-5.45000e+00	3.319011e-05	
376	-5.50000e+00	3.323182e-05	
377	-5.55000e+00	3.327383e-05	
378	-5.60000e+00	3.331621e-05	
379	-5.65000e+00	3.335904e-05	
380	-5.70000e+00	3.340240e-05	
381	-5.75000e+00	3.344638e-05	
382	-5.80000e+00	3.349108e-05	
383	-5.85000e+00	3.353660e-05	
384	-5.90000e+00	3.358306e-05	
385	-5.95000e+00	3.363056e-05	
386	-6.00000e+00	3.367925e-05	
387	-6.05000e+00	3.372926e-05	
388	-6.10000e+00	3.378072e-05	
389	-6.15000e+00	3.383380e-05	
390	-6.20000e+00	3.388865e-05	
391	-6.25000e+00	3.394546e-05	
392	-6.30000e+00	3.400440e-05	
393	-6.35000e+00	3.406566e-05	
394	-6.40000e+00	3.412945e-05	
395	-6.45000e+00	3.419599e-05	
396	-6.50000e+00	3.426549e-05	
397	-6.55000e+00	3.433820e-05	
398	-6.60000e+00	3.441435e-05	
399	0.000000e+00	-4.28948e-37	
400	-5.00000e-02	2.325408e-06	
401	-1.00000e-01	4.588075e-06	
402	-1.50000e-01	6.788585e-06	

Index   v-sweep         i(vds)          
--------------------------------------------------------------------------------
403	-2.00000e-01	8.927520e-06	
404	-2.50000e-01	1.100546e-05	
405	-3.00000e-01	1.302298e-05	
406	-3.50000e-01	1.498066e-05	
407	-4.00000e-01	1.687907e-05	
408	-4.50000e-01	1.871878e-05	
409	-5.00000e-01	2.050036e-05	
410	-5.50000e-01	2.222437e-05	
411	-6.00000e-01	2.389138e-05	
412	-6.50000e-01	2.550193e-05	
413	-7.00000e-01	2.705660e-05	
414	-7.50000e-01	2.855593e-05	
415	-8.00000e-01	3.000047e-05	
416	-8.50000e-01	3.139078e-05	
417	-9.00000e-01	3.272739e-05	
418	-9.50000e-01	3.401085e-05	
419	-1.00000e+00	3.524169e-05	
420	-1.05000e+00	3.642046e-05	
421	-1.10000e+00	3.754769e-05	
422	-1.15000e+00	3.862392e-05	
423	-1.20000e+00	3.964968e-05	
424	-1.25000e+00	4.062551e-05	
425	-1.30000e+00	4.155195e-05	
426	-1.35000e+00	4.242953e-05	
427	-1.40000e+00	4.325881e-05	
428	-1.45000e+00	4.404036e-05	
429	-1.50000e+00	4.477476e-05	
430	-1.55000e+00	4.546264e-05	
431	-1.60000e+00	4.610467e-05	
432	-1.65000e+00	4.670163e-05	
433	-1.70000e+00	4.725446e-05	
434	-1.75000e+00	4.776434e-05	
435	-1.80000e+00	4.823285e-05	
436	-1.85000e+00	4.866213e-05	
437	-1.90000e+00	4.905496e-05	
438	-1.95000e+00	4.941467e-05	
439	-2.00000e+00	4.974487e-05	
440	-2.05000e+00	5.004917e-05	
441	-2.10000e+00	5.033088e-05	
442	-2.15000e+00	5.059293e-05	
443	-2.20000e+00	5.083784e-05	
444	-2.25000e+00	5.106773e-05	
445	-2.30000e+00	5.128442e-05	
446	-2.35000e+00	5.148941e-05	
447	-2.40000e+00	5.168399e-05	
448	-2.45000e+00	5.186926e-05	
449	-2.50000e+00	5.204616e-05	
450	-2.55000e+00	5.221548e-05	
451	-2.60000e+00	5.237793e-05	
452	-2.65000e+00	5.253412e-05	
453	-2.70000e+00	5.268458e-05	
454	-2.75000e+00	5.282977e-05	
455	-2.80000e+00	5.297012e-05	
456	-2.85000e+00	5.310598e-05	
457	-2.90000e+00	5.323769e-05	
458	-2.95000e+00	5.336554e-05	
459	-3.00000e+00	5.348979e-05	
460	-3.05000e+00	5.361069e-05	

Index   v-sweep         i(vds)          
--------------------------------------------------------------------------------
461	-3.10000e+00	5.372844e-05	
462	-3.15000e+00	5.384325e-05	
463	-3.20000e+00	5.395528e-05	
464	-3.25000e+00	5.406471e-05	
465	-3.30000e+00	5.417168e-05	
466	-3.35000e+00	5.427633e-05	
467	-3.40000e+00	5.437879e-05	
468	-3.45000e+00	5.447916e-05	
469	-3.50000e+00	5.457756e-05	
470	-3.55000e+00	5.467408e-05	
471	-3.60000e+00	5.476883e-05	
472	-3.65000e+00	5.486187e-05	
473	-3.70000e+00	5.495330e-05	
474	-3.75000e+00	5.504318e-05	
475	-3.80000e+00	5.513159e-05	
476	-3.85000e+00	5.521858e-05	
477	-3.90000e+00	5.530423e-05	
478	-3.95000e+00	5.538858e-05	
479	-4.00000e+00	5.547169e-05	
480	-4.05000e+00	5.555361e-05	
481	-4.10000e+00	5.563438e-05	
482	-4.15000e+00	5.571406e-05	
483	-4.20000e+00	5.579268e-05	
484	-4.25000e+00	5.587029e-05	
485	-4.30000e+00	5.594691e-05	
486	-4.35000e+00	5.602259e-05	
487	-4.40000e+00	5.609736e-05	
488	-4.45000e+00	5.617125e-05	
489	-4.50000e+00	5.624430e-05	
490	-4.55000e+00	5.631652e-05	
491	-4.60000e+00	5.638796e-05	
492	-4.65000e+00	5.645863e-05	
493	-4.70000e+00	5.652857e-05	
494	-4.75000e+00	5.659780e-05	
495	-4.80000e+00	5.666634e-05	
496	-4.85000e+00	5.673422e-05	
497	-4.90000e+00	5.680146e-05	
498	-4.95000e+00	5.686809e-05	
499	-5.00000e+00	5.693413e-05	
500	-5.05000e+00	5.699961e-05	
501	-5.10000e+00	5.706456e-05	
502	-5.15000e+00	5.712899e-05	
503	-5.20000e+00	5.719294e-05	
504	-5.25000e+00	5.725644e-05	
505	-5.30000e+00	5.731952e-05	
506	-5.35000e+00	5.738221e-05	
507	-5.40000e+00	5.744455e-05	
508	-5.45000e+00	5.750658e-05	
509	-5.50000e+00	5.756834e-05	
510	-5.55000e+00	5.762987e-05	
511	-5.60000e+00	5.769123e-05	
512	-5.65000e+00	5.775247e-05	
513	-5.70000e+00	5.781366e-05	
514	-5.75000e+00	5.787485e-05	
515	-5.80000e+00	5.793612e-05	
516	-5.85000e+00	5.799756e-05	
517	-5.90000e+00	5.805924e-05	
518	-5.95000e+00	5.812125e-05	

Index   v-sweep         i(vds)          
--------------------------------------------------------------------------------
519	-6.00000e+00	5.818371e-05	
520	-6.05000e+00	5.824672e-05	
521	-6.10000e+00	5.831040e-05	
522	-6.15000e+00	5.837488e-05	
523	-6.20000e+00	5.844031e-05	
524	-6.25000e+00	5.850683e-05	
525	-6.30000e+00	5.857462e-05	
526	-6.35000e+00	5.864384e-05	
527	-6.40000e+00	5.871468e-05	
528	-6.45000e+00	5.878735e-05	
529	-6.50000e+00	5.886207e-05	
530	-6.55000e+00	5.893906e-05	
531	-6.60000e+00	5.901857e-05	
532	0.000000e+00	-1.39914e-37	
533	-5.00000e-02	2.758635e-06	
534	-1.00000e-01	5.459435e-06	
535	-1.50000e-01	8.102830e-06	
536	-2.00000e-01	1.068925e-05	
537	-2.50000e-01	1.321912e-05	
538	-3.00000e-01	1.569287e-05	
539	-3.50000e-01	1.811092e-05	
540	-4.00000e-01	2.047371e-05	
541	-4.50000e-01	2.278165e-05	
542	-5.00000e-01	2.503517e-05	
543	-5.50000e-01	2.723470e-05	
544	-6.00000e-01	2.938066e-05	
545	-6.50000e-01	3.147346e-05	
546	-7.00000e-01	3.351353e-05	
547	-7.50000e-01	3.550128e-05	
548	-8.00000e-01	3.743714e-05	
549	-8.50000e-01	3.932152e-05	
550	-9.00000e-01	4.115482e-05	
551	-9.50000e-01	4.293747e-05	
552	-1.00000e+00	4.466988e-05	
553	-1.05000e+00	4.635245e-05	
554	-1.10000e+00	4.798560e-05	
555	-1.15000e+00	4.956973e-05	
556	-1.20000e+00	5.110524e-05	
557	-1.25000e+00	5.259253e-05	
558	-1.30000e+00	5.403202e-05	
559	-1.35000e+00	5.542410e-05	
560	-1.40000e+00	5.676917e-05	
561	-1.45000e+00	5.806762e-05	
562	-1.50000e+00	5.931986e-05	
563	-1.55000e+00	6.052628e-05	
564	-1.60000e+00	6.168726e-05	
565	-1.65000e+00	6.280321e-05	
566	-1.70000e+00	6.387450e-05	
567	-1.75000e+00	6.490154e-05	
568	-1.80000e+00	6.588471e-05	
569	-1.85000e+00	6.682438e-05	
570	-1.90000e+00	6.772095e-05	
571	-1.95000e+00	6.857476e-05	
572	-2.00000e+00	6.938620e-05	
573	-2.05000e+00	7.015558e-05	
574	-2.10000e+00	7.088324e-05	
575	-2.15000e+00	7.156944e-05	
576	-2.20000e+00	7.221446e-05	

Index   v-sweep         i(vds)          
--------------------------------------------------------------------------------
577	-2.25000e+00	7.281862e-05	
578	-2.30000e+00	7.338242e-05	
579	-2.35000e+00	7.390674e-05	
580	-2.40000e+00	7.439310e-05	
581	-2.45000e+00	7.484373e-05	
582	-2.50000e+00	7.526142e-05	
583	-2.55000e+00	7.564931e-05	
584	-2.60000e+00	7.601055e-05	
585	-2.65000e+00	7.634811e-05	
586	-2.70000e+00	7.666470e-05	
587	-2.75000e+00	7.696269e-05	
588	-2.80000e+00	7.724416e-05	
589	-2.85000e+00	7.751089e-05	
590	-2.90000e+00	7.776444e-05	
591	-2.95000e+00	7.800612e-05	
592	-3.00000e+00	7.823710e-05	
593	-3.05000e+00	7.845837e-05	
594	-3.10000e+00	7.867081e-05	
595	-3.15000e+00	7.887519e-05	
596	-3.20000e+00	7.907216e-05	
597	-3.25000e+00	7.926234e-05	
598	-3.30000e+00	7.944625e-05	
599	-3.35000e+00	7.962435e-05	
600	-3.40000e+00	7.979706e-05	
601	-3.45000e+00	7.996477e-05	
602	-3.50000e+00	8.012781e-05	
603	-3.55000e+00	8.028648e-05	
604	-3.60000e+00	8.044107e-05	
605	-3.65000e+00	8.059182e-05	
606	-3.70000e+00	8.073897e-05	
607	-3.75000e+00	8.088273e-05	
608	-3.80000e+00	8.102329e-05	
609	-3.85000e+00	8.116082e-05	
610	-3.90000e+00	8.129548e-05	
611	-3.95000e+00	8.142744e-05	
612	-4.00000e+00	8.155682e-05	
613	-4.05000e+00	8.168376e-05	
614	-4.10000e+00	8.180837e-05	
615	-4.15000e+00	8.193076e-05	
616	-4.20000e+00	8.205104e-05	
617	-4.25000e+00	8.216931e-05	
618	-4.30000e+00	8.228564e-05	
619	-4.35000e+00	8.240014e-05	
620	-4.40000e+00	8.251287e-05	
621	-4.45000e+00	8.262391e-05	
622	-4.50000e+00	8.273333e-05	
623	-4.55000e+00	8.284119e-05	
624	-4.60000e+00	8.294756e-05	
625	-4.65000e+00	8.305249e-05	
626	-4.70000e+00	8.315604e-05	
627	-4.75000e+00	8.325826e-05	
628	-4.80000e+00	8.335920e-05	
629	-4.85000e+00	8.345891e-05	
630	-4.90000e+00	8.355742e-05	
631	-4.95000e+00	8.365478e-05	
632	-5.00000e+00	8.375104e-05	
633	-5.05000e+00	8.384623e-05	
634	-5.10000e+00	8.394038e-05	

Index   v-sweep         i(vds)          
--------------------------------------------------------------------------------
635	-5.15000e+00	8.403354e-05	
636	-5.20000e+00	8.412573e-05	
637	-5.25000e+00	8.421699e-05	
638	-5.30000e+00	8.430736e-05	
639	-5.35000e+00	8.439687e-05	
640	-5.40000e+00	8.448555e-05	
641	-5.45000e+00	8.457343e-05	
642	-5.50000e+00	8.466055e-05	
643	-5.55000e+00	8.474694e-05	
644	-5.60000e+00	8.483264e-05	
645	-5.65000e+00	8.491768e-05	
646	-5.70000e+00	8.500211e-05	
647	-5.75000e+00	8.508596e-05	
648	-5.80000e+00	8.516928e-05	
649	-5.85000e+00	8.525212e-05	
650	-5.90000e+00	8.533453e-05	
651	-5.95000e+00	8.541657e-05	
652	-6.00000e+00	8.549830e-05	
653	-6.05000e+00	8.557978e-05	
654	-6.10000e+00	8.566110e-05	
655	-6.15000e+00	8.574232e-05	
656	-6.20000e+00	8.582354e-05	
657	-6.25000e+00	8.590487e-05	
658	-6.30000e+00	8.598639e-05	
659	-6.35000e+00	8.606824e-05	
660	-6.40000e+00	8.615053e-05	
661	-6.45000e+00	8.623342e-05	
662	-6.50000e+00	8.631704e-05	
663	-6.55000e+00	8.640156e-05	
664	-6.60000e+00	8.648717e-05	
665	0.000000e+00	-1.58135e-20	
666	-5.00000e-02	3.124325e-06	
667	-1.00000e-01	6.195156e-06	
668	-1.50000e-01	9.212817e-06	
669	-2.00000e-01	1.217763e-05	
670	-2.50000e-01	1.508992e-05	
671	-3.00000e-01	1.795002e-05	
672	-3.50000e-01	2.075824e-05	
673	-4.00000e-01	2.351492e-05	
674	-4.50000e-01	2.622037e-05	
675	-5.00000e-01	2.887493e-05	
676	-5.50000e-01	3.147891e-05	
677	-6.00000e-01	3.403264e-05	
678	-6.50000e-01	3.653644e-05	
679	-7.00000e-01	3.899065e-05	
680	-7.50000e-01	4.139557e-05	
681	-8.00000e-01	4.375153e-05	
682	-8.50000e-01	4.605886e-05	
683	-9.00000e-01	4.831787e-05	
684	-9.50000e-01	5.052889e-05	
685	-1.00000e+00	5.269223e-05	
686	-1.05000e+00	5.480822e-05	
687	-1.10000e+00	5.687717e-05	
688	-1.15000e+00	5.889941e-05	
689	-1.20000e+00	6.087524e-05	
690	-1.25000e+00	6.280499e-05	
691	-1.30000e+00	6.468897e-05	
692	-1.35000e+00	6.652750e-05	

Index   v-sweep         i(vds)          
--------------------------------------------------------------------------------
693	-1.40000e+00	6.832088e-05	
694	-1.45000e+00	7.006944e-05	
695	-1.50000e+00	7.177349e-05	
696	-1.55000e+00	7.343333e-05	
697	-1.60000e+00	7.504927e-05	
698	-1.65000e+00	7.662163e-05	
699	-1.70000e+00	7.815072e-05	
700	-1.75000e+00	7.963683e-05	
701	-1.80000e+00	8.108029e-05	
702	-1.85000e+00	8.248138e-05	
703	-1.90000e+00	8.384042e-05	
704	-1.95000e+00	8.515770e-05	
705	-2.00000e+00	8.643353e-05	
706	-2.05000e+00	8.766820e-05	
707	-2.10000e+00	8.886201e-05	
708	-2.15000e+00	9.001525e-05	
709	-2.20000e+00	9.112819e-05	
710	-2.25000e+00	9.220111e-05	
711	-2.30000e+00	9.323428e-05	
712	-2.35000e+00	9.422793e-05	
713	-2.40000e+00	9.518228e-05	
714	-2.45000e+00	9.609750e-05	
715	-2.50000e+00	9.697369e-05	
716	-2.55000e+00	9.781088e-05	
717	-2.60000e+00	9.860896e-05	
718	-2.65000e+00	9.936771e-05	
719	-2.70000e+00	1.000868e-04	
720	-2.75000e+00	1.007658e-04	
721	-2.80000e+00	1.014045e-04	
722	-2.85000e+00	1.020032e-04	
723	-2.90000e+00	1.025629e-04	
724	-2.95000e+00	1.030853e-04	
725	-3.00000e+00	1.035729e-04	
726	-3.05000e+00	1.040285e-04	
727	-3.10000e+00	1.044551e-04	
728	-3.15000e+00	1.048557e-04	
729	-3.20000e+00	1.052329e-04	
730	-3.25000e+00	1.055892e-04	
731	-3.30000e+00	1.059268e-04	
732	-3.35000e+00	1.062476e-04	
733	-3.40000e+00	1.065531e-04	
734	-3.45000e+00	1.068450e-04	
735	-3.50000e+00	1.071244e-04	
736	-3.55000e+00	1.073925e-04	
737	-3.60000e+00	1.076503e-04	
738	-3.65000e+00	1.078986e-04	
739	-3.70000e+00	1.081382e-04	
740	-3.75000e+00	1.083698e-04	
741	-3.80000e+00	1.085940e-04	
742	-3.85000e+00	1.088112e-04	
743	-3.90000e+00	1.090221e-04	
744	-3.95000e+00	1.092271e-04	
745	-4.00000e+00	1.094264e-04	
746	-4.05000e+00	1.096206e-04	
747	-4.10000e+00	1.098099e-04	
748	-4.15000e+00	1.099946e-04	
749	-4.20000e+00	1.101750e-04	
750	-4.25000e+00	1.103513e-04	

Index   v-sweep         i(vds)          
--------------------------------------------------------------------------------
751	-4.30000e+00	1.105238e-04	
752	-4.35000e+00	1.106927e-04	
753	-4.40000e+00	1.108581e-04	
754	-4.45000e+00	1.110203e-04	
755	-4.50000e+00	1.111794e-04	
756	-4.55000e+00	1.113355e-04	
757	-4.60000e+00	1.114888e-04	
758	-4.65000e+00	1.116395e-04	
759	-4.70000e+00	1.117876e-04	
760	-4.75000e+00	1.119333e-04	
761	-4.80000e+00	1.120766e-04	
762	-4.85000e+00	1.122177e-04	
763	-4.90000e+00	1.123567e-04	
764	-4.95000e+00	1.124937e-04	
765	-5.00000e+00	1.126287e-04	
766	-5.05000e+00	1.127618e-04	
767	-5.10000e+00	1.128931e-04	
768	-5.15000e+00	1.130226e-04	
769	-5.20000e+00	1.131505e-04	
770	-5.25000e+00	1.132768e-04	
771	-5.30000e+00	1.134015e-04	
772	-5.35000e+00	1.135248e-04	
773	-5.40000e+00	1.136465e-04	
774	-5.45000e+00	1.137669e-04	
775	-5.50000e+00	1.138860e-04	
776	-5.55000e+00	1.140037e-04	
777	-5.60000e+00	1.141202e-04	
778	-5.65000e+00	1.142355e-04	
779	-5.70000e+00	1.143497e-04	
780	-5.75000e+00	1.144627e-04	
781	-5.80000e+00	1.145746e-04	
782	-5.85000e+00	1.146854e-04	
783	-5.90000e+00	1.147953e-04	
784	-5.95000e+00	1.149042e-04	
785	-6.00000e+00	1.150122e-04	
786	-6.05000e+00	1.151194e-04	
787	-6.10000e+00	1.152257e-04	
788	-6.15000e+00	1.153312e-04	
789	-6.20000e+00	1.154360e-04	
790	-6.25000e+00	1.155401e-04	
791	-6.30000e+00	1.156437e-04	
792	-6.35000e+00	1.157466e-04	
793	-6.40000e+00	1.158491e-04	
794	-6.45000e+00	1.159513e-04	
795	-6.50000e+00	1.160531e-04	
796	-6.55000e+00	1.161546e-04	
797	-6.60000e+00	1.162561e-04	
Note: No ".plot", ".print", or ".fourier" lines; no simulations run
