
Note: Compatibility modes selected: hs

Warning: m=xx on .subckt line will override multiplier m hierarchy!


Circuit: ***************************

Doing analysis at TEMP = -40.000000 and TNOM = -40.000000


No. of Data Rows : 798
                          ***************************
                          DC transfer characteristic  Mon Jan  9 13:58:50  2023
--------------------------------------------------------------------------------
Index   v-sweep         i(vds)          
--------------------------------------------------------------------------------
0	0.000000e+00	9.541424e-23	
1	-5.00000e-02	2.304807e-07	
2	-1.00000e-01	3.231118e-07	
3	-1.50000e-01	3.481151e-07	
4	-2.00000e-01	3.581617e-07	
5	-2.50000e-01	3.651650e-07	
6	-3.00000e-01	3.711422e-07	
7	-3.50000e-01	3.765945e-07	
8	-4.00000e-01	3.817061e-07	
9	-4.50000e-01	3.865667e-07	
10	-5.00000e-01	3.912295e-07	
11	-5.50000e-01	3.957302e-07	
12	-6.00000e-01	4.000945e-07	
13	-6.50000e-01	4.043422e-07	
14	-7.00000e-01	4.084890e-07	
15	-7.50000e-01	4.125475e-07	
16	-8.00000e-01	4.165282e-07	
17	-8.50000e-01	4.204399e-07	
18	-9.00000e-01	4.242902e-07	
19	-9.50000e-01	4.280855e-07	
20	-1.00000e+00	4.318314e-07	
21	-1.05000e+00	4.355327e-07	
22	-1.10000e+00	4.391938e-07	
23	-1.15000e+00	4.428184e-07	
24	-1.20000e+00	4.464098e-07	
25	-1.25000e+00	4.499711e-07	
26	-1.30000e+00	4.535049e-07	
27	-1.35000e+00	4.570137e-07	
28	-1.40000e+00	4.604996e-07	
29	-1.45000e+00	4.639647e-07	
30	-1.50000e+00	4.674106e-07	
31	-1.55000e+00	4.708391e-07	
32	-1.60000e+00	4.742516e-07	
33	-1.65000e+00	4.776495e-07	
34	-1.70000e+00	4.810341e-07	
35	-1.75000e+00	4.844065e-07	
36	-1.80000e+00	4.877677e-07	
37	-1.85000e+00	4.911189e-07	
38	-1.90000e+00	4.944608e-07	
39	-1.95000e+00	4.977944e-07	
40	-2.00000e+00	5.011204e-07	
41	-2.05000e+00	5.044396e-07	
42	-2.10000e+00	5.077526e-07	
43	-2.15000e+00	5.110601e-07	
44	-2.20000e+00	5.143627e-07	
45	-2.25000e+00	5.176610e-07	
46	-2.30000e+00	5.209554e-07	
47	-2.35000e+00	5.242465e-07	
48	-2.40000e+00	5.275348e-07	
49	-2.45000e+00	5.308207e-07	
50	-2.50000e+00	5.341046e-07	
51	-2.55000e+00	5.373869e-07	
52	-2.60000e+00	5.406679e-07	
53	-2.65000e+00	5.439481e-07	
54	-2.70000e+00	5.472277e-07	

Index   v-sweep         i(vds)          
--------------------------------------------------------------------------------
55	-2.75000e+00	5.505072e-07	
56	-2.80000e+00	5.537867e-07	
57	-2.85000e+00	5.570666e-07	
58	-2.90000e+00	5.603472e-07	
59	-2.95000e+00	5.636288e-07	
60	-3.00000e+00	5.669116e-07	
61	-3.05000e+00	5.701959e-07	
62	-3.10000e+00	5.734820e-07	
63	-3.15000e+00	5.767701e-07	
64	-3.20000e+00	5.800606e-07	
65	-3.25000e+00	5.833537e-07	
66	-3.30000e+00	5.866497e-07	
67	-3.35000e+00	5.899489e-07	
68	-3.40000e+00	5.932516e-07	
69	-3.45000e+00	5.965583e-07	
70	-3.50000e+00	5.998692e-07	
71	-3.55000e+00	6.031848e-07	
72	-3.60000e+00	6.065056e-07	
73	-3.65000e+00	6.098319e-07	
74	-3.70000e+00	6.131645e-07	
75	-3.75000e+00	6.165038e-07	
76	-3.80000e+00	6.198504e-07	
77	-3.85000e+00	6.232053e-07	
78	-3.90000e+00	6.265690e-07	
79	-3.95000e+00	6.299426e-07	
80	-4.00000e+00	6.333270e-07	
81	-4.05000e+00	6.367232e-07	
82	-4.10000e+00	6.401325e-07	
83	-4.15000e+00	6.435561e-07	
84	-4.20000e+00	6.469955e-07	
85	-4.25000e+00	6.504523e-07	
86	-4.30000e+00	6.539282e-07	
87	-4.35000e+00	6.574249e-07	
88	-4.40000e+00	6.609447e-07	
89	-4.45000e+00	6.644897e-07	
90	-4.50000e+00	6.680622e-07	
91	-4.55000e+00	6.716649e-07	
92	-4.60000e+00	6.753007e-07	
93	-4.65000e+00	6.789725e-07	
94	-4.70000e+00	6.826836e-07	
95	-4.75000e+00	6.864375e-07	
96	-4.80000e+00	6.902379e-07	
97	-4.85000e+00	6.940890e-07	
98	-4.90000e+00	6.979949e-07	
99	-4.95000e+00	7.019604e-07	
100	-5.00000e+00	7.059902e-07	
101	-5.05000e+00	7.100895e-07	
102	-5.10000e+00	7.142640e-07	
103	-5.15000e+00	7.185193e-07	
104	-5.20000e+00	7.228618e-07	
105	-5.25000e+00	7.272978e-07	
106	-5.30000e+00	7.318345e-07	
107	-5.35000e+00	7.364789e-07	
108	-5.40000e+00	7.412387e-07	
109	-5.45000e+00	7.461220e-07	
110	-5.50000e+00	7.511373e-07	
111	-5.55000e+00	7.562933e-07	
112	-5.60000e+00	7.615993e-07	

Index   v-sweep         i(vds)          
--------------------------------------------------------------------------------
113	-5.65000e+00	7.670651e-07	
114	-5.70000e+00	7.727007e-07	
115	-5.75000e+00	7.785167e-07	
116	-5.80000e+00	7.845241e-07	
117	-5.85000e+00	7.907344e-07	
118	-5.90000e+00	7.971595e-07	
119	-5.95000e+00	8.038118e-07	
120	-6.00000e+00	8.107043e-07	
121	-6.05000e+00	8.178503e-07	
122	-6.10000e+00	8.252636e-07	
123	-6.15000e+00	8.329586e-07	
124	-6.20000e+00	8.409501e-07	
125	-6.25000e+00	8.492536e-07	
126	-6.30000e+00	8.578849e-07	
127	-6.35000e+00	8.668603e-07	
128	-6.40000e+00	8.761968e-07	
129	-6.45000e+00	8.859118e-07	
130	-6.50000e+00	8.960232e-07	
131	-6.55000e+00	9.065495e-07	
132	-6.60000e+00	9.175098e-07	
133	0.000000e+00	2.762598e-37	
134	-5.00000e-02	3.227931e-06	
135	-1.00000e-01	6.237970e-06	
136	-1.50000e-01	9.033474e-06	
137	-2.00000e-01	1.161777e-05	
138	-2.50000e-01	1.399415e-05	
139	-3.00000e-01	1.616590e-05	
140	-3.50000e-01	1.813631e-05	
141	-4.00000e-01	1.990872e-05	
142	-4.50000e-01	2.148657e-05	
143	-5.00000e-01	2.287355e-05	
144	-5.50000e-01	2.407387e-05	
145	-6.00000e-01	2.509284e-05	
146	-6.50000e-01	2.593805e-05	
147	-7.00000e-01	2.662168e-05	
148	-7.50000e-01	2.716359e-05	
149	-8.00000e-01	2.759212e-05	
150	-8.50000e-01	2.793852e-05	
151	-9.00000e-01	2.822861e-05	
152	-9.50000e-01	2.847975e-05	
153	-1.00000e+00	2.870268e-05	
154	-1.05000e+00	2.890416e-05	
155	-1.10000e+00	2.908864e-05	
156	-1.15000e+00	2.925927e-05	
157	-1.20000e+00	2.941833e-05	
158	-1.25000e+00	2.956756e-05	
159	-1.30000e+00	2.970833e-05	
160	-1.35000e+00	2.984173e-05	
161	-1.40000e+00	2.996864e-05	
162	-1.45000e+00	3.008981e-05	
163	-1.50000e+00	3.020584e-05	
164	-1.55000e+00	3.031726e-05	
165	-1.60000e+00	3.042452e-05	
166	-1.65000e+00	3.052799e-05	
167	-1.70000e+00	3.062801e-05	
168	-1.75000e+00	3.072487e-05	
169	-1.80000e+00	3.081882e-05	
170	-1.85000e+00	3.091010e-05	

Index   v-sweep         i(vds)          
--------------------------------------------------------------------------------
171	-1.90000e+00	3.099890e-05	
172	-1.95000e+00	3.108540e-05	
173	-2.00000e+00	3.116976e-05	
174	-2.05000e+00	3.125213e-05	
175	-2.10000e+00	3.133263e-05	
176	-2.15000e+00	3.141139e-05	
177	-2.20000e+00	3.148851e-05	
178	-2.25000e+00	3.156409e-05	
179	-2.30000e+00	3.163821e-05	
180	-2.35000e+00	3.171097e-05	
181	-2.40000e+00	3.178244e-05	
182	-2.45000e+00	3.185268e-05	
183	-2.50000e+00	3.192176e-05	
184	-2.55000e+00	3.198973e-05	
185	-2.60000e+00	3.205667e-05	
186	-2.65000e+00	3.212260e-05	
187	-2.70000e+00	3.218759e-05	
188	-2.75000e+00	3.225167e-05	
189	-2.80000e+00	3.231489e-05	
190	-2.85000e+00	3.237728e-05	
191	-2.90000e+00	3.243888e-05	
192	-2.95000e+00	3.249973e-05	
193	-3.00000e+00	3.255986e-05	
194	-3.05000e+00	3.261929e-05	
195	-3.10000e+00	3.267806e-05	
196	-3.15000e+00	3.273618e-05	
197	-3.20000e+00	3.279370e-05	
198	-3.25000e+00	3.285062e-05	
199	-3.30000e+00	3.290697e-05	
200	-3.35000e+00	3.296278e-05	
201	-3.40000e+00	3.301806e-05	
202	-3.45000e+00	3.307283e-05	
203	-3.50000e+00	3.312712e-05	
204	-3.55000e+00	3.318093e-05	
205	-3.60000e+00	3.323429e-05	
206	-3.65000e+00	3.328722e-05	
207	-3.70000e+00	3.333973e-05	
208	-3.75000e+00	3.339183e-05	
209	-3.80000e+00	3.344355e-05	
210	-3.85000e+00	3.349489e-05	
211	-3.90000e+00	3.354588e-05	
212	-3.95000e+00	3.359654e-05	
213	-4.00000e+00	3.364688e-05	
214	-4.05000e+00	3.369692e-05	
215	-4.10000e+00	3.374668e-05	
216	-4.15000e+00	3.379617e-05	
217	-4.20000e+00	3.384543e-05	
218	-4.25000e+00	3.389448e-05	
219	-4.30000e+00	3.394334e-05	
220	-4.35000e+00	3.399204e-05	
221	-4.40000e+00	3.404061e-05	
222	-4.45000e+00	3.408909e-05	
223	-4.50000e+00	3.413751e-05	
224	-4.55000e+00	3.418590e-05	
225	-4.60000e+00	3.423433e-05	
226	-4.65000e+00	3.428282e-05	
227	-4.70000e+00	3.433145e-05	
228	-4.75000e+00	3.438025e-05	

Index   v-sweep         i(vds)          
--------------------------------------------------------------------------------
229	-4.80000e+00	3.442931e-05	
230	-4.85000e+00	3.447867e-05	
231	-4.90000e+00	3.452843e-05	
232	-4.95000e+00	3.457865e-05	
233	-5.00000e+00	3.462944e-05	
234	-5.05000e+00	3.468087e-05	
235	-5.10000e+00	3.473306e-05	
236	-5.15000e+00	3.478612e-05	
237	-5.20000e+00	3.484015e-05	
238	-5.25000e+00	3.489530e-05	
239	-5.30000e+00	3.495170e-05	
240	-5.35000e+00	3.500950e-05	
241	-5.40000e+00	3.506884e-05	
242	-5.45000e+00	3.512991e-05	
243	-5.50000e+00	3.519286e-05	
244	-5.55000e+00	3.525790e-05	
245	-5.60000e+00	3.532523e-05	
246	-5.65000e+00	3.539505e-05	
247	-5.70000e+00	3.546758e-05	
248	-5.75000e+00	3.554307e-05	
249	-5.80000e+00	3.562176e-05	
250	-5.85000e+00	3.570391e-05	
251	-5.90000e+00	3.578980e-05	
252	-5.95000e+00	3.587971e-05	
253	-6.00000e+00	3.597395e-05	
254	-6.05000e+00	3.607282e-05	
255	-6.10000e+00	3.617666e-05	
256	-6.15000e+00	3.628581e-05	
257	-6.20000e+00	3.640062e-05	
258	-6.25000e+00	3.652148e-05	
259	-6.30000e+00	3.664875e-05	
260	-6.35000e+00	3.678285e-05	
261	-6.40000e+00	3.692418e-05	
262	-6.45000e+00	3.707319e-05	
263	-6.50000e+00	3.723030e-05	
264	-6.55000e+00	3.739598e-05	
265	-6.60000e+00	3.757071e-05	
266	0.000000e+00	4.434109e-37	
267	-5.00000e-02	5.304570e-06	
268	-1.00000e-01	1.040707e-05	
269	-1.50000e-01	1.530989e-05	
270	-2.00000e-01	2.001540e-05	
271	-2.50000e-01	2.452596e-05	
272	-3.00000e-01	2.884389e-05	
273	-3.50000e-01	3.297150e-05	
274	-4.00000e-01	3.691107e-05	
275	-4.50000e-01	4.066487e-05	
276	-5.00000e-01	4.423513e-05	
277	-5.50000e-01	4.762409e-05	
278	-6.00000e-01	5.083395e-05	
279	-6.50000e-01	5.386689e-05	
280	-7.00000e-01	5.672511e-05	
281	-7.50000e-01	5.941075e-05	
282	-8.00000e-01	6.192600e-05	
283	-8.50000e-01	6.427302e-05	
284	-9.00000e-01	6.645402e-05	
285	-9.50000e-01	6.847124e-05	
286	-1.00000e+00	7.032701e-05	

Index   v-sweep         i(vds)          
--------------------------------------------------------------------------------
287	-1.05000e+00	7.202386e-05	
288	-1.10000e+00	7.356458e-05	
289	-1.15000e+00	7.495255e-05	
290	-1.20000e+00	7.619209e-05	
291	-1.25000e+00	7.728924e-05	
292	-1.30000e+00	7.825270e-05	
293	-1.35000e+00	7.909462e-05	
294	-1.40000e+00	7.983032e-05	
295	-1.45000e+00	8.047656e-05	
296	-1.50000e+00	8.104932e-05	
297	-1.55000e+00	8.156223e-05	
298	-1.60000e+00	8.202630e-05	
299	-1.65000e+00	8.245014e-05	
300	-1.70000e+00	8.284046e-05	
301	-1.75000e+00	8.320251e-05	
302	-1.80000e+00	8.354045e-05	
303	-1.85000e+00	8.385760e-05	
304	-1.90000e+00	8.415668e-05	
305	-1.95000e+00	8.443989e-05	
306	-2.00000e+00	8.470908e-05	
307	-2.05000e+00	8.496578e-05	
308	-2.10000e+00	8.521129e-05	
309	-2.15000e+00	8.544674e-05	
310	-2.20000e+00	8.567307e-05	
311	-2.25000e+00	8.589111e-05	
312	-2.30000e+00	8.610157e-05	
313	-2.35000e+00	8.630510e-05	
314	-2.40000e+00	8.650225e-05	
315	-2.45000e+00	8.669350e-05	
316	-2.50000e+00	8.687929e-05	
317	-2.55000e+00	8.706003e-05	
318	-2.60000e+00	8.723605e-05	
319	-2.65000e+00	8.740767e-05	
320	-2.70000e+00	8.757518e-05	
321	-2.75000e+00	8.773884e-05	
322	-2.80000e+00	8.789889e-05	
323	-2.85000e+00	8.805552e-05	
324	-2.90000e+00	8.820896e-05	
325	-2.95000e+00	8.835936e-05	
326	-3.00000e+00	8.850690e-05	
327	-3.05000e+00	8.865174e-05	
328	-3.10000e+00	8.879400e-05	
329	-3.15000e+00	8.893383e-05	
330	-3.20000e+00	8.907133e-05	
331	-3.25000e+00	8.920663e-05	
332	-3.30000e+00	8.933983e-05	
333	-3.35000e+00	8.947102e-05	
334	-3.40000e+00	8.960029e-05	
335	-3.45000e+00	8.972773e-05	
336	-3.50000e+00	8.985342e-05	
337	-3.55000e+00	8.997744e-05	
338	-3.60000e+00	9.009984e-05	
339	-3.65000e+00	9.022070e-05	
340	-3.70000e+00	9.034008e-05	
341	-3.75000e+00	9.045804e-05	
342	-3.80000e+00	9.057464e-05	
343	-3.85000e+00	9.068991e-05	
344	-3.90000e+00	9.080392e-05	

Index   v-sweep         i(vds)          
--------------------------------------------------------------------------------
345	-3.95000e+00	9.091672e-05	
346	-4.00000e+00	9.102834e-05	
347	-4.05000e+00	9.113883e-05	
348	-4.10000e+00	9.124823e-05	
349	-4.15000e+00	9.135659e-05	
350	-4.20000e+00	9.146393e-05	
351	-4.25000e+00	9.157031e-05	
352	-4.30000e+00	9.167576e-05	
353	-4.35000e+00	9.178032e-05	
354	-4.40000e+00	9.188402e-05	
355	-4.45000e+00	9.198691e-05	
356	-4.50000e+00	9.208902e-05	
357	-4.55000e+00	9.219041e-05	
358	-4.60000e+00	9.229111e-05	
359	-4.65000e+00	9.239117e-05	
360	-4.70000e+00	9.249064e-05	
361	-4.75000e+00	9.258958e-05	
362	-4.80000e+00	9.268804e-05	
363	-4.85000e+00	9.278609e-05	
364	-4.90000e+00	9.288380e-05	
365	-4.95000e+00	9.298125e-05	
366	-5.00000e+00	9.307851e-05	
367	-5.05000e+00	9.317569e-05	
368	-5.10000e+00	9.327288e-05	
369	-5.15000e+00	9.337019e-05	
370	-5.20000e+00	9.346775e-05	
371	-5.25000e+00	9.356569e-05	
372	-5.30000e+00	9.366415e-05	
373	-5.35000e+00	9.376330e-05	
374	-5.40000e+00	9.386332e-05	
375	-5.45000e+00	9.396439e-05	
376	-5.50000e+00	9.406672e-05	
377	-5.55000e+00	9.417054e-05	
378	-5.60000e+00	9.427610e-05	
379	-5.65000e+00	9.438365e-05	
380	-5.70000e+00	9.449348e-05	
381	-5.75000e+00	9.460591e-05	
382	-5.80000e+00	9.472126e-05	
383	-5.85000e+00	9.483988e-05	
384	-5.90000e+00	9.496216e-05	
385	-5.95000e+00	9.508851e-05	
386	-6.00000e+00	9.521934e-05	
387	-6.05000e+00	9.535514e-05	
388	-6.10000e+00	9.549637e-05	
389	-6.15000e+00	9.564357e-05	
390	-6.20000e+00	9.579727e-05	
391	-6.25000e+00	9.595807e-05	
392	-6.30000e+00	9.612657e-05	
393	-6.35000e+00	9.630341e-05	
394	-6.40000e+00	9.648928e-05	
395	-6.45000e+00	9.668488e-05	
396	-6.50000e+00	9.689096e-05	
397	-6.55000e+00	9.710830e-05	
398	-6.60000e+00	9.733771e-05	
399	0.000000e+00	-2.49941e-36	
400	-5.00000e-02	6.821114e-06	
401	-1.00000e-01	1.345725e-05	
402	-1.50000e-01	1.991020e-05	

Index   v-sweep         i(vds)          
--------------------------------------------------------------------------------
403	-2.00000e-01	2.618175e-05	
404	-2.50000e-01	3.227365e-05	
405	-3.00000e-01	3.818767e-05	
406	-3.50000e-01	4.392554e-05	
407	-4.00000e-01	4.948899e-05	
408	-4.50000e-01	5.487973e-05	
409	-5.00000e-01	6.009947e-05	
410	-5.50000e-01	6.514990e-05	
411	-6.00000e-01	7.003268e-05	
412	-6.50000e-01	7.474949e-05	
413	-7.00000e-01	7.930196e-05	
414	-7.50000e-01	8.369174e-05	
415	-8.00000e-01	8.792045e-05	
416	-8.50000e-01	9.198970e-05	
417	-9.00000e-01	9.590108e-05	
418	-9.50000e-01	9.965618e-05	
419	-1.00000e+00	1.032566e-04	
420	-1.05000e+00	1.067038e-04	
421	-1.10000e+00	1.099995e-04	
422	-1.15000e+00	1.131451e-04	
423	-1.20000e+00	1.161421e-04	
424	-1.25000e+00	1.189922e-04	
425	-1.30000e+00	1.216967e-04	
426	-1.35000e+00	1.242573e-04	
427	-1.40000e+00	1.266753e-04	
428	-1.45000e+00	1.289523e-04	
429	-1.50000e+00	1.310898e-04	
430	-1.55000e+00	1.330891e-04	
431	-1.60000e+00	1.349518e-04	
432	-1.65000e+00	1.366793e-04	
433	-1.70000e+00	1.382733e-04	
434	-1.75000e+00	1.397356e-04	
435	-1.80000e+00	1.410688e-04	
436	-1.85000e+00	1.422772e-04	
437	-1.90000e+00	1.433673e-04	
438	-1.95000e+00	1.443484e-04	
439	-2.00000e+00	1.452322e-04	
440	-2.05000e+00	1.460312e-04	
441	-2.10000e+00	1.467573e-04	
442	-2.15000e+00	1.474215e-04	
443	-2.20000e+00	1.480329e-04	
444	-2.25000e+00	1.485993e-04	
445	-2.30000e+00	1.491268e-04	
446	-2.35000e+00	1.496209e-04	
447	-2.40000e+00	1.500857e-04	
448	-2.45000e+00	1.505248e-04	
449	-2.50000e+00	1.509413e-04	
450	-2.55000e+00	1.513377e-04	
451	-2.60000e+00	1.517160e-04	
452	-2.65000e+00	1.520781e-04	
453	-2.70000e+00	1.524256e-04	
454	-2.75000e+00	1.527599e-04	
455	-2.80000e+00	1.530820e-04	
456	-2.85000e+00	1.533930e-04	
457	-2.90000e+00	1.536939e-04	
458	-2.95000e+00	1.539854e-04	
459	-3.00000e+00	1.542682e-04	
460	-3.05000e+00	1.545431e-04	

Index   v-sweep         i(vds)          
--------------------------------------------------------------------------------
461	-3.10000e+00	1.548104e-04	
462	-3.15000e+00	1.550708e-04	
463	-3.20000e+00	1.553248e-04	
464	-3.25000e+00	1.555726e-04	
465	-3.30000e+00	1.558148e-04	
466	-3.35000e+00	1.560516e-04	
467	-3.40000e+00	1.562834e-04	
468	-3.45000e+00	1.565104e-04	
469	-3.50000e+00	1.567330e-04	
470	-3.55000e+00	1.569513e-04	
471	-3.60000e+00	1.571656e-04	
472	-3.65000e+00	1.573760e-04	
473	-3.70000e+00	1.575829e-04	
474	-3.75000e+00	1.577863e-04	
475	-3.80000e+00	1.579864e-04	
476	-3.85000e+00	1.581834e-04	
477	-3.90000e+00	1.583775e-04	
478	-3.95000e+00	1.585686e-04	
479	-4.00000e+00	1.587571e-04	
480	-4.05000e+00	1.589429e-04	
481	-4.10000e+00	1.591263e-04	
482	-4.15000e+00	1.593072e-04	
483	-4.20000e+00	1.594859e-04	
484	-4.25000e+00	1.596623e-04	
485	-4.30000e+00	1.598367e-04	
486	-4.35000e+00	1.600090e-04	
487	-4.40000e+00	1.601793e-04	
488	-4.45000e+00	1.603477e-04	
489	-4.50000e+00	1.605144e-04	
490	-4.55000e+00	1.606793e-04	
491	-4.60000e+00	1.608425e-04	
492	-4.65000e+00	1.610041e-04	
493	-4.70000e+00	1.611641e-04	
494	-4.75000e+00	1.613226e-04	
495	-4.80000e+00	1.614797e-04	
496	-4.85000e+00	1.616354e-04	
497	-4.90000e+00	1.617898e-04	
498	-4.95000e+00	1.619429e-04	
499	-5.00000e+00	1.620949e-04	
500	-5.05000e+00	1.622457e-04	
501	-5.10000e+00	1.623955e-04	
502	-5.15000e+00	1.625443e-04	
503	-5.20000e+00	1.626922e-04	
504	-5.25000e+00	1.628393e-04	
505	-5.30000e+00	1.629857e-04	
506	-5.35000e+00	1.631314e-04	
507	-5.40000e+00	1.632767e-04	
508	-5.45000e+00	1.634215e-04	
509	-5.50000e+00	1.635662e-04	
510	-5.55000e+00	1.637107e-04	
511	-5.60000e+00	1.638553e-04	
512	-5.65000e+00	1.640002e-04	
513	-5.70000e+00	1.641455e-04	
514	-5.75000e+00	1.642915e-04	
515	-5.80000e+00	1.644385e-04	
516	-5.85000e+00	1.645866e-04	
517	-5.90000e+00	1.647362e-04	
518	-5.95000e+00	1.648875e-04	

Index   v-sweep         i(vds)          
--------------------------------------------------------------------------------
519	-6.00000e+00	1.650410e-04	
520	-6.05000e+00	1.651971e-04	
521	-6.10000e+00	1.653560e-04	
522	-6.15000e+00	1.655183e-04	
523	-6.20000e+00	1.656845e-04	
524	-6.25000e+00	1.658550e-04	
525	-6.30000e+00	1.660304e-04	
526	-6.35000e+00	1.662114e-04	
527	-6.40000e+00	1.663984e-04	
528	-6.45000e+00	1.665923e-04	
529	-6.50000e+00	1.667938e-04	
530	-6.55000e+00	1.670035e-04	
531	-6.60000e+00	1.672225e-04	
532	0.000000e+00	-1.31678e-36	
533	-5.00000e-02	7.986022e-06	
534	-1.00000e-01	1.580248e-05	
535	-1.50000e-01	2.345075e-05	
536	-2.00000e-01	3.093223e-05	
537	-2.50000e-01	3.824829e-05	
538	-3.00000e-01	4.540029e-05	
539	-3.50000e-01	5.238960e-05	
540	-4.00000e-01	5.921756e-05	
541	-4.50000e-01	6.588551e-05	
542	-5.00000e-01	7.239479e-05	
543	-5.50000e-01	7.874672e-05	
544	-6.00000e-01	8.494263e-05	
545	-6.50000e-01	9.098381e-05	
546	-7.00000e-01	9.687158e-05	
547	-7.50000e-01	1.026072e-04	
548	-8.00000e-01	1.081920e-04	
549	-8.50000e-01	1.136273e-04	
550	-9.00000e-01	1.189142e-04	
551	-9.50000e-01	1.240541e-04	
552	-1.00000e+00	1.290482e-04	
553	-1.05000e+00	1.338977e-04	
554	-1.10000e+00	1.386039e-04	
555	-1.15000e+00	1.431680e-04	
556	-1.20000e+00	1.475913e-04	
557	-1.25000e+00	1.518748e-04	
558	-1.30000e+00	1.560199e-04	
559	-1.35000e+00	1.600277e-04	
560	-1.40000e+00	1.638993e-04	
561	-1.45000e+00	1.676361e-04	
562	-1.50000e+00	1.712390e-04	
563	-1.55000e+00	1.747093e-04	
564	-1.60000e+00	1.780481e-04	
565	-1.65000e+00	1.812565e-04	
566	-1.70000e+00	1.843356e-04	
567	-1.75000e+00	1.872865e-04	
568	-1.80000e+00	1.901102e-04	
569	-1.85000e+00	1.928078e-04	
570	-1.90000e+00	1.953803e-04	
571	-1.95000e+00	1.978284e-04	
572	-2.00000e+00	2.001529e-04	
573	-2.05000e+00	2.023544e-04	
574	-2.10000e+00	2.044333e-04	
575	-2.15000e+00	2.063896e-04	
576	-2.20000e+00	2.082229e-04	

Index   v-sweep         i(vds)          
--------------------------------------------------------------------------------
577	-2.25000e+00	2.099327e-04	
578	-2.30000e+00	2.115185e-04	
579	-2.35000e+00	2.129809e-04	
580	-2.40000e+00	2.143223e-04	
581	-2.45000e+00	2.155483e-04	
582	-2.50000e+00	2.166671e-04	
583	-2.55000e+00	2.176891e-04	
584	-2.60000e+00	2.186254e-04	
585	-2.65000e+00	2.194868e-04	
586	-2.70000e+00	2.202831e-04	
587	-2.75000e+00	2.210228e-04	
588	-2.80000e+00	2.217135e-04	
589	-2.85000e+00	2.223612e-04	
590	-2.90000e+00	2.229712e-04	
591	-2.95000e+00	2.235481e-04	
592	-3.00000e+00	2.240954e-04	
593	-3.05000e+00	2.246165e-04	
594	-3.10000e+00	2.251141e-04	
595	-3.15000e+00	2.255904e-04	
596	-3.20000e+00	2.260476e-04	
597	-3.25000e+00	2.264873e-04	
598	-3.30000e+00	2.269112e-04	
599	-3.35000e+00	2.273204e-04	
600	-3.40000e+00	2.277163e-04	
601	-3.45000e+00	2.280999e-04	
602	-3.50000e+00	2.284721e-04	
603	-3.55000e+00	2.288337e-04	
604	-3.60000e+00	2.291855e-04	
605	-3.65000e+00	2.295282e-04	
606	-3.70000e+00	2.298623e-04	
607	-3.75000e+00	2.301884e-04	
608	-3.80000e+00	2.305070e-04	
609	-3.85000e+00	2.308186e-04	
610	-3.90000e+00	2.311235e-04	
611	-3.95000e+00	2.314222e-04	
612	-4.00000e+00	2.317150e-04	
613	-4.05000e+00	2.320022e-04	
614	-4.10000e+00	2.322841e-04	
615	-4.15000e+00	2.325610e-04	
616	-4.20000e+00	2.328331e-04	
617	-4.25000e+00	2.331007e-04	
618	-4.30000e+00	2.333640e-04	
619	-4.35000e+00	2.336232e-04	
620	-4.40000e+00	2.338784e-04	
621	-4.45000e+00	2.341299e-04	
622	-4.50000e+00	2.343778e-04	
623	-4.55000e+00	2.346223e-04	
624	-4.60000e+00	2.348634e-04	
625	-4.65000e+00	2.351015e-04	
626	-4.70000e+00	2.353365e-04	
627	-4.75000e+00	2.355686e-04	
628	-4.80000e+00	2.357979e-04	
629	-4.85000e+00	2.360245e-04	
630	-4.90000e+00	2.362486e-04	
631	-4.95000e+00	2.364702e-04	
632	-5.00000e+00	2.366894e-04	
633	-5.05000e+00	2.369062e-04	
634	-5.10000e+00	2.371209e-04	

Index   v-sweep         i(vds)          
--------------------------------------------------------------------------------
635	-5.15000e+00	2.373335e-04	
636	-5.20000e+00	2.375440e-04	
637	-5.25000e+00	2.377525e-04	
638	-5.30000e+00	2.379592e-04	
639	-5.35000e+00	2.381640e-04	
640	-5.40000e+00	2.383671e-04	
641	-5.45000e+00	2.385686e-04	
642	-5.50000e+00	2.387686e-04	
643	-5.55000e+00	2.389670e-04	
644	-5.60000e+00	2.391642e-04	
645	-5.65000e+00	2.393600e-04	
646	-5.70000e+00	2.395547e-04	
647	-5.75000e+00	2.397484e-04	
648	-5.80000e+00	2.399413e-04	
649	-5.85000e+00	2.401333e-04	
650	-5.90000e+00	2.403248e-04	
651	-5.95000e+00	2.405159e-04	
652	-6.00000e+00	2.407068e-04	
653	-6.05000e+00	2.408977e-04	
654	-6.10000e+00	2.410888e-04	
655	-6.15000e+00	2.412804e-04	
656	-6.20000e+00	2.414728e-04	
657	-6.25000e+00	2.416664e-04	
658	-6.30000e+00	2.418614e-04	
659	-6.35000e+00	2.420583e-04	
660	-6.40000e+00	2.422574e-04	
661	-6.45000e+00	2.424593e-04	
662	-6.50000e+00	2.426644e-04	
663	-6.55000e+00	2.428733e-04	
664	-6.60000e+00	2.430866e-04	
665	0.000000e+00	-7.95774e-20	
666	-5.00000e-02	8.914554e-06	
667	-1.00000e-01	1.767296e-05	
668	-1.50000e-01	2.627632e-05	
669	-2.00000e-01	3.472575e-05	
670	-2.50000e-01	4.302234e-05	
671	-3.00000e-01	5.116719e-05	
672	-3.50000e-01	5.916139e-05	
673	-4.00000e-01	6.700601e-05	
674	-4.50000e-01	7.470215e-05	
675	-5.00000e-01	8.225086e-05	
676	-5.50000e-01	8.965322e-05	
677	-6.00000e-01	9.691030e-05	
678	-6.50000e-01	1.040231e-04	
679	-7.00000e-01	1.109928e-04	
680	-7.50000e-01	1.178203e-04	
681	-8.00000e-01	1.245068e-04	
682	-8.50000e-01	1.310531e-04	
683	-9.00000e-01	1.374605e-04	
684	-9.50000e-01	1.437298e-04	
685	-1.00000e+00	1.498621e-04	
686	-1.05000e+00	1.558585e-04	
687	-1.10000e+00	1.617199e-04	
688	-1.15000e+00	1.674473e-04	
689	-1.20000e+00	1.730417e-04	
690	-1.25000e+00	1.785041e-04	
691	-1.30000e+00	1.838355e-04	
692	-1.35000e+00	1.890368e-04	

Index   v-sweep         i(vds)          
--------------------------------------------------------------------------------
693	-1.40000e+00	1.941091e-04	
694	-1.45000e+00	1.990532e-04	
695	-1.50000e+00	2.038702e-04	
696	-1.55000e+00	2.085610e-04	
697	-1.60000e+00	2.131266e-04	
698	-1.65000e+00	2.175678e-04	
699	-1.70000e+00	2.218856e-04	
700	-1.75000e+00	2.260810e-04	
701	-1.80000e+00	2.301548e-04	
702	-1.85000e+00	2.341080e-04	
703	-1.90000e+00	2.379414e-04	
704	-1.95000e+00	2.416559e-04	
705	-2.00000e+00	2.452525e-04	
706	-2.05000e+00	2.487319e-04	
707	-2.10000e+00	2.520951e-04	
708	-2.15000e+00	2.553428e-04	
709	-2.20000e+00	2.584758e-04	
710	-2.25000e+00	2.614949e-04	
711	-2.30000e+00	2.644006e-04	
712	-2.35000e+00	2.671938e-04	
713	-2.40000e+00	2.698747e-04	
714	-2.45000e+00	2.724437e-04	
715	-2.50000e+00	2.749008e-04	
716	-2.55000e+00	2.772458e-04	
717	-2.60000e+00	2.794779e-04	
718	-2.65000e+00	2.815959e-04	
719	-2.70000e+00	2.835978e-04	
720	-2.75000e+00	2.854812e-04	
721	-2.80000e+00	2.872439e-04	
722	-2.85000e+00	2.888846e-04	
723	-2.90000e+00	2.904041e-04	
724	-2.95000e+00	2.918064e-04	
725	-3.00000e+00	2.930980e-04	
726	-3.05000e+00	2.942880e-04	
727	-3.10000e+00	2.953865e-04	
728	-3.15000e+00	2.964036e-04	
729	-3.20000e+00	2.973490e-04	
730	-3.25000e+00	2.982312e-04	
731	-3.30000e+00	2.990579e-04	
732	-3.35000e+00	2.998356e-04	
733	-3.40000e+00	3.005701e-04	
734	-3.45000e+00	3.012661e-04	
735	-3.50000e+00	3.019278e-04	
736	-3.55000e+00	3.025588e-04	
737	-3.60000e+00	3.031621e-04	
738	-3.65000e+00	3.037404e-04	
739	-3.70000e+00	3.042961e-04	
740	-3.75000e+00	3.048311e-04	
741	-3.80000e+00	3.053473e-04	
742	-3.85000e+00	3.058461e-04	
743	-3.90000e+00	3.063289e-04	
744	-3.95000e+00	3.067971e-04	
745	-4.00000e+00	3.072516e-04	
746	-4.05000e+00	3.076935e-04	
747	-4.10000e+00	3.081236e-04	
748	-4.15000e+00	3.085427e-04	
749	-4.20000e+00	3.089516e-04	
750	-4.25000e+00	3.093509e-04	

Index   v-sweep         i(vds)          
--------------------------------------------------------------------------------
751	-4.30000e+00	3.097411e-04	
752	-4.35000e+00	3.101228e-04	
753	-4.40000e+00	3.104966e-04	
754	-4.45000e+00	3.108628e-04	
755	-4.50000e+00	3.112220e-04	
756	-4.55000e+00	3.115743e-04	
757	-4.60000e+00	3.119203e-04	
758	-4.65000e+00	3.122602e-04	
759	-4.70000e+00	3.125944e-04	
760	-4.75000e+00	3.129230e-04	
761	-4.80000e+00	3.132465e-04	
762	-4.85000e+00	3.135650e-04	
763	-4.90000e+00	3.138787e-04	
764	-4.95000e+00	3.141879e-04	
765	-5.00000e+00	3.144927e-04	
766	-5.05000e+00	3.147934e-04	
767	-5.10000e+00	3.150901e-04	
768	-5.15000e+00	3.153829e-04	
769	-5.20000e+00	3.156721e-04	
770	-5.25000e+00	3.159578e-04	
771	-5.30000e+00	3.162401e-04	
772	-5.35000e+00	3.165192e-04	
773	-5.40000e+00	3.167951e-04	
774	-5.45000e+00	3.170680e-04	
775	-5.50000e+00	3.173380e-04	
776	-5.55000e+00	3.176053e-04	
777	-5.60000e+00	3.178698e-04	
778	-5.65000e+00	3.181318e-04	
779	-5.70000e+00	3.183912e-04	
780	-5.75000e+00	3.186484e-04	
781	-5.80000e+00	3.189032e-04	
782	-5.85000e+00	3.191558e-04	
783	-5.90000e+00	3.194064e-04	
784	-5.95000e+00	3.196550e-04	
785	-6.00000e+00	3.199018e-04	
786	-6.05000e+00	3.201468e-04	
787	-6.10000e+00	3.203902e-04	
788	-6.15000e+00	3.206322e-04	
789	-6.20000e+00	3.208728e-04	
790	-6.25000e+00	3.211123e-04	
791	-6.30000e+00	3.213507e-04	
792	-6.35000e+00	3.215884e-04	
793	-6.40000e+00	3.218255e-04	
794	-6.45000e+00	3.220623e-04	
795	-6.50000e+00	3.222990e-04	
796	-6.55000e+00	3.225359e-04	
797	-6.60000e+00	3.227734e-04	
Note: No ".plot", ".print", or ".fourier" lines; no simulations run
