
Note: Compatibility modes selected: hs

Warning: m=xx on .subckt line will override multiplier m hierarchy!


Circuit: ***************************

Doing analysis at TEMP = 25.000000 and TNOM = 25.000000


No. of Data Rows : 798
                          ***************************
                          DC transfer characteristic  Mon Jan  9 13:58:50  2023
--------------------------------------------------------------------------------
Index   v-sweep         i(vds)          
--------------------------------------------------------------------------------
0	0.000000e+00	4.206523e-32	
1	-5.00000e-02	4.147632e-06	
2	-1.00000e-01	6.813312e-06	
3	-1.50000e-01	8.177997e-06	
4	-2.00000e-01	8.719927e-06	
5	-2.50000e-01	8.967133e-06	
6	-3.00000e-01	9.135493e-06	
7	-3.50000e-01	9.277505e-06	
8	-4.00000e-01	9.407071e-06	
9	-4.50000e-01	9.529075e-06	
10	-5.00000e-01	9.645743e-06	
11	-5.50000e-01	9.758311e-06	
12	-6.00000e-01	9.867572e-06	
13	-6.50000e-01	9.974081e-06	
14	-7.00000e-01	1.007825e-05	
15	-7.50000e-01	1.018042e-05	
16	-8.00000e-01	1.028083e-05	
17	-8.50000e-01	1.037972e-05	
18	-9.00000e-01	1.047725e-05	
19	-9.50000e-01	1.057359e-05	
20	-1.00000e+00	1.066885e-05	
21	-1.05000e+00	1.076317e-05	
22	-1.10000e+00	1.085663e-05	
23	-1.15000e+00	1.094932e-05	
24	-1.20000e+00	1.104133e-05	
25	-1.25000e+00	1.113271e-05	
26	-1.30000e+00	1.122354e-05	
27	-1.35000e+00	1.131386e-05	
28	-1.40000e+00	1.140372e-05	
29	-1.45000e+00	1.149317e-05	
30	-1.50000e+00	1.158225e-05	
31	-1.55000e+00	1.167100e-05	
32	-1.60000e+00	1.175945e-05	
33	-1.65000e+00	1.184762e-05	
34	-1.70000e+00	1.193556e-05	
35	-1.75000e+00	1.202327e-05	
36	-1.80000e+00	1.211080e-05	
37	-1.85000e+00	1.219815e-05	
38	-1.90000e+00	1.228535e-05	
39	-1.95000e+00	1.237242e-05	
40	-2.00000e+00	1.245938e-05	
41	-2.05000e+00	1.254624e-05	
42	-2.10000e+00	1.263301e-05	
43	-2.15000e+00	1.271971e-05	
44	-2.20000e+00	1.280636e-05	
45	-2.25000e+00	1.289296e-05	
46	-2.30000e+00	1.297953e-05	
47	-2.35000e+00	1.306608e-05	
48	-2.40000e+00	1.315262e-05	
49	-2.45000e+00	1.323915e-05	
50	-2.50000e+00	1.332569e-05	
51	-2.55000e+00	1.341225e-05	
52	-2.60000e+00	1.349883e-05	
53	-2.65000e+00	1.358544e-05	
54	-2.70000e+00	1.367209e-05	

Index   v-sweep         i(vds)          
--------------------------------------------------------------------------------
55	-2.75000e+00	1.375878e-05	
56	-2.80000e+00	1.384553e-05	
57	-2.85000e+00	1.393233e-05	
58	-2.90000e+00	1.401920e-05	
59	-2.95000e+00	1.410614e-05	
60	-3.00000e+00	1.419315e-05	
61	-3.05000e+00	1.428025e-05	
62	-3.10000e+00	1.436743e-05	
63	-3.15000e+00	1.445471e-05	
64	-3.20000e+00	1.454209e-05	
65	-3.25000e+00	1.462957e-05	
66	-3.30000e+00	1.471716e-05	
67	-3.35000e+00	1.480488e-05	
68	-3.40000e+00	1.489272e-05	
69	-3.45000e+00	1.498069e-05	
70	-3.50000e+00	1.506880e-05	
71	-3.55000e+00	1.515706e-05	
72	-3.60000e+00	1.524549e-05	
73	-3.65000e+00	1.533408e-05	
74	-3.70000e+00	1.542286e-05	
75	-3.75000e+00	1.551184e-05	
76	-3.80000e+00	1.560103e-05	
77	-3.85000e+00	1.569045e-05	
78	-3.90000e+00	1.578012e-05	
79	-3.95000e+00	1.587005e-05	
80	-4.00000e+00	1.596028e-05	
81	-4.05000e+00	1.605082e-05	
82	-4.10000e+00	1.614171e-05	
83	-4.15000e+00	1.623298e-05	
84	-4.20000e+00	1.632465e-05	
85	-4.25000e+00	1.641678e-05	
86	-4.30000e+00	1.650939e-05	
87	-4.35000e+00	1.660254e-05	
88	-4.40000e+00	1.669627e-05	
89	-4.45000e+00	1.679065e-05	
90	-4.50000e+00	1.688572e-05	
91	-4.55000e+00	1.698155e-05	
92	-4.60000e+00	1.707821e-05	
93	-4.65000e+00	1.717578e-05	
94	-4.70000e+00	1.727434e-05	
95	-4.75000e+00	1.737397e-05	
96	-4.80000e+00	1.747478e-05	
97	-4.85000e+00	1.757685e-05	
98	-4.90000e+00	1.768029e-05	
99	-4.95000e+00	1.778523e-05	
100	-5.00000e+00	1.789178e-05	
101	-5.05000e+00	1.800008e-05	
102	-5.10000e+00	1.811027e-05	
103	-5.15000e+00	1.822249e-05	
104	-5.20000e+00	1.833689e-05	
105	-5.25000e+00	1.845366e-05	
106	-5.30000e+00	1.857295e-05	
107	-5.35000e+00	1.869496e-05	
108	-5.40000e+00	1.881988e-05	
109	-5.45000e+00	1.894792e-05	
110	-5.50000e+00	1.907929e-05	
111	-5.55000e+00	1.921422e-05	
112	-5.60000e+00	1.935295e-05	

Index   v-sweep         i(vds)          
--------------------------------------------------------------------------------
113	-5.65000e+00	1.949572e-05	
114	-5.70000e+00	1.964280e-05	
115	-5.75000e+00	1.979446e-05	
116	-5.80000e+00	1.995098e-05	
117	-5.85000e+00	2.011266e-05	
118	-5.90000e+00	2.027981e-05	
119	-5.95000e+00	2.045274e-05	
120	-6.00000e+00	2.063180e-05	
121	-6.05000e+00	2.081732e-05	
122	-6.10000e+00	2.100968e-05	
123	-6.15000e+00	2.120923e-05	
124	-6.20000e+00	2.141637e-05	
125	-6.25000e+00	2.163149e-05	
126	-6.30000e+00	2.185502e-05	
127	-6.35000e+00	2.208737e-05	
128	-6.40000e+00	2.232899e-05	
129	-6.45000e+00	2.258033e-05	
130	-6.50000e+00	2.284187e-05	
131	-6.55000e+00	2.311407e-05	
132	-6.60000e+00	2.339745e-05	
133	0.000000e+00	-3.21143e-21	
134	-5.00000e-02	3.019233e-05	
135	-1.00000e-01	5.863716e-05	
136	-1.50000e-01	8.535119e-05	
137	-2.00000e-01	1.103511e-04	
138	-2.50000e-01	1.336536e-04	
139	-3.00000e-01	1.552753e-04	
140	-3.50000e-01	1.752330e-04	
141	-4.00000e-01	1.935439e-04	
142	-4.50000e-01	2.102254e-04	
143	-5.00000e-01	2.252959e-04	
144	-5.50000e-01	2.387751e-04	
145	-6.00000e-01	2.506859e-04	
146	-6.50000e-01	2.610562e-04	
147	-7.00000e-01	2.699249e-04	
148	-7.50000e-01	2.773513e-04	
149	-8.00000e-01	2.834338e-04	
150	-8.50000e-01	2.883322e-04	
151	-9.00000e-01	2.922731e-04	
152	-9.50000e-01	2.955095e-04	
153	-1.00000e+00	2.982571e-04	
154	-1.05000e+00	3.006653e-04	
155	-1.10000e+00	3.028282e-04	
156	-1.15000e+00	3.048046e-04	
157	-1.20000e+00	3.066332e-04	
158	-1.25000e+00	3.083409e-04	
159	-1.30000e+00	3.099473e-04	
160	-1.35000e+00	3.114672e-04	
161	-1.40000e+00	3.129122e-04	
162	-1.45000e+00	3.142918e-04	
163	-1.50000e+00	3.156135e-04	
164	-1.55000e+00	3.168838e-04	
165	-1.60000e+00	3.181079e-04	
166	-1.65000e+00	3.192905e-04	
167	-1.70000e+00	3.204354e-04	
168	-1.75000e+00	3.215459e-04	
169	-1.80000e+00	3.226251e-04	
170	-1.85000e+00	3.236756e-04	

Index   v-sweep         i(vds)          
--------------------------------------------------------------------------------
171	-1.90000e+00	3.246995e-04	
172	-1.95000e+00	3.256989e-04	
173	-2.00000e+00	3.266756e-04	
174	-2.05000e+00	3.276312e-04	
175	-2.10000e+00	3.285672e-04	
176	-2.15000e+00	3.294849e-04	
177	-2.20000e+00	3.303854e-04	
178	-2.25000e+00	3.312698e-04	
179	-2.30000e+00	3.321391e-04	
180	-2.35000e+00	3.329942e-04	
181	-2.40000e+00	3.338359e-04	
182	-2.45000e+00	3.346650e-04	
183	-2.50000e+00	3.354821e-04	
184	-2.55000e+00	3.362879e-04	
185	-2.60000e+00	3.370829e-04	
186	-2.65000e+00	3.378677e-04	
187	-2.70000e+00	3.386429e-04	
188	-2.75000e+00	3.394088e-04	
189	-2.80000e+00	3.401660e-04	
190	-2.85000e+00	3.409148e-04	
191	-2.90000e+00	3.416556e-04	
192	-2.95000e+00	3.423888e-04	
193	-3.00000e+00	3.431147e-04	
194	-3.05000e+00	3.438336e-04	
195	-3.10000e+00	3.445458e-04	
196	-3.15000e+00	3.452516e-04	
197	-3.20000e+00	3.459513e-04	
198	-3.25000e+00	3.466450e-04	
199	-3.30000e+00	3.473331e-04	
200	-3.35000e+00	3.480157e-04	
201	-3.40000e+00	3.486931e-04	
202	-3.45000e+00	3.493655e-04	
203	-3.50000e+00	3.500330e-04	
204	-3.55000e+00	3.506958e-04	
205	-3.60000e+00	3.513542e-04	
206	-3.65000e+00	3.520082e-04	
207	-3.70000e+00	3.526581e-04	
208	-3.75000e+00	3.533041e-04	
209	-3.80000e+00	3.539461e-04	
210	-3.85000e+00	3.545846e-04	
211	-3.90000e+00	3.552195e-04	
212	-3.95000e+00	3.558511e-04	
213	-4.00000e+00	3.564795e-04	
214	-4.05000e+00	3.571049e-04	
215	-4.10000e+00	3.577275e-04	
216	-4.15000e+00	3.583475e-04	
217	-4.20000e+00	3.589651e-04	
218	-4.25000e+00	3.595805e-04	
219	-4.30000e+00	3.601939e-04	
220	-4.35000e+00	3.608057e-04	
221	-4.40000e+00	3.614160e-04	
222	-4.45000e+00	3.620252e-04	
223	-4.50000e+00	3.626337e-04	
224	-4.55000e+00	3.632417e-04	
225	-4.60000e+00	3.638498e-04	
226	-4.65000e+00	3.644584e-04	
227	-4.70000e+00	3.650679e-04	
228	-4.75000e+00	3.656789e-04	

Index   v-sweep         i(vds)          
--------------------------------------------------------------------------------
229	-4.80000e+00	3.662921e-04	
230	-4.85000e+00	3.669080e-04	
231	-4.90000e+00	3.675273e-04	
232	-4.95000e+00	3.681509e-04	
233	-5.00000e+00	3.687797e-04	
234	-5.05000e+00	3.694144e-04	
235	-5.10000e+00	3.700562e-04	
236	-5.15000e+00	3.707061e-04	
237	-5.20000e+00	3.713652e-04	
238	-5.25000e+00	3.720349e-04	
239	-5.30000e+00	3.727166e-04	
240	-5.35000e+00	3.734116e-04	
241	-5.40000e+00	3.741215e-04	
242	-5.45000e+00	3.748480e-04	
243	-5.50000e+00	3.755930e-04	
244	-5.55000e+00	3.763582e-04	
245	-5.60000e+00	3.771459e-04	
246	-5.65000e+00	3.779580e-04	
247	-5.70000e+00	3.787969e-04	
248	-5.75000e+00	3.796650e-04	
249	-5.80000e+00	3.805649e-04	
250	-5.85000e+00	3.814992e-04	
251	-5.90000e+00	3.824708e-04	
252	-5.95000e+00	3.834827e-04	
253	-6.00000e+00	3.845381e-04	
254	-6.05000e+00	3.856401e-04	
255	-6.10000e+00	3.867924e-04	
256	-6.15000e+00	3.879983e-04	
257	-6.20000e+00	3.892618e-04	
258	-6.25000e+00	3.905867e-04	
259	-6.30000e+00	3.919771e-04	
260	-6.35000e+00	3.934372e-04	
261	-6.40000e+00	3.949715e-04	
262	-6.45000e+00	3.965845e-04	
263	-6.50000e+00	3.982810e-04	
264	-6.55000e+00	4.000659e-04	
265	-6.60000e+00	4.019443e-04	
266	0.000000e+00	-6.00326e-21	
267	-5.00000e-02	4.811170e-05	
268	-1.00000e-01	9.462873e-05	
269	-1.50000e-01	1.395631e-04	
270	-2.00000e-01	1.829268e-04	
271	-2.50000e-01	2.247318e-04	
272	-3.00000e-01	2.649899e-04	
273	-3.50000e-01	3.037130e-04	
274	-4.00000e-01	3.409129e-04	
275	-4.50000e-01	3.766012e-04	
276	-5.00000e-01	4.107898e-04	
277	-5.50000e-01	4.434902e-04	
278	-6.00000e-01	4.747141e-04	
279	-6.50000e-01	5.044730e-04	
280	-7.00000e-01	5.327787e-04	
281	-7.50000e-01	5.596427e-04	
282	-8.00000e-01	5.850767e-04	
283	-8.50000e-01	6.090924e-04	
284	-9.00000e-01	6.317016e-04	
285	-9.50000e-01	6.529164e-04	
286	-1.00000e+00	6.727493e-04	

Index   v-sweep         i(vds)          
--------------------------------------------------------------------------------
287	-1.05000e+00	6.912131e-04	
288	-1.10000e+00	7.083218e-04	
289	-1.15000e+00	7.240906e-04	
290	-1.20000e+00	7.385369e-04	
291	-1.25000e+00	7.516823e-04	
292	-1.30000e+00	7.635548e-04	
293	-1.35000e+00	7.741932e-04	
294	-1.40000e+00	7.836535e-04	
295	-1.45000e+00	7.920163e-04	
296	-1.50000e+00	7.993906e-04	
297	-1.55000e+00	8.059075e-04	
298	-1.60000e+00	8.117050e-04	
299	-1.65000e+00	8.169107e-04	
300	-1.70000e+00	8.216319e-04	
301	-1.75000e+00	8.259542e-04	
302	-1.80000e+00	8.299450e-04	
303	-1.85000e+00	8.336568e-04	
304	-1.90000e+00	8.371310e-04	
305	-1.95000e+00	8.404009e-04	
306	-2.00000e+00	8.434930e-04	
307	-2.05000e+00	8.464295e-04	
308	-2.10000e+00	8.492284e-04	
309	-2.15000e+00	8.519050e-04	
310	-2.20000e+00	8.544720e-04	
311	-2.25000e+00	8.569404e-04	
312	-2.30000e+00	8.593196e-04	
313	-2.35000e+00	8.616176e-04	
314	-2.40000e+00	8.638417e-04	
315	-2.45000e+00	8.659979e-04	
316	-2.50000e+00	8.680918e-04	
317	-2.55000e+00	8.701281e-04	
318	-2.60000e+00	8.721111e-04	
319	-2.65000e+00	8.740447e-04	
320	-2.70000e+00	8.759323e-04	
321	-2.75000e+00	8.777770e-04	
322	-2.80000e+00	8.795817e-04	
323	-2.85000e+00	8.813487e-04	
324	-2.90000e+00	8.830806e-04	
325	-2.95000e+00	8.847793e-04	
326	-3.00000e+00	8.864467e-04	
327	-3.05000e+00	8.880847e-04	
328	-3.10000e+00	8.896948e-04	
329	-3.15000e+00	8.912786e-04	
330	-3.20000e+00	8.928374e-04	
331	-3.25000e+00	8.943725e-04	
332	-3.30000e+00	8.958850e-04	
333	-3.35000e+00	8.973761e-04	
334	-3.40000e+00	8.988468e-04	
335	-3.45000e+00	9.002981e-04	
336	-3.50000e+00	9.017307e-04	
337	-3.55000e+00	9.031456e-04	
338	-3.60000e+00	9.045435e-04	
339	-3.65000e+00	9.059251e-04	
340	-3.70000e+00	9.072912e-04	
341	-3.75000e+00	9.086424e-04	
342	-3.80000e+00	9.099792e-04	
343	-3.85000e+00	9.113022e-04	
344	-3.90000e+00	9.126121e-04	

Index   v-sweep         i(vds)          
--------------------------------------------------------------------------------
345	-3.95000e+00	9.139092e-04	
346	-4.00000e+00	9.151941e-04	
347	-4.05000e+00	9.164672e-04	
348	-4.10000e+00	9.177290e-04	
349	-4.15000e+00	9.189799e-04	
350	-4.20000e+00	9.202203e-04	
351	-4.25000e+00	9.214506e-04	
352	-4.30000e+00	9.226712e-04	
353	-4.35000e+00	9.238824e-04	
354	-4.40000e+00	9.250847e-04	
355	-4.45000e+00	9.262784e-04	
356	-4.50000e+00	9.274638e-04	
357	-4.55000e+00	9.286414e-04	
358	-4.60000e+00	9.298115e-04	
359	-4.65000e+00	9.309746e-04	
360	-4.70000e+00	9.321311e-04	
361	-4.75000e+00	9.332814e-04	
362	-4.80000e+00	9.344261e-04	
363	-4.85000e+00	9.355656e-04	
364	-4.90000e+00	9.367005e-04	
365	-4.95000e+00	9.378315e-04	
366	-5.00000e+00	9.389592e-04	
367	-5.05000e+00	9.400843e-04	
368	-5.10000e+00	9.412078e-04	
369	-5.15000e+00	9.423304e-04	
370	-5.20000e+00	9.434533e-04	
371	-5.25000e+00	9.445774e-04	
372	-5.30000e+00	9.457040e-04	
373	-5.35000e+00	9.468345e-04	
374	-5.40000e+00	9.479702e-04	
375	-5.45000e+00	9.491129e-04	
376	-5.50000e+00	9.502641e-04	
377	-5.55000e+00	9.514260e-04	
378	-5.60000e+00	9.526005e-04	
379	-5.65000e+00	9.537899e-04	
380	-5.70000e+00	9.549967e-04	
381	-5.75000e+00	9.562235e-04	
382	-5.80000e+00	9.574733e-04	
383	-5.85000e+00	9.587492e-04	
384	-5.90000e+00	9.600545e-04	
385	-5.95000e+00	9.613928e-04	
386	-6.00000e+00	9.627680e-04	
387	-6.05000e+00	9.641843e-04	
388	-6.10000e+00	9.656460e-04	
389	-6.15000e+00	9.671579e-04	
390	-6.20000e+00	9.687250e-04	
391	-6.25000e+00	9.703526e-04	
392	-6.30000e+00	9.720463e-04	
393	-6.35000e+00	9.738121e-04	
394	-6.40000e+00	9.756562e-04	
395	-6.45000e+00	9.775854e-04	
396	-6.50000e+00	9.796067e-04	
397	-6.55000e+00	9.817272e-04	
398	-6.60000e+00	9.839549e-04	
399	0.000000e+00	-5.55637e-21	
400	-5.00000e-02	6.131085e-05	
401	-1.00000e-01	1.211705e-04	
402	-1.50000e-01	1.795883e-04	

Index   v-sweep         i(vds)          
--------------------------------------------------------------------------------
403	-2.00000e-01	2.365732e-04	
404	-2.50000e-01	2.921345e-04	
405	-3.00000e-01	3.462814e-04	
406	-3.50000e-01	3.990228e-04	
407	-4.00000e-01	4.503679e-04	
408	-4.50000e-01	5.003257e-04	
409	-5.00000e-01	5.489051e-04	
410	-5.50000e-01	5.961151e-04	
411	-6.00000e-01	6.419647e-04	
412	-6.50000e-01	6.864627e-04	
413	-7.00000e-01	7.296180e-04	
414	-7.50000e-01	7.714394e-04	
415	-8.00000e-01	8.119357e-04	
416	-8.50000e-01	8.511156e-04	
417	-9.00000e-01	8.889880e-04	
418	-9.50000e-01	9.255614e-04	
419	-1.00000e+00	9.608446e-04	
420	-1.05000e+00	9.948463e-04	
421	-1.10000e+00	1.027575e-03	
422	-1.15000e+00	1.059039e-03	
423	-1.20000e+00	1.089248e-03	
424	-1.25000e+00	1.118210e-03	
425	-1.30000e+00	1.145933e-03	
426	-1.35000e+00	1.172427e-03	
427	-1.40000e+00	1.197700e-03	
428	-1.45000e+00	1.221760e-03	
429	-1.50000e+00	1.244617e-03	
430	-1.55000e+00	1.266280e-03	
431	-1.60000e+00	1.286758e-03	
432	-1.65000e+00	1.306061e-03	
433	-1.70000e+00	1.324199e-03	
434	-1.75000e+00	1.341183e-03	
435	-1.80000e+00	1.357026e-03	
436	-1.85000e+00	1.371743e-03	
437	-1.90000e+00	1.385351e-03	
438	-1.95000e+00	1.397875e-03	
439	-2.00000e+00	1.409349e-03	
440	-2.05000e+00	1.419820e-03	
441	-2.10000e+00	1.429351e-03	
442	-2.15000e+00	1.438025e-03	
443	-2.20000e+00	1.445932e-03	
444	-2.25000e+00	1.453168e-03	
445	-2.30000e+00	1.459822e-03	
446	-2.35000e+00	1.465976e-03	
447	-2.40000e+00	1.471698e-03	
448	-2.45000e+00	1.477046e-03	
449	-2.50000e+00	1.482071e-03	
450	-2.55000e+00	1.486812e-03	
451	-2.60000e+00	1.491303e-03	
452	-2.65000e+00	1.495574e-03	
453	-2.70000e+00	1.499649e-03	
454	-2.75000e+00	1.503548e-03	
455	-2.80000e+00	1.507288e-03	
456	-2.85000e+00	1.510886e-03	
457	-2.90000e+00	1.514354e-03	
458	-2.95000e+00	1.517703e-03	
459	-3.00000e+00	1.520945e-03	
460	-3.05000e+00	1.524086e-03	

Index   v-sweep         i(vds)          
--------------------------------------------------------------------------------
461	-3.10000e+00	1.527136e-03	
462	-3.15000e+00	1.530102e-03	
463	-3.20000e+00	1.532988e-03	
464	-3.25000e+00	1.535802e-03	
465	-3.30000e+00	1.538548e-03	
466	-3.35000e+00	1.541230e-03	
467	-3.40000e+00	1.543853e-03	
468	-3.45000e+00	1.546420e-03	
469	-3.50000e+00	1.548935e-03	
470	-3.55000e+00	1.551400e-03	
471	-3.60000e+00	1.553819e-03	
472	-3.65000e+00	1.556194e-03	
473	-3.70000e+00	1.558528e-03	
474	-3.75000e+00	1.560822e-03	
475	-3.80000e+00	1.563079e-03	
476	-3.85000e+00	1.565300e-03	
477	-3.90000e+00	1.567488e-03	
478	-3.95000e+00	1.569644e-03	
479	-4.00000e+00	1.571769e-03	
480	-4.05000e+00	1.573865e-03	
481	-4.10000e+00	1.575933e-03	
482	-4.15000e+00	1.577975e-03	
483	-4.20000e+00	1.579991e-03	
484	-4.25000e+00	1.581983e-03	
485	-4.30000e+00	1.583951e-03	
486	-4.35000e+00	1.585897e-03	
487	-4.40000e+00	1.587821e-03	
488	-4.45000e+00	1.589725e-03	
489	-4.50000e+00	1.591608e-03	
490	-4.55000e+00	1.593473e-03	
491	-4.60000e+00	1.595319e-03	
492	-4.65000e+00	1.597148e-03	
493	-4.70000e+00	1.598959e-03	
494	-4.75000e+00	1.600754e-03	
495	-4.80000e+00	1.602533e-03	
496	-4.85000e+00	1.604297e-03	
497	-4.90000e+00	1.606047e-03	
498	-4.95000e+00	1.607782e-03	
499	-5.00000e+00	1.609504e-03	
500	-5.05000e+00	1.611213e-03	
501	-5.10000e+00	1.612910e-03	
502	-5.15000e+00	1.614595e-03	
503	-5.20000e+00	1.616269e-03	
504	-5.25000e+00	1.617933e-03	
505	-5.30000e+00	1.619587e-03	
506	-5.35000e+00	1.621232e-03	
507	-5.40000e+00	1.622870e-03	
508	-5.45000e+00	1.624500e-03	
509	-5.50000e+00	1.626124e-03	
510	-5.55000e+00	1.627743e-03	
511	-5.60000e+00	1.629358e-03	
512	-5.65000e+00	1.630971e-03	
513	-5.70000e+00	1.632583e-03	
514	-5.75000e+00	1.634195e-03	
515	-5.80000e+00	1.635810e-03	
516	-5.85000e+00	1.637429e-03	
517	-5.90000e+00	1.639055e-03	
518	-5.95000e+00	1.640689e-03	

Index   v-sweep         i(vds)          
--------------------------------------------------------------------------------
519	-6.00000e+00	1.642335e-03	
520	-6.05000e+00	1.643996e-03	
521	-6.10000e+00	1.645674e-03	
522	-6.15000e+00	1.647373e-03	
523	-6.20000e+00	1.649096e-03	
524	-6.25000e+00	1.650849e-03	
525	-6.30000e+00	1.652634e-03	
526	-6.35000e+00	1.654458e-03	
527	-6.40000e+00	1.656324e-03	
528	-6.45000e+00	1.658239e-03	
529	-6.50000e+00	1.660209e-03	
530	-6.55000e+00	1.662240e-03	
531	-6.60000e+00	1.664339e-03	
532	0.000000e+00	3.790122e-30	
533	-5.00000e-02	7.149835e-05	
534	-1.00000e-01	1.416678e-04	
535	-1.50000e-01	2.105157e-04	
536	-2.00000e-01	2.780494e-04	
537	-2.50000e-01	3.442761e-04	
538	-3.00000e-01	4.092033e-04	
539	-3.50000e-01	4.728382e-04	
540	-4.00000e-01	5.351880e-04	
541	-4.50000e-01	5.962599e-04	
542	-5.00000e-01	6.560612e-04	
543	-5.50000e-01	7.145990e-04	
544	-6.00000e-01	7.718805e-04	
545	-6.50000e-01	8.279129e-04	
546	-7.00000e-01	8.827031e-04	
547	-7.50000e-01	9.362584e-04	
548	-8.00000e-01	9.885858e-04	
549	-8.50000e-01	1.039692e-03	
550	-9.00000e-01	1.089585e-03	
551	-9.50000e-01	1.138271e-03	
552	-1.00000e+00	1.185757e-03	
553	-1.05000e+00	1.232049e-03	
554	-1.10000e+00	1.277156e-03	
555	-1.15000e+00	1.321084e-03	
556	-1.20000e+00	1.363839e-03	
557	-1.25000e+00	1.405429e-03	
558	-1.30000e+00	1.445860e-03	
559	-1.35000e+00	1.485139e-03	
560	-1.40000e+00	1.523274e-03	
561	-1.45000e+00	1.560270e-03	
562	-1.50000e+00	1.596134e-03	
563	-1.55000e+00	1.630874e-03	
564	-1.60000e+00	1.664495e-03	
565	-1.65000e+00	1.697005e-03	
566	-1.70000e+00	1.728410e-03	
567	-1.75000e+00	1.758717e-03	
568	-1.80000e+00	1.787933e-03	
569	-1.85000e+00	1.816064e-03	
570	-1.90000e+00	1.843116e-03	
571	-1.95000e+00	1.869097e-03	
572	-2.00000e+00	1.894013e-03	
573	-2.05000e+00	1.917870e-03	
574	-2.10000e+00	1.940675e-03	
575	-2.15000e+00	1.962434e-03	
576	-2.20000e+00	1.983154e-03	

Index   v-sweep         i(vds)          
--------------------------------------------------------------------------------
577	-2.25000e+00	2.002840e-03	
578	-2.30000e+00	2.021497e-03	
579	-2.35000e+00	2.039131e-03	
580	-2.40000e+00	2.055746e-03	
581	-2.45000e+00	2.071345e-03	
582	-2.50000e+00	2.085936e-03	
583	-2.55000e+00	2.099526e-03	
584	-2.60000e+00	2.112134e-03	
585	-2.65000e+00	2.123793e-03	
586	-2.70000e+00	2.134552e-03	
587	-2.75000e+00	2.144478e-03	
588	-2.80000e+00	2.153648e-03	
589	-2.85000e+00	2.162143e-03	
590	-2.90000e+00	2.170042e-03	
591	-2.95000e+00	2.177415e-03	
592	-3.00000e+00	2.184326e-03	
593	-3.05000e+00	2.190832e-03	
594	-3.10000e+00	2.196980e-03	
595	-3.15000e+00	2.202810e-03	
596	-3.20000e+00	2.208358e-03	
597	-3.25000e+00	2.213653e-03	
598	-3.30000e+00	2.218721e-03	
599	-3.35000e+00	2.223584e-03	
600	-3.40000e+00	2.228262e-03	
601	-3.45000e+00	2.232770e-03	
602	-3.50000e+00	2.237125e-03	
603	-3.55000e+00	2.241338e-03	
604	-3.60000e+00	2.245421e-03	
605	-3.65000e+00	2.249384e-03	
606	-3.70000e+00	2.253237e-03	
607	-3.75000e+00	2.256986e-03	
608	-3.80000e+00	2.260640e-03	
609	-3.85000e+00	2.264205e-03	
610	-3.90000e+00	2.267686e-03	
611	-3.95000e+00	2.271090e-03	
612	-4.00000e+00	2.274420e-03	
613	-4.05000e+00	2.277682e-03	
614	-4.10000e+00	2.280879e-03	
615	-4.15000e+00	2.284015e-03	
616	-4.20000e+00	2.287093e-03	
617	-4.25000e+00	2.290116e-03	
618	-4.30000e+00	2.293088e-03	
619	-4.35000e+00	2.296011e-03	
620	-4.40000e+00	2.298888e-03	
621	-4.45000e+00	2.301720e-03	
622	-4.50000e+00	2.304509e-03	
623	-4.55000e+00	2.307259e-03	
624	-4.60000e+00	2.309970e-03	
625	-4.65000e+00	2.312645e-03	
626	-4.70000e+00	2.315284e-03	
627	-4.75000e+00	2.317890e-03	
628	-4.80000e+00	2.320464e-03	
629	-4.85000e+00	2.323007e-03	
630	-4.90000e+00	2.325521e-03	
631	-4.95000e+00	2.328006e-03	
632	-5.00000e+00	2.330464e-03	
633	-5.05000e+00	2.332896e-03	
634	-5.10000e+00	2.335302e-03	

Index   v-sweep         i(vds)          
--------------------------------------------------------------------------------
635	-5.15000e+00	2.337685e-03	
636	-5.20000e+00	2.340044e-03	
637	-5.25000e+00	2.342380e-03	
638	-5.30000e+00	2.344695e-03	
639	-5.35000e+00	2.346989e-03	
640	-5.40000e+00	2.349263e-03	
641	-5.45000e+00	2.351518e-03	
642	-5.50000e+00	2.353754e-03	
643	-5.55000e+00	2.355973e-03	
644	-5.60000e+00	2.358174e-03	
645	-5.65000e+00	2.360360e-03	
646	-5.70000e+00	2.362531e-03	
647	-5.75000e+00	2.364687e-03	
648	-5.80000e+00	2.366830e-03	
649	-5.85000e+00	2.368960e-03	
650	-5.90000e+00	2.371080e-03	
651	-5.95000e+00	2.373189e-03	
652	-6.00000e+00	2.375289e-03	
653	-6.05000e+00	2.377382e-03	
654	-6.10000e+00	2.379469e-03	
655	-6.15000e+00	2.381552e-03	
656	-6.20000e+00	2.383633e-03	
657	-6.25000e+00	2.385714e-03	
658	-6.30000e+00	2.387796e-03	
659	-6.35000e+00	2.389884e-03	
660	-6.40000e+00	2.391980e-03	
661	-6.45000e+00	2.394086e-03	
662	-6.50000e+00	2.396207e-03	
663	-6.55000e+00	2.398345e-03	
664	-6.60000e+00	2.400506e-03	
665	0.000000e+00	7.103677e-19	
666	-5.00000e-02	7.963519e-05	
667	-1.00000e-01	1.580447e-04	
668	-1.50000e-01	2.352347e-04	
669	-2.00000e-01	3.112111e-04	
670	-2.50000e-01	3.859800e-04	
671	-3.00000e-01	4.595473e-04	
672	-3.50000e-01	5.319192e-04	
673	-4.00000e-01	6.031015e-04	
674	-4.50000e-01	6.731002e-04	
675	-5.00000e-01	7.419213e-04	
676	-5.50000e-01	8.095708e-04	
677	-6.00000e-01	8.760544e-04	
678	-6.50000e-01	9.413781e-04	
679	-7.00000e-01	1.005548e-03	
680	-7.50000e-01	1.068569e-03	
681	-8.00000e-01	1.130449e-03	
682	-8.50000e-01	1.191191e-03	
683	-9.00000e-01	1.250804e-03	
684	-9.50000e-01	1.309291e-03	
685	-1.00000e+00	1.366659e-03	
686	-1.05000e+00	1.422913e-03	
687	-1.10000e+00	1.478060e-03	
688	-1.15000e+00	1.532106e-03	
689	-1.20000e+00	1.585054e-03	
690	-1.25000e+00	1.636913e-03	
691	-1.30000e+00	1.687686e-03	
692	-1.35000e+00	1.737380e-03	

Index   v-sweep         i(vds)          
--------------------------------------------------------------------------------
693	-1.40000e+00	1.786000e-03	
694	-1.45000e+00	1.833553e-03	
695	-1.50000e+00	1.880042e-03	
696	-1.55000e+00	1.925475e-03	
697	-1.60000e+00	1.969857e-03	
698	-1.65000e+00	2.013192e-03	
699	-1.70000e+00	2.055487e-03	
700	-1.75000e+00	2.096748e-03	
701	-1.80000e+00	2.136979e-03	
702	-1.85000e+00	2.176186e-03	
703	-1.90000e+00	2.214374e-03	
704	-1.95000e+00	2.251550e-03	
705	-2.00000e+00	2.287718e-03	
706	-2.05000e+00	2.322883e-03	
707	-2.10000e+00	2.357052e-03	
708	-2.15000e+00	2.390229e-03	
709	-2.20000e+00	2.422419e-03	
710	-2.25000e+00	2.453629e-03	
711	-2.30000e+00	2.483862e-03	
712	-2.35000e+00	2.513125e-03	
713	-2.40000e+00	2.541423e-03	
714	-2.45000e+00	2.568760e-03	
715	-2.50000e+00	2.595141e-03	
716	-2.55000e+00	2.620570e-03	
717	-2.60000e+00	2.645053e-03	
718	-2.65000e+00	2.668593e-03	
719	-2.70000e+00	2.691193e-03	
720	-2.75000e+00	2.712855e-03	
721	-2.80000e+00	2.733580e-03	
722	-2.85000e+00	2.753368e-03	
723	-2.90000e+00	2.772215e-03	
724	-2.95000e+00	2.790115e-03	
725	-3.00000e+00	2.807060e-03	
726	-3.05000e+00	2.823042e-03	
727	-3.10000e+00	2.838056e-03	
728	-3.15000e+00	2.852107e-03	
729	-3.20000e+00	2.865212e-03	
730	-3.25000e+00	2.877411e-03	
731	-3.30000e+00	2.888758e-03	
732	-3.35000e+00	2.899321e-03	
733	-3.40000e+00	2.909172e-03	
734	-3.45000e+00	2.918386e-03	
735	-3.50000e+00	2.927030e-03	
736	-3.55000e+00	2.935168e-03	
737	-3.60000e+00	2.942856e-03	
738	-3.65000e+00	2.950144e-03	
739	-3.70000e+00	2.957072e-03	
740	-3.75000e+00	2.963680e-03	
741	-3.80000e+00	2.969998e-03	
742	-3.85000e+00	2.976056e-03	
743	-3.90000e+00	2.981877e-03	
744	-3.95000e+00	2.987483e-03	
745	-4.00000e+00	2.992892e-03	
746	-4.05000e+00	2.998121e-03	
747	-4.10000e+00	3.003185e-03	
748	-4.15000e+00	3.008097e-03	
749	-4.20000e+00	3.012867e-03	
750	-4.25000e+00	3.017507e-03	

Index   v-sweep         i(vds)          
--------------------------------------------------------------------------------
751	-4.30000e+00	3.022026e-03	
752	-4.35000e+00	3.026431e-03	
753	-4.40000e+00	3.030731e-03	
754	-4.45000e+00	3.034932e-03	
755	-4.50000e+00	3.039041e-03	
756	-4.55000e+00	3.043063e-03	
757	-4.60000e+00	3.047003e-03	
758	-4.65000e+00	3.050865e-03	
759	-4.70000e+00	3.054655e-03	
760	-4.75000e+00	3.058376e-03	
761	-4.80000e+00	3.062032e-03	
762	-4.85000e+00	3.065627e-03	
763	-4.90000e+00	3.069162e-03	
764	-4.95000e+00	3.072642e-03	
765	-5.00000e+00	3.076069e-03	
766	-5.05000e+00	3.079445e-03	
767	-5.10000e+00	3.082773e-03	
768	-5.15000e+00	3.086055e-03	
769	-5.20000e+00	3.089293e-03	
770	-5.25000e+00	3.092489e-03	
771	-5.30000e+00	3.095644e-03	
772	-5.35000e+00	3.098761e-03	
773	-5.40000e+00	3.101841e-03	
774	-5.45000e+00	3.104885e-03	
775	-5.50000e+00	3.107895e-03	
776	-5.55000e+00	3.110872e-03	
777	-5.60000e+00	3.113818e-03	
778	-5.65000e+00	3.116733e-03	
779	-5.70000e+00	3.119619e-03	
780	-5.75000e+00	3.122477e-03	
781	-5.80000e+00	3.125308e-03	
782	-5.85000e+00	3.128113e-03	
783	-5.90000e+00	3.130893e-03	
784	-5.95000e+00	3.133648e-03	
785	-6.00000e+00	3.136381e-03	
786	-6.05000e+00	3.139091e-03	
787	-6.10000e+00	3.141781e-03	
788	-6.15000e+00	3.144450e-03	
789	-6.20000e+00	3.147100e-03	
790	-6.25000e+00	3.149732e-03	
791	-6.30000e+00	3.152347e-03	
792	-6.35000e+00	3.154946e-03	
793	-6.40000e+00	3.157532e-03	
794	-6.45000e+00	3.160104e-03	
795	-6.50000e+00	3.162665e-03	
796	-6.55000e+00	3.165217e-03	
797	-6.60000e+00	3.167761e-03	
Note: No ".plot", ".print", or ".fourier" lines; no simulations run
