
Note: Compatibility modes selected: hs

Warning: m=xx on .subckt line will override multiplier m hierarchy!


Circuit: ***************************

Doing analysis at TEMP = 125.000000 and TNOM = 125.000000


No. of Data Rows : 798
                          ***************************
                          DC transfer characteristic  Mon Jan  9 13:58:51  2023
--------------------------------------------------------------------------------
Index   v-sweep         i(vds)          
--------------------------------------------------------------------------------
0	0.000000e+00	-5.86345e-27	
1	-5.00000e-02	2.094323e-07	
2	-1.00000e-01	3.857526e-07	
3	-1.50000e-01	5.311770e-07	
4	-2.00000e-01	6.465063e-07	
5	-2.50000e-01	7.325279e-07	
6	-3.00000e-01	7.909475e-07	
7	-3.50000e-01	8.259391e-07	
8	-4.00000e-01	8.451673e-07	
9	-4.50000e-01	8.566470e-07	
10	-5.00000e-01	8.650071e-07	
11	-5.50000e-01	8.720874e-07	
12	-6.00000e-01	8.785574e-07	
13	-6.50000e-01	8.846788e-07	
14	-7.00000e-01	8.905676e-07	
15	-7.50000e-01	8.962815e-07	
16	-8.00000e-01	9.018531e-07	
17	-8.50000e-01	9.073027e-07	
18	-9.00000e-01	9.126442e-07	
19	-9.50000e-01	9.178876e-07	
20	-1.00000e+00	9.230410e-07	
21	-1.05000e+00	9.281107e-07	
22	-1.10000e+00	9.331024e-07	
23	-1.15000e+00	9.380206e-07	
24	-1.20000e+00	9.428697e-07	
25	-1.25000e+00	9.476534e-07	
26	-1.30000e+00	9.523751e-07	
27	-1.35000e+00	9.570379e-07	
28	-1.40000e+00	9.616446e-07	
29	-1.45000e+00	9.661980e-07	
30	-1.50000e+00	9.707005e-07	
31	-1.55000e+00	9.751542e-07	
32	-1.60000e+00	9.795615e-07	
33	-1.65000e+00	9.839243e-07	
34	-1.70000e+00	9.882444e-07	
35	-1.75000e+00	9.925236e-07	
36	-1.80000e+00	9.967636e-07	
37	-1.85000e+00	1.000966e-06	
38	-1.90000e+00	1.005132e-06	
39	-1.95000e+00	1.009264e-06	
40	-2.00000e+00	1.013361e-06	
41	-2.05000e+00	1.017427e-06	
42	-2.10000e+00	1.021462e-06	
43	-2.15000e+00	1.025467e-06	
44	-2.20000e+00	1.029442e-06	
45	-2.25000e+00	1.033391e-06	
46	-2.30000e+00	1.037312e-06	
47	-2.35000e+00	1.041207e-06	
48	-2.40000e+00	1.045078e-06	
49	-2.45000e+00	1.048924e-06	
50	-2.50000e+00	1.052747e-06	
51	-2.55000e+00	1.056547e-06	
52	-2.60000e+00	1.060325e-06	
53	-2.65000e+00	1.064082e-06	
54	-2.70000e+00	1.067819e-06	

Index   v-sweep         i(vds)          
--------------------------------------------------------------------------------
55	-2.75000e+00	1.071536e-06	
56	-2.80000e+00	1.075234e-06	
57	-2.85000e+00	1.078913e-06	
58	-2.90000e+00	1.082574e-06	
59	-2.95000e+00	1.086217e-06	
60	-3.00000e+00	1.089844e-06	
61	-3.05000e+00	1.093454e-06	
62	-3.10000e+00	1.097049e-06	
63	-3.15000e+00	1.100627e-06	
64	-3.20000e+00	1.104191e-06	
65	-3.25000e+00	1.107741e-06	
66	-3.30000e+00	1.111276e-06	
67	-3.35000e+00	1.114798e-06	
68	-3.40000e+00	1.118307e-06	
69	-3.45000e+00	1.121804e-06	
70	-3.50000e+00	1.125288e-06	
71	-3.55000e+00	1.128760e-06	
72	-3.60000e+00	1.132222e-06	
73	-3.65000e+00	1.135673e-06	
74	-3.70000e+00	1.139114e-06	
75	-3.75000e+00	1.142545e-06	
76	-3.80000e+00	1.145968e-06	
77	-3.85000e+00	1.149383e-06	
78	-3.90000e+00	1.152790e-06	
79	-3.95000e+00	1.156191e-06	
80	-4.00000e+00	1.159585e-06	
81	-4.05000e+00	1.162976e-06	
82	-4.10000e+00	1.166362e-06	
83	-4.15000e+00	1.169746e-06	
84	-4.20000e+00	1.173129e-06	
85	-4.25000e+00	1.176512e-06	
86	-4.30000e+00	1.179896e-06	
87	-4.35000e+00	1.183284e-06	
88	-4.40000e+00	1.186676e-06	
89	-4.45000e+00	1.190076e-06	
90	-4.50000e+00	1.193484e-06	
91	-4.55000e+00	1.196905e-06	
92	-4.60000e+00	1.200339e-06	
93	-4.65000e+00	1.203791e-06	
94	-4.70000e+00	1.207262e-06	
95	-4.75000e+00	1.210756e-06	
96	-4.80000e+00	1.214277e-06	
97	-4.85000e+00	1.217829e-06	
98	-4.90000e+00	1.221415e-06	
99	-4.95000e+00	1.225041e-06	
100	-5.00000e+00	1.228710e-06	
101	-5.05000e+00	1.232428e-06	
102	-5.10000e+00	1.236201e-06	
103	-5.15000e+00	1.240034e-06	
104	-5.20000e+00	1.243933e-06	
105	-5.25000e+00	1.247904e-06	
106	-5.30000e+00	1.251956e-06	
107	-5.35000e+00	1.256095e-06	
108	-5.40000e+00	1.260328e-06	
109	-5.45000e+00	1.264666e-06	
110	-5.50000e+00	1.269115e-06	
111	-5.55000e+00	1.273685e-06	
112	-5.60000e+00	1.278386e-06	

Index   v-sweep         i(vds)          
--------------------------------------------------------------------------------
113	-5.65000e+00	1.283228e-06	
114	-5.70000e+00	1.288221e-06	
115	-5.75000e+00	1.293377e-06	
116	-5.80000e+00	1.298708e-06	
117	-5.85000e+00	1.304225e-06	
118	-5.90000e+00	1.309942e-06	
119	-5.95000e+00	1.315871e-06	
120	-6.00000e+00	1.322027e-06	
121	-6.05000e+00	1.328423e-06	
122	-6.10000e+00	1.335075e-06	
123	-6.15000e+00	1.341999e-06	
124	-6.20000e+00	1.349210e-06	
125	-6.25000e+00	1.356725e-06	
126	-6.30000e+00	1.364562e-06	
127	-6.35000e+00	1.372738e-06	
128	-6.40000e+00	1.381272e-06	
129	-6.45000e+00	1.390182e-06	
130	-6.50000e+00	1.399489e-06	
131	-6.55000e+00	1.409213e-06	
132	-6.60000e+00	1.419374e-06	
133	0.000000e+00	-1.77989e-22	
134	-5.00000e-02	7.068138e-07	
135	-1.00000e-01	1.379929e-06	
136	-1.50000e-01	2.021295e-06	
137	-2.00000e-01	2.631418e-06	
138	-2.50000e-01	3.210451e-06	
139	-3.00000e-01	3.758462e-06	
140	-3.50000e-01	4.275497e-06	
141	-4.00000e-01	4.761603e-06	
142	-4.50000e-01	5.216826e-06	
143	-5.00000e-01	5.641217e-06	
144	-5.50000e-01	6.034833e-06	
145	-6.00000e-01	6.397741e-06	
146	-6.50000e-01	6.730025e-06	
147	-7.00000e-01	7.031790e-06	
148	-7.50000e-01	7.303186e-06	
149	-8.00000e-01	7.544429e-06	
150	-8.50000e-01	7.755861e-06	
151	-9.00000e-01	7.938050e-06	
152	-9.50000e-01	8.091975e-06	
153	-1.00000e+00	8.219336e-06	
154	-1.05000e+00	8.322962e-06	
155	-1.10000e+00	8.407013e-06	
156	-1.15000e+00	8.476505e-06	
157	-1.20000e+00	8.536170e-06	
158	-1.25000e+00	8.589536e-06	
159	-1.30000e+00	8.638823e-06	
160	-1.35000e+00	8.685313e-06	
161	-1.40000e+00	8.729735e-06	
162	-1.45000e+00	8.772516e-06	
163	-1.50000e+00	8.813924e-06	
164	-1.55000e+00	8.854137e-06	
165	-1.60000e+00	8.893280e-06	
166	-1.65000e+00	8.931450e-06	
167	-1.70000e+00	8.968722e-06	
168	-1.75000e+00	9.005159e-06	
169	-1.80000e+00	9.040815e-06	
170	-1.85000e+00	9.075736e-06	

Index   v-sweep         i(vds)          
--------------------------------------------------------------------------------
171	-1.90000e+00	9.109964e-06	
172	-1.95000e+00	9.143537e-06	
173	-2.00000e+00	9.176487e-06	
174	-2.05000e+00	9.208846e-06	
175	-2.10000e+00	9.240641e-06	
176	-2.15000e+00	9.271900e-06	
177	-2.20000e+00	9.302645e-06	
178	-2.25000e+00	9.332901e-06	
179	-2.30000e+00	9.362688e-06	
180	-2.35000e+00	9.392024e-06	
181	-2.40000e+00	9.420930e-06	
182	-2.45000e+00	9.449423e-06	
183	-2.50000e+00	9.477517e-06	
184	-2.55000e+00	9.505230e-06	
185	-2.60000e+00	9.532575e-06	
186	-2.65000e+00	9.559565e-06	
187	-2.70000e+00	9.586215e-06	
188	-2.75000e+00	9.612536e-06	
189	-2.80000e+00	9.638539e-06	
190	-2.85000e+00	9.664236e-06	
191	-2.90000e+00	9.689637e-06	
192	-2.95000e+00	9.714752e-06	
193	-3.00000e+00	9.739591e-06	
194	-3.05000e+00	9.764162e-06	
195	-3.10000e+00	9.788474e-06	
196	-3.15000e+00	9.812535e-06	
197	-3.20000e+00	9.836353e-06	
198	-3.25000e+00	9.859936e-06	
199	-3.30000e+00	9.883290e-06	
200	-3.35000e+00	9.906422e-06	
201	-3.40000e+00	9.929339e-06	
202	-3.45000e+00	9.952047e-06	
203	-3.50000e+00	9.974552e-06	
204	-3.55000e+00	9.996861e-06	
205	-3.60000e+00	1.001898e-05	
206	-3.65000e+00	1.004091e-05	
207	-3.70000e+00	1.006266e-05	
208	-3.75000e+00	1.008423e-05	
209	-3.80000e+00	1.010563e-05	
210	-3.85000e+00	1.012687e-05	
211	-3.90000e+00	1.014794e-05	
212	-3.95000e+00	1.016885e-05	
213	-4.00000e+00	1.018962e-05	
214	-4.05000e+00	1.021023e-05	
215	-4.10000e+00	1.023070e-05	
216	-4.15000e+00	1.025102e-05	
217	-4.20000e+00	1.027122e-05	
218	-4.25000e+00	1.029128e-05	
219	-4.30000e+00	1.031121e-05	
220	-4.35000e+00	1.033102e-05	
221	-4.40000e+00	1.035072e-05	
222	-4.45000e+00	1.037030e-05	
223	-4.50000e+00	1.038977e-05	
224	-4.55000e+00	1.040915e-05	
225	-4.60000e+00	1.042843e-05	
226	-4.65000e+00	1.044762e-05	
227	-4.70000e+00	1.046674e-05	
228	-4.75000e+00	1.048578e-05	

Index   v-sweep         i(vds)          
--------------------------------------------------------------------------------
229	-4.80000e+00	1.050476e-05	
230	-4.85000e+00	1.052368e-05	
231	-4.90000e+00	1.054256e-05	
232	-4.95000e+00	1.056141e-05	
233	-5.00000e+00	1.058024e-05	
234	-5.05000e+00	1.059906e-05	
235	-5.10000e+00	1.061789e-05	
236	-5.15000e+00	1.063675e-05	
237	-5.20000e+00	1.065565e-05	
238	-5.25000e+00	1.067462e-05	
239	-5.30000e+00	1.069366e-05	
240	-5.35000e+00	1.071282e-05	
241	-5.40000e+00	1.073210e-05	
242	-5.45000e+00	1.075155e-05	
243	-5.50000e+00	1.077118e-05	
244	-5.55000e+00	1.079102e-05	
245	-5.60000e+00	1.081112e-05	
246	-5.65000e+00	1.083151e-05	
247	-5.70000e+00	1.085223e-05	
248	-5.75000e+00	1.087331e-05	
249	-5.80000e+00	1.089481e-05	
250	-5.85000e+00	1.091676e-05	
251	-5.90000e+00	1.093923e-05	
252	-5.95000e+00	1.096226e-05	
253	-6.00000e+00	1.098590e-05	
254	-6.05000e+00	1.101023e-05	
255	-6.10000e+00	1.103530e-05	
256	-6.15000e+00	1.106118e-05	
257	-6.20000e+00	1.108794e-05	
258	-6.25000e+00	1.111565e-05	
259	-6.30000e+00	1.114440e-05	
260	-6.35000e+00	1.117426e-05	
261	-6.40000e+00	1.120532e-05	
262	-6.45000e+00	1.123767e-05	
263	-6.50000e+00	1.127140e-05	
264	-6.55000e+00	1.130661e-05	
265	-6.60000e+00	1.134340e-05	
266	0.000000e+00	-1.03947e-21	
267	-5.00000e-02	1.115486e-06	
268	-1.00000e-01	2.199576e-06	
269	-1.50000e-01	3.254108e-06	
270	-2.00000e-01	4.279555e-06	
271	-2.50000e-01	5.276049e-06	
272	-3.00000e-01	6.243634e-06	
273	-3.50000e-01	7.182333e-06	
274	-4.00000e-01	8.092164e-06	
275	-4.50000e-01	8.973143e-06	
276	-5.00000e-01	9.825287e-06	
277	-5.50000e-01	1.064861e-05	
278	-6.00000e-01	1.144314e-05	
279	-6.50000e-01	1.220889e-05	
280	-7.00000e-01	1.294587e-05	
281	-7.50000e-01	1.365412e-05	
282	-8.00000e-01	1.433364e-05	
283	-8.50000e-01	1.498447e-05	
284	-9.00000e-01	1.560662e-05	
285	-9.50000e-01	1.620012e-05	
286	-1.00000e+00	1.676501e-05	

Index   v-sweep         i(vds)          
--------------------------------------------------------------------------------
287	-1.05000e+00	1.730131e-05	
288	-1.10000e+00	1.780906e-05	
289	-1.15000e+00	1.828831e-05	
290	-1.20000e+00	1.873911e-05	
291	-1.25000e+00	1.916152e-05	
292	-1.30000e+00	1.955565e-05	
293	-1.35000e+00	1.992159e-05	
294	-1.40000e+00	2.025951e-05	
295	-1.45000e+00	2.056966e-05	
296	-1.50000e+00	2.085237e-05	
297	-1.55000e+00	2.110816e-05	
298	-1.60000e+00	2.133786e-05	
299	-1.65000e+00	2.154270e-05	
300	-1.70000e+00	2.172455e-05	
301	-1.75000e+00	2.188598e-05	
302	-1.80000e+00	2.203024e-05	
303	-1.85000e+00	2.216083e-05	
304	-1.90000e+00	2.228099e-05	
305	-1.95000e+00	2.239332e-05	
306	-2.00000e+00	2.249969e-05	
307	-2.05000e+00	2.260135e-05	
308	-2.10000e+00	2.269913e-05	
309	-2.15000e+00	2.279362e-05	
310	-2.20000e+00	2.288521e-05	
311	-2.25000e+00	2.297420e-05	
312	-2.30000e+00	2.306081e-05	
313	-2.35000e+00	2.314524e-05	
314	-2.40000e+00	2.322762e-05	
315	-2.45000e+00	2.330810e-05	
316	-2.50000e+00	2.338679e-05	
317	-2.55000e+00	2.346379e-05	
318	-2.60000e+00	2.353919e-05	
319	-2.65000e+00	2.361308e-05	
320	-2.70000e+00	2.368553e-05	
321	-2.75000e+00	2.375661e-05	
322	-2.80000e+00	2.382639e-05	
323	-2.85000e+00	2.389492e-05	
324	-2.90000e+00	2.396227e-05	
325	-2.95000e+00	2.402847e-05	
326	-3.00000e+00	2.409360e-05	
327	-3.05000e+00	2.415767e-05	
328	-3.10000e+00	2.422075e-05	
329	-3.15000e+00	2.428287e-05	
330	-3.20000e+00	2.434407e-05	
331	-3.25000e+00	2.440438e-05	
332	-3.30000e+00	2.446383e-05	
333	-3.35000e+00	2.452246e-05	
334	-3.40000e+00	2.458030e-05	
335	-3.45000e+00	2.463738e-05	
336	-3.50000e+00	2.469371e-05	
337	-3.55000e+00	2.474934e-05	
338	-3.60000e+00	2.480428e-05	
339	-3.65000e+00	2.485855e-05	
340	-3.70000e+00	2.491218e-05	
341	-3.75000e+00	2.496519e-05	
342	-3.80000e+00	2.501759e-05	
343	-3.85000e+00	2.506941e-05	
344	-3.90000e+00	2.512067e-05	

Index   v-sweep         i(vds)          
--------------------------------------------------------------------------------
345	-3.95000e+00	2.517137e-05	
346	-4.00000e+00	2.522155e-05	
347	-4.05000e+00	2.527121e-05	
348	-4.10000e+00	2.532037e-05	
349	-4.15000e+00	2.536904e-05	
350	-4.20000e+00	2.541723e-05	
351	-4.25000e+00	2.546497e-05	
352	-4.30000e+00	2.551226e-05	
353	-4.35000e+00	2.555912e-05	
354	-4.40000e+00	2.560555e-05	
355	-4.45000e+00	2.565158e-05	
356	-4.50000e+00	2.569720e-05	
357	-4.55000e+00	2.574244e-05	
358	-4.60000e+00	2.578729e-05	
359	-4.65000e+00	2.583178e-05	
360	-4.70000e+00	2.587591e-05	
361	-4.75000e+00	2.591970e-05	
362	-4.80000e+00	2.596314e-05	
363	-4.85000e+00	2.600626e-05	
364	-4.90000e+00	2.604906e-05	
365	-4.95000e+00	2.609156e-05	
366	-5.00000e+00	2.613376e-05	
367	-5.05000e+00	2.617568e-05	
368	-5.10000e+00	2.621732e-05	
369	-5.15000e+00	2.625871e-05	
370	-5.20000e+00	2.629985e-05	
371	-5.25000e+00	2.634076e-05	
372	-5.30000e+00	2.638145e-05	
373	-5.35000e+00	2.642194e-05	
374	-5.40000e+00	2.646226e-05	
375	-5.45000e+00	2.650241e-05	
376	-5.50000e+00	2.654242e-05	
377	-5.55000e+00	2.658232e-05	
378	-5.60000e+00	2.662212e-05	
379	-5.65000e+00	2.666187e-05	
380	-5.70000e+00	2.670158e-05	
381	-5.75000e+00	2.674130e-05	
382	-5.80000e+00	2.678107e-05	
383	-5.85000e+00	2.682091e-05	
384	-5.90000e+00	2.686088e-05	
385	-5.95000e+00	2.690103e-05	
386	-6.00000e+00	2.694141e-05	
387	-6.05000e+00	2.698207e-05	
388	-6.10000e+00	2.702308e-05	
389	-6.15000e+00	2.706451e-05	
390	-6.20000e+00	2.710642e-05	
391	-6.25000e+00	2.714890e-05	
392	-6.30000e+00	2.719203e-05	
393	-6.35000e+00	2.723589e-05	
394	-6.40000e+00	2.728060e-05	
395	-6.45000e+00	2.732624e-05	
396	-6.50000e+00	2.737294e-05	
397	-6.55000e+00	2.742080e-05	
398	-6.60000e+00	2.746996e-05	
399	0.000000e+00	-2.93604e-21	
400	-5.00000e-02	1.456614e-06	
401	-1.00000e-01	2.884224e-06	
402	-1.50000e-01	4.284578e-06	

Index   v-sweep         i(vds)          
--------------------------------------------------------------------------------
403	-2.00000e-01	5.658133e-06	
404	-2.50000e-01	7.005009e-06	
405	-3.00000e-01	8.325239e-06	
406	-3.50000e-01	9.618837e-06	
407	-4.00000e-01	1.088581e-05	
408	-4.50000e-01	1.212616e-05	
409	-5.00000e-01	1.333989e-05	
410	-5.50000e-01	1.452701e-05	
411	-6.00000e-01	1.568752e-05	
412	-6.50000e-01	1.682143e-05	
413	-7.00000e-01	1.792875e-05	
414	-7.50000e-01	1.900947e-05	
415	-8.00000e-01	2.006361e-05	
416	-8.50000e-01	2.109118e-05	
417	-9.00000e-01	2.209217e-05	
418	-9.50000e-01	2.306660e-05	
419	-1.00000e+00	2.401447e-05	
420	-1.05000e+00	2.493580e-05	
421	-1.10000e+00	2.583059e-05	
422	-1.15000e+00	2.669885e-05	
423	-1.20000e+00	2.754058e-05	
424	-1.25000e+00	2.835581e-05	
425	-1.30000e+00	2.914453e-05	
426	-1.35000e+00	2.990677e-05	
427	-1.40000e+00	3.064254e-05	
428	-1.45000e+00	3.135184e-05	
429	-1.50000e+00	3.203471e-05	
430	-1.55000e+00	3.269114e-05	
431	-1.60000e+00	3.332118e-05	
432	-1.65000e+00	3.392484e-05	
433	-1.70000e+00	3.450216e-05	
434	-1.75000e+00	3.505316e-05	
435	-1.80000e+00	3.557790e-05	
436	-1.85000e+00	3.607643e-05	
437	-1.90000e+00	3.654884e-05	
438	-1.95000e+00	3.699520e-05	
439	-2.00000e+00	3.741567e-05	
440	-2.05000e+00	3.781041e-05	
441	-2.10000e+00	3.817969e-05	
442	-2.15000e+00	3.852385e-05	
443	-2.20000e+00	3.884343e-05	
444	-2.25000e+00	3.913916e-05	
445	-2.30000e+00	3.941211e-05	
446	-2.35000e+00	3.966375e-05	
447	-2.40000e+00	3.989602e-05	
448	-2.45000e+00	4.011125e-05	
449	-2.50000e+00	4.031199e-05	
450	-2.55000e+00	4.050073e-05	
451	-2.60000e+00	4.067964e-05	
452	-2.65000e+00	4.085046e-05	
453	-2.70000e+00	4.101448e-05	
454	-2.75000e+00	4.117266e-05	
455	-2.80000e+00	4.132572e-05	
456	-2.85000e+00	4.147419e-05	
457	-2.90000e+00	4.161847e-05	
458	-2.95000e+00	4.175892e-05	
459	-3.00000e+00	4.189579e-05	
460	-3.05000e+00	4.202933e-05	

Index   v-sweep         i(vds)          
--------------------------------------------------------------------------------
461	-3.10000e+00	4.215975e-05	
462	-3.15000e+00	4.228722e-05	
463	-3.20000e+00	4.241192e-05	
464	-3.25000e+00	4.253398e-05	
465	-3.30000e+00	4.265355e-05	
466	-3.35000e+00	4.277074e-05	
467	-3.40000e+00	4.288567e-05	
468	-3.45000e+00	4.299846e-05	
469	-3.50000e+00	4.310918e-05	
470	-3.55000e+00	4.321795e-05	
471	-3.60000e+00	4.332484e-05	
472	-3.65000e+00	4.342992e-05	
473	-3.70000e+00	4.353329e-05	
474	-3.75000e+00	4.363500e-05	
475	-3.80000e+00	4.373513e-05	
476	-3.85000e+00	4.383373e-05	
477	-3.90000e+00	4.393086e-05	
478	-3.95000e+00	4.402658e-05	
479	-4.00000e+00	4.412094e-05	
480	-4.05000e+00	4.421400e-05	
481	-4.10000e+00	4.430579e-05	
482	-4.15000e+00	4.439636e-05	
483	-4.20000e+00	4.448575e-05	
484	-4.25000e+00	4.457401e-05	
485	-4.30000e+00	4.466116e-05	
486	-4.35000e+00	4.474726e-05	
487	-4.40000e+00	4.483233e-05	
488	-4.45000e+00	4.491640e-05	
489	-4.50000e+00	4.499950e-05	
490	-4.55000e+00	4.508167e-05	
491	-4.60000e+00	4.516294e-05	
492	-4.65000e+00	4.524332e-05	
493	-4.70000e+00	4.532285e-05	
494	-4.75000e+00	4.540156e-05	
495	-4.80000e+00	4.547946e-05	
496	-4.85000e+00	4.555658e-05	
497	-4.90000e+00	4.563293e-05	
498	-4.95000e+00	4.570856e-05	
499	-5.00000e+00	4.578346e-05	
500	-5.05000e+00	4.585766e-05	
501	-5.10000e+00	4.593119e-05	
502	-5.15000e+00	4.600405e-05	
503	-5.20000e+00	4.607627e-05	
504	-5.25000e+00	4.614787e-05	
505	-5.30000e+00	4.621886e-05	
506	-5.35000e+00	4.628926e-05	
507	-5.40000e+00	4.635908e-05	
508	-5.45000e+00	4.642834e-05	
509	-5.50000e+00	4.649707e-05	
510	-5.55000e+00	4.656527e-05	
511	-5.60000e+00	4.663296e-05	
512	-5.65000e+00	4.670016e-05	
513	-5.70000e+00	4.676690e-05	
514	-5.75000e+00	4.683318e-05	
515	-5.80000e+00	4.689904e-05	
516	-5.85000e+00	4.696449e-05	
517	-5.90000e+00	4.702956e-05	
518	-5.95000e+00	4.709427e-05	

Index   v-sweep         i(vds)          
--------------------------------------------------------------------------------
519	-6.00000e+00	4.715865e-05	
520	-6.05000e+00	4.722273e-05	
521	-6.10000e+00	4.728655e-05	
522	-6.15000e+00	4.735013e-05	
523	-6.20000e+00	4.741353e-05	
524	-6.25000e+00	4.747678e-05	
525	-6.30000e+00	4.753994e-05	
526	-6.35000e+00	4.760305e-05	
527	-6.40000e+00	4.766617e-05	
528	-6.45000e+00	4.772937e-05	
529	-6.50000e+00	4.779271e-05	
530	-6.55000e+00	4.785628e-05	
531	-6.60000e+00	4.792014e-05	
532	0.000000e+00	2.104553e-25	
533	-5.00000e-02	1.744163e-06	
534	-1.00000e-01	3.461529e-06	
535	-1.50000e-01	5.153780e-06	
536	-2.00000e-01	6.821360e-06	
537	-2.50000e-01	8.464381e-06	
538	-3.00000e-01	1.008287e-05	
539	-3.50000e-01	1.167684e-05	
540	-4.00000e-01	1.324629e-05	
541	-4.50000e-01	1.479121e-05	
542	-5.00000e-01	1.631160e-05	
543	-5.50000e-01	1.780747e-05	
544	-6.00000e-01	1.927881e-05	
545	-6.50000e-01	2.072561e-05	
546	-7.00000e-01	2.214789e-05	
547	-7.50000e-01	2.354563e-05	
548	-8.00000e-01	2.491884e-05	
549	-8.50000e-01	2.626751e-05	
550	-9.00000e-01	2.759165e-05	
551	-9.50000e-01	2.889125e-05	
552	-1.00000e+00	3.016631e-05	
553	-1.05000e+00	3.141684e-05	
554	-1.10000e+00	3.264283e-05	
555	-1.15000e+00	3.384429e-05	
556	-1.20000e+00	3.502121e-05	
557	-1.25000e+00	3.617359e-05	
558	-1.30000e+00	3.730145e-05	
559	-1.35000e+00	3.840476e-05	
560	-1.40000e+00	3.948355e-05	
561	-1.45000e+00	4.053781e-05	
562	-1.50000e+00	4.156754e-05	
563	-1.55000e+00	4.257274e-05	
564	-1.60000e+00	4.355342e-05	
565	-1.65000e+00	4.450958e-05	
566	-1.70000e+00	4.544123e-05	
567	-1.75000e+00	4.634836e-05	
568	-1.80000e+00	4.723098e-05	
569	-1.85000e+00	4.808911e-05	
570	-1.90000e+00	4.892274e-05	
571	-1.95000e+00	4.973188e-05	
572	-2.00000e+00	5.051654e-05	
573	-2.05000e+00	5.127674e-05	
574	-2.10000e+00	5.201247e-05	
575	-2.15000e+00	5.272377e-05	
576	-2.20000e+00	5.341065e-05	

Index   v-sweep         i(vds)          
--------------------------------------------------------------------------------
577	-2.25000e+00	5.407312e-05	
578	-2.30000e+00	5.471121e-05	
579	-2.35000e+00	5.532496e-05	
580	-2.40000e+00	5.591441e-05	
581	-2.45000e+00	5.647960e-05	
582	-2.50000e+00	5.702061e-05	
583	-2.55000e+00	5.753751e-05	
584	-2.60000e+00	5.803042e-05	
585	-2.65000e+00	5.849948e-05	
586	-2.70000e+00	5.894490e-05	
587	-2.75000e+00	5.936695e-05	
588	-2.80000e+00	5.976600e-05	
589	-2.85000e+00	6.014257e-05	
590	-2.90000e+00	6.049737e-05	
591	-2.95000e+00	6.083133e-05	
592	-3.00000e+00	6.114572e-05	
593	-3.05000e+00	6.144205e-05	
594	-3.10000e+00	6.172214e-05	
595	-3.15000e+00	6.198789e-05	
596	-3.20000e+00	6.224118e-05	
597	-3.25000e+00	6.248372e-05	
598	-3.30000e+00	6.271693e-05	
599	-3.35000e+00	6.294196e-05	
600	-3.40000e+00	6.315970e-05	
601	-3.45000e+00	6.337088e-05	
602	-3.50000e+00	6.357605e-05	
603	-3.55000e+00	6.377569e-05	
604	-3.60000e+00	6.397019e-05	
605	-3.65000e+00	6.415988e-05	
606	-3.70000e+00	6.434506e-05	
607	-3.75000e+00	6.452598e-05	
608	-3.80000e+00	6.470288e-05	
609	-3.85000e+00	6.487598e-05	
610	-3.90000e+00	6.504547e-05	
611	-3.95000e+00	6.521153e-05	
612	-4.00000e+00	6.537432e-05	
613	-4.05000e+00	6.553400e-05	
614	-4.10000e+00	6.569071e-05	
615	-4.15000e+00	6.584459e-05	
616	-4.20000e+00	6.599575e-05	
617	-4.25000e+00	6.614431e-05	
618	-4.30000e+00	6.629038e-05	
619	-4.35000e+00	6.643406e-05	
620	-4.40000e+00	6.657546e-05	
621	-4.45000e+00	6.671465e-05	
622	-4.50000e+00	6.685173e-05	
623	-4.55000e+00	6.698677e-05	
624	-4.60000e+00	6.711985e-05	
625	-4.65000e+00	6.725104e-05	
626	-4.70000e+00	6.738041e-05	
627	-4.75000e+00	6.750802e-05	
628	-4.80000e+00	6.763394e-05	
629	-4.85000e+00	6.775822e-05	
630	-4.90000e+00	6.788092e-05	
631	-4.95000e+00	6.800209e-05	
632	-5.00000e+00	6.812178e-05	
633	-5.05000e+00	6.824004e-05	
634	-5.10000e+00	6.835691e-05	

Index   v-sweep         i(vds)          
--------------------------------------------------------------------------------
635	-5.15000e+00	6.847244e-05	
636	-5.20000e+00	6.858666e-05	
637	-5.25000e+00	6.869962e-05	
638	-5.30000e+00	6.881135e-05	
639	-5.35000e+00	6.892189e-05	
640	-5.40000e+00	6.903128e-05	
641	-5.45000e+00	6.913955e-05	
642	-5.50000e+00	6.924672e-05	
643	-5.55000e+00	6.935284e-05	
644	-5.60000e+00	6.945792e-05	
645	-5.65000e+00	6.956200e-05	
646	-5.70000e+00	6.966511e-05	
647	-5.75000e+00	6.976726e-05	
648	-5.80000e+00	6.986850e-05	
649	-5.85000e+00	6.996883e-05	
650	-5.90000e+00	7.006830e-05	
651	-5.95000e+00	7.016691e-05	
652	-6.00000e+00	7.026469e-05	
653	-6.05000e+00	7.036168e-05	
654	-6.10000e+00	7.045788e-05	
655	-6.15000e+00	7.055333e-05	
656	-6.20000e+00	7.064804e-05	
657	-6.25000e+00	7.074205e-05	
658	-6.30000e+00	7.083538e-05	
659	-6.35000e+00	7.092805e-05	
660	-6.40000e+00	7.102010e-05	
661	-6.45000e+00	7.111155e-05	
662	-6.50000e+00	7.120243e-05	
663	-6.55000e+00	7.129278e-05	
664	-6.60000e+00	7.138264e-05	
665	0.000000e+00	1.376546e-20	
666	-5.00000e-02	1.988828e-06	
667	-1.00000e-01	3.952842e-06	
668	-1.50000e-01	5.893668e-06	
669	-2.00000e-01	7.811740e-06	
670	-2.50000e-01	9.707168e-06	
671	-3.00000e-01	1.157998e-05	
672	-3.50000e-01	1.343017e-05	
673	-4.00000e-01	1.525775e-05	
674	-4.50000e-01	1.706270e-05	
675	-5.00000e-01	1.884503e-05	
676	-5.50000e-01	2.060472e-05	
677	-6.00000e-01	2.234177e-05	
678	-6.50000e-01	2.405618e-05	
679	-7.00000e-01	2.574794e-05	
680	-7.50000e-01	2.741705e-05	
681	-8.00000e-01	2.906349e-05	
682	-8.50000e-01	3.068727e-05	
683	-9.00000e-01	3.228839e-05	
684	-9.50000e-01	3.386683e-05	
685	-1.00000e+00	3.542259e-05	
686	-1.05000e+00	3.695567e-05	
687	-1.10000e+00	3.846607e-05	
688	-1.15000e+00	3.995377e-05	
689	-1.20000e+00	4.141878e-05	
690	-1.25000e+00	4.286109e-05	
691	-1.30000e+00	4.428070e-05	
692	-1.35000e+00	4.567760e-05	

Index   v-sweep         i(vds)          
--------------------------------------------------------------------------------
693	-1.40000e+00	4.705179e-05	
694	-1.45000e+00	4.840327e-05	
695	-1.50000e+00	4.973204e-05	
696	-1.55000e+00	5.103808e-05	
697	-1.60000e+00	5.232140e-05	
698	-1.65000e+00	5.358199e-05	
699	-1.70000e+00	5.481986e-05	
700	-1.75000e+00	5.603499e-05	
701	-1.80000e+00	5.722739e-05	
702	-1.85000e+00	5.839706e-05	
703	-1.90000e+00	5.954399e-05	
704	-1.95000e+00	6.066818e-05	
705	-2.00000e+00	6.176962e-05	
706	-2.05000e+00	6.284833e-05	
707	-2.10000e+00	6.390429e-05	
708	-2.15000e+00	6.493751e-05	
709	-2.20000e+00	6.594798e-05	
710	-2.25000e+00	6.693571e-05	
711	-2.30000e+00	6.790070e-05	
712	-2.35000e+00	6.884295e-05	
713	-2.40000e+00	6.976246e-05	
714	-2.45000e+00	7.065923e-05	
715	-2.50000e+00	7.153327e-05	
716	-2.55000e+00	7.238458e-05	
717	-2.60000e+00	7.321317e-05	
718	-2.65000e+00	7.401904e-05	
719	-2.70000e+00	7.480222e-05	
720	-2.75000e+00	7.556270e-05	
721	-2.80000e+00	7.630051e-05	
722	-2.85000e+00	7.701565e-05	
723	-2.90000e+00	7.770817e-05	
724	-2.95000e+00	7.837808e-05	
725	-3.00000e+00	7.902541e-05	
726	-3.05000e+00	7.965023e-05	
727	-3.10000e+00	8.025258e-05	
728	-3.15000e+00	8.083254e-05	
729	-3.20000e+00	8.139020e-05	
730	-3.25000e+00	8.192569e-05	
731	-3.30000e+00	8.243918e-05	
732	-3.35000e+00	8.293087e-05	
733	-3.40000e+00	8.340107e-05	
734	-3.45000e+00	8.385014e-05	
735	-3.50000e+00	8.427859e-05	
736	-3.55000e+00	8.468709e-05	
737	-3.60000e+00	8.507648e-05	
738	-3.65000e+00	8.544781e-05	
739	-3.70000e+00	8.580236e-05	
740	-3.75000e+00	8.614150e-05	
741	-3.80000e+00	8.646673e-05	
742	-3.85000e+00	8.677947e-05	
743	-3.90000e+00	8.708103e-05	
744	-3.95000e+00	8.737256e-05	
745	-4.00000e+00	8.765501e-05	
746	-4.05000e+00	8.792916e-05	
747	-4.10000e+00	8.819568e-05	
748	-4.15000e+00	8.845512e-05	
749	-4.20000e+00	8.870795e-05	
750	-4.25000e+00	8.895457e-05	

Index   v-sweep         i(vds)          
--------------------------------------------------------------------------------
751	-4.30000e+00	8.919536e-05	
752	-4.35000e+00	8.943064e-05	
753	-4.40000e+00	8.966070e-05	
754	-4.45000e+00	8.988582e-05	
755	-4.50000e+00	9.010623e-05	
756	-4.55000e+00	9.032218e-05	
757	-4.60000e+00	9.053386e-05	
758	-4.65000e+00	9.074149e-05	
759	-4.70000e+00	9.094524e-05	
760	-4.75000e+00	9.114528e-05	
761	-4.80000e+00	9.134178e-05	
762	-4.85000e+00	9.153488e-05	
763	-4.90000e+00	9.172472e-05	
764	-4.95000e+00	9.191145e-05	
765	-5.00000e+00	9.209518e-05	
766	-5.05000e+00	9.227603e-05	
767	-5.10000e+00	9.245411e-05	
768	-5.15000e+00	9.262953e-05	
769	-5.20000e+00	9.280238e-05	
770	-5.25000e+00	9.297277e-05	
771	-5.30000e+00	9.314077e-05	
772	-5.35000e+00	9.330647e-05	
773	-5.40000e+00	9.346996e-05	
774	-5.45000e+00	9.363130e-05	
775	-5.50000e+00	9.379058e-05	
776	-5.55000e+00	9.394785e-05	
777	-5.60000e+00	9.410319e-05	
778	-5.65000e+00	9.425665e-05	
779	-5.70000e+00	9.440830e-05	
780	-5.75000e+00	9.455819e-05	
781	-5.80000e+00	9.470637e-05	
782	-5.85000e+00	9.485290e-05	
783	-5.90000e+00	9.499783e-05	
784	-5.95000e+00	9.514120e-05	
785	-6.00000e+00	9.528306e-05	
786	-6.05000e+00	9.542346e-05	
787	-6.10000e+00	9.556242e-05	
788	-6.15000e+00	9.570000e-05	
789	-6.20000e+00	9.583623e-05	
790	-6.25000e+00	9.597115e-05	
791	-6.30000e+00	9.610480e-05	
792	-6.35000e+00	9.623720e-05	
793	-6.40000e+00	9.636840e-05	
794	-6.45000e+00	9.649842e-05	
795	-6.50000e+00	9.662730e-05	
796	-6.55000e+00	9.675506e-05	
797	-6.60000e+00	9.688174e-05	
Note: No ".plot", ".print", or ".fourier" lines; no simulations run
