
Note: Compatibility modes selected: hs

Warning: m=xx on .subckt line will override multiplier m hierarchy!


Circuit: ***************************

Doing analysis at TEMP = 125.000000 and TNOM = 125.000000


No. of Data Rows : 798
                          ***************************
                          DC transfer characteristic  Mon Jan  9 13:58:51  2023
--------------------------------------------------------------------------------
Index   v-sweep         i(vds)          
--------------------------------------------------------------------------------
0	0.000000e+00	-4.01678e-27	
1	-5.00000e-02	5.524693e-07	
2	-1.00000e-01	1.003766e-06	
3	-1.50000e-01	1.361668e-06	
4	-2.00000e-01	1.629558e-06	
5	-2.50000e-01	1.812030e-06	
6	-3.00000e-01	1.920210e-06	
7	-3.50000e-01	1.976820e-06	
8	-4.00000e-01	2.008008e-06	
9	-4.50000e-01	2.029319e-06	
10	-5.00000e-01	2.046716e-06	
11	-5.50000e-01	2.062258e-06	
12	-6.00000e-01	2.076726e-06	
13	-6.50000e-01	2.090463e-06	
14	-7.00000e-01	2.103646e-06	
15	-7.50000e-01	2.116377e-06	
16	-8.00000e-01	2.128723e-06	
17	-8.50000e-01	2.140733e-06	
18	-9.00000e-01	2.152443e-06	
19	-9.50000e-01	2.163881e-06	
20	-1.00000e+00	2.175073e-06	
21	-1.05000e+00	2.186037e-06	
22	-1.10000e+00	2.196792e-06	
23	-1.15000e+00	2.207353e-06	
24	-1.20000e+00	2.217733e-06	
25	-1.25000e+00	2.227946e-06	
26	-1.30000e+00	2.238001e-06	
27	-1.35000e+00	2.247909e-06	
28	-1.40000e+00	2.257679e-06	
29	-1.45000e+00	2.267318e-06	
30	-1.50000e+00	2.276834e-06	
31	-1.55000e+00	2.286235e-06	
32	-1.60000e+00	2.295526e-06	
33	-1.65000e+00	2.304714e-06	
34	-1.70000e+00	2.313803e-06	
35	-1.75000e+00	2.322800e-06	
36	-1.80000e+00	2.331707e-06	
37	-1.85000e+00	2.340531e-06	
38	-1.90000e+00	2.349274e-06	
39	-1.95000e+00	2.357941e-06	
40	-2.00000e+00	2.366535e-06	
41	-2.05000e+00	2.375060e-06	
42	-2.10000e+00	2.383518e-06	
43	-2.15000e+00	2.391913e-06	
44	-2.20000e+00	2.400247e-06	
45	-2.25000e+00	2.408524e-06	
46	-2.30000e+00	2.416744e-06	
47	-2.35000e+00	2.424912e-06	
48	-2.40000e+00	2.433028e-06	
49	-2.45000e+00	2.441095e-06	
50	-2.50000e+00	2.449115e-06	
51	-2.55000e+00	2.457091e-06	
52	-2.60000e+00	2.465022e-06	
53	-2.65000e+00	2.472912e-06	
54	-2.70000e+00	2.480762e-06	

Index   v-sweep         i(vds)          
--------------------------------------------------------------------------------
55	-2.75000e+00	2.488573e-06	
56	-2.80000e+00	2.496347e-06	
57	-2.85000e+00	2.504086e-06	
58	-2.90000e+00	2.511789e-06	
59	-2.95000e+00	2.519460e-06	
60	-3.00000e+00	2.527099e-06	
61	-3.05000e+00	2.534707e-06	
62	-3.10000e+00	2.542286e-06	
63	-3.15000e+00	2.549837e-06	
64	-3.20000e+00	2.557360e-06	
65	-3.25000e+00	2.564857e-06	
66	-3.30000e+00	2.572329e-06	
67	-3.35000e+00	2.579777e-06	
68	-3.40000e+00	2.587203e-06	
69	-3.45000e+00	2.594607e-06	
70	-3.50000e+00	2.601990e-06	
71	-3.55000e+00	2.609355e-06	
72	-3.60000e+00	2.616702e-06	
73	-3.65000e+00	2.624032e-06	
74	-3.70000e+00	2.631348e-06	
75	-3.75000e+00	2.638651e-06	
76	-3.80000e+00	2.645943e-06	
77	-3.85000e+00	2.653225e-06	
78	-3.90000e+00	2.660500e-06	
79	-3.95000e+00	2.667770e-06	
80	-4.00000e+00	2.675039e-06	
81	-4.05000e+00	2.682307e-06	
82	-4.10000e+00	2.689580e-06	
83	-4.15000e+00	2.696860e-06	
84	-4.20000e+00	2.704152e-06	
85	-4.25000e+00	2.711458e-06	
86	-4.30000e+00	2.718785e-06	
87	-4.35000e+00	2.726136e-06	
88	-4.40000e+00	2.733518e-06	
89	-4.45000e+00	2.740936e-06	
90	-4.50000e+00	2.748398e-06	
91	-4.55000e+00	2.755909e-06	
92	-4.60000e+00	2.763478e-06	
93	-4.65000e+00	2.771114e-06	
94	-4.70000e+00	2.778824e-06	
95	-4.75000e+00	2.786620e-06	
96	-4.80000e+00	2.794511e-06	
97	-4.85000e+00	2.802509e-06	
98	-4.90000e+00	2.810625e-06	
99	-4.95000e+00	2.818874e-06	
100	-5.00000e+00	2.827268e-06	
101	-5.05000e+00	2.835822e-06	
102	-5.10000e+00	2.844552e-06	
103	-5.15000e+00	2.853476e-06	
104	-5.20000e+00	2.862609e-06	
105	-5.25000e+00	2.871972e-06	
106	-5.30000e+00	2.881584e-06	
107	-5.35000e+00	2.891467e-06	
108	-5.40000e+00	2.901641e-06	
109	-5.45000e+00	2.912131e-06	
110	-5.50000e+00	2.922961e-06	
111	-5.55000e+00	2.934156e-06	
112	-5.60000e+00	2.945744e-06	

Index   v-sweep         i(vds)          
--------------------------------------------------------------------------------
113	-5.65000e+00	2.957752e-06	
114	-5.70000e+00	2.970211e-06	
115	-5.75000e+00	2.983151e-06	
116	-5.80000e+00	2.996604e-06	
117	-5.85000e+00	3.010603e-06	
118	-5.90000e+00	3.025184e-06	
119	-5.95000e+00	3.040382e-06	
120	-6.00000e+00	3.056235e-06	
121	-6.05000e+00	3.072783e-06	
122	-6.10000e+00	3.090065e-06	
123	-6.15000e+00	3.108123e-06	
124	-6.20000e+00	3.127002e-06	
125	-6.25000e+00	3.146744e-06	
126	-6.30000e+00	3.167397e-06	
127	-6.35000e+00	3.189009e-06	
128	-6.40000e+00	3.211627e-06	
129	-6.45000e+00	3.235304e-06	
130	-6.50000e+00	3.260090e-06	
131	-6.55000e+00	3.286040e-06	
132	-6.60000e+00	3.313207e-06	
133	0.000000e+00	-4.32790e-25	
134	-5.00000e-02	2.034472e-06	
135	-1.00000e-01	3.965562e-06	
136	-1.50000e-01	5.800078e-06	
137	-2.00000e-01	7.539893e-06	
138	-2.50000e-01	9.185685e-06	
139	-3.00000e-01	1.073785e-05	
140	-3.50000e-01	1.219670e-05	
141	-4.00000e-01	1.356258e-05	
142	-4.50000e-01	1.483579e-05	
143	-5.00000e-01	1.601667e-05	
144	-5.50000e-01	1.710560e-05	
145	-6.00000e-01	1.810296e-05	
146	-6.50000e-01	1.900922e-05	
147	-7.00000e-01	1.982493e-05	
148	-7.50000e-01	2.055082e-05	
149	-8.00000e-01	2.118791e-05	
150	-8.50000e-01	2.173778e-05	
151	-9.00000e-01	2.220302e-05	
152	-9.50000e-01	2.258804e-05	
153	-1.00000e+00	2.290025e-05	
154	-1.05000e+00	2.315094e-05	
155	-1.10000e+00	2.335445e-05	
156	-1.15000e+00	2.352507e-05	
157	-1.20000e+00	2.367397e-05	
158	-1.25000e+00	2.380843e-05	
159	-1.30000e+00	2.393276e-05	
160	-1.35000e+00	2.404952e-05	
161	-1.40000e+00	2.416024e-05	
162	-1.45000e+00	2.426594e-05	
163	-1.50000e+00	2.436730e-05	
164	-1.55000e+00	2.446486e-05	
165	-1.60000e+00	2.455901e-05	
166	-1.65000e+00	2.465007e-05	
167	-1.70000e+00	2.473832e-05	
168	-1.75000e+00	2.482399e-05	
169	-1.80000e+00	2.490727e-05	
170	-1.85000e+00	2.498835e-05	

Index   v-sweep         i(vds)          
--------------------------------------------------------------------------------
171	-1.90000e+00	2.506736e-05	
172	-1.95000e+00	2.514446e-05	
173	-2.00000e+00	2.521977e-05	
174	-2.05000e+00	2.529339e-05	
175	-2.10000e+00	2.536543e-05	
176	-2.15000e+00	2.543597e-05	
177	-2.20000e+00	2.550511e-05	
178	-2.25000e+00	2.557292e-05	
179	-2.30000e+00	2.563947e-05	
180	-2.35000e+00	2.570482e-05	
181	-2.40000e+00	2.576905e-05	
182	-2.45000e+00	2.583219e-05	
183	-2.50000e+00	2.589431e-05	
184	-2.55000e+00	2.595545e-05	
185	-2.60000e+00	2.601565e-05	
186	-2.65000e+00	2.607497e-05	
187	-2.70000e+00	2.613343e-05	
188	-2.75000e+00	2.619108e-05	
189	-2.80000e+00	2.624795e-05	
190	-2.85000e+00	2.630407e-05	
191	-2.90000e+00	2.635947e-05	
192	-2.95000e+00	2.641418e-05	
193	-3.00000e+00	2.646823e-05	
194	-3.05000e+00	2.652164e-05	
195	-3.10000e+00	2.657444e-05	
196	-3.15000e+00	2.662665e-05	
197	-3.20000e+00	2.667829e-05	
198	-3.25000e+00	2.672938e-05	
199	-3.30000e+00	2.677995e-05	
200	-3.35000e+00	2.683000e-05	
201	-3.40000e+00	2.687955e-05	
202	-3.45000e+00	2.692864e-05	
203	-3.50000e+00	2.697726e-05	
204	-3.55000e+00	2.702543e-05	
205	-3.60000e+00	2.707318e-05	
206	-3.65000e+00	2.712050e-05	
207	-3.70000e+00	2.716743e-05	
208	-3.75000e+00	2.721396e-05	
209	-3.80000e+00	2.726011e-05	
210	-3.85000e+00	2.730590e-05	
211	-3.90000e+00	2.735133e-05	
212	-3.95000e+00	2.739642e-05	
213	-4.00000e+00	2.744119e-05	
214	-4.05000e+00	2.748563e-05	
215	-4.10000e+00	2.752976e-05	
216	-4.15000e+00	2.757360e-05	
217	-4.20000e+00	2.761716e-05	
218	-4.25000e+00	2.766045e-05	
219	-4.30000e+00	2.770349e-05	
220	-4.35000e+00	2.774628e-05	
221	-4.40000e+00	2.778884e-05	
222	-4.45000e+00	2.783120e-05	
223	-4.50000e+00	2.787336e-05	
224	-4.55000e+00	2.791536e-05	
225	-4.60000e+00	2.795720e-05	
226	-4.65000e+00	2.799891e-05	
227	-4.70000e+00	2.804051e-05	
228	-4.75000e+00	2.808204e-05	

Index   v-sweep         i(vds)          
--------------------------------------------------------------------------------
229	-4.80000e+00	2.812353e-05	
230	-4.85000e+00	2.816500e-05	
231	-4.90000e+00	2.820649e-05	
232	-4.95000e+00	2.824805e-05	
233	-5.00000e+00	2.828971e-05	
234	-5.05000e+00	2.833153e-05	
235	-5.10000e+00	2.837355e-05	
236	-5.15000e+00	2.841584e-05	
237	-5.20000e+00	2.845846e-05	
238	-5.25000e+00	2.850147e-05	
239	-5.30000e+00	2.854494e-05	
240	-5.35000e+00	2.858896e-05	
241	-5.40000e+00	2.863362e-05	
242	-5.45000e+00	2.867899e-05	
243	-5.50000e+00	2.872519e-05	
244	-5.55000e+00	2.877232e-05	
245	-5.60000e+00	2.882049e-05	
246	-5.65000e+00	2.886983e-05	
247	-5.70000e+00	2.892046e-05	
248	-5.75000e+00	2.897253e-05	
249	-5.80000e+00	2.902618e-05	
250	-5.85000e+00	2.908157e-05	
251	-5.90000e+00	2.913887e-05	
252	-5.95000e+00	2.919825e-05	
253	-6.00000e+00	2.925989e-05	
254	-6.05000e+00	2.932400e-05	
255	-6.10000e+00	2.939079e-05	
256	-6.15000e+00	2.946046e-05	
257	-6.20000e+00	2.953324e-05	
258	-6.25000e+00	2.960938e-05	
259	-6.30000e+00	2.968913e-05	
260	-6.35000e+00	2.977275e-05	
261	-6.40000e+00	2.986050e-05	
262	-6.45000e+00	2.995268e-05	
263	-6.50000e+00	3.004958e-05	
264	-6.55000e+00	3.015151e-05	
265	-6.60000e+00	3.025879e-05	
266	0.000000e+00	-5.02695e-22	
267	-5.00000e-02	3.186122e-06	
268	-1.00000e-01	6.276108e-06	
269	-1.50000e-01	9.276462e-06	
270	-2.00000e-01	1.218895e-05	
271	-2.50000e-01	1.501418e-05	
272	-3.00000e-01	1.775246e-05	
273	-3.50000e-01	2.040402e-05	
274	-4.00000e-01	2.296908e-05	
275	-4.50000e-01	2.544786e-05	
276	-5.00000e-01	2.784059e-05	
277	-5.50000e-01	3.014747e-05	
278	-6.00000e-01	3.236873e-05	
279	-6.50000e-01	3.450458e-05	
280	-7.00000e-01	3.655525e-05	
281	-7.50000e-01	3.852097e-05	
282	-8.00000e-01	4.040196e-05	
283	-8.50000e-01	4.219846e-05	
284	-9.00000e-01	4.391069e-05	
285	-9.50000e-01	4.553891e-05	
286	-1.00000e+00	4.708336e-05	

Index   v-sweep         i(vds)          
--------------------------------------------------------------------------------
287	-1.05000e+00	4.854431e-05	
288	-1.10000e+00	4.992203e-05	
289	-1.15000e+00	5.121684e-05	
290	-1.20000e+00	5.242906e-05	
291	-1.25000e+00	5.355909e-05	
292	-1.30000e+00	5.460738e-05	
293	-1.35000e+00	5.557450e-05	
294	-1.40000e+00	5.646121e-05	
295	-1.45000e+00	5.726854e-05	
296	-1.50000e+00	5.799797e-05	
297	-1.55000e+00	5.865171e-05	
298	-1.60000e+00	5.923307e-05	
299	-1.65000e+00	5.974698e-05	
300	-1.70000e+00	6.020029e-05	
301	-1.75000e+00	6.060169e-05	
302	-1.80000e+00	6.096075e-05	
303	-1.85000e+00	6.128651e-05	
304	-1.90000e+00	6.158640e-05	
305	-1.95000e+00	6.186597e-05	
306	-2.00000e+00	6.212912e-05	
307	-2.05000e+00	6.237862e-05	
308	-2.10000e+00	6.261646e-05	
309	-2.15000e+00	6.284412e-05	
310	-2.20000e+00	6.306274e-05	
311	-2.25000e+00	6.327325e-05	
312	-2.30000e+00	6.347639e-05	
313	-2.35000e+00	6.367282e-05	
314	-2.40000e+00	6.386307e-05	
315	-2.45000e+00	6.404763e-05	
316	-2.50000e+00	6.422690e-05	
317	-2.55000e+00	6.440127e-05	
318	-2.60000e+00	6.457107e-05	
319	-2.65000e+00	6.473658e-05	
320	-2.70000e+00	6.489809e-05	
321	-2.75000e+00	6.505582e-05	
322	-2.80000e+00	6.521001e-05	
323	-2.85000e+00	6.536086e-05	
324	-2.90000e+00	6.550855e-05	
325	-2.95000e+00	6.565325e-05	
326	-3.00000e+00	6.579512e-05	
327	-3.05000e+00	6.593431e-05	
328	-3.10000e+00	6.607094e-05	
329	-3.15000e+00	6.620514e-05	
330	-3.20000e+00	6.633703e-05	
331	-3.25000e+00	6.646672e-05	
332	-3.30000e+00	6.659429e-05	
333	-3.35000e+00	6.671986e-05	
334	-3.40000e+00	6.684350e-05	
335	-3.45000e+00	6.696530e-05	
336	-3.50000e+00	6.708534e-05	
337	-3.55000e+00	6.720368e-05	
338	-3.60000e+00	6.732039e-05	
339	-3.65000e+00	6.743554e-05	
340	-3.70000e+00	6.754919e-05	
341	-3.75000e+00	6.766140e-05	
342	-3.80000e+00	6.777221e-05	
343	-3.85000e+00	6.788169e-05	
344	-3.90000e+00	6.798987e-05	

Index   v-sweep         i(vds)          
--------------------------------------------------------------------------------
345	-3.95000e+00	6.809681e-05	
346	-4.00000e+00	6.820254e-05	
347	-4.05000e+00	6.830711e-05	
348	-4.10000e+00	6.841056e-05	
349	-4.15000e+00	6.851293e-05	
350	-4.20000e+00	6.861424e-05	
351	-4.25000e+00	6.871454e-05	
352	-4.30000e+00	6.881386e-05	
353	-4.35000e+00	6.891223e-05	
354	-4.40000e+00	6.900967e-05	
355	-4.45000e+00	6.910623e-05	
356	-4.50000e+00	6.920192e-05	
357	-4.55000e+00	6.929678e-05	
358	-4.60000e+00	6.939083e-05	
359	-4.65000e+00	6.948410e-05	
360	-4.70000e+00	6.957662e-05	
361	-4.75000e+00	6.966841e-05	
362	-4.80000e+00	6.975950e-05	
363	-4.85000e+00	6.984993e-05	
364	-4.90000e+00	6.993971e-05	
365	-4.95000e+00	7.002889e-05	
366	-5.00000e+00	7.011750e-05	
367	-5.05000e+00	7.020556e-05	
368	-5.10000e+00	7.029312e-05	
369	-5.15000e+00	7.038023e-05	
370	-5.20000e+00	7.046691e-05	
371	-5.25000e+00	7.055323e-05	
372	-5.30000e+00	7.063923e-05	
373	-5.35000e+00	7.072497e-05	
374	-5.40000e+00	7.081051e-05	
375	-5.45000e+00	7.089594e-05	
376	-5.50000e+00	7.098131e-05	
377	-5.55000e+00	7.106673e-05	
378	-5.60000e+00	7.115227e-05	
379	-5.65000e+00	7.123804e-05	
380	-5.70000e+00	7.132416e-05	
381	-5.75000e+00	7.141075e-05	
382	-5.80000e+00	7.149793e-05	
383	-5.85000e+00	7.158586e-05	
384	-5.90000e+00	7.167470e-05	
385	-5.95000e+00	7.176461e-05	
386	-6.00000e+00	7.185579e-05	
387	-6.05000e+00	7.194843e-05	
388	-6.10000e+00	7.204275e-05	
389	-6.15000e+00	7.213900e-05	
390	-6.20000e+00	7.223741e-05	
391	-6.25000e+00	7.233827e-05	
392	-6.30000e+00	7.244185e-05	
393	-6.35000e+00	7.254848e-05	
394	-6.40000e+00	7.265848e-05	
395	-6.45000e+00	7.277221e-05	
396	-6.50000e+00	7.289003e-05	
397	-6.55000e+00	7.301234e-05	
398	-6.60000e+00	7.313957e-05	
399	0.000000e+00	3.565646e-20	
400	-5.00000e-02	4.129428e-06	
401	-1.00000e-01	8.169402e-06	
402	-1.50000e-01	1.212620e-05	

Index   v-sweep         i(vds)          
--------------------------------------------------------------------------------
403	-2.00000e-01	1.600153e-05	
404	-2.50000e-01	1.979595e-05	
405	-3.00000e-01	2.350971e-05	
406	-3.50000e-01	2.714302e-05	
407	-4.00000e-01	3.069605e-05	
408	-4.50000e-01	3.416897e-05	
409	-5.00000e-01	3.756194e-05	
410	-5.50000e-01	4.087515e-05	
411	-6.00000e-01	4.410875e-05	
412	-6.50000e-01	4.726293e-05	
413	-7.00000e-01	5.033784e-05	
414	-7.50000e-01	5.333367e-05	
415	-8.00000e-01	5.625058e-05	
416	-8.50000e-01	5.908875e-05	
417	-9.00000e-01	6.184834e-05	
418	-9.50000e-01	6.452954e-05	
419	-1.00000e+00	6.713252e-05	
420	-1.05000e+00	6.965745e-05	
421	-1.10000e+00	7.210450e-05	
422	-1.15000e+00	7.447386e-05	
423	-1.20000e+00	7.676571e-05	
424	-1.25000e+00	7.898022e-05	
425	-1.30000e+00	8.111758e-05	
426	-1.35000e+00	8.317798e-05	
427	-1.40000e+00	8.516160e-05	
428	-1.45000e+00	8.706863e-05	
429	-1.50000e+00	8.889929e-05	
430	-1.55000e+00	9.065376e-05	
431	-1.60000e+00	9.233228e-05	
432	-1.65000e+00	9.393506e-05	
433	-1.70000e+00	9.546235e-05	
434	-1.75000e+00	9.691442e-05	
435	-1.80000e+00	9.829156e-05	
436	-1.85000e+00	9.959412e-05	
437	-1.90000e+00	1.008225e-04	
438	-1.95000e+00	1.019772e-04	
439	-2.00000e+00	1.030588e-04	
440	-2.05000e+00	1.040681e-04	
441	-2.10000e+00	1.050062e-04	
442	-2.15000e+00	1.058747e-04	
443	-2.20000e+00	1.066756e-04	
444	-2.25000e+00	1.074118e-04	
445	-2.30000e+00	1.080874e-04	
446	-2.35000e+00	1.087075e-04	
447	-2.40000e+00	1.092782e-04	
448	-2.45000e+00	1.098061e-04	
449	-2.50000e+00	1.102975e-04	
450	-2.55000e+00	1.107581e-04	
451	-2.60000e+00	1.111926e-04	
452	-2.65000e+00	1.116046e-04	
453	-2.70000e+00	1.119970e-04	
454	-2.75000e+00	1.123722e-04	
455	-2.80000e+00	1.127319e-04	
456	-2.85000e+00	1.130776e-04	
457	-2.90000e+00	1.134108e-04	
458	-2.95000e+00	1.137324e-04	
459	-3.00000e+00	1.140434e-04	
460	-3.05000e+00	1.143446e-04	

Index   v-sweep         i(vds)          
--------------------------------------------------------------------------------
461	-3.10000e+00	1.146368e-04	
462	-3.15000e+00	1.149206e-04	
463	-3.20000e+00	1.151965e-04	
464	-3.25000e+00	1.154651e-04	
465	-3.30000e+00	1.157269e-04	
466	-3.35000e+00	1.159822e-04	
467	-3.40000e+00	1.162316e-04	
468	-3.45000e+00	1.164752e-04	
469	-3.50000e+00	1.167134e-04	
470	-3.55000e+00	1.169466e-04	
471	-3.60000e+00	1.171750e-04	
472	-3.65000e+00	1.173989e-04	
473	-3.70000e+00	1.176184e-04	
474	-3.75000e+00	1.178339e-04	
475	-3.80000e+00	1.180454e-04	
476	-3.85000e+00	1.182532e-04	
477	-3.90000e+00	1.184574e-04	
478	-3.95000e+00	1.186583e-04	
479	-4.00000e+00	1.188559e-04	
480	-4.05000e+00	1.190505e-04	
481	-4.10000e+00	1.192421e-04	
482	-4.15000e+00	1.194308e-04	
483	-4.20000e+00	1.196168e-04	
484	-4.25000e+00	1.198002e-04	
485	-4.30000e+00	1.199810e-04	
486	-4.35000e+00	1.201595e-04	
487	-4.40000e+00	1.203356e-04	
488	-4.45000e+00	1.205095e-04	
489	-4.50000e+00	1.206812e-04	
490	-4.55000e+00	1.208508e-04	
491	-4.60000e+00	1.210185e-04	
492	-4.65000e+00	1.211842e-04	
493	-4.70000e+00	1.213480e-04	
494	-4.75000e+00	1.215100e-04	
495	-4.80000e+00	1.216703e-04	
496	-4.85000e+00	1.218288e-04	
497	-4.90000e+00	1.219858e-04	
498	-4.95000e+00	1.221411e-04	
499	-5.00000e+00	1.222949e-04	
500	-5.05000e+00	1.224472e-04	
501	-5.10000e+00	1.225981e-04	
502	-5.15000e+00	1.227476e-04	
503	-5.20000e+00	1.228958e-04	
504	-5.25000e+00	1.230426e-04	
505	-5.30000e+00	1.231882e-04	
506	-5.35000e+00	1.233326e-04	
507	-5.40000e+00	1.234758e-04	
508	-5.45000e+00	1.236179e-04	
509	-5.50000e+00	1.237589e-04	
510	-5.55000e+00	1.238989e-04	
511	-5.60000e+00	1.240379e-04	
512	-5.65000e+00	1.241761e-04	
513	-5.70000e+00	1.243133e-04	
514	-5.75000e+00	1.244498e-04	
515	-5.80000e+00	1.245855e-04	
516	-5.85000e+00	1.247206e-04	
517	-5.90000e+00	1.248551e-04	
518	-5.95000e+00	1.249891e-04	

Index   v-sweep         i(vds)          
--------------------------------------------------------------------------------
519	-6.00000e+00	1.251228e-04	
520	-6.05000e+00	1.252562e-04	
521	-6.10000e+00	1.253894e-04	
522	-6.15000e+00	1.255227e-04	
523	-6.20000e+00	1.256561e-04	
524	-6.25000e+00	1.257897e-04	
525	-6.30000e+00	1.259239e-04	
526	-6.35000e+00	1.260587e-04	
527	-6.40000e+00	1.261944e-04	
528	-6.45000e+00	1.263313e-04	
529	-6.50000e+00	1.264694e-04	
530	-6.55000e+00	1.266093e-04	
531	-6.60000e+00	1.267511e-04	
532	0.000000e+00	5.786560e-26	
533	-5.00000e-02	4.928419e-06	
534	-1.00000e-01	9.773084e-06	
535	-1.50000e-01	1.454009e-05	
536	-2.00000e-01	1.923110e-05	
537	-2.50000e-01	2.384663e-05	
538	-3.00000e-01	2.838693e-05	
539	-3.50000e-01	3.285215e-05	
540	-4.00000e-01	3.724245e-05	
541	-4.50000e-01	4.155796e-05	
542	-5.00000e-01	4.579883e-05	
543	-5.50000e-01	4.996519e-05	
544	-6.00000e-01	5.405717e-05	
545	-6.50000e-01	5.807493e-05	
546	-7.00000e-01	6.201860e-05	
547	-7.50000e-01	6.588832e-05	
548	-8.00000e-01	6.968423e-05	
549	-8.50000e-01	7.340648e-05	
550	-9.00000e-01	7.705519e-05	
551	-9.50000e-01	8.063052e-05	
552	-1.00000e+00	8.413259e-05	
553	-1.05000e+00	8.756157e-05	
554	-1.10000e+00	9.091758e-05	
555	-1.15000e+00	9.420077e-05	
556	-1.20000e+00	9.741128e-05	
557	-1.25000e+00	1.005492e-04	
558	-1.30000e+00	1.036148e-04	
559	-1.35000e+00	1.066081e-04	
560	-1.40000e+00	1.095294e-04	
561	-1.45000e+00	1.123786e-04	
562	-1.50000e+00	1.151561e-04	
563	-1.55000e+00	1.178618e-04	
564	-1.60000e+00	1.204961e-04	
565	-1.65000e+00	1.230589e-04	
566	-1.70000e+00	1.255506e-04	
567	-1.75000e+00	1.279712e-04	
568	-1.80000e+00	1.303208e-04	
569	-1.85000e+00	1.325997e-04	
570	-1.90000e+00	1.348079e-04	
571	-1.95000e+00	1.369457e-04	
572	-2.00000e+00	1.390133e-04	
573	-2.05000e+00	1.410107e-04	
574	-2.10000e+00	1.429381e-04	
575	-2.15000e+00	1.447958e-04	
576	-2.20000e+00	1.465840e-04	

Index   v-sweep         i(vds)          
--------------------------------------------------------------------------------
577	-2.25000e+00	1.483028e-04	
578	-2.30000e+00	1.499524e-04	
579	-2.35000e+00	1.515331e-04	
580	-2.40000e+00	1.530452e-04	
581	-2.45000e+00	1.544890e-04	
582	-2.50000e+00	1.558649e-04	
583	-2.55000e+00	1.571732e-04	
584	-2.60000e+00	1.584145e-04	
585	-2.65000e+00	1.595896e-04	
586	-2.70000e+00	1.606993e-04	
587	-2.75000e+00	1.617447e-04	
588	-2.80000e+00	1.627275e-04	
589	-2.85000e+00	1.636496e-04	
590	-2.90000e+00	1.645138e-04	
591	-2.95000e+00	1.653235e-04	
592	-3.00000e+00	1.660826e-04	
593	-3.05000e+00	1.667958e-04	
594	-3.10000e+00	1.674677e-04	
595	-3.15000e+00	1.681028e-04	
596	-3.20000e+00	1.687052e-04	
597	-3.25000e+00	1.692784e-04	
598	-3.30000e+00	1.698256e-04	
599	-3.35000e+00	1.703493e-04	
600	-3.40000e+00	1.708518e-04	
601	-3.45000e+00	1.713349e-04	
602	-3.50000e+00	1.718004e-04	
603	-3.55000e+00	1.722497e-04	
604	-3.60000e+00	1.726840e-04	
605	-3.65000e+00	1.731046e-04	
606	-3.70000e+00	1.735123e-04	
607	-3.75000e+00	1.739081e-04	
608	-3.80000e+00	1.742928e-04	
609	-3.85000e+00	1.746672e-04	
610	-3.90000e+00	1.750318e-04	
611	-3.95000e+00	1.753874e-04	
612	-4.00000e+00	1.757344e-04	
613	-4.05000e+00	1.760733e-04	
614	-4.10000e+00	1.764046e-04	
615	-4.15000e+00	1.767288e-04	
616	-4.20000e+00	1.770461e-04	
617	-4.25000e+00	1.773570e-04	
618	-4.30000e+00	1.776618e-04	
619	-4.35000e+00	1.779608e-04	
620	-4.40000e+00	1.782543e-04	
621	-4.45000e+00	1.785425e-04	
622	-4.50000e+00	1.788256e-04	
623	-4.55000e+00	1.791040e-04	
624	-4.60000e+00	1.793779e-04	
625	-4.65000e+00	1.796473e-04	
626	-4.70000e+00	1.799126e-04	
627	-4.75000e+00	1.801738e-04	
628	-4.80000e+00	1.804312e-04	
629	-4.85000e+00	1.806849e-04	
630	-4.90000e+00	1.809350e-04	
631	-4.95000e+00	1.811818e-04	
632	-5.00000e+00	1.814252e-04	
633	-5.05000e+00	1.816655e-04	
634	-5.10000e+00	1.819028e-04	

Index   v-sweep         i(vds)          
--------------------------------------------------------------------------------
635	-5.15000e+00	1.821371e-04	
636	-5.20000e+00	1.823686e-04	
637	-5.25000e+00	1.825974e-04	
638	-5.30000e+00	1.828235e-04	
639	-5.35000e+00	1.830471e-04	
640	-5.40000e+00	1.832682e-04	
641	-5.45000e+00	1.834869e-04	
642	-5.50000e+00	1.837033e-04	
643	-5.55000e+00	1.839175e-04	
644	-5.60000e+00	1.841296e-04	
645	-5.65000e+00	1.843395e-04	
646	-5.70000e+00	1.845475e-04	
647	-5.75000e+00	1.847534e-04	
648	-5.80000e+00	1.849575e-04	
649	-5.85000e+00	1.851597e-04	
650	-5.90000e+00	1.853602e-04	
651	-5.95000e+00	1.855590e-04	
652	-6.00000e+00	1.857561e-04	
653	-6.05000e+00	1.859516e-04	
654	-6.10000e+00	1.861457e-04	
655	-6.15000e+00	1.863382e-04	
656	-6.20000e+00	1.865294e-04	
657	-6.25000e+00	1.867193e-04	
658	-6.30000e+00	1.869080e-04	
659	-6.35000e+00	1.870956e-04	
660	-6.40000e+00	1.872821e-04	
661	-6.45000e+00	1.874678e-04	
662	-6.50000e+00	1.876525e-04	
663	-6.55000e+00	1.878367e-04	
664	-6.60000e+00	1.880202e-04	
665	0.000000e+00	4.885164e-20	
666	-5.00000e-02	5.623247e-06	
667	-1.00000e-01	1.116757e-05	
668	-1.50000e-01	1.663892e-05	
669	-2.00000e-01	2.203890e-05	
670	-2.50000e-01	2.736804e-05	
671	-3.00000e-01	3.262654e-05	
672	-3.50000e-01	3.781456e-05	
673	-4.00000e-01	4.293221e-05	
674	-4.50000e-01	4.797961e-05	
675	-5.00000e-01	5.295688e-05	
676	-5.50000e-01	5.786414e-05	
677	-6.00000e-01	6.270150e-05	
678	-6.50000e-01	6.746909e-05	
679	-7.00000e-01	7.216703e-05	
680	-7.50000e-01	7.679542e-05	
681	-8.00000e-01	8.135439e-05	
682	-8.50000e-01	8.584406e-05	
683	-9.00000e-01	9.026454e-05	
684	-9.50000e-01	9.461596e-05	
685	-1.00000e+00	9.889843e-05	
686	-1.05000e+00	1.031121e-04	
687	-1.10000e+00	1.072570e-04	
688	-1.15000e+00	1.113333e-04	
689	-1.20000e+00	1.153412e-04	
690	-1.25000e+00	1.192807e-04	
691	-1.30000e+00	1.231520e-04	
692	-1.35000e+00	1.269552e-04	

Index   v-sweep         i(vds)          
--------------------------------------------------------------------------------
693	-1.40000e+00	1.306904e-04	
694	-1.45000e+00	1.343577e-04	
695	-1.50000e+00	1.379572e-04	
696	-1.55000e+00	1.414891e-04	
697	-1.60000e+00	1.449535e-04	
698	-1.65000e+00	1.483505e-04	
699	-1.70000e+00	1.516803e-04	
700	-1.75000e+00	1.549429e-04	
701	-1.80000e+00	1.581385e-04	
702	-1.85000e+00	1.612671e-04	
703	-1.90000e+00	1.643290e-04	
704	-1.95000e+00	1.673243e-04	
705	-2.00000e+00	1.702530e-04	
706	-2.05000e+00	1.731153e-04	
707	-2.10000e+00	1.759113e-04	
708	-2.15000e+00	1.786411e-04	
709	-2.20000e+00	1.813050e-04	
710	-2.25000e+00	1.839029e-04	
711	-2.30000e+00	1.864351e-04	
712	-2.35000e+00	1.889016e-04	
713	-2.40000e+00	1.913026e-04	
714	-2.45000e+00	1.936383e-04	
715	-2.50000e+00	1.959087e-04	
716	-2.55000e+00	1.981141e-04	
717	-2.60000e+00	2.002545e-04	
718	-2.65000e+00	2.023302e-04	
719	-2.70000e+00	2.043412e-04	
720	-2.75000e+00	2.062877e-04	
721	-2.80000e+00	2.081700e-04	
722	-2.85000e+00	2.099882e-04	
723	-2.90000e+00	2.117425e-04	
724	-2.95000e+00	2.134332e-04	
725	-3.00000e+00	2.150604e-04	
726	-3.05000e+00	2.166245e-04	
727	-3.10000e+00	2.181259e-04	
728	-3.15000e+00	2.195649e-04	
729	-3.20000e+00	2.209420e-04	
730	-3.25000e+00	2.222579e-04	
731	-3.30000e+00	2.235132e-04	
732	-3.35000e+00	2.247090e-04	
733	-3.40000e+00	2.258464e-04	
734	-3.45000e+00	2.269270e-04	
735	-3.50000e+00	2.279528e-04	
736	-3.55000e+00	2.289262e-04	
737	-3.60000e+00	2.298498e-04	
738	-3.65000e+00	2.307269e-04	
739	-3.70000e+00	2.315607e-04	
740	-3.75000e+00	2.323547e-04	
741	-3.80000e+00	2.331121e-04	
742	-3.85000e+00	2.338359e-04	
743	-3.90000e+00	2.345289e-04	
744	-3.95000e+00	2.351938e-04	
745	-4.00000e+00	2.358328e-04	
746	-4.05000e+00	2.364480e-04	
747	-4.10000e+00	2.370412e-04	
748	-4.15000e+00	2.376142e-04	
749	-4.20000e+00	2.381684e-04	
750	-4.25000e+00	2.387052e-04	

Index   v-sweep         i(vds)          
--------------------------------------------------------------------------------
751	-4.30000e+00	2.392258e-04	
752	-4.35000e+00	2.397313e-04	
753	-4.40000e+00	2.402228e-04	
754	-4.45000e+00	2.407010e-04	
755	-4.50000e+00	2.411669e-04	
756	-4.55000e+00	2.416211e-04	
757	-4.60000e+00	2.420645e-04	
758	-4.65000e+00	2.424975e-04	
759	-4.70000e+00	2.429209e-04	
760	-4.75000e+00	2.433350e-04	
761	-4.80000e+00	2.437405e-04	
762	-4.85000e+00	2.441378e-04	
763	-4.90000e+00	2.445272e-04	
764	-4.95000e+00	2.449092e-04	
765	-5.00000e+00	2.452841e-04	
766	-5.05000e+00	2.456523e-04	
767	-5.10000e+00	2.460141e-04	
768	-5.15000e+00	2.463697e-04	
769	-5.20000e+00	2.467195e-04	
770	-5.25000e+00	2.470637e-04	
771	-5.30000e+00	2.474025e-04	
772	-5.35000e+00	2.477362e-04	
773	-5.40000e+00	2.480649e-04	
774	-5.45000e+00	2.483889e-04	
775	-5.50000e+00	2.487084e-04	
776	-5.55000e+00	2.490235e-04	
777	-5.60000e+00	2.493345e-04	
778	-5.65000e+00	2.496413e-04	
779	-5.70000e+00	2.499443e-04	
780	-5.75000e+00	2.502435e-04	
781	-5.80000e+00	2.505391e-04	
782	-5.85000e+00	2.508312e-04	
783	-5.90000e+00	2.511199e-04	
784	-5.95000e+00	2.514053e-04	
785	-6.00000e+00	2.516876e-04	
786	-6.05000e+00	2.519669e-04	
787	-6.10000e+00	2.522432e-04	
788	-6.15000e+00	2.525166e-04	
789	-6.20000e+00	2.527873e-04	
790	-6.25000e+00	2.530553e-04	
791	-6.30000e+00	2.533207e-04	
792	-6.35000e+00	2.535836e-04	
793	-6.40000e+00	2.538441e-04	
794	-6.45000e+00	2.541022e-04	
795	-6.50000e+00	2.543581e-04	
796	-6.55000e+00	2.546118e-04	
797	-6.60000e+00	2.548633e-04	
Note: No ".plot", ".print", or ".fourier" lines; no simulations run
