
Note: Compatibility modes selected: hs

Warning: m=xx on .subckt line will override multiplier m hierarchy!


Circuit: ***************************

Doing analysis at TEMP = -40.000000 and TNOM = -40.000000


No. of Data Rows : 798
                          ***************************
                          DC transfer characteristic  Mon Jan  9 13:58:50  2023
--------------------------------------------------------------------------------
Index   v-sweep         i(vds)          
--------------------------------------------------------------------------------
0	0.000000e+00	-2.82674e-23	
1	-5.00000e-02	9.505546e-08	
2	-1.00000e-01	1.124207e-07	
3	-1.50000e-01	1.149388e-07	
4	-2.00000e-01	1.156639e-07	
5	-2.50000e-01	1.160124e-07	
6	-3.00000e-01	1.162360e-07	
7	-3.50000e-01	1.164045e-07	
8	-4.00000e-01	1.165436e-07	
9	-4.50000e-01	1.166648e-07	
10	-5.00000e-01	1.167739e-07	
11	-5.50000e-01	1.168742e-07	
12	-6.00000e-01	1.169679e-07	
13	-6.50000e-01	1.170563e-07	
14	-7.00000e-01	1.171404e-07	
15	-7.50000e-01	1.172208e-07	
16	-8.00000e-01	1.172981e-07	
17	-8.50000e-01	1.173727e-07	
18	-9.00000e-01	1.174450e-07	
19	-9.50000e-01	1.175152e-07	
20	-1.00000e+00	1.175835e-07	
21	-1.05000e+00	1.176501e-07	
22	-1.10000e+00	1.177152e-07	
23	-1.15000e+00	1.177789e-07	
24	-1.20000e+00	1.178414e-07	
25	-1.25000e+00	1.179026e-07	
26	-1.30000e+00	1.179628e-07	
27	-1.35000e+00	1.180219e-07	
28	-1.40000e+00	1.180801e-07	
29	-1.45000e+00	1.181375e-07	
30	-1.50000e+00	1.181940e-07	
31	-1.55000e+00	1.182497e-07	
32	-1.60000e+00	1.183048e-07	
33	-1.65000e+00	1.183591e-07	
34	-1.70000e+00	1.184128e-07	
35	-1.75000e+00	1.184659e-07	
36	-1.80000e+00	1.185185e-07	
37	-1.85000e+00	1.185705e-07	
38	-1.90000e+00	1.186220e-07	
39	-1.95000e+00	1.186730e-07	
40	-2.00000e+00	1.187235e-07	
41	-2.05000e+00	1.187736e-07	
42	-2.10000e+00	1.188233e-07	
43	-2.15000e+00	1.188725e-07	
44	-2.20000e+00	1.189214e-07	
45	-2.25000e+00	1.189699e-07	
46	-2.30000e+00	1.190181e-07	
47	-2.35000e+00	1.190659e-07	
48	-2.40000e+00	1.191134e-07	
49	-2.45000e+00	1.191605e-07	
50	-2.50000e+00	1.192074e-07	
51	-2.55000e+00	1.192540e-07	
52	-2.60000e+00	1.193003e-07	
53	-2.65000e+00	1.193464e-07	
54	-2.70000e+00	1.193922e-07	

Index   v-sweep         i(vds)          
--------------------------------------------------------------------------------
55	-2.75000e+00	1.194377e-07	
56	-2.80000e+00	1.194831e-07	
57	-2.85000e+00	1.195282e-07	
58	-2.90000e+00	1.195731e-07	
59	-2.95000e+00	1.196178e-07	
60	-3.00000e+00	1.196624e-07	
61	-3.05000e+00	1.197068e-07	
62	-3.10000e+00	1.197510e-07	
63	-3.15000e+00	1.197952e-07	
64	-3.20000e+00	1.198392e-07	
65	-3.25000e+00	1.198832e-07	
66	-3.30000e+00	1.199272e-07	
67	-3.35000e+00	1.199712e-07	
68	-3.40000e+00	1.200152e-07	
69	-3.45000e+00	1.200594e-07	
70	-3.50000e+00	1.201037e-07	
71	-3.55000e+00	1.201482e-07	
72	-3.60000e+00	1.201930e-07	
73	-3.65000e+00	1.202382e-07	
74	-3.70000e+00	1.202839e-07	
75	-3.75000e+00	1.203302e-07	
76	-3.80000e+00	1.203771e-07	
77	-3.85000e+00	1.204249e-07	
78	-3.90000e+00	1.204737e-07	
79	-3.95000e+00	1.205236e-07	
80	-4.00000e+00	1.205748e-07	
81	-4.05000e+00	1.206276e-07	
82	-4.10000e+00	1.206821e-07	
83	-4.15000e+00	1.207386e-07	
84	-4.20000e+00	1.207973e-07	
85	-4.25000e+00	1.208586e-07	
86	-4.30000e+00	1.209227e-07	
87	-4.35000e+00	1.209900e-07	
88	-4.40000e+00	1.210609e-07	
89	-4.45000e+00	1.211358e-07	
90	-4.50000e+00	1.212150e-07	
91	-4.55000e+00	1.212990e-07	
92	-4.60000e+00	1.213884e-07	
93	-4.65000e+00	1.214836e-07	
94	-4.70000e+00	1.215853e-07	
95	-4.75000e+00	1.216939e-07	
96	-4.80000e+00	1.218102e-07	
97	-4.85000e+00	1.219348e-07	
98	-4.90000e+00	1.220684e-07	
99	-4.95000e+00	1.222117e-07	
100	-5.00000e+00	1.223657e-07	
101	-5.05000e+00	1.225310e-07	
102	-5.10000e+00	1.227086e-07	
103	-5.15000e+00	1.228993e-07	
104	-5.20000e+00	1.231042e-07	
105	-5.25000e+00	1.233243e-07	
106	-5.30000e+00	1.235605e-07	
107	-5.35000e+00	1.238141e-07	
108	-5.40000e+00	1.240861e-07	
109	-5.45000e+00	1.243777e-07	
110	-5.50000e+00	1.246902e-07	
111	-5.55000e+00	1.250249e-07	
112	-5.60000e+00	1.253830e-07	

Index   v-sweep         i(vds)          
--------------------------------------------------------------------------------
113	-5.65000e+00	1.257660e-07	
114	-5.70000e+00	1.261753e-07	
115	-5.75000e+00	1.266124e-07	
116	-5.80000e+00	1.270787e-07	
117	-5.85000e+00	1.275759e-07	
118	-5.90000e+00	1.281056e-07	
119	-5.95000e+00	1.286694e-07	
120	-6.00000e+00	1.292691e-07	
121	-6.05000e+00	1.299064e-07	
122	-6.10000e+00	1.305830e-07	
123	-6.15000e+00	1.313010e-07	
124	-6.20000e+00	1.320621e-07	
125	-6.25000e+00	1.328683e-07	
126	-6.30000e+00	1.337216e-07	
127	-6.35000e+00	1.346241e-07	
128	-6.40000e+00	1.355777e-07	
129	-6.45000e+00	1.365846e-07	
130	-6.50000e+00	1.376470e-07	
131	-6.55000e+00	1.387671e-07	
132	-6.60000e+00	1.399471e-07	
133	0.000000e+00	6.562434e-22	
134	-5.00000e-02	3.212869e-06	
135	-1.00000e-01	6.197542e-06	
136	-1.50000e-01	8.954385e-06	
137	-2.00000e-01	1.148379e-05	
138	-2.50000e-01	1.378618e-05	
139	-3.00000e-01	1.586205e-05	
140	-3.50000e-01	1.771201e-05	
141	-4.00000e-01	1.933683e-05	
142	-4.50000e-01	2.073767e-05	
143	-5.00000e-01	2.191635e-05	
144	-5.50000e-01	2.287614e-05	
145	-6.00000e-01	2.362325e-05	
146	-6.50000e-01	2.417004e-05	
147	-7.00000e-01	2.454012e-05	
148	-7.50000e-01	2.477166e-05	
149	-8.00000e-01	2.491082e-05	
150	-8.50000e-01	2.499693e-05	
151	-9.00000e-01	2.505479e-05	
152	-9.50000e-01	2.509749e-05	
153	-1.00000e+00	2.513159e-05	
154	-1.05000e+00	2.516040e-05	
155	-1.10000e+00	2.518573e-05	
156	-1.15000e+00	2.520862e-05	
157	-1.20000e+00	2.522969e-05	
158	-1.25000e+00	2.524935e-05	
159	-1.30000e+00	2.526790e-05	
160	-1.35000e+00	2.528552e-05	
161	-1.40000e+00	2.530237e-05	
162	-1.45000e+00	2.531855e-05	
163	-1.50000e+00	2.533416e-05	
164	-1.55000e+00	2.534926e-05	
165	-1.60000e+00	2.536392e-05	
166	-1.65000e+00	2.537817e-05	
167	-1.70000e+00	2.539207e-05	
168	-1.75000e+00	2.540563e-05	
169	-1.80000e+00	2.541890e-05	
170	-1.85000e+00	2.543190e-05	

Index   v-sweep         i(vds)          
--------------------------------------------------------------------------------
171	-1.90000e+00	2.544465e-05	
172	-1.95000e+00	2.545717e-05	
173	-2.00000e+00	2.546947e-05	
174	-2.05000e+00	2.548157e-05	
175	-2.10000e+00	2.549349e-05	
176	-2.15000e+00	2.550523e-05	
177	-2.20000e+00	2.551682e-05	
178	-2.25000e+00	2.552824e-05	
179	-2.30000e+00	2.553953e-05	
180	-2.35000e+00	2.555068e-05	
181	-2.40000e+00	2.556170e-05	
182	-2.45000e+00	2.557260e-05	
183	-2.50000e+00	2.558339e-05	
184	-2.55000e+00	2.559407e-05	
185	-2.60000e+00	2.560464e-05	
186	-2.65000e+00	2.561512e-05	
187	-2.70000e+00	2.562550e-05	
188	-2.75000e+00	2.563580e-05	
189	-2.80000e+00	2.564601e-05	
190	-2.85000e+00	2.565613e-05	
191	-2.90000e+00	2.566618e-05	
192	-2.95000e+00	2.567616e-05	
193	-3.00000e+00	2.568606e-05	
194	-3.05000e+00	2.569590e-05	
195	-3.10000e+00	2.570566e-05	
196	-3.15000e+00	2.571537e-05	
197	-3.20000e+00	2.572502e-05	
198	-3.25000e+00	2.573460e-05	
199	-3.30000e+00	2.574414e-05	
200	-3.35000e+00	2.575361e-05	
201	-3.40000e+00	2.576304e-05	
202	-3.45000e+00	2.577242e-05	
203	-3.50000e+00	2.578175e-05	
204	-3.55000e+00	2.579105e-05	
205	-3.60000e+00	2.580030e-05	
206	-3.65000e+00	2.580951e-05	
207	-3.70000e+00	2.581869e-05	
208	-3.75000e+00	2.582784e-05	
209	-3.80000e+00	2.583696e-05	
210	-3.85000e+00	2.584607e-05	
211	-3.90000e+00	2.585516e-05	
212	-3.95000e+00	2.586424e-05	
213	-4.00000e+00	2.587333e-05	
214	-4.05000e+00	2.588242e-05	
215	-4.10000e+00	2.589153e-05	
216	-4.15000e+00	2.590067e-05	
217	-4.20000e+00	2.590985e-05	
218	-4.25000e+00	2.591909e-05	
219	-4.30000e+00	2.592841e-05	
220	-4.35000e+00	2.593782e-05	
221	-4.40000e+00	2.594735e-05	
222	-4.45000e+00	2.595701e-05	
223	-4.50000e+00	2.596684e-05	
224	-4.55000e+00	2.597687e-05	
225	-4.60000e+00	2.598713e-05	
226	-4.65000e+00	2.599766e-05	
227	-4.70000e+00	2.600850e-05	
228	-4.75000e+00	2.601969e-05	

Index   v-sweep         i(vds)          
--------------------------------------------------------------------------------
229	-4.80000e+00	2.603129e-05	
230	-4.85000e+00	2.604334e-05	
231	-4.90000e+00	2.605592e-05	
232	-4.95000e+00	2.606907e-05	
233	-5.00000e+00	2.608289e-05	
234	-5.05000e+00	2.609743e-05	
235	-5.10000e+00	2.611278e-05	
236	-5.15000e+00	2.612904e-05	
237	-5.20000e+00	2.614629e-05	
238	-5.25000e+00	2.616464e-05	
239	-5.30000e+00	2.618420e-05	
240	-5.35000e+00	2.620509e-05	
241	-5.40000e+00	2.622742e-05	
242	-5.45000e+00	2.625134e-05	
243	-5.50000e+00	2.627698e-05	
244	-5.55000e+00	2.630449e-05	
245	-5.60000e+00	2.633403e-05	
246	-5.65000e+00	2.636576e-05	
247	-5.70000e+00	2.639987e-05	
248	-5.75000e+00	2.643653e-05	
249	-5.80000e+00	2.647593e-05	
250	-5.85000e+00	2.651829e-05	
251	-5.90000e+00	2.656381e-05	
252	-5.95000e+00	2.661271e-05	
253	-6.00000e+00	2.666523e-05	
254	-6.05000e+00	2.672160e-05	
255	-6.10000e+00	2.678208e-05	
256	-6.15000e+00	2.684694e-05	
257	-6.20000e+00	2.691643e-05	
258	-6.25000e+00	2.699085e-05	
259	-6.30000e+00	2.707049e-05	
260	-6.35000e+00	2.715564e-05	
261	-6.40000e+00	2.724663e-05	
262	-6.45000e+00	2.734377e-05	
263	-6.50000e+00	2.744739e-05	
264	-6.55000e+00	2.755784e-05	
265	-6.60000e+00	2.767548e-05	
266	0.000000e+00	-2.68933e-37	
267	-5.00000e-02	5.866674e-06	
268	-1.00000e-01	1.152434e-05	
269	-1.50000e-01	1.697325e-05	
270	-2.00000e-01	2.221368e-05	
271	-2.50000e-01	2.724590e-05	
272	-3.00000e-01	3.207018e-05	
273	-3.50000e-01	3.668677e-05	
274	-4.00000e-01	4.109597e-05	
275	-4.50000e-01	4.529804e-05	
276	-5.00000e-01	4.929327e-05	
277	-5.50000e-01	5.308193e-05	
278	-6.00000e-01	5.666434e-05	
279	-6.50000e-01	6.004079e-05	
280	-7.00000e-01	6.321160e-05	
281	-7.50000e-01	6.617712e-05	
282	-8.00000e-01	6.893772e-05	
283	-8.50000e-01	7.149382e-05	
284	-9.00000e-01	7.384591e-05	
285	-9.50000e-01	7.599458e-05	
286	-1.00000e+00	7.794056e-05	

Index   v-sweep         i(vds)          
--------------------------------------------------------------------------------
287	-1.05000e+00	7.968486e-05	
288	-1.10000e+00	8.122888e-05	
289	-1.15000e+00	8.257471e-05	
290	-1.20000e+00	8.372560e-05	
291	-1.25000e+00	8.468676e-05	
292	-1.30000e+00	8.546673e-05	
293	-1.35000e+00	8.607911e-05	
294	-1.40000e+00	8.654422e-05	
295	-1.45000e+00	8.688893e-05	
296	-1.50000e+00	8.714312e-05	
297	-1.55000e+00	8.733423e-05	
298	-1.60000e+00	8.748344e-05	
299	-1.65000e+00	8.760515e-05	
300	-1.70000e+00	8.770851e-05	
301	-1.75000e+00	8.779923e-05	
302	-1.80000e+00	8.788085e-05	
303	-1.85000e+00	8.795569e-05	
304	-1.90000e+00	8.802528e-05	
305	-1.95000e+00	8.809068e-05	
306	-2.00000e+00	8.815265e-05	
307	-2.05000e+00	8.821176e-05	
308	-2.10000e+00	8.826843e-05	
309	-2.15000e+00	8.832300e-05	
310	-2.20000e+00	8.837573e-05	
311	-2.25000e+00	8.842684e-05	
312	-2.30000e+00	8.847650e-05	
313	-2.35000e+00	8.852486e-05	
314	-2.40000e+00	8.857205e-05	
315	-2.45000e+00	8.861817e-05	
316	-2.50000e+00	8.866332e-05	
317	-2.55000e+00	8.870757e-05	
318	-2.60000e+00	8.875101e-05	
319	-2.65000e+00	8.879368e-05	
320	-2.70000e+00	8.883564e-05	
321	-2.75000e+00	8.887695e-05	
322	-2.80000e+00	8.891765e-05	
323	-2.85000e+00	8.895777e-05	
324	-2.90000e+00	8.899735e-05	
325	-2.95000e+00	8.903643e-05	
326	-3.00000e+00	8.907504e-05	
327	-3.05000e+00	8.911319e-05	
328	-3.10000e+00	8.915092e-05	
329	-3.15000e+00	8.918825e-05	
330	-3.20000e+00	8.922520e-05	
331	-3.25000e+00	8.926179e-05	
332	-3.30000e+00	8.929804e-05	
333	-3.35000e+00	8.933396e-05	
334	-3.40000e+00	8.936956e-05	
335	-3.45000e+00	8.940487e-05	
336	-3.50000e+00	8.943990e-05	
337	-3.55000e+00	8.947466e-05	
338	-3.60000e+00	8.950915e-05	
339	-3.65000e+00	8.954340e-05	
340	-3.70000e+00	8.957741e-05	
341	-3.75000e+00	8.961119e-05	
342	-3.80000e+00	8.964475e-05	
343	-3.85000e+00	8.967811e-05	
344	-3.90000e+00	8.971126e-05	

Index   v-sweep         i(vds)          
--------------------------------------------------------------------------------
345	-3.95000e+00	8.974421e-05	
346	-4.00000e+00	8.977698e-05	
347	-4.05000e+00	8.980958e-05	
348	-4.10000e+00	8.984200e-05	
349	-4.15000e+00	8.987426e-05	
350	-4.20000e+00	8.990637e-05	
351	-4.25000e+00	8.993834e-05	
352	-4.30000e+00	8.997018e-05	
353	-4.35000e+00	9.000189e-05	
354	-4.40000e+00	9.003349e-05	
355	-4.45000e+00	9.006499e-05	
356	-4.50000e+00	9.009642e-05	
357	-4.55000e+00	9.012778e-05	
358	-4.60000e+00	9.015909e-05	
359	-4.65000e+00	9.019038e-05	
360	-4.70000e+00	9.022168e-05	
361	-4.75000e+00	9.025302e-05	
362	-4.80000e+00	9.028442e-05	
363	-4.85000e+00	9.031594e-05	
364	-4.90000e+00	9.034761e-05	
365	-4.95000e+00	9.037949e-05	
366	-5.00000e+00	9.041164e-05	
367	-5.05000e+00	9.044412e-05	
368	-5.10000e+00	9.047701e-05	
369	-5.15000e+00	9.051039e-05	
370	-5.20000e+00	9.054436e-05	
371	-5.25000e+00	9.057903e-05	
372	-5.30000e+00	9.061450e-05	
373	-5.35000e+00	9.065092e-05	
374	-5.40000e+00	9.068841e-05	
375	-5.45000e+00	9.072716e-05	
376	-5.50000e+00	9.076732e-05	
377	-5.55000e+00	9.080908e-05	
378	-5.60000e+00	9.085267e-05	
379	-5.65000e+00	9.089829e-05	
380	-5.70000e+00	9.094620e-05	
381	-5.75000e+00	9.099667e-05	
382	-5.80000e+00	9.104997e-05	
383	-5.85000e+00	9.110643e-05	
384	-5.90000e+00	9.116637e-05	
385	-5.95000e+00	9.123015e-05	
386	-6.00000e+00	9.129815e-05	
387	-6.05000e+00	9.137079e-05	
388	-6.10000e+00	9.144848e-05	
389	-6.15000e+00	9.153170e-05	
390	-6.20000e+00	9.162094e-05	
391	-6.25000e+00	9.171670e-05	
392	-6.30000e+00	9.181955e-05	
393	-6.35000e+00	9.193006e-05	
394	-6.40000e+00	9.204885e-05	
395	-6.45000e+00	9.217654e-05	
396	-6.50000e+00	9.231382e-05	
397	-6.55000e+00	9.246140e-05	
398	-6.60000e+00	9.262000e-05	
399	0.000000e+00	1.419492e-36	
400	-5.00000e-02	7.989737e-06	
401	-1.00000e-01	1.578999e-05	
402	-1.50000e-01	2.340098e-05	

Index   v-sweep         i(vds)          
--------------------------------------------------------------------------------
403	-2.00000e-01	3.082293e-05	
404	-2.50000e-01	3.805605e-05	
405	-3.00000e-01	4.510057e-05	
406	-3.50000e-01	5.195670e-05	
407	-4.00000e-01	5.862467e-05	
408	-4.50000e-01	6.510470e-05	
409	-5.00000e-01	7.139700e-05	
410	-5.50000e-01	7.750181e-05	
411	-6.00000e-01	8.341933e-05	
412	-6.50000e-01	8.914979e-05	
413	-7.00000e-01	9.469341e-05	
414	-7.50000e-01	1.000504e-04	
415	-8.00000e-01	1.052210e-04	
416	-8.50000e-01	1.102055e-04	
417	-9.00000e-01	1.150040e-04	
418	-9.50000e-01	1.196168e-04	
419	-1.00000e+00	1.240442e-04	
420	-1.05000e+00	1.282863e-04	
421	-1.10000e+00	1.323434e-04	
422	-1.15000e+00	1.362158e-04	
423	-1.20000e+00	1.399036e-04	
424	-1.25000e+00	1.434073e-04	
425	-1.30000e+00	1.467271e-04	
426	-1.35000e+00	1.498632e-04	
427	-1.40000e+00	1.528160e-04	
428	-1.45000e+00	1.555858e-04	
429	-1.50000e+00	1.581731e-04	
430	-1.55000e+00	1.605784e-04	
431	-1.60000e+00	1.628023e-04	
432	-1.65000e+00	1.648454e-04	
433	-1.70000e+00	1.667087e-04	
434	-1.75000e+00	1.683935e-04	
435	-1.80000e+00	1.699016e-04	
436	-1.85000e+00	1.712356e-04	
437	-1.90000e+00	1.723990e-04	
438	-1.95000e+00	1.733975e-04	
439	-2.00000e+00	1.742393e-04	
440	-2.05000e+00	1.749360e-04	
441	-2.10000e+00	1.755034e-04	
442	-2.15000e+00	1.759611e-04	
443	-2.20000e+00	1.763305e-04	
444	-2.25000e+00	1.766325e-04	
445	-2.30000e+00	1.768846e-04	
446	-2.35000e+00	1.771005e-04	
447	-2.40000e+00	1.772900e-04	
448	-2.45000e+00	1.774600e-04	
449	-2.50000e+00	1.776152e-04	
450	-2.55000e+00	1.777590e-04	
451	-2.60000e+00	1.778936e-04	
452	-2.65000e+00	1.780207e-04	
453	-2.70000e+00	1.781417e-04	
454	-2.75000e+00	1.782574e-04	
455	-2.80000e+00	1.783686e-04	
456	-2.85000e+00	1.784758e-04	
457	-2.90000e+00	1.785797e-04	
458	-2.95000e+00	1.786804e-04	
459	-3.00000e+00	1.787785e-04	
460	-3.05000e+00	1.788740e-04	

Index   v-sweep         i(vds)          
--------------------------------------------------------------------------------
461	-3.10000e+00	1.789673e-04	
462	-3.15000e+00	1.790586e-04	
463	-3.20000e+00	1.791481e-04	
464	-3.25000e+00	1.792358e-04	
465	-3.30000e+00	1.793219e-04	
466	-3.35000e+00	1.794066e-04	
467	-3.40000e+00	1.794899e-04	
468	-3.45000e+00	1.795720e-04	
469	-3.50000e+00	1.796529e-04	
470	-3.55000e+00	1.797326e-04	
471	-3.60000e+00	1.798114e-04	
472	-3.65000e+00	1.798891e-04	
473	-3.70000e+00	1.799660e-04	
474	-3.75000e+00	1.800419e-04	
475	-3.80000e+00	1.801171e-04	
476	-3.85000e+00	1.801914e-04	
477	-3.90000e+00	1.802651e-04	
478	-3.95000e+00	1.803380e-04	
479	-4.00000e+00	1.804103e-04	
480	-4.05000e+00	1.804819e-04	
481	-4.10000e+00	1.805529e-04	
482	-4.15000e+00	1.806234e-04	
483	-4.20000e+00	1.806933e-04	
484	-4.25000e+00	1.807626e-04	
485	-4.30000e+00	1.808315e-04	
486	-4.35000e+00	1.808999e-04	
487	-4.40000e+00	1.809678e-04	
488	-4.45000e+00	1.810353e-04	
489	-4.50000e+00	1.811023e-04	
490	-4.55000e+00	1.811689e-04	
491	-4.60000e+00	1.812352e-04	
492	-4.65000e+00	1.813011e-04	
493	-4.70000e+00	1.813666e-04	
494	-4.75000e+00	1.814317e-04	
495	-4.80000e+00	1.814965e-04	
496	-4.85000e+00	1.815611e-04	
497	-4.90000e+00	1.816253e-04	
498	-4.95000e+00	1.816892e-04	
499	-5.00000e+00	1.817529e-04	
500	-5.05000e+00	1.818163e-04	
501	-5.10000e+00	1.818796e-04	
502	-5.15000e+00	1.819426e-04	
503	-5.20000e+00	1.820055e-04	
504	-5.25000e+00	1.820682e-04	
505	-5.30000e+00	1.821309e-04	
506	-5.35000e+00	1.821935e-04	
507	-5.40000e+00	1.822562e-04	
508	-5.45000e+00	1.823189e-04	
509	-5.50000e+00	1.823817e-04	
510	-5.55000e+00	1.824448e-04	
511	-5.60000e+00	1.825082e-04	
512	-5.65000e+00	1.825720e-04	
513	-5.70000e+00	1.826364e-04	
514	-5.75000e+00	1.827014e-04	
515	-5.80000e+00	1.827672e-04	
516	-5.85000e+00	1.828340e-04	
517	-5.90000e+00	1.829019e-04	
518	-5.95000e+00	1.829712e-04	

Index   v-sweep         i(vds)          
--------------------------------------------------------------------------------
519	-6.00000e+00	1.830422e-04	
520	-6.05000e+00	1.831150e-04	
521	-6.10000e+00	1.831900e-04	
522	-6.15000e+00	1.832674e-04	
523	-6.20000e+00	1.833477e-04	
524	-6.25000e+00	1.834312e-04	
525	-6.30000e+00	1.835183e-04	
526	-6.35000e+00	1.836094e-04	
527	-6.40000e+00	1.837051e-04	
528	-6.45000e+00	1.838059e-04	
529	-6.50000e+00	1.839124e-04	
530	-6.55000e+00	1.840251e-04	
531	-6.60000e+00	1.841448e-04	
532	0.000000e+00	8.588516e-20	
533	-5.00000e-02	9.686776e-06	
534	-1.00000e-01	1.920186e-05	
535	-1.50000e-01	2.854543e-05	
536	-2.00000e-01	3.771768e-05	
537	-2.50000e-01	4.671879e-05	
538	-3.00000e-01	5.554895e-05	
539	-3.50000e-01	6.420834e-05	
540	-4.00000e-01	7.269715e-05	
541	-4.50000e-01	8.101555e-05	
542	-5.00000e-01	8.916375e-05	
543	-5.50000e-01	9.714191e-05	
544	-6.00000e-01	1.049502e-04	
545	-6.50000e-01	1.125889e-04	
546	-7.00000e-01	1.200581e-04	
547	-7.50000e-01	1.273580e-04	
548	-8.00000e-01	1.344887e-04	
549	-8.50000e-01	1.414506e-04	
550	-9.00000e-01	1.482437e-04	
551	-9.50000e-01	1.548683e-04	
552	-1.00000e+00	1.613245e-04	
553	-1.05000e+00	1.676125e-04	
554	-1.10000e+00	1.737325e-04	
555	-1.15000e+00	1.796847e-04	
556	-1.20000e+00	1.854693e-04	
557	-1.25000e+00	1.910864e-04	
558	-1.30000e+00	1.965363e-04	
559	-1.35000e+00	2.018191e-04	
560	-1.40000e+00	2.069350e-04	
561	-1.45000e+00	2.118843e-04	
562	-1.50000e+00	2.166671e-04	
563	-1.55000e+00	2.212836e-04	
564	-1.60000e+00	2.257340e-04	
565	-1.65000e+00	2.300185e-04	
566	-1.70000e+00	2.341373e-04	
567	-1.75000e+00	2.380907e-04	
568	-1.80000e+00	2.418788e-04	
569	-1.85000e+00	2.455020e-04	
570	-1.90000e+00	2.489603e-04	
571	-1.95000e+00	2.522541e-04	
572	-2.00000e+00	2.553837e-04	
573	-2.05000e+00	2.583494e-04	
574	-2.10000e+00	2.611514e-04	
575	-2.15000e+00	2.637902e-04	
576	-2.20000e+00	2.662663e-04	

Index   v-sweep         i(vds)          
--------------------------------------------------------------------------------
577	-2.25000e+00	2.685801e-04	
578	-2.30000e+00	2.707322e-04	
579	-2.35000e+00	2.727236e-04	
580	-2.40000e+00	2.745551e-04	
581	-2.45000e+00	2.762282e-04	
582	-2.50000e+00	2.777447e-04	
583	-2.55000e+00	2.791072e-04	
584	-2.60000e+00	2.803191e-04	
585	-2.65000e+00	2.813853e-04	
586	-2.70000e+00	2.823127e-04	
587	-2.75000e+00	2.831106e-04	
588	-2.80000e+00	2.837908e-04	
589	-2.85000e+00	2.843679e-04	
590	-2.90000e+00	2.848579e-04	
591	-2.95000e+00	2.852770e-04	
592	-3.00000e+00	2.856402e-04	
593	-3.05000e+00	2.859600e-04	
594	-3.10000e+00	2.862463e-04	
595	-3.15000e+00	2.865067e-04	
596	-3.20000e+00	2.867467e-04	
597	-3.25000e+00	2.869705e-04	
598	-3.30000e+00	2.871810e-04	
599	-3.35000e+00	2.873805e-04	
600	-3.40000e+00	2.875708e-04	
601	-3.45000e+00	2.877533e-04	
602	-3.50000e+00	2.879289e-04	
603	-3.55000e+00	2.880986e-04	
604	-3.60000e+00	2.882630e-04	
605	-3.65000e+00	2.884227e-04	
606	-3.70000e+00	2.885782e-04	
607	-3.75000e+00	2.887300e-04	
608	-3.80000e+00	2.888783e-04	
609	-3.85000e+00	2.890234e-04	
610	-3.90000e+00	2.891657e-04	
611	-3.95000e+00	2.893053e-04	
612	-4.00000e+00	2.894424e-04	
613	-4.05000e+00	2.895773e-04	
614	-4.10000e+00	2.897101e-04	
615	-4.15000e+00	2.898409e-04	
616	-4.20000e+00	2.899698e-04	
617	-4.25000e+00	2.900970e-04	
618	-4.30000e+00	2.902227e-04	
619	-4.35000e+00	2.903467e-04	
620	-4.40000e+00	2.904694e-04	
621	-4.45000e+00	2.905907e-04	
622	-4.50000e+00	2.907107e-04	
623	-4.55000e+00	2.908295e-04	
624	-4.60000e+00	2.909471e-04	
625	-4.65000e+00	2.910637e-04	
626	-4.70000e+00	2.911792e-04	
627	-4.75000e+00	2.912937e-04	
628	-4.80000e+00	2.914072e-04	
629	-4.85000e+00	2.915199e-04	
630	-4.90000e+00	2.916317e-04	
631	-4.95000e+00	2.917426e-04	
632	-5.00000e+00	2.918528e-04	
633	-5.05000e+00	2.919622e-04	
634	-5.10000e+00	2.920709e-04	

Index   v-sweep         i(vds)          
--------------------------------------------------------------------------------
635	-5.15000e+00	2.921789e-04	
636	-5.20000e+00	2.922862e-04	
637	-5.25000e+00	2.923929e-04	
638	-5.30000e+00	2.924989e-04	
639	-5.35000e+00	2.926044e-04	
640	-5.40000e+00	2.927093e-04	
641	-5.45000e+00	2.928136e-04	
642	-5.50000e+00	2.929174e-04	
643	-5.55000e+00	2.930208e-04	
644	-5.60000e+00	2.931236e-04	
645	-5.65000e+00	2.932261e-04	
646	-5.70000e+00	2.933281e-04	
647	-5.75000e+00	2.934297e-04	
648	-5.80000e+00	2.935310e-04	
649	-5.85000e+00	2.936320e-04	
650	-5.90000e+00	2.937327e-04	
651	-5.95000e+00	2.938332e-04	
652	-6.00000e+00	2.939336e-04	
653	-6.05000e+00	2.940339e-04	
654	-6.10000e+00	2.941342e-04	
655	-6.15000e+00	2.942346e-04	
656	-6.20000e+00	2.943352e-04	
657	-6.25000e+00	2.944362e-04	
658	-6.30000e+00	2.945376e-04	
659	-6.35000e+00	2.946396e-04	
660	-6.40000e+00	2.947424e-04	
661	-6.45000e+00	2.948462e-04	
662	-6.50000e+00	2.949513e-04	
663	-6.55000e+00	2.950578e-04	
664	-6.60000e+00	2.951662e-04	
665	0.000000e+00	-8.46677e-36	
666	-5.00000e-02	1.104170e-05	
667	-1.00000e-01	2.192760e-05	
668	-1.50000e-01	3.265785e-05	
669	-2.00000e-01	4.323262e-05	
670	-2.50000e-01	5.365207e-05	
671	-3.00000e-01	6.391634e-05	
672	-3.50000e-01	7.402560e-05	
673	-4.00000e-01	8.398001e-05	
674	-4.50000e-01	9.377971e-05	
675	-5.00000e-01	1.034249e-04	
676	-5.50000e-01	1.129156e-04	
677	-6.00000e-01	1.222522e-04	
678	-6.50000e-01	1.314347e-04	
679	-7.00000e-01	1.404632e-04	
680	-7.50000e-01	1.493380e-04	
681	-8.00000e-01	1.580592e-04	
682	-8.50000e-01	1.666269e-04	
683	-9.00000e-01	1.750413e-04	
684	-9.50000e-01	1.833026e-04	
685	-1.00000e+00	1.914110e-04	
686	-1.05000e+00	1.993664e-04	
687	-1.10000e+00	2.071692e-04	
688	-1.15000e+00	2.148195e-04	
689	-1.20000e+00	2.223175e-04	
690	-1.25000e+00	2.296632e-04	
691	-1.30000e+00	2.368568e-04	
692	-1.35000e+00	2.438986e-04	

Index   v-sweep         i(vds)          
--------------------------------------------------------------------------------
693	-1.40000e+00	2.507886e-04	
694	-1.45000e+00	2.575271e-04	
695	-1.50000e+00	2.641141e-04	
696	-1.55000e+00	2.705498e-04	
697	-1.60000e+00	2.768344e-04	
698	-1.65000e+00	2.829681e-04	
699	-1.70000e+00	2.889509e-04	
700	-1.75000e+00	2.947831e-04	
701	-1.80000e+00	3.004648e-04	
702	-1.85000e+00	3.059962e-04	
703	-1.90000e+00	3.113774e-04	
704	-1.95000e+00	3.166086e-04	
705	-2.00000e+00	3.216900e-04	
706	-2.05000e+00	3.266216e-04	
707	-2.10000e+00	3.314038e-04	
708	-2.15000e+00	3.360366e-04	
709	-2.20000e+00	3.405202e-04	
710	-2.25000e+00	3.448548e-04	
711	-2.30000e+00	3.490406e-04	
712	-2.35000e+00	3.530778e-04	
713	-2.40000e+00	3.569665e-04	
714	-2.45000e+00	3.607069e-04	
715	-2.50000e+00	3.642993e-04	
716	-2.55000e+00	3.677438e-04	
717	-2.60000e+00	3.710407e-04	
718	-2.65000e+00	3.741902e-04	
719	-2.70000e+00	3.771927e-04	
720	-2.75000e+00	3.800483e-04	
721	-2.80000e+00	3.827574e-04	
722	-2.85000e+00	3.853205e-04	
723	-2.90000e+00	3.877378e-04	
724	-2.95000e+00	3.900101e-04	
725	-3.00000e+00	3.921378e-04	
726	-3.05000e+00	3.941218e-04	
727	-3.10000e+00	3.959631e-04	
728	-3.15000e+00	3.976629e-04	
729	-3.20000e+00	3.992229e-04	
730	-3.25000e+00	4.006454e-04	
731	-3.30000e+00	4.019333e-04	
732	-3.35000e+00	4.030905e-04	
733	-3.40000e+00	4.041225e-04	
734	-3.45000e+00	4.050361e-04	
735	-3.50000e+00	4.058401e-04	
736	-3.55000e+00	4.065453e-04	
737	-3.60000e+00	4.071636e-04	
738	-3.65000e+00	4.077080e-04	
739	-3.70000e+00	4.081909e-04	
740	-3.75000e+00	4.086238e-04	
741	-3.80000e+00	4.090163e-04	
742	-3.85000e+00	4.093764e-04	
743	-3.90000e+00	4.097104e-04	
744	-3.95000e+00	4.100230e-04	
745	-4.00000e+00	4.103180e-04	
746	-4.05000e+00	4.105982e-04	
747	-4.10000e+00	4.108659e-04	
748	-4.15000e+00	4.111228e-04	
749	-4.20000e+00	4.113704e-04	
750	-4.25000e+00	4.116098e-04	

Index   v-sweep         i(vds)          
--------------------------------------------------------------------------------
751	-4.30000e+00	4.118419e-04	
752	-4.35000e+00	4.120675e-04	
753	-4.40000e+00	4.122874e-04	
754	-4.45000e+00	4.125019e-04	
755	-4.50000e+00	4.127117e-04	
756	-4.55000e+00	4.129171e-04	
757	-4.60000e+00	4.131184e-04	
758	-4.65000e+00	4.133161e-04	
759	-4.70000e+00	4.135103e-04	
760	-4.75000e+00	4.137014e-04	
761	-4.80000e+00	4.138895e-04	
762	-4.85000e+00	4.140749e-04	
763	-4.90000e+00	4.142577e-04	
764	-4.95000e+00	4.144380e-04	
765	-5.00000e+00	4.146161e-04	
766	-5.05000e+00	4.147921e-04	
767	-5.10000e+00	4.149661e-04	
768	-5.15000e+00	4.151381e-04	
769	-5.20000e+00	4.153084e-04	
770	-5.25000e+00	4.154769e-04	
771	-5.30000e+00	4.156439e-04	
772	-5.35000e+00	4.158093e-04	
773	-5.40000e+00	4.159732e-04	
774	-5.45000e+00	4.161358e-04	
775	-5.50000e+00	4.162970e-04	
776	-5.55000e+00	4.164569e-04	
777	-5.60000e+00	4.166157e-04	
778	-5.65000e+00	4.167732e-04	
779	-5.70000e+00	4.169297e-04	
780	-5.75000e+00	4.170851e-04	
781	-5.80000e+00	4.172395e-04	
782	-5.85000e+00	4.173929e-04	
783	-5.90000e+00	4.175453e-04	
784	-5.95000e+00	4.176969e-04	
785	-6.00000e+00	4.178476e-04	
786	-6.05000e+00	4.179974e-04	
787	-6.10000e+00	4.181464e-04	
788	-6.15000e+00	4.182947e-04	
789	-6.20000e+00	4.184423e-04	
790	-6.25000e+00	4.185891e-04	
791	-6.30000e+00	4.187353e-04	
792	-6.35000e+00	4.188808e-04	
793	-6.40000e+00	4.190258e-04	
794	-6.45000e+00	4.191702e-04	
795	-6.50000e+00	4.193141e-04	
796	-6.55000e+00	4.194576e-04	
797	-6.60000e+00	4.196007e-04	
Note: No ".plot", ".print", or ".fourier" lines; no simulations run
