
Note: Compatibility modes selected: hs

Warning: m=xx on .subckt line will override multiplier m hierarchy!


Circuit: ***************************

Doing analysis at TEMP = -40.000000 and TNOM = -40.000000


No. of Data Rows : 798
                          ***************************
                          DC transfer characteristic  Mon Jan  9 13:58:50  2023
--------------------------------------------------------------------------------
Index   v-sweep         i(vds)          
--------------------------------------------------------------------------------
0	0.000000e+00	1.402062e-24	
1	-5.00000e-02	4.284852e-09	
2	-1.00000e-01	5.293506e-09	
3	-1.50000e-01	5.449704e-09	
4	-2.00000e-01	5.491634e-09	
5	-2.50000e-01	5.510918e-09	
6	-3.00000e-01	5.523039e-09	
7	-3.50000e-01	5.532086e-09	
8	-4.00000e-01	5.539517e-09	
9	-4.50000e-01	5.545967e-09	
10	-5.00000e-01	5.551758e-09	
11	-5.50000e-01	5.557074e-09	
12	-6.00000e-01	5.562027e-09	
13	-6.50000e-01	5.566692e-09	
14	-7.00000e-01	5.571121e-09	
15	-7.50000e-01	5.575352e-09	
16	-8.00000e-01	5.579414e-09	
17	-8.50000e-01	5.583329e-09	
18	-9.00000e-01	5.587116e-09	
19	-9.50000e-01	5.590788e-09	
20	-1.00000e+00	5.594358e-09	
21	-1.05000e+00	5.597836e-09	
22	-1.10000e+00	5.601231e-09	
23	-1.15000e+00	5.604550e-09	
24	-1.20000e+00	5.607800e-09	
25	-1.25000e+00	5.610985e-09	
26	-1.30000e+00	5.614112e-09	
27	-1.35000e+00	5.617183e-09	
28	-1.40000e+00	5.620204e-09	
29	-1.45000e+00	5.623177e-09	
30	-1.50000e+00	5.626106e-09	
31	-1.55000e+00	5.628993e-09	
32	-1.60000e+00	5.631841e-09	
33	-1.65000e+00	5.634653e-09	
34	-1.70000e+00	5.637430e-09	
35	-1.75000e+00	5.640174e-09	
36	-1.80000e+00	5.642888e-09	
37	-1.85000e+00	5.645572e-09	
38	-1.90000e+00	5.648228e-09	
39	-1.95000e+00	5.650858e-09	
40	-2.00000e+00	5.653463e-09	
41	-2.05000e+00	5.656044e-09	
42	-2.10000e+00	5.658602e-09	
43	-2.15000e+00	5.661138e-09	
44	-2.20000e+00	5.663654e-09	
45	-2.25000e+00	5.666149e-09	
46	-2.30000e+00	5.668626e-09	
47	-2.35000e+00	5.671084e-09	
48	-2.40000e+00	5.673525e-09	
49	-2.45000e+00	5.675949e-09	
50	-2.50000e+00	5.678357e-09	
51	-2.55000e+00	5.680749e-09	
52	-2.60000e+00	5.683127e-09	
53	-2.65000e+00	5.685490e-09	
54	-2.70000e+00	5.687839e-09	

Index   v-sweep         i(vds)          
--------------------------------------------------------------------------------
55	-2.75000e+00	5.690176e-09	
56	-2.80000e+00	5.692499e-09	
57	-2.85000e+00	5.694811e-09	
58	-2.90000e+00	5.697112e-09	
59	-2.95000e+00	5.699402e-09	
60	-3.00000e+00	5.701682e-09	
61	-3.05000e+00	5.703953e-09	
62	-3.10000e+00	5.706215e-09	
63	-3.15000e+00	5.708470e-09	
64	-3.20000e+00	5.710718e-09	
65	-3.25000e+00	5.712961e-09	
66	-3.30000e+00	5.715200e-09	
67	-3.35000e+00	5.717437e-09	
68	-3.40000e+00	5.719673e-09	
69	-3.45000e+00	5.721910e-09	
70	-3.50000e+00	5.724150e-09	
71	-3.55000e+00	5.726397e-09	
72	-3.60000e+00	5.728652e-09	
73	-3.65000e+00	5.730919e-09	
74	-3.70000e+00	5.733202e-09	
75	-3.75000e+00	5.735505e-09	
76	-3.80000e+00	5.737833e-09	
77	-3.85000e+00	5.740190e-09	
78	-3.90000e+00	5.742584e-09	
79	-3.95000e+00	5.745019e-09	
80	-4.00000e+00	5.747504e-09	
81	-4.05000e+00	5.750047e-09	
82	-4.10000e+00	5.752656e-09	
83	-4.15000e+00	5.755342e-09	
84	-4.20000e+00	5.758114e-09	
85	-4.25000e+00	5.760984e-09	
86	-4.30000e+00	5.763966e-09	
87	-4.35000e+00	5.767073e-09	
88	-4.40000e+00	5.770319e-09	
89	-4.45000e+00	5.773722e-09	
90	-4.50000e+00	5.777299e-09	
91	-4.55000e+00	5.781068e-09	
92	-4.60000e+00	5.785049e-09	
93	-4.65000e+00	5.789266e-09	
94	-4.70000e+00	5.793739e-09	
95	-4.75000e+00	5.798495e-09	
96	-4.80000e+00	5.803560e-09	
97	-4.85000e+00	5.808961e-09	
98	-4.90000e+00	5.814729e-09	
99	-4.95000e+00	5.820894e-09	
100	-5.00000e+00	5.827490e-09	
101	-5.05000e+00	5.834552e-09	
102	-5.10000e+00	5.842116e-09	
103	-5.15000e+00	5.850223e-09	
104	-5.20000e+00	5.858911e-09	
105	-5.25000e+00	5.868225e-09	
106	-5.30000e+00	5.878209e-09	
107	-5.35000e+00	5.888909e-09	
108	-5.40000e+00	5.900375e-09	
109	-5.45000e+00	5.912657e-09	
110	-5.50000e+00	5.925808e-09	
111	-5.55000e+00	5.939884e-09	
112	-5.60000e+00	5.954941e-09	

Index   v-sweep         i(vds)          
--------------------------------------------------------------------------------
113	-5.65000e+00	5.971039e-09	
114	-5.70000e+00	5.988240e-09	
115	-5.75000e+00	6.006607e-09	
116	-5.80000e+00	6.026206e-09	
117	-5.85000e+00	6.047106e-09	
118	-5.90000e+00	6.069375e-09	
119	-5.95000e+00	6.093088e-09	
120	-6.00000e+00	6.118317e-09	
121	-6.05000e+00	6.145141e-09	
122	-6.10000e+00	6.173637e-09	
123	-6.15000e+00	6.203887e-09	
124	-6.20000e+00	6.235973e-09	
125	-6.25000e+00	6.269981e-09	
126	-6.30000e+00	6.305998e-09	
127	-6.35000e+00	6.344114e-09	
128	-6.40000e+00	6.384419e-09	
129	-6.45000e+00	6.427007e-09	
130	-6.50000e+00	6.471974e-09	
131	-6.55000e+00	6.519416e-09	
132	-6.60000e+00	6.569433e-09	
133	0.000000e+00	1.188570e-22	
134	-5.00000e-02	1.053700e-07	
135	-1.00000e-01	2.033502e-07	
136	-1.50000e-01	2.939478e-07	
137	-2.00000e-01	3.771709e-07	
138	-2.50000e-01	4.530290e-07	
139	-3.00000e-01	5.215332e-07	
140	-3.50000e-01	5.826983e-07	
141	-4.00000e-01	6.365449e-07	
142	-4.50000e-01	6.831044e-07	
143	-5.00000e-01	7.224296e-07	
144	-5.50000e-01	7.546161e-07	
145	-6.00000e-01	7.798498e-07	
146	-6.50000e-01	7.985039e-07	
147	-7.00000e-01	8.112989e-07	
148	-7.50000e-01	8.194273e-07	
149	-8.00000e-01	8.243801e-07	
150	-8.50000e-01	8.274746e-07	
151	-9.00000e-01	8.295663e-07	
152	-9.50000e-01	8.311152e-07	
153	-1.00000e+00	8.323533e-07	
154	-1.05000e+00	8.333996e-07	
155	-1.10000e+00	8.343184e-07	
156	-1.15000e+00	8.351470e-07	
157	-1.20000e+00	8.359084e-07	
158	-1.25000e+00	8.366175e-07	
159	-1.30000e+00	8.372846e-07	
160	-1.35000e+00	8.379171e-07	
161	-1.40000e+00	8.385205e-07	
162	-1.45000e+00	8.390989e-07	
163	-1.50000e+00	8.396556e-07	
164	-1.55000e+00	8.401932e-07	
165	-1.60000e+00	8.407140e-07	
166	-1.65000e+00	8.412197e-07	
167	-1.70000e+00	8.417118e-07	
168	-1.75000e+00	8.421915e-07	
169	-1.80000e+00	8.426601e-07	
170	-1.85000e+00	8.431183e-07	

Index   v-sweep         i(vds)          
--------------------------------------------------------------------------------
171	-1.90000e+00	8.435671e-07	
172	-1.95000e+00	8.440072e-07	
173	-2.00000e+00	8.444392e-07	
174	-2.05000e+00	8.448637e-07	
175	-2.10000e+00	8.452813e-07	
176	-2.15000e+00	8.456923e-07	
177	-2.20000e+00	8.460972e-07	
178	-2.25000e+00	8.464964e-07	
179	-2.30000e+00	8.468901e-07	
180	-2.35000e+00	8.472788e-07	
181	-2.40000e+00	8.476627e-07	
182	-2.45000e+00	8.480421e-07	
183	-2.50000e+00	8.484172e-07	
184	-2.55000e+00	8.487882e-07	
185	-2.60000e+00	8.491554e-07	
186	-2.65000e+00	8.495188e-07	
187	-2.70000e+00	8.498788e-07	
188	-2.75000e+00	8.502354e-07	
189	-2.80000e+00	8.505889e-07	
190	-2.85000e+00	8.509393e-07	
191	-2.90000e+00	8.512868e-07	
192	-2.95000e+00	8.516315e-07	
193	-3.00000e+00	8.519735e-07	
194	-3.05000e+00	8.523130e-07	
195	-3.10000e+00	8.526500e-07	
196	-3.15000e+00	8.529847e-07	
197	-3.20000e+00	8.533171e-07	
198	-3.25000e+00	8.536473e-07	
199	-3.30000e+00	8.539754e-07	
200	-3.35000e+00	8.543016e-07	
201	-3.40000e+00	8.546258e-07	
202	-3.45000e+00	8.549482e-07	
203	-3.50000e+00	8.552688e-07	
204	-3.55000e+00	8.555878e-07	
205	-3.60000e+00	8.559052e-07	
206	-3.65000e+00	8.562212e-07	
207	-3.70000e+00	8.565358e-07	
208	-3.75000e+00	8.568492e-07	
209	-3.80000e+00	8.571614e-07	
210	-3.85000e+00	8.574727e-07	
211	-3.90000e+00	8.577832e-07	
212	-3.95000e+00	8.580930e-07	
213	-4.00000e+00	8.584025e-07	
214	-4.05000e+00	8.587118e-07	
215	-4.10000e+00	8.590212e-07	
216	-4.15000e+00	8.593311e-07	
217	-4.20000e+00	8.596418e-07	
218	-4.25000e+00	8.599537e-07	
219	-4.30000e+00	8.602672e-07	
220	-4.35000e+00	8.605830e-07	
221	-4.40000e+00	8.609016e-07	
222	-4.45000e+00	8.612237e-07	
223	-4.50000e+00	8.615500e-07	
224	-4.55000e+00	8.618814e-07	
225	-4.60000e+00	8.622188e-07	
226	-4.65000e+00	8.625634e-07	
227	-4.70000e+00	8.629161e-07	
228	-4.75000e+00	8.632784e-07	

Index   v-sweep         i(vds)          
--------------------------------------------------------------------------------
229	-4.80000e+00	8.636516e-07	
230	-4.85000e+00	8.640373e-07	
231	-4.90000e+00	8.644372e-07	
232	-4.95000e+00	8.648531e-07	
233	-5.00000e+00	8.652871e-07	
234	-5.05000e+00	8.657412e-07	
235	-5.10000e+00	8.662180e-07	
236	-5.15000e+00	8.667199e-07	
237	-5.20000e+00	8.672497e-07	
238	-5.25000e+00	8.678104e-07	
239	-5.30000e+00	8.684051e-07	
240	-5.35000e+00	8.690372e-07	
241	-5.40000e+00	8.697104e-07	
242	-5.45000e+00	8.704285e-07	
243	-5.50000e+00	8.711956e-07	
244	-5.55000e+00	8.720161e-07	
245	-5.60000e+00	8.728946e-07	
246	-5.65000e+00	8.738359e-07	
247	-5.70000e+00	8.748453e-07	
248	-5.75000e+00	8.759282e-07	
249	-5.80000e+00	8.770903e-07	
250	-5.85000e+00	8.783376e-07	
251	-5.90000e+00	8.796765e-07	
252	-5.95000e+00	8.811134e-07	
253	-6.00000e+00	8.826553e-07	
254	-6.05000e+00	8.843095e-07	
255	-6.10000e+00	8.860834e-07	
256	-6.15000e+00	8.879849e-07	
257	-6.20000e+00	8.900221e-07	
258	-6.25000e+00	8.922036e-07	
259	-6.30000e+00	8.945380e-07	
260	-6.35000e+00	8.970345e-07	
261	-6.40000e+00	8.997026e-07	
262	-6.45000e+00	9.025520e-07	
263	-6.50000e+00	9.055927e-07	
264	-6.55000e+00	9.088352e-07	
265	-6.60000e+00	9.122903e-07	
266	0.000000e+00	2.074993e-22	
267	-5.00000e-02	1.961502e-07	
268	-1.00000e-01	3.853528e-07	
269	-1.50000e-01	5.676124e-07	
270	-2.00000e-01	7.429336e-07	
271	-2.50000e-01	9.113210e-07	
272	-3.00000e-01	1.072779e-06	
273	-3.50000e-01	1.227313e-06	
274	-4.00000e-01	1.374928e-06	
275	-4.50000e-01	1.515628e-06	
276	-5.00000e-01	1.649419e-06	
277	-5.50000e-01	1.776307e-06	
278	-6.00000e-01	1.896295e-06	
279	-6.50000e-01	2.009392e-06	
280	-7.00000e-01	2.115603e-06	
281	-7.50000e-01	2.214936e-06	
282	-8.00000e-01	2.307399e-06	
283	-8.50000e-01	2.393003e-06	
284	-9.00000e-01	2.471758e-06	
285	-9.50000e-01	2.543683e-06	
286	-1.00000e+00	2.608798e-06	

Index   v-sweep         i(vds)          
--------------------------------------------------------------------------------
287	-1.05000e+00	2.667133e-06	
288	-1.10000e+00	2.718734e-06	
289	-1.15000e+00	2.763671e-06	
290	-1.20000e+00	2.802055e-06	
291	-1.25000e+00	2.834069e-06	
292	-1.30000e+00	2.860015e-06	
293	-1.35000e+00	2.880376e-06	
294	-1.40000e+00	2.895865e-06	
295	-1.45000e+00	2.907407e-06	
296	-1.50000e+00	2.916008e-06	
297	-1.55000e+00	2.922564e-06	
298	-1.60000e+00	2.927757e-06	
299	-1.65000e+00	2.932044e-06	
300	-1.70000e+00	2.935717e-06	
301	-1.75000e+00	2.938959e-06	
302	-1.80000e+00	2.941886e-06	
303	-1.85000e+00	2.944574e-06	
304	-1.90000e+00	2.947074e-06	
305	-1.95000e+00	2.949423e-06	
306	-2.00000e+00	2.951647e-06	
307	-2.05000e+00	2.953766e-06	
308	-2.10000e+00	2.955796e-06	
309	-2.15000e+00	2.957747e-06	
310	-2.20000e+00	2.959630e-06	
311	-2.25000e+00	2.961453e-06	
312	-2.30000e+00	2.963221e-06	
313	-2.35000e+00	2.964942e-06	
314	-2.40000e+00	2.966618e-06	
315	-2.45000e+00	2.968254e-06	
316	-2.50000e+00	2.969854e-06	
317	-2.55000e+00	2.971420e-06	
318	-2.60000e+00	2.972956e-06	
319	-2.65000e+00	2.974463e-06	
320	-2.70000e+00	2.975943e-06	
321	-2.75000e+00	2.977399e-06	
322	-2.80000e+00	2.978832e-06	
323	-2.85000e+00	2.980244e-06	
324	-2.90000e+00	2.981635e-06	
325	-2.95000e+00	2.983007e-06	
326	-3.00000e+00	2.984362e-06	
327	-3.05000e+00	2.985699e-06	
328	-3.10000e+00	2.987021e-06	
329	-3.15000e+00	2.988328e-06	
330	-3.20000e+00	2.989620e-06	
331	-3.25000e+00	2.990899e-06	
332	-3.30000e+00	2.992165e-06	
333	-3.35000e+00	2.993419e-06	
334	-3.40000e+00	2.994662e-06	
335	-3.45000e+00	2.995893e-06	
336	-3.50000e+00	2.997113e-06	
337	-3.55000e+00	2.998324e-06	
338	-3.60000e+00	2.999524e-06	
339	-3.65000e+00	3.000716e-06	
340	-3.70000e+00	3.001898e-06	
341	-3.75000e+00	3.003072e-06	
342	-3.80000e+00	3.004238e-06	
343	-3.85000e+00	3.005396e-06	
344	-3.90000e+00	3.006546e-06	

Index   v-sweep         i(vds)          
--------------------------------------------------------------------------------
345	-3.95000e+00	3.007689e-06	
346	-4.00000e+00	3.008826e-06	
347	-4.05000e+00	3.009955e-06	
348	-4.10000e+00	3.011078e-06	
349	-4.15000e+00	3.012195e-06	
350	-4.20000e+00	3.013306e-06	
351	-4.25000e+00	3.014412e-06	
352	-4.30000e+00	3.015513e-06	
353	-4.35000e+00	3.016608e-06	
354	-4.40000e+00	3.017699e-06	
355	-4.45000e+00	3.018787e-06	
356	-4.50000e+00	3.019870e-06	
357	-4.55000e+00	3.020951e-06	
358	-4.60000e+00	3.022029e-06	
359	-4.65000e+00	3.023105e-06	
360	-4.70000e+00	3.024181e-06	
361	-4.75000e+00	3.025256e-06	
362	-4.80000e+00	3.026332e-06	
363	-4.85000e+00	3.027410e-06	
364	-4.90000e+00	3.028492e-06	
365	-4.95000e+00	3.029578e-06	
366	-5.00000e+00	3.030671e-06	
367	-5.05000e+00	3.031773e-06	
368	-5.10000e+00	3.032885e-06	
369	-5.15000e+00	3.034011e-06	
370	-5.20000e+00	3.035152e-06	
371	-5.25000e+00	3.036312e-06	
372	-5.30000e+00	3.037495e-06	
373	-5.35000e+00	3.038703e-06	
374	-5.40000e+00	3.039942e-06	
375	-5.45000e+00	3.041216e-06	
376	-5.50000e+00	3.042530e-06	
377	-5.55000e+00	3.043890e-06	
378	-5.60000e+00	3.045302e-06	
379	-5.65000e+00	3.046772e-06	
380	-5.70000e+00	3.048307e-06	
381	-5.75000e+00	3.049916e-06	
382	-5.80000e+00	3.051607e-06	
383	-5.85000e+00	3.053390e-06	
384	-5.90000e+00	3.055273e-06	
385	-5.95000e+00	3.057268e-06	
386	-6.00000e+00	3.059387e-06	
387	-6.05000e+00	3.061640e-06	
388	-6.10000e+00	3.064042e-06	
389	-6.15000e+00	3.066606e-06	
390	-6.20000e+00	3.069346e-06	
391	-6.25000e+00	3.072279e-06	
392	-6.30000e+00	3.075420e-06	
393	-6.35000e+00	3.078788e-06	
394	-6.40000e+00	3.082401e-06	
395	-6.45000e+00	3.086277e-06	
396	-6.50000e+00	3.090438e-06	
397	-6.55000e+00	3.094905e-06	
398	-6.60000e+00	3.099700e-06	
399	0.000000e+00	1.331237e-21	
400	-5.00000e-02	2.745164e-07	
401	-1.00000e-01	5.425651e-07	
402	-1.50000e-01	8.041499e-07	

Index   v-sweep         i(vds)          
--------------------------------------------------------------------------------
403	-2.00000e-01	1.059274e-06	
404	-2.50000e-01	1.307942e-06	
405	-3.00000e-01	1.550157e-06	
406	-3.50000e-01	1.785922e-06	
407	-4.00000e-01	2.015241e-06	
408	-4.50000e-01	2.238118e-06	
409	-5.00000e-01	2.454557e-06	
410	-5.50000e-01	2.664561e-06	
411	-6.00000e-01	2.868135e-06	
412	-6.50000e-01	3.065280e-06	
413	-7.00000e-01	3.256003e-06	
414	-7.50000e-01	3.440305e-06	
415	-8.00000e-01	3.618192e-06	
416	-8.50000e-01	3.789667e-06	
417	-9.00000e-01	3.954734e-06	
418	-9.50000e-01	4.113398e-06	
419	-1.00000e+00	4.265662e-06	
420	-1.05000e+00	4.411530e-06	
421	-1.10000e+00	4.551008e-06	
422	-1.15000e+00	4.684100e-06	
423	-1.20000e+00	4.810811e-06	
424	-1.25000e+00	4.931147e-06	
425	-1.30000e+00	5.045114e-06	
426	-1.35000e+00	5.152718e-06	
427	-1.40000e+00	5.253968e-06	
428	-1.45000e+00	5.348873e-06	
429	-1.50000e+00	5.437444e-06	
430	-1.55000e+00	5.519695e-06	
431	-1.60000e+00	5.595643e-06	
432	-1.65000e+00	5.665313e-06	
433	-1.70000e+00	5.728736e-06	
434	-1.75000e+00	5.785958e-06	
435	-1.80000e+00	5.837045e-06	
436	-1.85000e+00	5.882095e-06	
437	-1.90000e+00	5.921251e-06	
438	-1.95000e+00	5.954733e-06	
439	-2.00000e+00	5.982863e-06	
440	-2.05000e+00	6.006098e-06	
441	-2.10000e+00	6.025038e-06	
442	-2.15000e+00	6.040397e-06	
443	-2.20000e+00	6.052922e-06	
444	-2.25000e+00	6.063299e-06	
445	-2.30000e+00	6.072090e-06	
446	-2.35000e+00	6.079718e-06	
447	-2.40000e+00	6.086485e-06	
448	-2.45000e+00	6.092602e-06	
449	-2.50000e+00	6.098216e-06	
450	-2.55000e+00	6.103433e-06	
451	-2.60000e+00	6.108328e-06	
452	-2.65000e+00	6.112955e-06	
453	-2.70000e+00	6.117359e-06	
454	-2.75000e+00	6.121571e-06	
455	-2.80000e+00	6.125617e-06	
456	-2.85000e+00	6.129517e-06	
457	-2.90000e+00	6.133289e-06	
458	-2.95000e+00	6.136947e-06	
459	-3.00000e+00	6.140502e-06	
460	-3.05000e+00	6.143964e-06	

Index   v-sweep         i(vds)          
--------------------------------------------------------------------------------
461	-3.10000e+00	6.147343e-06	
462	-3.15000e+00	6.150644e-06	
463	-3.20000e+00	6.153875e-06	
464	-3.25000e+00	6.157042e-06	
465	-3.30000e+00	6.160148e-06	
466	-3.35000e+00	6.163199e-06	
467	-3.40000e+00	6.166199e-06	
468	-3.45000e+00	6.169150e-06	
469	-3.50000e+00	6.172057e-06	
470	-3.55000e+00	6.174922e-06	
471	-3.60000e+00	6.177747e-06	
472	-3.65000e+00	6.180535e-06	
473	-3.70000e+00	6.183288e-06	
474	-3.75000e+00	6.186008e-06	
475	-3.80000e+00	6.188697e-06	
476	-3.85000e+00	6.191357e-06	
477	-3.90000e+00	6.193988e-06	
478	-3.95000e+00	6.196593e-06	
479	-4.00000e+00	6.199173e-06	
480	-4.05000e+00	6.201728e-06	
481	-4.10000e+00	6.204261e-06	
482	-4.15000e+00	6.206771e-06	
483	-4.20000e+00	6.209261e-06	
484	-4.25000e+00	6.211730e-06	
485	-4.30000e+00	6.214181e-06	
486	-4.35000e+00	6.216613e-06	
487	-4.40000e+00	6.219027e-06	
488	-4.45000e+00	6.221425e-06	
489	-4.50000e+00	6.223806e-06	
490	-4.55000e+00	6.226171e-06	
491	-4.60000e+00	6.228522e-06	
492	-4.65000e+00	6.230859e-06	
493	-4.70000e+00	6.233181e-06	
494	-4.75000e+00	6.235491e-06	
495	-4.80000e+00	6.237787e-06	
496	-4.85000e+00	6.240072e-06	
497	-4.90000e+00	6.242345e-06	
498	-4.95000e+00	6.244608e-06	
499	-5.00000e+00	6.246860e-06	
500	-5.05000e+00	6.249103e-06	
501	-5.10000e+00	6.251337e-06	
502	-5.15000e+00	6.253563e-06	
503	-5.20000e+00	6.255782e-06	
504	-5.25000e+00	6.257996e-06	
505	-5.30000e+00	6.260205e-06	
506	-5.35000e+00	6.262411e-06	
507	-5.40000e+00	6.264616e-06	
508	-5.45000e+00	6.266821e-06	
509	-5.50000e+00	6.269028e-06	
510	-5.55000e+00	6.271240e-06	
511	-5.60000e+00	6.273460e-06	
512	-5.65000e+00	6.275691e-06	
513	-5.70000e+00	6.277937e-06	
514	-5.75000e+00	6.280200e-06	
515	-5.80000e+00	6.282487e-06	
516	-5.85000e+00	6.284802e-06	
517	-5.90000e+00	6.287151e-06	
518	-5.95000e+00	6.289541e-06	

Index   v-sweep         i(vds)          
--------------------------------------------------------------------------------
519	-6.00000e+00	6.291978e-06	
520	-6.05000e+00	6.294470e-06	
521	-6.10000e+00	6.297027e-06	
522	-6.15000e+00	6.299658e-06	
523	-6.20000e+00	6.302374e-06	
524	-6.25000e+00	6.305186e-06	
525	-6.30000e+00	6.308107e-06	
526	-6.35000e+00	6.311151e-06	
527	-6.40000e+00	6.314334e-06	
528	-6.45000e+00	6.317671e-06	
529	-6.50000e+00	6.321181e-06	
530	-6.55000e+00	6.324883e-06	
531	-6.60000e+00	6.328797e-06	
532	0.000000e+00	1.222184e-21	
533	-5.00000e-02	3.425623e-07	
534	-1.00000e-01	6.791070e-07	
535	-1.50000e-01	1.009637e-06	
536	-2.00000e-01	1.334156e-06	
537	-2.50000e-01	1.652666e-06	
538	-3.00000e-01	1.965170e-06	
539	-3.50000e-01	2.271672e-06	
540	-4.00000e-01	2.572174e-06	
541	-4.50000e-01	2.866679e-06	
542	-5.00000e-01	3.155192e-06	
543	-5.50000e-01	3.437713e-06	
544	-6.00000e-01	3.714247e-06	
545	-6.50000e-01	3.984796e-06	
546	-7.00000e-01	4.249364e-06	
547	-7.50000e-01	4.507953e-06	
548	-8.00000e-01	4.760566e-06	
549	-8.50000e-01	5.007207e-06	
550	-9.00000e-01	5.247879e-06	
551	-9.50000e-01	5.482584e-06	
552	-1.00000e+00	5.711326e-06	
553	-1.05000e+00	5.934107e-06	
554	-1.10000e+00	6.150931e-06	
555	-1.15000e+00	6.361801e-06	
556	-1.20000e+00	6.566719e-06	
557	-1.25000e+00	6.765690e-06	
558	-1.30000e+00	6.958716e-06	
559	-1.35000e+00	7.145801e-06	
560	-1.40000e+00	7.326948e-06	
561	-1.45000e+00	7.502160e-06	
562	-1.50000e+00	7.671440e-06	
563	-1.55000e+00	7.834793e-06	
564	-1.60000e+00	7.992222e-06	
565	-1.65000e+00	8.143730e-06	
566	-1.70000e+00	8.289323e-06	
567	-1.75000e+00	8.429003e-06	
568	-1.80000e+00	8.562776e-06	
569	-1.85000e+00	8.690646e-06	
570	-1.90000e+00	8.812619e-06	
571	-1.95000e+00	8.928701e-06	
572	-2.00000e+00	9.038899e-06	
573	-2.05000e+00	9.143220e-06	
574	-2.10000e+00	9.241674e-06	
575	-2.15000e+00	9.334272e-06	
576	-2.20000e+00	9.421028e-06	

Index   v-sweep         i(vds)          
--------------------------------------------------------------------------------
577	-2.25000e+00	9.501958e-06	
578	-2.30000e+00	9.577086e-06	
579	-2.35000e+00	9.646440e-06	
580	-2.40000e+00	9.710060e-06	
581	-2.45000e+00	9.768000e-06	
582	-2.50000e+00	9.820337e-06	
583	-2.55000e+00	9.867175e-06	
584	-2.60000e+00	9.908668e-06	
585	-2.65000e+00	9.945027e-06	
586	-2.70000e+00	9.976546e-06	
587	-2.75000e+00	1.000361e-05	
588	-2.80000e+00	1.002672e-05	
589	-2.85000e+00	1.004641e-05	
590	-2.90000e+00	1.006329e-05	
591	-2.95000e+00	1.007790e-05	
592	-3.00000e+00	1.009072e-05	
593	-3.05000e+00	1.010216e-05	
594	-3.10000e+00	1.011252e-05	
595	-3.15000e+00	1.012202e-05	
596	-3.20000e+00	1.013083e-05	
597	-3.25000e+00	1.013908e-05	
598	-3.30000e+00	1.014686e-05	
599	-3.35000e+00	1.015426e-05	
600	-3.40000e+00	1.016132e-05	
601	-3.45000e+00	1.016809e-05	
602	-3.50000e+00	1.017462e-05	
603	-3.55000e+00	1.018092e-05	
604	-3.60000e+00	1.018702e-05	
605	-3.65000e+00	1.019295e-05	
606	-3.70000e+00	1.019871e-05	
607	-3.75000e+00	1.020434e-05	
608	-3.80000e+00	1.020983e-05	
609	-3.85000e+00	1.021520e-05	
610	-3.90000e+00	1.022046e-05	
611	-3.95000e+00	1.022562e-05	
612	-4.00000e+00	1.023068e-05	
613	-4.05000e+00	1.023566e-05	
614	-4.10000e+00	1.024056e-05	
615	-4.15000e+00	1.024538e-05	
616	-4.20000e+00	1.025013e-05	
617	-4.25000e+00	1.025481e-05	
618	-4.30000e+00	1.025943e-05	
619	-4.35000e+00	1.026399e-05	
620	-4.40000e+00	1.026850e-05	
621	-4.45000e+00	1.027295e-05	
622	-4.50000e+00	1.027735e-05	
623	-4.55000e+00	1.028171e-05	
624	-4.60000e+00	1.028602e-05	
625	-4.65000e+00	1.029029e-05	
626	-4.70000e+00	1.029452e-05	
627	-4.75000e+00	1.029871e-05	
628	-4.80000e+00	1.030286e-05	
629	-4.85000e+00	1.030698e-05	
630	-4.90000e+00	1.031107e-05	
631	-4.95000e+00	1.031512e-05	
632	-5.00000e+00	1.031914e-05	
633	-5.05000e+00	1.032313e-05	
634	-5.10000e+00	1.032710e-05	

Index   v-sweep         i(vds)          
--------------------------------------------------------------------------------
635	-5.15000e+00	1.033104e-05	
636	-5.20000e+00	1.033495e-05	
637	-5.25000e+00	1.033884e-05	
638	-5.30000e+00	1.034270e-05	
639	-5.35000e+00	1.034654e-05	
640	-5.40000e+00	1.035036e-05	
641	-5.45000e+00	1.035415e-05	
642	-5.50000e+00	1.035793e-05	
643	-5.55000e+00	1.036169e-05	
644	-5.60000e+00	1.036543e-05	
645	-5.65000e+00	1.036915e-05	
646	-5.70000e+00	1.037285e-05	
647	-5.75000e+00	1.037654e-05	
648	-5.80000e+00	1.038022e-05	
649	-5.85000e+00	1.038388e-05	
650	-5.90000e+00	1.038753e-05	
651	-5.95000e+00	1.039118e-05	
652	-6.00000e+00	1.039481e-05	
653	-6.05000e+00	1.039845e-05	
654	-6.10000e+00	1.040208e-05	
655	-6.15000e+00	1.040571e-05	
656	-6.20000e+00	1.040934e-05	
657	-6.25000e+00	1.041298e-05	
658	-6.30000e+00	1.041664e-05	
659	-6.35000e+00	1.042031e-05	
660	-6.40000e+00	1.042401e-05	
661	-6.45000e+00	1.042774e-05	
662	-6.50000e+00	1.043151e-05	
663	-6.55000e+00	1.043532e-05	
664	-6.60000e+00	1.043919e-05	
665	0.000000e+00	-3.84847e-37	
666	-5.00000e-02	4.020077e-07	
667	-1.00000e-01	7.984091e-07	
668	-1.50000e-01	1.189207e-06	
669	-2.00000e-01	1.574403e-06	
670	-2.50000e-01	1.954001e-06	
671	-3.00000e-01	2.328002e-06	
672	-3.50000e-01	2.696410e-06	
673	-4.00000e-01	3.059227e-06	
674	-4.50000e-01	3.416455e-06	
675	-5.00000e-01	3.768097e-06	
676	-5.50000e-01	4.114156e-06	
677	-6.00000e-01	4.454633e-06	
678	-6.50000e-01	4.789532e-06	
679	-7.00000e-01	5.118855e-06	
680	-7.50000e-01	5.442605e-06	
681	-8.00000e-01	5.760783e-06	
682	-8.50000e-01	6.073393e-06	
683	-9.00000e-01	6.380438e-06	
684	-9.50000e-01	6.681918e-06	
685	-1.00000e+00	6.977838e-06	
686	-1.05000e+00	7.268199e-06	
687	-1.10000e+00	7.553004e-06	
688	-1.15000e+00	7.832256e-06	
689	-1.20000e+00	8.105957e-06	
690	-1.25000e+00	8.374110e-06	
691	-1.30000e+00	8.636716e-06	
692	-1.35000e+00	8.893780e-06	

Index   v-sweep         i(vds)          
--------------------------------------------------------------------------------
693	-1.40000e+00	9.145303e-06	
694	-1.45000e+00	9.391287e-06	
695	-1.50000e+00	9.631736e-06	
696	-1.55000e+00	9.866651e-06	
697	-1.60000e+00	1.009604e-05	
698	-1.65000e+00	1.031989e-05	
699	-1.70000e+00	1.053823e-05	
700	-1.75000e+00	1.075104e-05	
701	-1.80000e+00	1.095832e-05	
702	-1.85000e+00	1.116010e-05	
703	-1.90000e+00	1.135635e-05	
704	-1.95000e+00	1.154710e-05	
705	-2.00000e+00	1.173234e-05	
706	-2.05000e+00	1.191207e-05	
707	-2.10000e+00	1.208630e-05	
708	-2.15000e+00	1.225503e-05	
709	-2.20000e+00	1.241826e-05	
710	-2.25000e+00	1.257600e-05	
711	-2.30000e+00	1.272825e-05	
712	-2.35000e+00	1.287501e-05	
713	-2.40000e+00	1.301629e-05	
714	-2.45000e+00	1.315209e-05	
715	-2.50000e+00	1.328242e-05	
716	-2.55000e+00	1.340728e-05	
717	-2.60000e+00	1.352668e-05	
718	-2.65000e+00	1.364063e-05	
719	-2.70000e+00	1.374912e-05	
720	-2.75000e+00	1.385218e-05	
721	-2.80000e+00	1.394981e-05	
722	-2.85000e+00	1.404201e-05	
723	-2.90000e+00	1.412882e-05	
724	-2.95000e+00	1.421025e-05	
725	-3.00000e+00	1.428631e-05	
726	-3.05000e+00	1.435705e-05	
727	-3.10000e+00	1.442251e-05	
728	-3.15000e+00	1.448274e-05	
729	-3.20000e+00	1.453781e-05	
730	-3.25000e+00	1.458783e-05	
731	-3.30000e+00	1.463294e-05	
732	-3.35000e+00	1.467332e-05	
733	-3.40000e+00	1.470921e-05	
734	-3.45000e+00	1.474094e-05	
735	-3.50000e+00	1.476889e-05	
736	-3.55000e+00	1.479349e-05	
737	-3.60000e+00	1.481522e-05	
738	-3.65000e+00	1.483454e-05	
739	-3.70000e+00	1.485187e-05	
740	-3.75000e+00	1.486760e-05	
741	-3.80000e+00	1.488201e-05	
742	-3.85000e+00	1.489536e-05	
743	-3.90000e+00	1.490783e-05	
744	-3.95000e+00	1.491956e-05	
745	-4.00000e+00	1.493068e-05	
746	-4.05000e+00	1.494127e-05	
747	-4.10000e+00	1.495141e-05	
748	-4.15000e+00	1.496115e-05	
749	-4.20000e+00	1.497055e-05	
750	-4.25000e+00	1.497964e-05	

Index   v-sweep         i(vds)          
--------------------------------------------------------------------------------
751	-4.30000e+00	1.498846e-05	
752	-4.35000e+00	1.499703e-05	
753	-4.40000e+00	1.500537e-05	
754	-4.45000e+00	1.501352e-05	
755	-4.50000e+00	1.502147e-05	
756	-4.55000e+00	1.502926e-05	
757	-4.60000e+00	1.503690e-05	
758	-4.65000e+00	1.504438e-05	
759	-4.70000e+00	1.505174e-05	
760	-4.75000e+00	1.505897e-05	
761	-4.80000e+00	1.506609e-05	
762	-4.85000e+00	1.507309e-05	
763	-4.90000e+00	1.508000e-05	
764	-4.95000e+00	1.508681e-05	
765	-5.00000e+00	1.509354e-05	
766	-5.05000e+00	1.510018e-05	
767	-5.10000e+00	1.510673e-05	
768	-5.15000e+00	1.511322e-05	
769	-5.20000e+00	1.511963e-05	
770	-5.25000e+00	1.512598e-05	
771	-5.30000e+00	1.513226e-05	
772	-5.35000e+00	1.513848e-05	
773	-5.40000e+00	1.514465e-05	
774	-5.45000e+00	1.515076e-05	
775	-5.50000e+00	1.515681e-05	
776	-5.55000e+00	1.516282e-05	
777	-5.60000e+00	1.516878e-05	
778	-5.65000e+00	1.517469e-05	
779	-5.70000e+00	1.518056e-05	
780	-5.75000e+00	1.518639e-05	
781	-5.80000e+00	1.519217e-05	
782	-5.85000e+00	1.519792e-05	
783	-5.90000e+00	1.520363e-05	
784	-5.95000e+00	1.520931e-05	
785	-6.00000e+00	1.521494e-05	
786	-6.05000e+00	1.522055e-05	
787	-6.10000e+00	1.522613e-05	
788	-6.15000e+00	1.523167e-05	
789	-6.20000e+00	1.523719e-05	
790	-6.25000e+00	1.524267e-05	
791	-6.30000e+00	1.524814e-05	
792	-6.35000e+00	1.525357e-05	
793	-6.40000e+00	1.525898e-05	
794	-6.45000e+00	1.526438e-05	
795	-6.50000e+00	1.526975e-05	
796	-6.55000e+00	1.527510e-05	
797	-6.60000e+00	1.528043e-05	
Note: No ".plot", ".print", or ".fourier" lines; no simulations run
