
Note: Compatibility modes selected: hs

Warning: m=xx on .subckt line will override multiplier m hierarchy!


Circuit: ***************************

Doing analysis at TEMP = 25.000000 and TNOM = 25.000000


No. of Data Rows : 798
                          ***************************
                          DC transfer characteristic  Mon Jan  9 13:58:50  2023
--------------------------------------------------------------------------------
Index   v-sweep         i(vds)          
--------------------------------------------------------------------------------
0	0.000000e+00	-2.67268e-24	
1	-5.00000e-02	5.412021e-08	
2	-1.00000e-01	7.898079e-08	
3	-1.50000e-01	8.573231e-08	
4	-2.00000e-01	8.721705e-08	
5	-2.50000e-01	8.768175e-08	
6	-3.00000e-01	8.789521e-08	
7	-3.50000e-01	8.802321e-08	
8	-4.00000e-01	8.811448e-08	
9	-4.50000e-01	8.818709e-08	
10	-5.00000e-01	8.824900e-08	
11	-5.50000e-01	8.830416e-08	
12	-6.00000e-01	8.835474e-08	
13	-6.50000e-01	8.840202e-08	
14	-7.00000e-01	8.844682e-08	
15	-7.50000e-01	8.848967e-08	
16	-8.00000e-01	8.853096e-08	
17	-8.50000e-01	8.857096e-08	
18	-9.00000e-01	8.860986e-08	
19	-9.50000e-01	8.864782e-08	
20	-1.00000e+00	8.868496e-08	
21	-1.05000e+00	8.872138e-08	
22	-1.10000e+00	8.875717e-08	
23	-1.15000e+00	8.879238e-08	
24	-1.20000e+00	8.882707e-08	
25	-1.25000e+00	8.886129e-08	
26	-1.30000e+00	8.889508e-08	
27	-1.35000e+00	8.892847e-08	
28	-1.40000e+00	8.896150e-08	
29	-1.45000e+00	8.899418e-08	
30	-1.50000e+00	8.902655e-08	
31	-1.55000e+00	8.905862e-08	
32	-1.60000e+00	8.909042e-08	
33	-1.65000e+00	8.912196e-08	
34	-1.70000e+00	8.915326e-08	
35	-1.75000e+00	8.918433e-08	
36	-1.80000e+00	8.921518e-08	
37	-1.85000e+00	8.924583e-08	
38	-1.90000e+00	8.927628e-08	
39	-1.95000e+00	8.930655e-08	
40	-2.00000e+00	8.933665e-08	
41	-2.05000e+00	8.936658e-08	
42	-2.10000e+00	8.939635e-08	
43	-2.15000e+00	8.942598e-08	
44	-2.20000e+00	8.945545e-08	
45	-2.25000e+00	8.948479e-08	
46	-2.30000e+00	8.951400e-08	
47	-2.35000e+00	8.954308e-08	
48	-2.40000e+00	8.957204e-08	
49	-2.45000e+00	8.960089e-08	
50	-2.50000e+00	8.962962e-08	
51	-2.55000e+00	8.965825e-08	
52	-2.60000e+00	8.968677e-08	
53	-2.65000e+00	8.971520e-08	
54	-2.70000e+00	8.974354e-08	

Index   v-sweep         i(vds)          
--------------------------------------------------------------------------------
55	-2.75000e+00	8.977179e-08	
56	-2.80000e+00	8.979995e-08	
57	-2.85000e+00	8.982804e-08	
58	-2.90000e+00	8.985606e-08	
59	-2.95000e+00	8.988401e-08	
60	-3.00000e+00	8.991191e-08	
61	-3.05000e+00	8.993976e-08	
62	-3.10000e+00	8.996757e-08	
63	-3.15000e+00	8.999535e-08	
64	-3.20000e+00	9.002313e-08	
65	-3.25000e+00	9.005091e-08	
66	-3.30000e+00	9.007871e-08	
67	-3.35000e+00	9.010656e-08	
68	-3.40000e+00	9.013448e-08	
69	-3.45000e+00	9.016250e-08	
70	-3.50000e+00	9.019066e-08	
71	-3.55000e+00	9.021900e-08	
72	-3.60000e+00	9.024756e-08	
73	-3.65000e+00	9.027640e-08	
74	-3.70000e+00	9.030557e-08	
75	-3.75000e+00	9.033515e-08	
76	-3.80000e+00	9.036521e-08	
77	-3.85000e+00	9.039583e-08	
78	-3.90000e+00	9.042712e-08	
79	-3.95000e+00	9.045919e-08	
80	-4.00000e+00	9.049214e-08	
81	-4.05000e+00	9.052612e-08	
82	-4.10000e+00	9.056128e-08	
83	-4.15000e+00	9.059777e-08	
84	-4.20000e+00	9.063578e-08	
85	-4.25000e+00	9.067549e-08	
86	-4.30000e+00	9.071713e-08	
87	-4.35000e+00	9.076092e-08	
88	-4.40000e+00	9.080711e-08	
89	-4.45000e+00	9.085598e-08	
90	-4.50000e+00	9.090782e-08	
91	-4.55000e+00	9.096295e-08	
92	-4.60000e+00	9.102170e-08	
93	-4.65000e+00	9.108443e-08	
94	-4.70000e+00	9.115154e-08	
95	-4.75000e+00	9.122345e-08	
96	-4.80000e+00	9.130058e-08	
97	-4.85000e+00	9.138342e-08	
98	-4.90000e+00	9.147245e-08	
99	-4.95000e+00	9.156821e-08	
100	-5.00000e+00	9.167126e-08	
101	-5.05000e+00	9.178217e-08	
102	-5.10000e+00	9.190156e-08	
103	-5.15000e+00	9.203009e-08	
104	-5.20000e+00	9.216845e-08	
105	-5.25000e+00	9.231733e-08	
106	-5.30000e+00	9.247750e-08	
107	-5.35000e+00	9.264973e-08	
108	-5.40000e+00	9.283483e-08	
109	-5.45000e+00	9.303367e-08	
110	-5.50000e+00	9.324712e-08	
111	-5.55000e+00	9.347610e-08	
112	-5.60000e+00	9.372157e-08	

Index   v-sweep         i(vds)          
--------------------------------------------------------------------------------
113	-5.65000e+00	9.398452e-08	
114	-5.70000e+00	9.426597e-08	
115	-5.75000e+00	9.456699e-08	
116	-5.80000e+00	9.488866e-08	
117	-5.85000e+00	9.523213e-08	
118	-5.90000e+00	9.559856e-08	
119	-5.95000e+00	9.598915e-08	
120	-6.00000e+00	9.640514e-08	
121	-6.05000e+00	9.684781e-08	
122	-6.10000e+00	9.731846e-08	
123	-6.15000e+00	9.781843e-08	
124	-6.20000e+00	9.834910e-08	
125	-6.25000e+00	9.891189e-08	
126	-6.30000e+00	9.950823e-08	
127	-6.35000e+00	1.001396e-07	
128	-6.40000e+00	1.008075e-07	
129	-6.45000e+00	1.015135e-07	
130	-6.50000e+00	1.022592e-07	
131	-6.55000e+00	1.030462e-07	
132	-6.60000e+00	1.038760e-07	
133	0.000000e+00	-8.68723e-22	
134	-5.00000e-02	6.318027e-07	
135	-1.00000e-01	1.222654e-06	
136	-1.50000e-01	1.772575e-06	
137	-2.00000e-01	2.281594e-06	
138	-2.50000e-01	2.749739e-06	
139	-3.00000e-01	3.177048e-06	
140	-3.50000e-01	3.563571e-06	
141	-4.00000e-01	3.909374e-06	
142	-4.50000e-01	4.214558e-06	
143	-5.00000e-01	4.479284e-06	
144	-5.50000e-01	4.703825e-06	
145	-6.00000e-01	4.888673e-06	
146	-6.50000e-01	5.034774e-06	
147	-7.00000e-01	5.143986e-06	
148	-7.50000e-01	5.219853e-06	
149	-8.00000e-01	5.268352e-06	
150	-8.50000e-01	5.297399e-06	
151	-9.00000e-01	5.314606e-06	
152	-9.50000e-01	5.325345e-06	
153	-1.00000e+00	5.332666e-06	
154	-1.05000e+00	5.338136e-06	
155	-1.10000e+00	5.342546e-06	
156	-1.15000e+00	5.346308e-06	
157	-1.20000e+00	5.349650e-06	
158	-1.25000e+00	5.352704e-06	
159	-1.30000e+00	5.355549e-06	
160	-1.35000e+00	5.358238e-06	
161	-1.40000e+00	5.360804e-06	
162	-1.45000e+00	5.363273e-06	
163	-1.50000e+00	5.365661e-06	
164	-1.55000e+00	5.367981e-06	
165	-1.60000e+00	5.370243e-06	
166	-1.65000e+00	5.372455e-06	
167	-1.70000e+00	5.374622e-06	
168	-1.75000e+00	5.376751e-06	
169	-1.80000e+00	5.378844e-06	
170	-1.85000e+00	5.380906e-06	

Index   v-sweep         i(vds)          
--------------------------------------------------------------------------------
171	-1.90000e+00	5.382939e-06	
172	-1.95000e+00	5.384946e-06	
173	-2.00000e+00	5.386929e-06	
174	-2.05000e+00	5.388890e-06	
175	-2.10000e+00	5.390830e-06	
176	-2.15000e+00	5.392751e-06	
177	-2.20000e+00	5.394654e-06	
178	-2.25000e+00	5.396540e-06	
179	-2.30000e+00	5.398411e-06	
180	-2.35000e+00	5.400268e-06	
181	-2.40000e+00	5.402110e-06	
182	-2.45000e+00	5.403940e-06	
183	-2.50000e+00	5.405757e-06	
184	-2.55000e+00	5.407562e-06	
185	-2.60000e+00	5.409357e-06	
186	-2.65000e+00	5.411140e-06	
187	-2.70000e+00	5.412914e-06	
188	-2.75000e+00	5.414679e-06	
189	-2.80000e+00	5.416434e-06	
190	-2.85000e+00	5.418181e-06	
191	-2.90000e+00	5.419919e-06	
192	-2.95000e+00	5.421649e-06	
193	-3.00000e+00	5.423372e-06	
194	-3.05000e+00	5.425087e-06	
195	-3.10000e+00	5.426796e-06	
196	-3.15000e+00	5.428498e-06	
197	-3.20000e+00	5.430193e-06	
198	-3.25000e+00	5.431882e-06	
199	-3.30000e+00	5.433566e-06	
200	-3.35000e+00	5.435243e-06	
201	-3.40000e+00	5.436916e-06	
202	-3.45000e+00	5.438583e-06	
203	-3.50000e+00	5.440246e-06	
204	-3.55000e+00	5.441904e-06	
205	-3.60000e+00	5.443558e-06	
206	-3.65000e+00	5.445208e-06	
207	-3.70000e+00	5.446856e-06	
208	-3.75000e+00	5.448500e-06	
209	-3.80000e+00	5.450143e-06	
210	-3.85000e+00	5.451785e-06	
211	-3.90000e+00	5.453426e-06	
212	-3.95000e+00	5.455068e-06	
213	-4.00000e+00	5.456711e-06	
214	-4.05000e+00	5.458358e-06	
215	-4.10000e+00	5.460010e-06	
216	-4.15000e+00	5.461669e-06	
217	-4.20000e+00	5.463337e-06	
218	-4.25000e+00	5.465016e-06	
219	-4.30000e+00	5.466709e-06	
220	-4.35000e+00	5.468420e-06	
221	-4.40000e+00	5.470153e-06	
222	-4.45000e+00	5.471911e-06	
223	-4.50000e+00	5.473700e-06	
224	-4.55000e+00	5.475524e-06	
225	-4.60000e+00	5.477391e-06	
226	-4.65000e+00	5.479305e-06	
227	-4.70000e+00	5.481276e-06	
228	-4.75000e+00	5.483311e-06	

Index   v-sweep         i(vds)          
--------------------------------------------------------------------------------
229	-4.80000e+00	5.485420e-06	
230	-4.85000e+00	5.487612e-06	
231	-4.90000e+00	5.489898e-06	
232	-4.95000e+00	5.492292e-06	
233	-5.00000e+00	5.494804e-06	
234	-5.05000e+00	5.497451e-06	
235	-5.10000e+00	5.500247e-06	
236	-5.15000e+00	5.503210e-06	
237	-5.20000e+00	5.506357e-06	
238	-5.25000e+00	5.509707e-06	
239	-5.30000e+00	5.513282e-06	
240	-5.35000e+00	5.517104e-06	
241	-5.40000e+00	5.521197e-06	
242	-5.45000e+00	5.525586e-06	
243	-5.50000e+00	5.530299e-06	
244	-5.55000e+00	5.535363e-06	
245	-5.60000e+00	5.540811e-06	
246	-5.65000e+00	5.546674e-06	
247	-5.70000e+00	5.552985e-06	
248	-5.75000e+00	5.559782e-06	
249	-5.80000e+00	5.567102e-06	
250	-5.85000e+00	5.574984e-06	
251	-5.90000e+00	5.583471e-06	
252	-5.95000e+00	5.592606e-06	
253	-6.00000e+00	5.602435e-06	
254	-6.05000e+00	5.613006e-06	
255	-6.10000e+00	5.624368e-06	
256	-6.15000e+00	5.636574e-06	
257	-6.20000e+00	5.649677e-06	
258	-6.25000e+00	5.663734e-06	
259	-6.30000e+00	5.678803e-06	
260	-6.35000e+00	5.694945e-06	
261	-6.40000e+00	5.712221e-06	
262	-6.45000e+00	5.730697e-06	
263	-6.50000e+00	5.750439e-06	
264	-6.55000e+00	5.771516e-06	
265	-6.60000e+00	5.794000e-06	
266	0.000000e+00	-2.62347e-21	
267	-5.00000e-02	1.121353e-06	
268	-1.00000e-01	2.204948e-06	
269	-1.50000e-01	3.250800e-06	
270	-2.00000e-01	4.258922e-06	
271	-2.50000e-01	5.229329e-06	
272	-3.00000e-01	6.162036e-06	
273	-3.50000e-01	7.057057e-06	
274	-4.00000e-01	7.914407e-06	
275	-4.50000e-01	8.734103e-06	
276	-5.00000e-01	9.516161e-06	
277	-5.50000e-01	1.026060e-05	
278	-6.00000e-01	1.096743e-05	
279	-6.50000e-01	1.163668e-05	
280	-7.00000e-01	1.226837e-05	
281	-7.50000e-01	1.286253e-05	
282	-8.00000e-01	1.341918e-05	
283	-8.50000e-01	1.393835e-05	
284	-9.00000e-01	1.442010e-05	
285	-9.50000e-01	1.486446e-05	
286	-1.00000e+00	1.527152e-05	

Index   v-sweep         i(vds)          
--------------------------------------------------------------------------------
287	-1.05000e+00	1.564137e-05	
288	-1.10000e+00	1.597413e-05	
289	-1.15000e+00	1.627002e-05	
290	-1.20000e+00	1.652932e-05	
291	-1.25000e+00	1.675252e-05	
292	-1.30000e+00	1.694037e-05	
293	-1.35000e+00	1.709412e-05	
294	-1.40000e+00	1.721577e-05	
295	-1.45000e+00	1.730842e-05	
296	-1.50000e+00	1.737642e-05	
297	-1.55000e+00	1.742508e-05	
298	-1.60000e+00	1.745982e-05	
299	-1.65000e+00	1.748523e-05	
300	-1.70000e+00	1.750466e-05	
301	-1.75000e+00	1.752028e-05	
302	-1.80000e+00	1.753346e-05	
303	-1.85000e+00	1.754501e-05	
304	-1.90000e+00	1.755544e-05	
305	-1.95000e+00	1.756507e-05	
306	-2.00000e+00	1.757410e-05	
307	-2.05000e+00	1.758268e-05	
308	-2.10000e+00	1.759089e-05	
309	-2.15000e+00	1.759882e-05	
310	-2.20000e+00	1.760650e-05	
311	-2.25000e+00	1.761397e-05	
312	-2.30000e+00	1.762127e-05	
313	-2.35000e+00	1.762841e-05	
314	-2.40000e+00	1.763542e-05	
315	-2.45000e+00	1.764230e-05	
316	-2.50000e+00	1.764908e-05	
317	-2.55000e+00	1.765576e-05	
318	-2.60000e+00	1.766235e-05	
319	-2.65000e+00	1.766886e-05	
320	-2.70000e+00	1.767530e-05	
321	-2.75000e+00	1.768166e-05	
322	-2.80000e+00	1.768797e-05	
323	-2.85000e+00	1.769421e-05	
324	-2.90000e+00	1.770039e-05	
325	-2.95000e+00	1.770653e-05	
326	-3.00000e+00	1.771261e-05	
327	-3.05000e+00	1.771865e-05	
328	-3.10000e+00	1.772465e-05	
329	-3.15000e+00	1.773060e-05	
330	-3.20000e+00	1.773652e-05	
331	-3.25000e+00	1.774239e-05	
332	-3.30000e+00	1.774824e-05	
333	-3.35000e+00	1.775405e-05	
334	-3.40000e+00	1.775983e-05	
335	-3.45000e+00	1.776558e-05	
336	-3.50000e+00	1.777130e-05	
337	-3.55000e+00	1.777699e-05	
338	-3.60000e+00	1.778265e-05	
339	-3.65000e+00	1.778830e-05	
340	-3.70000e+00	1.779391e-05	
341	-3.75000e+00	1.779951e-05	
342	-3.80000e+00	1.780508e-05	
343	-3.85000e+00	1.781063e-05	
344	-3.90000e+00	1.781616e-05	

Index   v-sweep         i(vds)          
--------------------------------------------------------------------------------
345	-3.95000e+00	1.782167e-05	
346	-4.00000e+00	1.782716e-05	
347	-4.05000e+00	1.783264e-05	
348	-4.10000e+00	1.783809e-05	
349	-4.15000e+00	1.784353e-05	
350	-4.20000e+00	1.784896e-05	
351	-4.25000e+00	1.785437e-05	
352	-4.30000e+00	1.785977e-05	
353	-4.35000e+00	1.786516e-05	
354	-4.40000e+00	1.787053e-05	
355	-4.45000e+00	1.787590e-05	
356	-4.50000e+00	1.788126e-05	
357	-4.55000e+00	1.788662e-05	
358	-4.60000e+00	1.789198e-05	
359	-4.65000e+00	1.789733e-05	
360	-4.70000e+00	1.790270e-05	
361	-4.75000e+00	1.790807e-05	
362	-4.80000e+00	1.791346e-05	
363	-4.85000e+00	1.791887e-05	
364	-4.90000e+00	1.792431e-05	
365	-4.95000e+00	1.792979e-05	
366	-5.00000e+00	1.793531e-05	
367	-5.05000e+00	1.794088e-05	
368	-5.10000e+00	1.794653e-05	
369	-5.15000e+00	1.795225e-05	
370	-5.20000e+00	1.795807e-05	
371	-5.25000e+00	1.796401e-05	
372	-5.30000e+00	1.797008e-05	
373	-5.35000e+00	1.797630e-05	
374	-5.40000e+00	1.798270e-05	
375	-5.45000e+00	1.798931e-05	
376	-5.50000e+00	1.799615e-05	
377	-5.55000e+00	1.800326e-05	
378	-5.60000e+00	1.801067e-05	
379	-5.65000e+00	1.801842e-05	
380	-5.70000e+00	1.802655e-05	
381	-5.75000e+00	1.803512e-05	
382	-5.80000e+00	1.804416e-05	
383	-5.85000e+00	1.805373e-05	
384	-5.90000e+00	1.806390e-05	
385	-5.95000e+00	1.807472e-05	
386	-6.00000e+00	1.808626e-05	
387	-6.05000e+00	1.809860e-05	
388	-6.10000e+00	1.811180e-05	
389	-6.15000e+00	1.812596e-05	
390	-6.20000e+00	1.814116e-05	
391	-6.25000e+00	1.815750e-05	
392	-6.30000e+00	1.817506e-05	
393	-6.35000e+00	1.819397e-05	
394	-6.40000e+00	1.821432e-05	
395	-6.45000e+00	1.823624e-05	
396	-6.50000e+00	1.825984e-05	
397	-6.55000e+00	1.828526e-05	
398	-6.60000e+00	1.831263e-05	
399	0.000000e+00	8.914439e-21	
400	-5.00000e-02	1.528879e-06	
401	-1.00000e-01	3.023236e-06	
402	-1.50000e-01	4.483082e-06	

Index   v-sweep         i(vds)          
--------------------------------------------------------------------------------
403	-2.00000e-01	5.908428e-06	
404	-2.50000e-01	7.299287e-06	
405	-3.00000e-01	8.655671e-06	
406	-3.50000e-01	9.977590e-06	
407	-4.00000e-01	1.126506e-05	
408	-4.50000e-01	1.251808e-05	
409	-5.00000e-01	1.373668e-05	
410	-5.50000e-01	1.492086e-05	
411	-6.00000e-01	1.607064e-05	
412	-6.50000e-01	1.718602e-05	
413	-7.00000e-01	1.826703e-05	
414	-7.50000e-01	1.931367e-05	
415	-8.00000e-01	2.032595e-05	
416	-8.50000e-01	2.130390e-05	
417	-9.00000e-01	2.224751e-05	
418	-9.50000e-01	2.315681e-05	
419	-1.00000e+00	2.403181e-05	
420	-1.05000e+00	2.487253e-05	
421	-1.10000e+00	2.567897e-05	
422	-1.15000e+00	2.645117e-05	
423	-1.20000e+00	2.718913e-05	
424	-1.25000e+00	2.789287e-05	
425	-1.30000e+00	2.856242e-05	
426	-1.35000e+00	2.919779e-05	
427	-1.40000e+00	2.979902e-05	
428	-1.45000e+00	3.036614e-05	
429	-1.50000e+00	3.089918e-05	
430	-1.55000e+00	3.139819e-05	
431	-1.60000e+00	3.186322e-05	
432	-1.65000e+00	3.229435e-05	
433	-1.70000e+00	3.269166e-05	
434	-1.75000e+00	3.305529e-05	
435	-1.80000e+00	3.338540e-05	
436	-1.85000e+00	3.368224e-05	
437	-1.90000e+00	3.394615e-05	
438	-1.95000e+00	3.417763e-05	
439	-2.00000e+00	3.437746e-05	
440	-2.05000e+00	3.454674e-05	
441	-2.10000e+00	3.468712e-05	
442	-2.15000e+00	3.480093e-05	
443	-2.20000e+00	3.489129e-05	
444	-2.25000e+00	3.496199e-05	
445	-2.30000e+00	3.501713e-05	
446	-2.35000e+00	3.506064e-05	
447	-2.40000e+00	3.509581e-05	
448	-2.45000e+00	3.512516e-05	
449	-2.50000e+00	3.515045e-05	
450	-2.55000e+00	3.517291e-05	
451	-2.60000e+00	3.519334e-05	
452	-2.65000e+00	3.521228e-05	
453	-2.70000e+00	3.523010e-05	
454	-2.75000e+00	3.524704e-05	
455	-2.80000e+00	3.526329e-05	
456	-2.85000e+00	3.527898e-05	
457	-2.90000e+00	3.529420e-05	
458	-2.95000e+00	3.530902e-05	
459	-3.00000e+00	3.532350e-05	
460	-3.05000e+00	3.533768e-05	

Index   v-sweep         i(vds)          
--------------------------------------------------------------------------------
461	-3.10000e+00	3.535160e-05	
462	-3.15000e+00	3.536529e-05	
463	-3.20000e+00	3.537876e-05	
464	-3.25000e+00	3.539205e-05	
465	-3.30000e+00	3.540516e-05	
466	-3.35000e+00	3.541812e-05	
467	-3.40000e+00	3.543093e-05	
468	-3.45000e+00	3.544360e-05	
469	-3.50000e+00	3.545615e-05	
470	-3.55000e+00	3.546859e-05	
471	-3.60000e+00	3.548091e-05	
472	-3.65000e+00	3.549314e-05	
473	-3.70000e+00	3.550527e-05	
474	-3.75000e+00	3.551731e-05	
475	-3.80000e+00	3.552926e-05	
476	-3.85000e+00	3.554114e-05	
477	-3.90000e+00	3.555294e-05	
478	-3.95000e+00	3.556466e-05	
479	-4.00000e+00	3.557632e-05	
480	-4.05000e+00	3.558792e-05	
481	-4.10000e+00	3.559945e-05	
482	-4.15000e+00	3.561092e-05	
483	-4.20000e+00	3.562234e-05	
484	-4.25000e+00	3.563370e-05	
485	-4.30000e+00	3.564502e-05	
486	-4.35000e+00	3.565628e-05	
487	-4.40000e+00	3.566750e-05	
488	-4.45000e+00	3.567867e-05	
489	-4.50000e+00	3.568979e-05	
490	-4.55000e+00	3.570088e-05	
491	-4.60000e+00	3.571192e-05	
492	-4.65000e+00	3.572293e-05	
493	-4.70000e+00	3.573390e-05	
494	-4.75000e+00	3.574484e-05	
495	-4.80000e+00	3.575574e-05	
496	-4.85000e+00	3.576661e-05	
497	-4.90000e+00	3.577745e-05	
498	-4.95000e+00	3.578826e-05	
499	-5.00000e+00	3.579904e-05	
500	-5.05000e+00	3.580980e-05	
501	-5.10000e+00	3.582054e-05	
502	-5.15000e+00	3.583126e-05	
503	-5.20000e+00	3.584197e-05	
504	-5.25000e+00	3.585267e-05	
505	-5.30000e+00	3.586337e-05	
506	-5.35000e+00	3.587406e-05	
507	-5.40000e+00	3.588476e-05	
508	-5.45000e+00	3.589548e-05	
509	-5.50000e+00	3.590623e-05	
510	-5.55000e+00	3.591701e-05	
511	-5.60000e+00	3.592784e-05	
512	-5.65000e+00	3.593874e-05	
513	-5.70000e+00	3.594971e-05	
514	-5.75000e+00	3.596079e-05	
515	-5.80000e+00	3.597199e-05	
516	-5.85000e+00	3.598334e-05	
517	-5.90000e+00	3.599487e-05	
518	-5.95000e+00	3.600661e-05	

Index   v-sweep         i(vds)          
--------------------------------------------------------------------------------
519	-6.00000e+00	3.601859e-05	
520	-6.05000e+00	3.603086e-05	
521	-6.10000e+00	3.604347e-05	
522	-6.15000e+00	3.605645e-05	
523	-6.20000e+00	3.606988e-05	
524	-6.25000e+00	3.608380e-05	
525	-6.30000e+00	3.609829e-05	
526	-6.35000e+00	3.611342e-05	
527	-6.40000e+00	3.612928e-05	
528	-6.45000e+00	3.614594e-05	
529	-6.50000e+00	3.616351e-05	
530	-6.55000e+00	3.618209e-05	
531	-6.60000e+00	3.620179e-05	
532	0.000000e+00	1.164899e-20	
533	-5.00000e-02	1.871045e-06	
534	-1.00000e-01	3.710489e-06	
535	-1.50000e-01	5.518342e-06	
536	-2.00000e-01	7.294613e-06	
537	-2.50000e-01	9.039314e-06	
538	-3.00000e-01	1.075245e-05	
539	-3.50000e-01	1.243404e-05	
540	-4.00000e-01	1.408409e-05	
541	-4.50000e-01	1.570261e-05	
542	-5.00000e-01	1.728961e-05	
543	-5.50000e-01	1.884509e-05	
544	-6.00000e-01	2.036908e-05	
545	-6.50000e-01	2.186158e-05	
546	-7.00000e-01	2.332260e-05	
547	-7.50000e-01	2.475215e-05	
548	-8.00000e-01	2.615024e-05	
549	-8.50000e-01	2.751688e-05	
550	-9.00000e-01	2.885208e-05	
551	-9.50000e-01	3.015586e-05	
552	-1.00000e+00	3.142822e-05	
553	-1.05000e+00	3.266917e-05	
554	-1.10000e+00	3.387873e-05	
555	-1.15000e+00	3.505690e-05	
556	-1.20000e+00	3.620370e-05	
557	-1.25000e+00	3.731914e-05	
558	-1.30000e+00	3.840322e-05	
559	-1.35000e+00	3.945597e-05	
560	-1.40000e+00	4.047738e-05	
561	-1.45000e+00	4.146748e-05	
562	-1.50000e+00	4.242628e-05	
563	-1.55000e+00	4.335378e-05	
564	-1.60000e+00	4.425000e-05	
565	-1.65000e+00	4.511496e-05	
566	-1.70000e+00	4.594867e-05	
567	-1.75000e+00	4.675114e-05	
568	-1.80000e+00	4.752240e-05	
569	-1.85000e+00	4.826245e-05	
570	-1.90000e+00	4.897131e-05	
571	-1.95000e+00	4.964902e-05	
572	-2.00000e+00	5.029558e-05	
573	-2.05000e+00	5.091103e-05	
574	-2.10000e+00	5.149540e-05	
575	-2.15000e+00	5.204872e-05	
576	-2.20000e+00	5.257103e-05	

Index   v-sweep         i(vds)          
--------------------------------------------------------------------------------
577	-2.25000e+00	5.306238e-05	
578	-2.30000e+00	5.352284e-05	
579	-2.35000e+00	5.395248e-05	
580	-2.40000e+00	5.435140e-05	
581	-2.45000e+00	5.471974e-05	
582	-2.50000e+00	5.505766e-05	
583	-2.55000e+00	5.536540e-05	
584	-2.60000e+00	5.564328e-05	
585	-2.65000e+00	5.589174e-05	
586	-2.70000e+00	5.611141e-05	
587	-2.75000e+00	5.630314e-05	
588	-2.80000e+00	5.646816e-05	
589	-2.85000e+00	5.660812e-05	
590	-2.90000e+00	5.672519e-05	
591	-2.95000e+00	5.682205e-05	
592	-3.00000e+00	5.690180e-05	
593	-3.05000e+00	5.696767e-05	
594	-3.10000e+00	5.702274e-05	
595	-3.15000e+00	5.706966e-05	
596	-3.20000e+00	5.711056e-05	
597	-3.25000e+00	5.714705e-05	
598	-3.30000e+00	5.718027e-05	
599	-3.35000e+00	5.721107e-05	
600	-3.40000e+00	5.724001e-05	
601	-3.45000e+00	5.726750e-05	
602	-3.50000e+00	5.729385e-05	
603	-3.55000e+00	5.731927e-05	
604	-3.60000e+00	5.734392e-05	
605	-3.65000e+00	5.736792e-05	
606	-3.70000e+00	5.739136e-05	
607	-3.75000e+00	5.741431e-05	
608	-3.80000e+00	5.743684e-05	
609	-3.85000e+00	5.745900e-05	
610	-3.90000e+00	5.748081e-05	
611	-3.95000e+00	5.750232e-05	
612	-4.00000e+00	5.752355e-05	
613	-4.05000e+00	5.754452e-05	
614	-4.10000e+00	5.756527e-05	
615	-4.15000e+00	5.758579e-05	
616	-4.20000e+00	5.760612e-05	
617	-4.25000e+00	5.762626e-05	
618	-4.30000e+00	5.764622e-05	
619	-4.35000e+00	5.766603e-05	
620	-4.40000e+00	5.768568e-05	
621	-4.45000e+00	5.770518e-05	
622	-4.50000e+00	5.772455e-05	
623	-4.55000e+00	5.774380e-05	
624	-4.60000e+00	5.776292e-05	
625	-4.65000e+00	5.778192e-05	
626	-4.70000e+00	5.780082e-05	
627	-4.75000e+00	5.781961e-05	
628	-4.80000e+00	5.783830e-05	
629	-4.85000e+00	5.785690e-05	
630	-4.90000e+00	5.787541e-05	
631	-4.95000e+00	5.789383e-05	
632	-5.00000e+00	5.791217e-05	
633	-5.05000e+00	5.793043e-05	
634	-5.10000e+00	5.794862e-05	

Index   v-sweep         i(vds)          
--------------------------------------------------------------------------------
635	-5.15000e+00	5.796673e-05	
636	-5.20000e+00	5.798477e-05	
637	-5.25000e+00	5.800274e-05	
638	-5.30000e+00	5.802065e-05	
639	-5.35000e+00	5.803850e-05	
640	-5.40000e+00	5.805629e-05	
641	-5.45000e+00	5.807402e-05	
642	-5.50000e+00	5.809170e-05	
643	-5.55000e+00	5.810932e-05	
644	-5.60000e+00	5.812690e-05	
645	-5.65000e+00	5.814443e-05	
646	-5.70000e+00	5.816191e-05	
647	-5.75000e+00	5.817936e-05	
648	-5.80000e+00	5.819677e-05	
649	-5.85000e+00	5.821415e-05	
650	-5.90000e+00	5.823150e-05	
651	-5.95000e+00	5.824883e-05	
652	-6.00000e+00	5.826615e-05	
653	-6.05000e+00	5.828346e-05	
654	-6.10000e+00	5.830078e-05	
655	-6.15000e+00	5.831811e-05	
656	-6.20000e+00	5.833547e-05	
657	-6.25000e+00	5.835288e-05	
658	-6.30000e+00	5.837035e-05	
659	-6.35000e+00	5.838791e-05	
660	-6.40000e+00	5.840557e-05	
661	-6.45000e+00	5.842337e-05	
662	-6.50000e+00	5.844135e-05	
663	-6.55000e+00	5.845952e-05	
664	-6.60000e+00	5.847795e-05	
665	0.000000e+00	2.176092e-20	
666	-5.00000e-02	2.160527e-06	
667	-1.00000e-01	4.292047e-06	
668	-1.50000e-01	6.394568e-06	
669	-2.00000e-01	8.468101e-06	
670	-2.50000e-01	1.051265e-05	
671	-3.00000e-01	1.252823e-05	
672	-3.50000e-01	1.451485e-05	
673	-4.00000e-01	1.647252e-05	
674	-4.50000e-01	1.840124e-05	
675	-5.00000e-01	2.030102e-05	
676	-5.50000e-01	2.217188e-05	
677	-6.00000e-01	2.401382e-05	
678	-6.50000e-01	2.582686e-05	
679	-7.00000e-01	2.761099e-05	
680	-7.50000e-01	2.936623e-05	
681	-8.00000e-01	3.109259e-05	
682	-8.50000e-01	3.279008e-05	
683	-9.00000e-01	3.445870e-05	
684	-9.50000e-01	3.609847e-05	
685	-1.00000e+00	3.770939e-05	
686	-1.05000e+00	3.929147e-05	
687	-1.10000e+00	4.084473e-05	
688	-1.15000e+00	4.236917e-05	
689	-1.20000e+00	4.386480e-05	
690	-1.25000e+00	4.533162e-05	
691	-1.30000e+00	4.676966e-05	
692	-1.35000e+00	4.817891e-05	

Index   v-sweep         i(vds)          
--------------------------------------------------------------------------------
693	-1.40000e+00	4.955940e-05	
694	-1.45000e+00	5.091111e-05	
695	-1.50000e+00	5.223408e-05	
696	-1.55000e+00	5.352829e-05	
697	-1.60000e+00	5.479378e-05	
698	-1.65000e+00	5.603053e-05	
699	-1.70000e+00	5.723857e-05	
700	-1.75000e+00	5.841791e-05	
701	-1.80000e+00	5.956854e-05	
702	-1.85000e+00	6.069049e-05	
703	-1.90000e+00	6.178377e-05	
704	-1.95000e+00	6.284837e-05	
705	-2.00000e+00	6.388432e-05	
706	-2.05000e+00	6.489163e-05	
707	-2.10000e+00	6.587030e-05	
708	-2.15000e+00	6.682035e-05	
709	-2.20000e+00	6.774179e-05	
710	-2.25000e+00	6.863463e-05	
711	-2.30000e+00	6.949888e-05	
712	-2.35000e+00	7.033457e-05	
713	-2.40000e+00	7.114169e-05	
714	-2.45000e+00	7.192027e-05	
715	-2.50000e+00	7.267032e-05	
716	-2.55000e+00	7.339187e-05	
717	-2.60000e+00	7.408492e-05	
718	-2.65000e+00	7.474951e-05	
719	-2.70000e+00	7.538565e-05	
720	-2.75000e+00	7.599337e-05	
721	-2.80000e+00	7.657270e-05	
722	-2.85000e+00	7.712368e-05	
723	-2.90000e+00	7.764635e-05	
724	-2.95000e+00	7.814076e-05	
725	-3.00000e+00	7.860697e-05	
726	-3.05000e+00	7.904505e-05	
727	-3.10000e+00	7.945511e-05	
728	-3.15000e+00	7.983725e-05	
729	-3.20000e+00	8.019162e-05	
730	-3.25000e+00	8.051844e-05	
731	-3.30000e+00	8.081794e-05	
732	-3.35000e+00	8.109048e-05	
733	-3.40000e+00	8.133652e-05	
734	-3.45000e+00	8.155669e-05	
735	-3.50000e+00	8.175180e-05	
736	-3.55000e+00	8.192298e-05	
737	-3.60000e+00	8.207166e-05	
738	-3.65000e+00	8.219968e-05	
739	-3.70000e+00	8.230923e-05	
740	-3.75000e+00	8.240280e-05	
741	-3.80000e+00	8.248301e-05	
742	-3.85000e+00	8.255241e-05	
743	-3.90000e+00	8.261333e-05	
744	-3.95000e+00	8.266769e-05	
745	-4.00000e+00	8.271706e-05	
746	-4.05000e+00	8.276261e-05	
747	-4.10000e+00	8.280523e-05	
748	-4.15000e+00	8.284557e-05	
749	-4.20000e+00	8.288410e-05	
750	-4.25000e+00	8.292117e-05	

Index   v-sweep         i(vds)          
--------------------------------------------------------------------------------
751	-4.30000e+00	8.295704e-05	
752	-4.35000e+00	8.299192e-05	
753	-4.40000e+00	8.302594e-05	
754	-4.45000e+00	8.305923e-05	
755	-4.50000e+00	8.309189e-05	
756	-4.55000e+00	8.312398e-05	
757	-4.60000e+00	8.315557e-05	
758	-4.65000e+00	8.318671e-05	
759	-4.70000e+00	8.321743e-05	
760	-4.75000e+00	8.324779e-05	
761	-4.80000e+00	8.327780e-05	
762	-4.85000e+00	8.330750e-05	
763	-4.90000e+00	8.333690e-05	
764	-4.95000e+00	8.336603e-05	
765	-5.00000e+00	8.339491e-05	
766	-5.05000e+00	8.342356e-05	
767	-5.10000e+00	8.345198e-05	
768	-5.15000e+00	8.348019e-05	
769	-5.20000e+00	8.350820e-05	
770	-5.25000e+00	8.353603e-05	
771	-5.30000e+00	8.356368e-05	
772	-5.35000e+00	8.359117e-05	
773	-5.40000e+00	8.361850e-05	
774	-5.45000e+00	8.364567e-05	
775	-5.50000e+00	8.367271e-05	
776	-5.55000e+00	8.369960e-05	
777	-5.60000e+00	8.372637e-05	
778	-5.65000e+00	8.375301e-05	
779	-5.70000e+00	8.377953e-05	
780	-5.75000e+00	8.380593e-05	
781	-5.80000e+00	8.383223e-05	
782	-5.85000e+00	8.385842e-05	
783	-5.90000e+00	8.388451e-05	
784	-5.95000e+00	8.391050e-05	
785	-6.00000e+00	8.393639e-05	
786	-6.05000e+00	8.396220e-05	
787	-6.10000e+00	8.398792e-05	
788	-6.15000e+00	8.401356e-05	
789	-6.20000e+00	8.403912e-05	
790	-6.25000e+00	8.406460e-05	
791	-6.30000e+00	8.409001e-05	
792	-6.35000e+00	8.411535e-05	
793	-6.40000e+00	8.414063e-05	
794	-6.45000e+00	8.416584e-05	
795	-6.50000e+00	8.419100e-05	
796	-6.55000e+00	8.421611e-05	
797	-6.60000e+00	8.424117e-05	
Note: No ".plot", ".print", or ".fourier" lines; no simulations run
