
Note: Compatibility modes selected: hs

Warning: m=xx on .subckt line will override multiplier m hierarchy!


Circuit: ***************************

Doing analysis at TEMP = 125.000000 and TNOM = 125.000000


No. of Data Rows : 798
                          ***************************
                          DC transfer characteristic  Mon Jan  9 13:58:51  2023
--------------------------------------------------------------------------------
Index   v-sweep         i(vds)          
--------------------------------------------------------------------------------
0	0.000000e+00	2.096838e-22	
1	-5.00000e-02	5.486281e-07	
2	-1.00000e-01	9.895481e-07	
3	-1.50000e-01	1.330881e-06	
4	-2.00000e-01	1.576863e-06	
5	-2.50000e-01	1.734634e-06	
6	-3.00000e-01	1.821505e-06	
7	-3.50000e-01	1.866433e-06	
8	-4.00000e-01	1.893888e-06	
9	-4.50000e-01	1.914963e-06	
10	-5.00000e-01	1.933406e-06	
11	-5.50000e-01	1.950506e-06	
12	-6.00000e-01	1.966772e-06	
13	-6.50000e-01	1.982440e-06	
14	-7.00000e-01	1.997640e-06	
15	-7.50000e-01	2.012448e-06	
16	-8.00000e-01	2.026918e-06	
17	-8.50000e-01	2.041089e-06	
18	-9.00000e-01	2.054992e-06	
19	-9.50000e-01	2.068652e-06	
20	-1.00000e+00	2.082090e-06	
21	-1.05000e+00	2.095323e-06	
22	-1.10000e+00	2.108368e-06	
23	-1.15000e+00	2.121237e-06	
24	-1.20000e+00	2.133944e-06	
25	-1.25000e+00	2.146500e-06	
26	-1.30000e+00	2.158914e-06	
27	-1.35000e+00	2.171196e-06	
28	-1.40000e+00	2.183353e-06	
29	-1.45000e+00	2.195395e-06	
30	-1.50000e+00	2.207326e-06	
31	-1.55000e+00	2.219154e-06	
32	-1.60000e+00	2.230885e-06	
33	-1.65000e+00	2.242525e-06	
34	-1.70000e+00	2.254077e-06	
35	-1.75000e+00	2.265548e-06	
36	-1.80000e+00	2.276941e-06	
37	-1.85000e+00	2.288261e-06	
38	-1.90000e+00	2.299511e-06	
39	-1.95000e+00	2.310694e-06	
40	-2.00000e+00	2.321816e-06	
41	-2.05000e+00	2.332877e-06	
42	-2.10000e+00	2.343882e-06	
43	-2.15000e+00	2.354834e-06	
44	-2.20000e+00	2.365734e-06	
45	-2.25000e+00	2.376585e-06	
46	-2.30000e+00	2.387390e-06	
47	-2.35000e+00	2.398151e-06	
48	-2.40000e+00	2.408870e-06	
49	-2.45000e+00	2.419549e-06	
50	-2.50000e+00	2.430190e-06	
51	-2.55000e+00	2.440794e-06	
52	-2.60000e+00	2.451364e-06	
53	-2.65000e+00	2.461901e-06	
54	-2.70000e+00	2.472406e-06	

Index   v-sweep         i(vds)          
--------------------------------------------------------------------------------
55	-2.75000e+00	2.482881e-06	
56	-2.80000e+00	2.493327e-06	
57	-2.85000e+00	2.503747e-06	
58	-2.90000e+00	2.514140e-06	
59	-2.95000e+00	2.524508e-06	
60	-3.00000e+00	2.534853e-06	
61	-3.05000e+00	2.545175e-06	
62	-3.10000e+00	2.555477e-06	
63	-3.15000e+00	2.565758e-06	
64	-3.20000e+00	2.576020e-06	
65	-3.25000e+00	2.586264e-06	
66	-3.30000e+00	2.596491e-06	
67	-3.35000e+00	2.606703e-06	
68	-3.40000e+00	2.616899e-06	
69	-3.45000e+00	2.627083e-06	
70	-3.50000e+00	2.637254e-06	
71	-3.55000e+00	2.647415e-06	
72	-3.60000e+00	2.657566e-06	
73	-3.65000e+00	2.667709e-06	
74	-3.70000e+00	2.677845e-06	
75	-3.75000e+00	2.687977e-06	
76	-3.80000e+00	2.698106e-06	
77	-3.85000e+00	2.708235e-06	
78	-3.90000e+00	2.718364e-06	
79	-3.95000e+00	2.728498e-06	
80	-4.00000e+00	2.738639e-06	
81	-4.05000e+00	2.748789e-06	
82	-4.10000e+00	2.758952e-06	
83	-4.15000e+00	2.769132e-06	
84	-4.20000e+00	2.779334e-06	
85	-4.25000e+00	2.789560e-06	
86	-4.30000e+00	2.799817e-06	
87	-4.35000e+00	2.810109e-06	
88	-4.40000e+00	2.820443e-06	
89	-4.45000e+00	2.830824e-06	
90	-4.50000e+00	2.841261e-06	
91	-4.55000e+00	2.851760e-06	
92	-4.60000e+00	2.862331e-06	
93	-4.65000e+00	2.872981e-06	
94	-4.70000e+00	2.883721e-06	
95	-4.75000e+00	2.894562e-06	
96	-4.80000e+00	2.905514e-06	
97	-4.85000e+00	2.916590e-06	
98	-4.90000e+00	2.927802e-06	
99	-4.95000e+00	2.939166e-06	
100	-5.00000e+00	2.950697e-06	
101	-5.05000e+00	2.962409e-06	
102	-5.10000e+00	2.974320e-06	
103	-5.15000e+00	2.986450e-06	
104	-5.20000e+00	2.998816e-06	
105	-5.25000e+00	3.011439e-06	
106	-5.30000e+00	3.024342e-06	
107	-5.35000e+00	3.037546e-06	
108	-5.40000e+00	3.051077e-06	
109	-5.45000e+00	3.064961e-06	
110	-5.50000e+00	3.079222e-06	
111	-5.55000e+00	3.093892e-06	
112	-5.60000e+00	3.108998e-06	

Index   v-sweep         i(vds)          
--------------------------------------------------------------------------------
113	-5.65000e+00	3.124572e-06	
114	-5.70000e+00	3.140646e-06	
115	-5.75000e+00	3.157256e-06	
116	-5.80000e+00	3.174435e-06	
117	-5.85000e+00	3.192223e-06	
118	-5.90000e+00	3.210656e-06	
119	-5.95000e+00	3.229776e-06	
120	-6.00000e+00	3.249624e-06	
121	-6.05000e+00	3.270244e-06	
122	-6.10000e+00	3.291682e-06	
123	-6.15000e+00	3.313983e-06	
124	-6.20000e+00	3.337197e-06	
125	-6.25000e+00	3.361373e-06	
126	-6.30000e+00	3.386564e-06	
127	-6.35000e+00	3.412824e-06	
128	-6.40000e+00	3.440207e-06	
129	-6.45000e+00	3.468770e-06	
130	-6.50000e+00	3.498574e-06	
131	-6.55000e+00	3.529677e-06	
132	-6.60000e+00	3.562142e-06	
133	0.000000e+00	-1.93352e-22	
134	-5.00000e-02	2.192089e-06	
135	-1.00000e-01	4.272174e-06	
136	-1.50000e-01	6.247100e-06	
137	-2.00000e-01	8.118810e-06	
138	-2.50000e-01	9.888053e-06	
139	-3.00000e-01	1.155529e-05	
140	-3.50000e-01	1.312093e-05	
141	-4.00000e-01	1.458537e-05	
142	-4.50000e-01	1.594899e-05	
143	-5.00000e-01	1.721223e-05	
144	-5.50000e-01	1.837552e-05	
145	-6.00000e-01	1.943938e-05	
146	-6.50000e-01	2.040435e-05	
147	-7.00000e-01	2.127115e-05	
148	-7.50000e-01	2.204069e-05	
149	-8.00000e-01	2.271426e-05	
150	-8.50000e-01	2.329389e-05	
151	-9.00000e-01	2.378292e-05	
152	-9.50000e-01	2.418706e-05	
153	-1.00000e+00	2.451565e-05	
154	-1.05000e+00	2.478226e-05	
155	-1.10000e+00	2.500292e-05	
156	-1.15000e+00	2.519235e-05	
157	-1.20000e+00	2.536126e-05	
158	-1.25000e+00	2.551630e-05	
159	-1.30000e+00	2.566136e-05	
160	-1.35000e+00	2.579874e-05	
161	-1.40000e+00	2.592987e-05	
162	-1.45000e+00	2.605568e-05	
163	-1.50000e+00	2.617686e-05	
164	-1.55000e+00	2.629393e-05	
165	-1.60000e+00	2.640728e-05	
166	-1.65000e+00	2.651726e-05	
167	-1.70000e+00	2.662414e-05	
168	-1.75000e+00	2.672816e-05	
169	-1.80000e+00	2.682954e-05	
170	-1.85000e+00	2.692846e-05	

Index   v-sweep         i(vds)          
--------------------------------------------------------------------------------
171	-1.90000e+00	2.702510e-05	
172	-1.95000e+00	2.711958e-05	
173	-2.00000e+00	2.721206e-05	
174	-2.05000e+00	2.730265e-05	
175	-2.10000e+00	2.739147e-05	
176	-2.15000e+00	2.747860e-05	
177	-2.20000e+00	2.756416e-05	
178	-2.25000e+00	2.764821e-05	
179	-2.30000e+00	2.773084e-05	
180	-2.35000e+00	2.781213e-05	
181	-2.40000e+00	2.789213e-05	
182	-2.45000e+00	2.797092e-05	
183	-2.50000e+00	2.804854e-05	
184	-2.55000e+00	2.812506e-05	
185	-2.60000e+00	2.820052e-05	
186	-2.65000e+00	2.827497e-05	
187	-2.70000e+00	2.834846e-05	
188	-2.75000e+00	2.842102e-05	
189	-2.80000e+00	2.849269e-05	
190	-2.85000e+00	2.856351e-05	
191	-2.90000e+00	2.863352e-05	
192	-2.95000e+00	2.870275e-05	
193	-3.00000e+00	2.877122e-05	
194	-3.05000e+00	2.883897e-05	
195	-3.10000e+00	2.890602e-05	
196	-3.15000e+00	2.897240e-05	
197	-3.20000e+00	2.903814e-05	
198	-3.25000e+00	2.910325e-05	
199	-3.30000e+00	2.916776e-05	
200	-3.35000e+00	2.923169e-05	
201	-3.40000e+00	2.929505e-05	
202	-3.45000e+00	2.935788e-05	
203	-3.50000e+00	2.942018e-05	
204	-3.55000e+00	2.948198e-05	
205	-3.60000e+00	2.954329e-05	
206	-3.65000e+00	2.960412e-05	
207	-3.70000e+00	2.966449e-05	
208	-3.75000e+00	2.972442e-05	
209	-3.80000e+00	2.978392e-05	
210	-3.85000e+00	2.984301e-05	
211	-3.90000e+00	2.990169e-05	
212	-3.95000e+00	2.995998e-05	
213	-4.00000e+00	3.001790e-05	
214	-4.05000e+00	3.007546e-05	
215	-4.10000e+00	3.013267e-05	
216	-4.15000e+00	3.018955e-05	
217	-4.20000e+00	3.024611e-05	
218	-4.25000e+00	3.030236e-05	
219	-4.30000e+00	3.035832e-05	
220	-4.35000e+00	3.041401e-05	
221	-4.40000e+00	3.046945e-05	
222	-4.45000e+00	3.052464e-05	
223	-4.50000e+00	3.057962e-05	
224	-4.55000e+00	3.063441e-05	
225	-4.60000e+00	3.068902e-05	
226	-4.65000e+00	3.074349e-05	
227	-4.70000e+00	3.079785e-05	
228	-4.75000e+00	3.085211e-05	

Index   v-sweep         i(vds)          
--------------------------------------------------------------------------------
229	-4.80000e+00	3.090633e-05	
230	-4.85000e+00	3.096053e-05	
231	-4.90000e+00	3.101475e-05	
232	-4.95000e+00	3.106905e-05	
233	-5.00000e+00	3.112347e-05	
234	-5.05000e+00	3.117807e-05	
235	-5.10000e+00	3.123290e-05	
236	-5.15000e+00	3.128803e-05	
237	-5.20000e+00	3.134352e-05	
238	-5.25000e+00	3.139946e-05	
239	-5.30000e+00	3.145593e-05	
240	-5.35000e+00	3.151301e-05	
241	-5.40000e+00	3.157080e-05	
242	-5.45000e+00	3.162940e-05	
243	-5.50000e+00	3.168893e-05	
244	-5.55000e+00	3.174951e-05	
245	-5.60000e+00	3.181126e-05	
246	-5.65000e+00	3.187432e-05	
247	-5.70000e+00	3.193884e-05	
248	-5.75000e+00	3.200497e-05	
249	-5.80000e+00	3.207288e-05	
250	-5.85000e+00	3.214275e-05	
251	-5.90000e+00	3.221476e-05	
252	-5.95000e+00	3.228911e-05	
253	-6.00000e+00	3.236601e-05	
254	-6.05000e+00	3.244567e-05	
255	-6.10000e+00	3.252834e-05	
256	-6.15000e+00	3.261426e-05	
257	-6.20000e+00	3.270367e-05	
258	-6.25000e+00	3.279686e-05	
259	-6.30000e+00	3.289409e-05	
260	-6.35000e+00	3.299568e-05	
261	-6.40000e+00	3.310191e-05	
262	-6.45000e+00	3.321312e-05	
263	-6.50000e+00	3.332963e-05	
264	-6.55000e+00	3.345179e-05	
265	-6.60000e+00	3.357997e-05	
266	0.000000e+00	-7.38903e-22	
267	-5.00000e-02	3.453956e-06	
268	-1.00000e-01	6.803787e-06	
269	-1.50000e-01	1.005599e-05	
270	-2.00000e-01	1.321239e-05	
271	-2.50000e-01	1.627363e-05	
272	-3.00000e-01	1.924006e-05	
273	-3.50000e-01	2.211197e-05	
274	-4.00000e-01	2.488965e-05	
275	-4.50000e-01	2.757334e-05	
276	-5.00000e-01	3.016333e-05	
277	-5.50000e-01	3.265987e-05	
278	-6.00000e-01	3.506324e-05	
279	-6.50000e-01	3.737372e-05	
280	-7.00000e-01	3.959156e-05	
281	-7.50000e-01	4.171705e-05	
282	-8.00000e-01	4.375048e-05	
283	-8.50000e-01	4.569212e-05	
284	-9.00000e-01	4.754226e-05	
285	-9.50000e-01	4.930121e-05	
286	-1.00000e+00	5.096926e-05	

Index   v-sweep         i(vds)          
--------------------------------------------------------------------------------
287	-1.05000e+00	5.254676e-05	
288	-1.10000e+00	5.403403e-05	
289	-1.15000e+00	5.543145e-05	
290	-1.20000e+00	5.673944e-05	
291	-1.25000e+00	5.795848e-05	
292	-1.30000e+00	5.908912e-05	
293	-1.35000e+00	6.013209e-05	
294	-1.40000e+00	6.108833e-05	
295	-1.45000e+00	6.195914e-05	
296	-1.50000e+00	6.274640e-05	
297	-1.55000e+00	6.345290e-05	
298	-1.60000e+00	6.408283e-05	
299	-1.65000e+00	6.464225e-05	
300	-1.70000e+00	6.513936e-05	
301	-1.75000e+00	6.558403e-05	
302	-1.80000e+00	6.598651e-05	
303	-1.85000e+00	6.635594e-05	
304	-1.90000e+00	6.669950e-05	
305	-1.95000e+00	6.702241e-05	
306	-2.00000e+00	6.732834e-05	
307	-2.05000e+00	6.761990e-05	
308	-2.10000e+00	6.789899e-05	
309	-2.15000e+00	6.816707e-05	
310	-2.20000e+00	6.842529e-05	
311	-2.25000e+00	6.867460e-05	
312	-2.30000e+00	6.891576e-05	
313	-2.35000e+00	6.914947e-05	
314	-2.40000e+00	6.937629e-05	
315	-2.45000e+00	6.959673e-05	
316	-2.50000e+00	6.981126e-05	
317	-2.55000e+00	7.002027e-05	
318	-2.60000e+00	7.022411e-05	
319	-2.65000e+00	7.042313e-05	
320	-2.70000e+00	7.061761e-05	
321	-2.75000e+00	7.080782e-05	
322	-2.80000e+00	7.099401e-05	
323	-2.85000e+00	7.117640e-05	
324	-2.90000e+00	7.135520e-05	
325	-2.95000e+00	7.153060e-05	
326	-3.00000e+00	7.170277e-05	
327	-3.05000e+00	7.187187e-05	
328	-3.10000e+00	7.203806e-05	
329	-3.15000e+00	7.220148e-05	
330	-3.20000e+00	7.236224e-05	
331	-3.25000e+00	7.252049e-05	
332	-3.30000e+00	7.267632e-05	
333	-3.35000e+00	7.282984e-05	
334	-3.40000e+00	7.298116e-05	
335	-3.45000e+00	7.313037e-05	
336	-3.50000e+00	7.327754e-05	
337	-3.55000e+00	7.342278e-05	
338	-3.60000e+00	7.356614e-05	
339	-3.65000e+00	7.370771e-05	
340	-3.70000e+00	7.384755e-05	
341	-3.75000e+00	7.398573e-05	
342	-3.80000e+00	7.412231e-05	
343	-3.85000e+00	7.425735e-05	
344	-3.90000e+00	7.439090e-05	

Index   v-sweep         i(vds)          
--------------------------------------------------------------------------------
345	-3.95000e+00	7.452301e-05	
346	-4.00000e+00	7.465374e-05	
347	-4.05000e+00	7.478314e-05	
348	-4.10000e+00	7.491123e-05	
349	-4.15000e+00	7.503808e-05	
350	-4.20000e+00	7.516372e-05	
351	-4.25000e+00	7.528818e-05	
352	-4.30000e+00	7.541152e-05	
353	-4.35000e+00	7.553376e-05	
354	-4.40000e+00	7.565493e-05	
355	-4.45000e+00	7.577508e-05	
356	-4.50000e+00	7.589423e-05	
357	-4.55000e+00	7.601242e-05	
358	-4.60000e+00	7.612968e-05	
359	-4.65000e+00	7.624604e-05	
360	-4.70000e+00	7.636153e-05	
361	-4.75000e+00	7.647618e-05	
362	-4.80000e+00	7.659003e-05	
363	-4.85000e+00	7.670311e-05	
364	-4.90000e+00	7.681545e-05	
365	-4.95000e+00	7.692709e-05	
366	-5.00000e+00	7.703807e-05	
367	-5.05000e+00	7.714843e-05	
368	-5.10000e+00	7.725820e-05	
369	-5.15000e+00	7.736744e-05	
370	-5.20000e+00	7.747620e-05	
371	-5.25000e+00	7.758454e-05	
372	-5.30000e+00	7.769250e-05	
373	-5.35000e+00	7.780017e-05	
374	-5.40000e+00	7.790761e-05	
375	-5.45000e+00	7.801490e-05	
376	-5.50000e+00	7.812213e-05	
377	-5.55000e+00	7.822939e-05	
378	-5.60000e+00	7.833679e-05	
379	-5.65000e+00	7.844445e-05	
380	-5.70000e+00	7.855249e-05	
381	-5.75000e+00	7.866105e-05	
382	-5.80000e+00	7.877028e-05	
383	-5.85000e+00	7.888035e-05	
384	-5.90000e+00	7.899143e-05	
385	-5.95000e+00	7.910373e-05	
386	-6.00000e+00	7.921744e-05	
387	-6.05000e+00	7.933279e-05	
388	-6.10000e+00	7.945004e-05	
389	-6.15000e+00	7.956945e-05	
390	-6.20000e+00	7.969129e-05	
391	-6.25000e+00	7.981588e-05	
392	-6.30000e+00	7.994353e-05	
393	-6.35000e+00	8.007461e-05	
394	-6.40000e+00	8.020947e-05	
395	-6.45000e+00	8.034851e-05	
396	-6.50000e+00	8.049215e-05	
397	-6.55000e+00	8.064084e-05	
398	-6.60000e+00	8.079504e-05	
399	0.000000e+00	-2.28256e-21	
400	-5.00000e-02	4.479742e-06	
401	-1.00000e-01	8.862726e-06	
402	-1.50000e-01	1.315520e-05	

Index   v-sweep         i(vds)          
--------------------------------------------------------------------------------
403	-2.00000e-01	1.735889e-05	
404	-2.50000e-01	2.147440e-05	
405	-3.00000e-01	2.550203e-05	
406	-3.50000e-01	2.944201e-05	
407	-4.00000e-01	3.329454e-05	
408	-4.50000e-01	3.705985e-05	
409	-5.00000e-01	4.073812e-05	
410	-5.50000e-01	4.432958e-05	
411	-6.00000e-01	4.783443e-05	
412	-6.50000e-01	5.125287e-05	
413	-7.00000e-01	5.458511e-05	
414	-7.50000e-01	5.783137e-05	
415	-8.00000e-01	6.099185e-05	
416	-8.50000e-01	6.406676e-05	
417	-9.00000e-01	6.705632e-05	
418	-9.50000e-01	6.996072e-05	
419	-1.00000e+00	7.278020e-05	
420	-1.05000e+00	7.551495e-05	
421	-1.10000e+00	7.816520e-05	
422	-1.15000e+00	8.073115e-05	
423	-1.20000e+00	8.321304e-05	
424	-1.25000e+00	8.561108e-05	
425	-1.30000e+00	8.792548e-05	
426	-1.35000e+00	9.015649e-05	
427	-1.40000e+00	9.230432e-05	
428	-1.45000e+00	9.436923e-05	
429	-1.50000e+00	9.635143e-05	
430	-1.55000e+00	9.825120e-05	
431	-1.60000e+00	1.000688e-04	
432	-1.65000e+00	1.018045e-04	
433	-1.70000e+00	1.034586e-04	
434	-1.75000e+00	1.050314e-04	
435	-1.80000e+00	1.065233e-04	
436	-1.85000e+00	1.079347e-04	
437	-1.90000e+00	1.092662e-04	
438	-1.95000e+00	1.105183e-04	
439	-2.00000e+00	1.116917e-04	
440	-2.05000e+00	1.127876e-04	
441	-2.10000e+00	1.138073e-04	
442	-2.15000e+00	1.147528e-04	
443	-2.20000e+00	1.156266e-04	
444	-2.25000e+00	1.164326e-04	
445	-2.30000e+00	1.171754e-04	
446	-2.35000e+00	1.178612e-04	
447	-2.40000e+00	1.184968e-04	
448	-2.45000e+00	1.190891e-04	
449	-2.50000e+00	1.196446e-04	
450	-2.55000e+00	1.201687e-04	
451	-2.60000e+00	1.206657e-04	
452	-2.65000e+00	1.211393e-04	
453	-2.70000e+00	1.215922e-04	
454	-2.75000e+00	1.220265e-04	
455	-2.80000e+00	1.224442e-04	
456	-2.85000e+00	1.228467e-04	
457	-2.90000e+00	1.232354e-04	
458	-2.95000e+00	1.236114e-04	
459	-3.00000e+00	1.239757e-04	
460	-3.05000e+00	1.243292e-04	

Index   v-sweep         i(vds)          
--------------------------------------------------------------------------------
461	-3.10000e+00	1.246726e-04	
462	-3.15000e+00	1.250066e-04	
463	-3.20000e+00	1.253319e-04	
464	-3.25000e+00	1.256490e-04	
465	-3.30000e+00	1.259584e-04	
466	-3.35000e+00	1.262606e-04	
467	-3.40000e+00	1.265560e-04	
468	-3.45000e+00	1.268451e-04	
469	-3.50000e+00	1.271280e-04	
470	-3.55000e+00	1.274052e-04	
471	-3.60000e+00	1.276770e-04	
472	-3.65000e+00	1.279437e-04	
473	-3.70000e+00	1.282054e-04	
474	-3.75000e+00	1.284625e-04	
475	-3.80000e+00	1.287152e-04	
476	-3.85000e+00	1.289637e-04	
477	-3.90000e+00	1.292081e-04	
478	-3.95000e+00	1.294486e-04	
479	-4.00000e+00	1.296855e-04	
480	-4.05000e+00	1.299188e-04	
481	-4.10000e+00	1.301488e-04	
482	-4.15000e+00	1.303755e-04	
483	-4.20000e+00	1.305990e-04	
484	-4.25000e+00	1.308196e-04	
485	-4.30000e+00	1.310374e-04	
486	-4.35000e+00	1.312523e-04	
487	-4.40000e+00	1.314646e-04	
488	-4.45000e+00	1.316744e-04	
489	-4.50000e+00	1.318816e-04	
490	-4.55000e+00	1.320865e-04	
491	-4.60000e+00	1.322891e-04	
492	-4.65000e+00	1.324894e-04	
493	-4.70000e+00	1.326876e-04	
494	-4.75000e+00	1.328838e-04	
495	-4.80000e+00	1.330779e-04	
496	-4.85000e+00	1.332701e-04	
497	-4.90000e+00	1.334604e-04	
498	-4.95000e+00	1.336488e-04	
499	-5.00000e+00	1.338356e-04	
500	-5.05000e+00	1.340206e-04	
501	-5.10000e+00	1.342040e-04	
502	-5.15000e+00	1.343857e-04	
503	-5.20000e+00	1.345660e-04	
504	-5.25000e+00	1.347447e-04	
505	-5.30000e+00	1.349220e-04	
506	-5.35000e+00	1.350979e-04	
507	-5.40000e+00	1.352724e-04	
508	-5.45000e+00	1.354457e-04	
509	-5.50000e+00	1.356177e-04	
510	-5.55000e+00	1.357886e-04	
511	-5.60000e+00	1.359583e-04	
512	-5.65000e+00	1.361270e-04	
513	-5.70000e+00	1.362948e-04	
514	-5.75000e+00	1.364616e-04	
515	-5.80000e+00	1.366275e-04	
516	-5.85000e+00	1.367928e-04	
517	-5.90000e+00	1.369574e-04	
518	-5.95000e+00	1.371214e-04	

Index   v-sweep         i(vds)          
--------------------------------------------------------------------------------
519	-6.00000e+00	1.372850e-04	
520	-6.05000e+00	1.374484e-04	
521	-6.10000e+00	1.376115e-04	
522	-6.15000e+00	1.377747e-04	
523	-6.20000e+00	1.379380e-04	
524	-6.25000e+00	1.381016e-04	
525	-6.30000e+00	1.382658e-04	
526	-6.35000e+00	1.384308e-04	
527	-6.40000e+00	1.385968e-04	
528	-6.45000e+00	1.387640e-04	
529	-6.50000e+00	1.389328e-04	
530	-6.55000e+00	1.391035e-04	
531	-6.60000e+00	1.392764e-04	
532	0.000000e+00	4.757090e-25	
533	-5.00000e-02	5.342478e-06	
534	-1.00000e-01	1.059451e-05	
535	-1.50000e-01	1.576215e-05	
536	-2.00000e-01	2.084707e-05	
537	-2.50000e-01	2.584982e-05	
538	-3.00000e-01	3.077067e-05	
539	-3.50000e-01	3.560982e-05	
540	-4.00000e-01	4.036744e-05	
541	-4.50000e-01	4.504369e-05	
542	-5.00000e-01	4.963874e-05	
543	-5.50000e-01	5.415277e-05	
544	-6.00000e-01	5.858593e-05	
545	-6.50000e-01	6.293840e-05	
546	-7.00000e-01	6.721035e-05	
547	-7.50000e-01	7.140194e-05	
548	-8.00000e-01	7.551334e-05	
549	-8.50000e-01	7.954473e-05	
550	-9.00000e-01	8.349627e-05	
551	-9.50000e-01	8.736813e-05	
552	-1.00000e+00	9.116048e-05	
553	-1.05000e+00	9.487349e-05	
554	-1.10000e+00	9.850734e-05	
555	-1.15000e+00	1.020622e-04	
556	-1.20000e+00	1.055382e-04	
557	-1.25000e+00	1.089356e-04	
558	-1.30000e+00	1.122545e-04	
559	-1.35000e+00	1.154951e-04	
560	-1.40000e+00	1.186575e-04	
561	-1.45000e+00	1.217420e-04	
562	-1.50000e+00	1.247487e-04	
563	-1.55000e+00	1.276778e-04	
564	-1.60000e+00	1.305295e-04	
565	-1.65000e+00	1.333039e-04	
566	-1.70000e+00	1.360013e-04	
567	-1.75000e+00	1.386217e-04	
568	-1.80000e+00	1.411655e-04	
569	-1.85000e+00	1.436327e-04	
570	-1.90000e+00	1.460237e-04	
571	-1.95000e+00	1.483384e-04	
572	-2.00000e+00	1.505773e-04	
573	-2.05000e+00	1.527404e-04	
574	-2.10000e+00	1.548280e-04	
575	-2.15000e+00	1.568403e-04	
576	-2.20000e+00	1.587776e-04	

Index   v-sweep         i(vds)          
--------------------------------------------------------------------------------
577	-2.25000e+00	1.606400e-04	
578	-2.30000e+00	1.624279e-04	
579	-2.35000e+00	1.641416e-04	
580	-2.40000e+00	1.657814e-04	
581	-2.45000e+00	1.673476e-04	
582	-2.50000e+00	1.688408e-04	
583	-2.55000e+00	1.702615e-04	
584	-2.60000e+00	1.716104e-04	
585	-2.65000e+00	1.728883e-04	
586	-2.70000e+00	1.740965e-04	
587	-2.75000e+00	1.752363e-04	
588	-2.80000e+00	1.763098e-04	
589	-2.85000e+00	1.773196e-04	
590	-2.90000e+00	1.782689e-04	
591	-2.95000e+00	1.791618e-04	
592	-3.00000e+00	1.800028e-04	
593	-3.05000e+00	1.807968e-04	
594	-3.10000e+00	1.815486e-04	
595	-3.15000e+00	1.822625e-04	
596	-3.20000e+00	1.829427e-04	
597	-3.25000e+00	1.835924e-04	
598	-3.30000e+00	1.842147e-04	
599	-3.35000e+00	1.848121e-04	
600	-3.40000e+00	1.853868e-04	
601	-3.45000e+00	1.859407e-04	
602	-3.50000e+00	1.864755e-04	
603	-3.55000e+00	1.869927e-04	
604	-3.60000e+00	1.874937e-04	
605	-3.65000e+00	1.879795e-04	
606	-3.70000e+00	1.884513e-04	
607	-3.75000e+00	1.889100e-04	
608	-3.80000e+00	1.893565e-04	
609	-3.85000e+00	1.897915e-04	
610	-3.90000e+00	1.902158e-04	
611	-3.95000e+00	1.906300e-04	
612	-4.00000e+00	1.910347e-04	
613	-4.05000e+00	1.914304e-04	
614	-4.10000e+00	1.918176e-04	
615	-4.15000e+00	1.921968e-04	
616	-4.20000e+00	1.925684e-04	
617	-4.25000e+00	1.929328e-04	
618	-4.30000e+00	1.932904e-04	
619	-4.35000e+00	1.936414e-04	
620	-4.40000e+00	1.939863e-04	
621	-4.45000e+00	1.943252e-04	
622	-4.50000e+00	1.946585e-04	
623	-4.55000e+00	1.949864e-04	
624	-4.60000e+00	1.953092e-04	
625	-4.65000e+00	1.956270e-04	
626	-4.70000e+00	1.959401e-04	
627	-4.75000e+00	1.962486e-04	
628	-4.80000e+00	1.965529e-04	
629	-4.85000e+00	1.968529e-04	
630	-4.90000e+00	1.971489e-04	
631	-4.95000e+00	1.974411e-04	
632	-5.00000e+00	1.977296e-04	
633	-5.05000e+00	1.980144e-04	
634	-5.10000e+00	1.982958e-04	

Index   v-sweep         i(vds)          
--------------------------------------------------------------------------------
635	-5.15000e+00	1.985739e-04	
636	-5.20000e+00	1.988488e-04	
637	-5.25000e+00	1.991206e-04	
638	-5.30000e+00	1.993894e-04	
639	-5.35000e+00	1.996553e-04	
640	-5.40000e+00	1.999184e-04	
641	-5.45000e+00	2.001788e-04	
642	-5.50000e+00	2.004366e-04	
643	-5.55000e+00	2.006918e-04	
644	-5.60000e+00	2.009446e-04	
645	-5.65000e+00	2.011950e-04	
646	-5.70000e+00	2.014432e-04	
647	-5.75000e+00	2.016890e-04	
648	-5.80000e+00	2.019328e-04	
649	-5.85000e+00	2.021744e-04	
650	-5.90000e+00	2.024140e-04	
651	-5.95000e+00	2.026517e-04	
652	-6.00000e+00	2.028876e-04	
653	-6.05000e+00	2.031216e-04	
654	-6.10000e+00	2.033539e-04	
655	-6.15000e+00	2.035846e-04	
656	-6.20000e+00	2.038137e-04	
657	-6.25000e+00	2.040413e-04	
658	-6.30000e+00	2.042676e-04	
659	-6.35000e+00	2.044926e-04	
660	-6.40000e+00	2.047165e-04	
661	-6.45000e+00	2.049393e-04	
662	-6.50000e+00	2.051612e-04	
663	-6.55000e+00	2.053824e-04	
664	-6.60000e+00	2.056030e-04	
665	0.000000e+00	5.223921e-20	
666	-5.00000e-02	6.087677e-06	
667	-1.00000e-01	1.209028e-05	
668	-1.50000e-01	1.801370e-05	
669	-2.00000e-01	2.385956e-05	
670	-2.50000e-01	2.962838e-05	
671	-3.00000e-01	3.532042e-05	
672	-3.50000e-01	4.093584e-05	
673	-4.00000e-01	4.647478e-05	
674	-4.50000e-01	5.193739e-05	
675	-5.00000e-01	5.732380e-05	
676	-5.50000e-01	6.263416e-05	
677	-6.00000e-01	6.786860e-05	
678	-6.50000e-01	7.302727e-05	
679	-7.00000e-01	7.811031e-05	
680	-7.50000e-01	8.311786e-05	
681	-8.00000e-01	8.805006e-05	
682	-8.50000e-01	9.290704e-05	
683	-9.00000e-01	9.768896e-05	
684	-9.50000e-01	1.023960e-04	
685	-1.00000e+00	1.070282e-04	
686	-1.05000e+00	1.115857e-04	
687	-1.10000e+00	1.160688e-04	
688	-1.15000e+00	1.204775e-04	
689	-1.20000e+00	1.248120e-04	
690	-1.25000e+00	1.290724e-04	
691	-1.30000e+00	1.332588e-04	
692	-1.35000e+00	1.373715e-04	

Index   v-sweep         i(vds)          
--------------------------------------------------------------------------------
693	-1.40000e+00	1.414106e-04	
694	-1.45000e+00	1.453761e-04	
695	-1.50000e+00	1.492683e-04	
696	-1.55000e+00	1.530873e-04	
697	-1.60000e+00	1.568332e-04	
698	-1.65000e+00	1.605061e-04	
699	-1.70000e+00	1.641063e-04	
700	-1.75000e+00	1.676339e-04	
701	-1.80000e+00	1.710890e-04	
702	-1.85000e+00	1.744717e-04	
703	-1.90000e+00	1.777822e-04	
704	-1.95000e+00	1.810207e-04	
705	-2.00000e+00	1.841873e-04	
706	-2.05000e+00	1.872822e-04	
707	-2.10000e+00	1.903054e-04	
708	-2.15000e+00	1.932572e-04	
709	-2.20000e+00	1.961377e-04	
710	-2.25000e+00	1.989471e-04	
711	-2.30000e+00	2.016855e-04	
712	-2.35000e+00	2.043531e-04	
713	-2.40000e+00	2.069500e-04	
714	-2.45000e+00	2.094764e-04	
715	-2.50000e+00	2.119324e-04	
716	-2.55000e+00	2.143184e-04	
717	-2.60000e+00	2.166343e-04	
718	-2.65000e+00	2.188805e-04	
719	-2.70000e+00	2.210570e-04	
720	-2.75000e+00	2.231642e-04	
721	-2.80000e+00	2.252021e-04	
722	-2.85000e+00	2.271711e-04	
723	-2.90000e+00	2.290715e-04	
724	-2.95000e+00	2.309034e-04	
725	-3.00000e+00	2.326672e-04	
726	-3.05000e+00	2.343633e-04	
727	-3.10000e+00	2.359920e-04	
728	-3.15000e+00	2.375540e-04	
729	-3.20000e+00	2.390498e-04	
730	-3.25000e+00	2.404803e-04	
731	-3.30000e+00	2.418463e-04	
732	-3.35000e+00	2.431491e-04	
733	-3.40000e+00	2.443902e-04	
734	-3.45000e+00	2.455716e-04	
735	-3.50000e+00	2.466956e-04	
736	-3.55000e+00	2.477650e-04	
737	-3.60000e+00	2.487829e-04	
738	-3.65000e+00	2.497527e-04	
739	-3.70000e+00	2.506777e-04	
740	-3.75000e+00	2.515614e-04	
741	-3.80000e+00	2.524070e-04	
742	-3.85000e+00	2.532176e-04	
743	-3.90000e+00	2.539959e-04	
744	-3.95000e+00	2.547444e-04	
745	-4.00000e+00	2.554655e-04	
746	-4.05000e+00	2.561613e-04	
747	-4.10000e+00	2.568336e-04	
748	-4.15000e+00	2.574842e-04	
749	-4.20000e+00	2.581146e-04	
750	-4.25000e+00	2.587262e-04	

Index   v-sweep         i(vds)          
--------------------------------------------------------------------------------
751	-4.30000e+00	2.593204e-04	
752	-4.35000e+00	2.598981e-04	
753	-4.40000e+00	2.604606e-04	
754	-4.45000e+00	2.610086e-04	
755	-4.50000e+00	2.615432e-04	
756	-4.55000e+00	2.620651e-04	
757	-4.60000e+00	2.625750e-04	
758	-4.65000e+00	2.630737e-04	
759	-4.70000e+00	2.635616e-04	
760	-4.75000e+00	2.640395e-04	
761	-4.80000e+00	2.645078e-04	
762	-4.85000e+00	2.649670e-04	
763	-4.90000e+00	2.654175e-04	
764	-4.95000e+00	2.658598e-04	
765	-5.00000e+00	2.662943e-04	
766	-5.05000e+00	2.667214e-04	
767	-5.10000e+00	2.671413e-04	
768	-5.15000e+00	2.675544e-04	
769	-5.20000e+00	2.679610e-04	
770	-5.25000e+00	2.683613e-04	
771	-5.30000e+00	2.687557e-04	
772	-5.35000e+00	2.691443e-04	
773	-5.40000e+00	2.695275e-04	
774	-5.45000e+00	2.699053e-04	
775	-5.50000e+00	2.702781e-04	
776	-5.55000e+00	2.706460e-04	
777	-5.60000e+00	2.710092e-04	
778	-5.65000e+00	2.713678e-04	
779	-5.70000e+00	2.717221e-04	
780	-5.75000e+00	2.720722e-04	
781	-5.80000e+00	2.724182e-04	
782	-5.85000e+00	2.727603e-04	
783	-5.90000e+00	2.730986e-04	
784	-5.95000e+00	2.734333e-04	
785	-6.00000e+00	2.737644e-04	
786	-6.05000e+00	2.740920e-04	
787	-6.10000e+00	2.744164e-04	
788	-6.15000e+00	2.747375e-04	
789	-6.20000e+00	2.750556e-04	
790	-6.25000e+00	2.753706e-04	
791	-6.30000e+00	2.756827e-04	
792	-6.35000e+00	2.759920e-04	
793	-6.40000e+00	2.762985e-04	
794	-6.45000e+00	2.766024e-04	
795	-6.50000e+00	2.769038e-04	
796	-6.55000e+00	2.772027e-04	
797	-6.60000e+00	2.774992e-04	
Note: No ".plot", ".print", or ".fourier" lines; no simulations run
