
Note: Compatibility modes selected: hs

Warning: m=xx on .subckt line will override multiplier m hierarchy!


Circuit: ***************************

Doing analysis at TEMP = 25.000000 and TNOM = 25.000000


No. of Data Rows : 798
                          ***************************
                          DC transfer characteristic  Mon Jan  9 13:58:50  2023
--------------------------------------------------------------------------------
Index   v-sweep         i(vds)          
--------------------------------------------------------------------------------
0	0.000000e+00	-4.81251e-32	
1	-5.00000e-02	1.791589e-07	
2	-1.00000e-01	3.139465e-07	
3	-1.50000e-01	4.059412e-07	
4	-2.00000e-01	4.593227e-07	
5	-2.50000e-01	4.847713e-07	
6	-3.00000e-01	4.970324e-07	
7	-3.50000e-01	5.049147e-07	
8	-4.00000e-01	5.113122e-07	
9	-4.50000e-01	5.170618e-07	
10	-5.00000e-01	5.224444e-07	
11	-5.50000e-01	5.275753e-07	
12	-6.00000e-01	5.325118e-07	
13	-6.50000e-01	5.372875e-07	
14	-7.00000e-01	5.419244e-07	
15	-7.50000e-01	5.464385e-07	
16	-8.00000e-01	5.508423e-07	
17	-8.50000e-01	5.551458e-07	
18	-9.00000e-01	5.593577e-07	
19	-9.50000e-01	5.634851e-07	
20	-1.00000e+00	5.675344e-07	
21	-1.05000e+00	5.715113e-07	
22	-1.10000e+00	5.754207e-07	
23	-1.15000e+00	5.792671e-07	
24	-1.20000e+00	5.830546e-07	
25	-1.25000e+00	5.867869e-07	
26	-1.30000e+00	5.904672e-07	
27	-1.35000e+00	5.940988e-07	
28	-1.40000e+00	5.976843e-07	
29	-1.45000e+00	6.012264e-07	
30	-1.50000e+00	6.047275e-07	
31	-1.55000e+00	6.081897e-07	
32	-1.60000e+00	6.116151e-07	
33	-1.65000e+00	6.150057e-07	
34	-1.70000e+00	6.183632e-07	
35	-1.75000e+00	6.216892e-07	
36	-1.80000e+00	6.249853e-07	
37	-1.85000e+00	6.282529e-07	
38	-1.90000e+00	6.314933e-07	
39	-1.95000e+00	6.347079e-07	
40	-2.00000e+00	6.378979e-07	
41	-2.05000e+00	6.410642e-07	
42	-2.10000e+00	6.442081e-07	
43	-2.15000e+00	6.473304e-07	
44	-2.20000e+00	6.504321e-07	
45	-2.25000e+00	6.535142e-07	
46	-2.30000e+00	6.565773e-07	
47	-2.35000e+00	6.596224e-07	
48	-2.40000e+00	6.626502e-07	
49	-2.45000e+00	6.656614e-07	
50	-2.50000e+00	6.686566e-07	
51	-2.55000e+00	6.716365e-07	
52	-2.60000e+00	6.746018e-07	
53	-2.65000e+00	6.775529e-07	
54	-2.70000e+00	6.804905e-07	

Index   v-sweep         i(vds)          
--------------------------------------------------------------------------------
55	-2.75000e+00	6.834151e-07	
56	-2.80000e+00	6.863272e-07	
57	-2.85000e+00	6.892272e-07	
58	-2.90000e+00	6.921157e-07	
59	-2.95000e+00	6.949931e-07	
60	-3.00000e+00	6.978598e-07	
61	-3.05000e+00	7.007162e-07	
62	-3.10000e+00	7.035628e-07	
63	-3.15000e+00	7.064000e-07	
64	-3.20000e+00	7.092281e-07	
65	-3.25000e+00	7.120475e-07	
66	-3.30000e+00	7.148586e-07	
67	-3.35000e+00	7.176617e-07	
68	-3.40000e+00	7.204574e-07	
69	-3.45000e+00	7.232459e-07	
70	-3.50000e+00	7.260277e-07	
71	-3.55000e+00	7.288031e-07	
72	-3.60000e+00	7.315727e-07	
73	-3.65000e+00	7.343368e-07	
74	-3.70000e+00	7.370960e-07	
75	-3.75000e+00	7.398507e-07	
76	-3.80000e+00	7.426016e-07	
77	-3.85000e+00	7.453491e-07	
78	-3.90000e+00	7.480940e-07	
79	-3.95000e+00	7.508370e-07	
80	-4.00000e+00	7.535788e-07	
81	-4.05000e+00	7.563203e-07	
82	-4.10000e+00	7.590623e-07	
83	-4.15000e+00	7.618059e-07	
84	-4.20000e+00	7.645521e-07	
85	-4.25000e+00	7.673021e-07	
86	-4.30000e+00	7.700573e-07	
87	-4.35000e+00	7.728190e-07	
88	-4.40000e+00	7.755887e-07	
89	-4.45000e+00	7.783682e-07	
90	-4.50000e+00	7.811593e-07	
91	-4.55000e+00	7.839640e-07	
92	-4.60000e+00	7.867843e-07	
93	-4.65000e+00	7.896226e-07	
94	-4.70000e+00	7.924815e-07	
95	-4.75000e+00	7.953635e-07	
96	-4.80000e+00	7.982717e-07	
97	-4.85000e+00	8.012091e-07	
98	-4.90000e+00	8.041790e-07	
99	-4.95000e+00	8.071850e-07	
100	-5.00000e+00	8.102310e-07	
101	-5.05000e+00	8.133210e-07	
102	-5.10000e+00	8.164593e-07	
103	-5.15000e+00	8.196506e-07	
104	-5.20000e+00	8.228998e-07	
105	-5.25000e+00	8.262120e-07	
106	-5.30000e+00	8.295927e-07	
107	-5.35000e+00	8.330477e-07	
108	-5.40000e+00	8.365831e-07	
109	-5.45000e+00	8.402054e-07	
110	-5.50000e+00	8.439214e-07	
111	-5.55000e+00	8.477381e-07	
112	-5.60000e+00	8.516631e-07	

Index   v-sweep         i(vds)          
--------------------------------------------------------------------------------
113	-5.65000e+00	8.557042e-07	
114	-5.70000e+00	8.598696e-07	
115	-5.75000e+00	8.641678e-07	
116	-5.80000e+00	8.686079e-07	
117	-5.85000e+00	8.731991e-07	
118	-5.90000e+00	8.779513e-07	
119	-5.95000e+00	8.828745e-07	
120	-6.00000e+00	8.879793e-07	
121	-6.05000e+00	8.932766e-07	
122	-6.10000e+00	8.987778e-07	
123	-6.15000e+00	9.044946e-07	
124	-6.20000e+00	9.104394e-07	
125	-6.25000e+00	9.166246e-07	
126	-6.30000e+00	9.230633e-07	
127	-6.35000e+00	9.297691e-07	
128	-6.40000e+00	9.367558e-07	
129	-6.45000e+00	9.440377e-07	
130	-6.50000e+00	9.516298e-07	
131	-6.55000e+00	9.595471e-07	
132	-6.60000e+00	9.678054e-07	
133	0.000000e+00	-1.76835e-22	
134	-5.00000e-02	8.772782e-07	
135	-1.00000e-01	1.706752e-06	
136	-1.50000e-01	2.488770e-06	
137	-2.00000e-01	3.223679e-06	
138	-2.50000e-01	3.911831e-06	
139	-3.00000e-01	4.553577e-06	
140	-3.50000e-01	5.149273e-06	
141	-4.00000e-01	5.699282e-06	
142	-4.50000e-01	6.203977e-06	
143	-5.00000e-01	6.663748e-06	
144	-5.50000e-01	7.079018e-06	
145	-6.00000e-01	7.450260e-06	
146	-6.50000e-01	7.778048e-06	
147	-7.00000e-01	8.063135e-06	
148	-7.50000e-01	8.306630e-06	
149	-8.00000e-01	8.510318e-06	
150	-8.50000e-01	8.677219e-06	
151	-9.00000e-01	8.812230e-06	
152	-9.50000e-01	8.922152e-06	
153	-1.00000e+00	9.014342e-06	
154	-1.05000e+00	9.094835e-06	
155	-1.10000e+00	9.167588e-06	
156	-1.15000e+00	9.234912e-06	
157	-1.20000e+00	9.298131e-06	
158	-1.25000e+00	9.358046e-06	
159	-1.30000e+00	9.415176e-06	
160	-1.35000e+00	9.469887e-06	
161	-1.40000e+00	9.522454e-06	
162	-1.45000e+00	9.573093e-06	
163	-1.50000e+00	9.621984e-06	
164	-1.55000e+00	9.669275e-06	
165	-1.60000e+00	9.715095e-06	
166	-1.65000e+00	9.759556e-06	
167	-1.70000e+00	9.802756e-06	
168	-1.75000e+00	9.844782e-06	
169	-1.80000e+00	9.885714e-06	
170	-1.85000e+00	9.925622e-06	

Index   v-sweep         i(vds)          
--------------------------------------------------------------------------------
171	-1.90000e+00	9.964568e-06	
172	-1.95000e+00	1.000261e-05	
173	-2.00000e+00	1.003980e-05	
174	-2.05000e+00	1.007619e-05	
175	-2.10000e+00	1.011183e-05	
176	-2.15000e+00	1.014674e-05	
177	-2.20000e+00	1.018098e-05	
178	-2.25000e+00	1.021457e-05	
179	-2.30000e+00	1.024754e-05	
180	-2.35000e+00	1.027993e-05	
181	-2.40000e+00	1.031177e-05	
182	-2.45000e+00	1.034307e-05	
183	-2.50000e+00	1.037387e-05	
184	-2.55000e+00	1.040418e-05	
185	-2.60000e+00	1.043404e-05	
186	-2.65000e+00	1.046344e-05	
187	-2.70000e+00	1.049242e-05	
188	-2.75000e+00	1.052100e-05	
189	-2.80000e+00	1.054918e-05	
190	-2.85000e+00	1.057699e-05	
191	-2.90000e+00	1.060443e-05	
192	-2.95000e+00	1.063153e-05	
193	-3.00000e+00	1.065829e-05	
194	-3.05000e+00	1.068473e-05	
195	-3.10000e+00	1.071086e-05	
196	-3.15000e+00	1.073669e-05	
197	-3.20000e+00	1.076223e-05	
198	-3.25000e+00	1.078749e-05	
199	-3.30000e+00	1.081248e-05	
200	-3.35000e+00	1.083721e-05	
201	-3.40000e+00	1.086168e-05	
202	-3.45000e+00	1.088592e-05	
203	-3.50000e+00	1.090991e-05	
204	-3.55000e+00	1.093368e-05	
205	-3.60000e+00	1.095722e-05	
206	-3.65000e+00	1.098055e-05	
207	-3.70000e+00	1.100367e-05	
208	-3.75000e+00	1.102658e-05	
209	-3.80000e+00	1.104931e-05	
210	-3.85000e+00	1.107184e-05	
211	-3.90000e+00	1.109419e-05	
212	-3.95000e+00	1.111636e-05	
213	-4.00000e+00	1.113836e-05	
214	-4.05000e+00	1.116020e-05	
215	-4.10000e+00	1.118187e-05	
216	-4.15000e+00	1.120339e-05	
217	-4.20000e+00	1.122476e-05	
218	-4.25000e+00	1.124600e-05	
219	-4.30000e+00	1.126709e-05	
220	-4.35000e+00	1.128806e-05	
221	-4.40000e+00	1.130891e-05	
222	-4.45000e+00	1.132965e-05	
223	-4.50000e+00	1.135028e-05	
224	-4.55000e+00	1.137082e-05	
225	-4.60000e+00	1.139127e-05	
226	-4.65000e+00	1.141165e-05	
227	-4.70000e+00	1.143196e-05	
228	-4.75000e+00	1.145223e-05	

Index   v-sweep         i(vds)          
--------------------------------------------------------------------------------
229	-4.80000e+00	1.147245e-05	
230	-4.85000e+00	1.149265e-05	
231	-4.90000e+00	1.151285e-05	
232	-4.95000e+00	1.153305e-05	
233	-5.00000e+00	1.155329e-05	
234	-5.05000e+00	1.157357e-05	
235	-5.10000e+00	1.159392e-05	
236	-5.15000e+00	1.161438e-05	
237	-5.20000e+00	1.163495e-05	
238	-5.25000e+00	1.165568e-05	
239	-5.30000e+00	1.167658e-05	
240	-5.35000e+00	1.169770e-05	
241	-5.40000e+00	1.171907e-05	
242	-5.45000e+00	1.174073e-05	
243	-5.50000e+00	1.176272e-05	
244	-5.55000e+00	1.178508e-05	
245	-5.60000e+00	1.180786e-05	
246	-5.65000e+00	1.183111e-05	
247	-5.70000e+00	1.185488e-05	
248	-5.75000e+00	1.187922e-05	
249	-5.80000e+00	1.190421e-05	
250	-5.85000e+00	1.192990e-05	
251	-5.90000e+00	1.195635e-05	
252	-5.95000e+00	1.198365e-05	
253	-6.00000e+00	1.201186e-05	
254	-6.05000e+00	1.204106e-05	
255	-6.10000e+00	1.207134e-05	
256	-6.15000e+00	1.210278e-05	
257	-6.20000e+00	1.213547e-05	
258	-6.25000e+00	1.216951e-05	
259	-6.30000e+00	1.220500e-05	
260	-6.35000e+00	1.224204e-05	
261	-6.40000e+00	1.228074e-05	
262	-6.45000e+00	1.232122e-05	
263	-6.50000e+00	1.236358e-05	
264	-6.55000e+00	1.240795e-05	
265	-6.60000e+00	1.245447e-05	
266	0.000000e+00	-5.09719e-22	
267	-5.00000e-02	1.407877e-06	
268	-1.00000e-01	2.771486e-06	
269	-1.50000e-01	4.091059e-06	
270	-2.00000e-01	5.366831e-06	
271	-2.50000e-01	6.599033e-06	
272	-3.00000e-01	7.787901e-06	
273	-3.50000e-01	8.933666e-06	
274	-4.00000e-01	1.003656e-05	
275	-4.50000e-01	1.109683e-05	
276	-5.00000e-01	1.211470e-05	
277	-5.50000e-01	1.309040e-05	
278	-6.00000e-01	1.402418e-05	
279	-6.50000e-01	1.491626e-05	
280	-7.00000e-01	1.576690e-05	
281	-7.50000e-01	1.657632e-05	
282	-8.00000e-01	1.734478e-05	
283	-8.50000e-01	1.807252e-05	
284	-9.00000e-01	1.875979e-05	
285	-9.50000e-01	1.940684e-05	
286	-1.00000e+00	2.001396e-05	

Index   v-sweep         i(vds)          
--------------------------------------------------------------------------------
287	-1.05000e+00	2.058143e-05	
288	-1.10000e+00	2.110955e-05	
289	-1.15000e+00	2.159869e-05	
290	-1.20000e+00	2.204925e-05	
291	-1.25000e+00	2.246175e-05	
292	-1.30000e+00	2.283687e-05	
293	-1.35000e+00	2.317557e-05	
294	-1.40000e+00	2.347924e-05	
295	-1.45000e+00	2.374998e-05	
296	-1.50000e+00	2.399076e-05	
297	-1.55000e+00	2.420553e-05	
298	-1.60000e+00	2.439878e-05	
299	-1.65000e+00	2.457487e-05	
300	-1.70000e+00	2.473744e-05	
301	-1.75000e+00	2.488920e-05	
302	-1.80000e+00	2.503211e-05	
303	-1.85000e+00	2.516753e-05	
304	-1.90000e+00	2.529648e-05	
305	-1.95000e+00	2.541972e-05	
306	-2.00000e+00	2.553786e-05	
307	-2.05000e+00	2.565142e-05	
308	-2.10000e+00	2.576079e-05	
309	-2.15000e+00	2.586633e-05	
310	-2.20000e+00	2.596836e-05	
311	-2.25000e+00	2.606715e-05	
312	-2.30000e+00	2.616293e-05	
313	-2.35000e+00	2.625591e-05	
314	-2.40000e+00	2.634628e-05	
315	-2.45000e+00	2.643422e-05	
316	-2.50000e+00	2.651987e-05	
317	-2.55000e+00	2.660339e-05	
318	-2.60000e+00	2.668489e-05	
319	-2.65000e+00	2.676449e-05	
320	-2.70000e+00	2.684230e-05	
321	-2.75000e+00	2.691841e-05	
322	-2.80000e+00	2.699292e-05	
323	-2.85000e+00	2.706590e-05	
324	-2.90000e+00	2.713744e-05	
325	-2.95000e+00	2.720761e-05	
326	-3.00000e+00	2.727647e-05	
327	-3.05000e+00	2.734408e-05	
328	-3.10000e+00	2.741050e-05	
329	-3.15000e+00	2.747579e-05	
330	-3.20000e+00	2.753999e-05	
331	-3.25000e+00	2.760315e-05	
332	-3.30000e+00	2.766532e-05	
333	-3.35000e+00	2.772652e-05	
334	-3.40000e+00	2.778682e-05	
335	-3.45000e+00	2.784623e-05	
336	-3.50000e+00	2.790480e-05	
337	-3.55000e+00	2.796256e-05	
338	-3.60000e+00	2.801953e-05	
339	-3.65000e+00	2.807575e-05	
340	-3.70000e+00	2.813124e-05	
341	-3.75000e+00	2.818603e-05	
342	-3.80000e+00	2.824015e-05	
343	-3.85000e+00	2.829361e-05	
344	-3.90000e+00	2.834644e-05	

Index   v-sweep         i(vds)          
--------------------------------------------------------------------------------
345	-3.95000e+00	2.839867e-05	
346	-4.00000e+00	2.845030e-05	
347	-4.05000e+00	2.850136e-05	
348	-4.10000e+00	2.855188e-05	
349	-4.15000e+00	2.860185e-05	
350	-4.20000e+00	2.865131e-05	
351	-4.25000e+00	2.870027e-05	
352	-4.30000e+00	2.874874e-05	
353	-4.35000e+00	2.879675e-05	
354	-4.40000e+00	2.884429e-05	
355	-4.45000e+00	2.889139e-05	
356	-4.50000e+00	2.893807e-05	
357	-4.55000e+00	2.898433e-05	
358	-4.60000e+00	2.903019e-05	
359	-4.65000e+00	2.907567e-05	
360	-4.70000e+00	2.912077e-05	
361	-4.75000e+00	2.916551e-05	
362	-4.80000e+00	2.920991e-05	
363	-4.85000e+00	2.925398e-05	
364	-4.90000e+00	2.929773e-05	
365	-4.95000e+00	2.934118e-05	
366	-5.00000e+00	2.938436e-05	
367	-5.05000e+00	2.942727e-05	
368	-5.10000e+00	2.946994e-05	
369	-5.15000e+00	2.951239e-05	
370	-5.20000e+00	2.955464e-05	
371	-5.25000e+00	2.959671e-05	
372	-5.30000e+00	2.963864e-05	
373	-5.35000e+00	2.968045e-05	
374	-5.40000e+00	2.972218e-05	
375	-5.45000e+00	2.976386e-05	
376	-5.50000e+00	2.980552e-05	
377	-5.55000e+00	2.984721e-05	
378	-5.60000e+00	2.988898e-05	
379	-5.65000e+00	2.993087e-05	
380	-5.70000e+00	2.997295e-05	
381	-5.75000e+00	3.001525e-05	
382	-5.80000e+00	3.005786e-05	
383	-5.85000e+00	3.010084e-05	
384	-5.90000e+00	3.014426e-05	
385	-5.95000e+00	3.018820e-05	
386	-6.00000e+00	3.023276e-05	
387	-6.05000e+00	3.027801e-05	
388	-6.10000e+00	3.032407e-05	
389	-6.15000e+00	3.037103e-05	
390	-6.20000e+00	3.041901e-05	
391	-6.25000e+00	3.046814e-05	
392	-6.30000e+00	3.051854e-05	
393	-6.35000e+00	3.057035e-05	
394	-6.40000e+00	3.062372e-05	
395	-6.45000e+00	3.067880e-05	
396	-6.50000e+00	3.073575e-05	
397	-6.55000e+00	3.079474e-05	
398	-6.60000e+00	3.085597e-05	
399	0.000000e+00	1.579867e-20	
400	-5.00000e-02	1.830976e-06	
401	-1.00000e-01	3.621307e-06	
402	-1.50000e-01	5.371157e-06	

Index   v-sweep         i(vds)          
--------------------------------------------------------------------------------
403	-2.00000e-01	7.080690e-06	
404	-2.50000e-01	8.750067e-06	
405	-3.00000e-01	1.037946e-05	
406	-3.50000e-01	1.196902e-05	
407	-4.00000e-01	1.351892e-05	
408	-4.50000e-01	1.502932e-05	
409	-5.00000e-01	1.650040e-05	
410	-5.50000e-01	1.793231e-05	
411	-6.00000e-01	1.932522e-05	
412	-6.50000e-01	2.067929e-05	
413	-7.00000e-01	2.199471e-05	
414	-7.50000e-01	2.327162e-05	
415	-8.00000e-01	2.451020e-05	
416	-8.50000e-01	2.571062e-05	
417	-9.00000e-01	2.687304e-05	
418	-9.50000e-01	2.799763e-05	
419	-1.00000e+00	2.908457e-05	
420	-1.05000e+00	3.013401e-05	
421	-1.10000e+00	3.114615e-05	
422	-1.15000e+00	3.212113e-05	
423	-1.20000e+00	3.305915e-05	
424	-1.25000e+00	3.396037e-05	
425	-1.30000e+00	3.482497e-05	
426	-1.35000e+00	3.565314e-05	
427	-1.40000e+00	3.644505e-05	
428	-1.45000e+00	3.720091e-05	
429	-1.50000e+00	3.792090e-05	
430	-1.55000e+00	3.860524e-05	
431	-1.60000e+00	3.925415e-05	
432	-1.65000e+00	3.986788e-05	
433	-1.70000e+00	4.044670e-05	
434	-1.75000e+00	4.099094e-05	
435	-1.80000e+00	4.150099e-05	
436	-1.85000e+00	4.197735e-05	
437	-1.90000e+00	4.242068e-05	
438	-1.95000e+00	4.283189e-05	
439	-2.00000e+00	4.321222e-05	
440	-2.05000e+00	4.356337e-05	
441	-2.10000e+00	4.388757e-05	
442	-2.15000e+00	4.418752e-05	
443	-2.20000e+00	4.446617e-05	
444	-2.25000e+00	4.472640e-05	
445	-2.30000e+00	4.497081e-05	
446	-2.35000e+00	4.520154e-05	
447	-2.40000e+00	4.542034e-05	
448	-2.45000e+00	4.562860e-05	
449	-2.50000e+00	4.582748e-05	
450	-2.55000e+00	4.601791e-05	
451	-2.60000e+00	4.620070e-05	
452	-2.65000e+00	4.637652e-05	
453	-2.70000e+00	4.654597e-05	
454	-2.75000e+00	4.670955e-05	
455	-2.80000e+00	4.686771e-05	
456	-2.85000e+00	4.702087e-05	
457	-2.90000e+00	4.716937e-05	
458	-2.95000e+00	4.731353e-05	
459	-3.00000e+00	4.745365e-05	
460	-3.05000e+00	4.758999e-05	

Index   v-sweep         i(vds)          
--------------------------------------------------------------------------------
461	-3.10000e+00	4.772277e-05	
462	-3.15000e+00	4.785222e-05	
463	-3.20000e+00	4.797852e-05	
464	-3.25000e+00	4.810187e-05	
465	-3.30000e+00	4.822242e-05	
466	-3.35000e+00	4.834032e-05	
467	-3.40000e+00	4.845572e-05	
468	-3.45000e+00	4.856874e-05	
469	-3.50000e+00	4.867950e-05	
470	-3.55000e+00	4.878811e-05	
471	-3.60000e+00	4.889468e-05	
472	-3.65000e+00	4.899929e-05	
473	-3.70000e+00	4.910205e-05	
474	-3.75000e+00	4.920303e-05	
475	-3.80000e+00	4.930230e-05	
476	-3.85000e+00	4.939995e-05	
477	-3.90000e+00	4.949604e-05	
478	-3.95000e+00	4.959063e-05	
479	-4.00000e+00	4.968378e-05	
480	-4.05000e+00	4.977556e-05	
481	-4.10000e+00	4.986601e-05	
482	-4.15000e+00	4.995519e-05	
483	-4.20000e+00	5.004314e-05	
484	-4.25000e+00	5.012991e-05	
485	-4.30000e+00	5.021554e-05	
486	-4.35000e+00	5.030007e-05	
487	-4.40000e+00	5.038354e-05	
488	-4.45000e+00	5.046598e-05	
489	-4.50000e+00	5.054744e-05	
490	-4.55000e+00	5.062793e-05	
491	-4.60000e+00	5.070751e-05	
492	-4.65000e+00	5.078618e-05	
493	-4.70000e+00	5.086399e-05	
494	-4.75000e+00	5.094096e-05	
495	-4.80000e+00	5.101712e-05	
496	-4.85000e+00	5.109249e-05	
497	-4.90000e+00	5.116710e-05	
498	-4.95000e+00	5.124096e-05	
499	-5.00000e+00	5.131412e-05	
500	-5.05000e+00	5.138657e-05	
501	-5.10000e+00	5.145836e-05	
502	-5.15000e+00	5.152949e-05	
503	-5.20000e+00	5.160000e-05	
504	-5.25000e+00	5.166990e-05	
505	-5.30000e+00	5.173922e-05	
506	-5.35000e+00	5.180798e-05	
507	-5.40000e+00	5.187620e-05	
508	-5.45000e+00	5.194391e-05	
509	-5.50000e+00	5.201113e-05	
510	-5.55000e+00	5.207789e-05	
511	-5.60000e+00	5.214423e-05	
512	-5.65000e+00	5.221016e-05	
513	-5.70000e+00	5.227572e-05	
514	-5.75000e+00	5.234096e-05	
515	-5.80000e+00	5.240590e-05	
516	-5.85000e+00	5.247060e-05	
517	-5.90000e+00	5.253509e-05	
518	-5.95000e+00	5.259943e-05	

Index   v-sweep         i(vds)          
--------------------------------------------------------------------------------
519	-6.00000e+00	5.266368e-05	
520	-6.05000e+00	5.272790e-05	
521	-6.10000e+00	5.279214e-05	
522	-6.15000e+00	5.285650e-05	
523	-6.20000e+00	5.292104e-05	
524	-6.25000e+00	5.298585e-05	
525	-6.30000e+00	5.305102e-05	
526	-6.35000e+00	5.311667e-05	
527	-6.40000e+00	5.318289e-05	
528	-6.45000e+00	5.324982e-05	
529	-6.50000e+00	5.331757e-05	
530	-6.55000e+00	5.338630e-05	
531	-6.60000e+00	5.345615e-05	
532	0.000000e+00	-4.99288e-31	
533	-5.00000e-02	2.180637e-06	
534	-1.00000e-01	4.323894e-06	
535	-1.50000e-01	6.429889e-06	
536	-2.00000e-01	8.498740e-06	
537	-2.50000e-01	1.053057e-05	
538	-3.00000e-01	1.252548e-05	
539	-3.50000e-01	1.448362e-05	
540	-4.00000e-01	1.640508e-05	
541	-4.50000e-01	1.828999e-05	
542	-5.00000e-01	2.013848e-05	
543	-5.50000e-01	2.195066e-05	
544	-6.00000e-01	2.372665e-05	
545	-6.50000e-01	2.546658e-05	
546	-7.00000e-01	2.717056e-05	
547	-7.50000e-01	2.883872e-05	
548	-8.00000e-01	3.047117e-05	
549	-8.50000e-01	3.206805e-05	
550	-9.00000e-01	3.362948e-05	
551	-9.50000e-01	3.515557e-05	
552	-1.00000e+00	3.664645e-05	
553	-1.05000e+00	3.810224e-05	
554	-1.10000e+00	3.952308e-05	
555	-1.15000e+00	4.090907e-05	
556	-1.20000e+00	4.226035e-05	
557	-1.25000e+00	4.357704e-05	
558	-1.30000e+00	4.485927e-05	
559	-1.35000e+00	4.610716e-05	
560	-1.40000e+00	4.732084e-05	
561	-1.45000e+00	4.850044e-05	
562	-1.50000e+00	4.964607e-05	
563	-1.55000e+00	5.075788e-05	
564	-1.60000e+00	5.183599e-05	
565	-1.65000e+00	5.288053e-05	
566	-1.70000e+00	5.389164e-05	
567	-1.75000e+00	5.486943e-05	
568	-1.80000e+00	5.581407e-05	
569	-1.85000e+00	5.672567e-05	
570	-1.90000e+00	5.760438e-05	
571	-1.95000e+00	5.845035e-05	
572	-2.00000e+00	5.926373e-05	
573	-2.05000e+00	6.004468e-05	
574	-2.10000e+00	6.079336e-05	
575	-2.15000e+00	6.150997e-05	
576	-2.20000e+00	6.219469e-05	

Index   v-sweep         i(vds)          
--------------------------------------------------------------------------------
577	-2.25000e+00	6.284776e-05	
578	-2.30000e+00	6.346943e-05	
579	-2.35000e+00	6.406004e-05	
580	-2.40000e+00	6.461995e-05	
581	-2.45000e+00	6.514966e-05	
582	-2.50000e+00	6.564982e-05	
583	-2.55000e+00	6.612125e-05	
584	-2.60000e+00	6.656505e-05	
585	-2.65000e+00	6.698260e-05	
586	-2.70000e+00	6.737557e-05	
587	-2.75000e+00	6.774586e-05	
588	-2.80000e+00	6.809548e-05	
589	-2.85000e+00	6.842638e-05	
590	-2.90000e+00	6.874042e-05	
591	-2.95000e+00	6.903924e-05	
592	-3.00000e+00	6.932431e-05	
593	-3.05000e+00	6.959689e-05	
594	-3.10000e+00	6.985813e-05	
595	-3.15000e+00	7.010899e-05	
596	-3.20000e+00	7.035034e-05	
597	-3.25000e+00	7.058295e-05	
598	-3.30000e+00	7.080749e-05	
599	-3.35000e+00	7.102458e-05	
600	-3.40000e+00	7.123476e-05	
601	-3.45000e+00	7.143850e-05	
602	-3.50000e+00	7.163625e-05	
603	-3.55000e+00	7.182841e-05	
604	-3.60000e+00	7.201532e-05	
605	-3.65000e+00	7.219732e-05	
606	-3.70000e+00	7.237470e-05	
607	-3.75000e+00	7.254774e-05	
608	-3.80000e+00	7.271667e-05	
609	-3.85000e+00	7.288174e-05	
610	-3.90000e+00	7.304314e-05	
611	-3.95000e+00	7.320108e-05	
612	-4.00000e+00	7.335572e-05	
613	-4.05000e+00	7.350724e-05	
614	-4.10000e+00	7.365579e-05	
615	-4.15000e+00	7.380151e-05	
616	-4.20000e+00	7.394453e-05	
617	-4.25000e+00	7.408498e-05	
618	-4.30000e+00	7.422296e-05	
619	-4.35000e+00	7.435860e-05	
620	-4.40000e+00	7.449199e-05	
621	-4.45000e+00	7.462323e-05	
622	-4.50000e+00	7.475240e-05	
623	-4.55000e+00	7.487958e-05	
624	-4.60000e+00	7.500486e-05	
625	-4.65000e+00	7.512832e-05	
626	-4.70000e+00	7.525001e-05	
627	-4.75000e+00	7.537001e-05	
628	-4.80000e+00	7.548837e-05	
629	-4.85000e+00	7.560517e-05	
630	-4.90000e+00	7.572044e-05	
631	-4.95000e+00	7.583426e-05	
632	-5.00000e+00	7.594666e-05	
633	-5.05000e+00	7.605769e-05	
634	-5.10000e+00	7.616741e-05	

Index   v-sweep         i(vds)          
--------------------------------------------------------------------------------
635	-5.15000e+00	7.627585e-05	
636	-5.20000e+00	7.638306e-05	
637	-5.25000e+00	7.648907e-05	
638	-5.30000e+00	7.659392e-05	
639	-5.35000e+00	7.669765e-05	
640	-5.40000e+00	7.680030e-05	
641	-5.45000e+00	7.690189e-05	
642	-5.50000e+00	7.700247e-05	
643	-5.55000e+00	7.710205e-05	
644	-5.60000e+00	7.720068e-05	
645	-5.65000e+00	7.729839e-05	
646	-5.70000e+00	7.739520e-05	
647	-5.75000e+00	7.749114e-05	
648	-5.80000e+00	7.758625e-05	
649	-5.85000e+00	7.768055e-05	
650	-5.90000e+00	7.777408e-05	
651	-5.95000e+00	7.786686e-05	
652	-6.00000e+00	7.795894e-05	
653	-6.05000e+00	7.805035e-05	
654	-6.10000e+00	7.814112e-05	
655	-6.15000e+00	7.823129e-05	
656	-6.20000e+00	7.832092e-05	
657	-6.25000e+00	7.841003e-05	
658	-6.30000e+00	7.849869e-05	
659	-6.35000e+00	7.858695e-05	
660	-6.40000e+00	7.867486e-05	
661	-6.45000e+00	7.876249e-05	
662	-6.50000e+00	7.884992e-05	
663	-6.55000e+00	7.893721e-05	
664	-6.60000e+00	7.902447e-05	
665	0.000000e+00	1.948508e-20	
666	-5.00000e-02	2.477652e-06	
667	-1.00000e-01	4.920789e-06	
668	-1.50000e-01	7.329498e-06	
669	-2.00000e-01	9.703866e-06	
670	-2.50000e-01	1.204398e-05	
671	-3.00000e-01	1.434993e-05	
672	-3.50000e-01	1.662180e-05	
673	-4.00000e-01	1.885969e-05	
674	-4.50000e-01	2.106367e-05	
675	-5.00000e-01	2.323385e-05	
676	-5.50000e-01	2.537030e-05	
677	-6.00000e-01	2.747313e-05	
678	-6.50000e-01	2.954241e-05	
679	-7.00000e-01	3.157824e-05	
680	-7.50000e-01	3.358072e-05	
681	-8.00000e-01	3.554992e-05	
682	-8.50000e-01	3.748595e-05	
683	-9.00000e-01	3.938890e-05	
684	-9.50000e-01	4.125885e-05	
685	-1.00000e+00	4.309590e-05	
686	-1.05000e+00	4.490014e-05	
687	-1.10000e+00	4.667167e-05	
688	-1.15000e+00	4.841057e-05	
689	-1.20000e+00	5.011694e-05	
690	-1.25000e+00	5.179088e-05	
691	-1.30000e+00	5.343247e-05	
692	-1.35000e+00	5.504181e-05	

Index   v-sweep         i(vds)          
--------------------------------------------------------------------------------
693	-1.40000e+00	5.661900e-05	
694	-1.45000e+00	5.816413e-05	
695	-1.50000e+00	5.967729e-05	
696	-1.55000e+00	6.115859e-05	
697	-1.60000e+00	6.260810e-05	
698	-1.65000e+00	6.402594e-05	
699	-1.70000e+00	6.541220e-05	
700	-1.75000e+00	6.676697e-05	
701	-1.80000e+00	6.809035e-05	
702	-1.85000e+00	6.938244e-05	
703	-1.90000e+00	7.064333e-05	
704	-1.95000e+00	7.187313e-05	
705	-2.00000e+00	7.307193e-05	
706	-2.05000e+00	7.423984e-05	
707	-2.10000e+00	7.537695e-05	
708	-2.15000e+00	7.648337e-05	
709	-2.20000e+00	7.755919e-05	
710	-2.25000e+00	7.860453e-05	
711	-2.30000e+00	7.961950e-05	
712	-2.35000e+00	8.060419e-05	
713	-2.40000e+00	8.155872e-05	
714	-2.45000e+00	8.248321e-05	
715	-2.50000e+00	8.337777e-05	
716	-2.55000e+00	8.424253e-05	
717	-2.60000e+00	8.507763e-05	
718	-2.65000e+00	8.588319e-05	
719	-2.70000e+00	8.665937e-05	
720	-2.75000e+00	8.740635e-05	
721	-2.80000e+00	8.812430e-05	
722	-2.85000e+00	8.881345e-05	
723	-2.90000e+00	8.947404e-05	
724	-2.95000e+00	9.010638e-05	
725	-3.00000e+00	9.071084e-05	
726	-3.05000e+00	9.128787e-05	
727	-3.10000e+00	9.183806e-05	
728	-3.15000e+00	9.236212e-05	
729	-3.20000e+00	9.286092e-05	
730	-3.25000e+00	9.333551e-05	
731	-3.30000e+00	9.378710e-05	
732	-3.35000e+00	9.421701e-05	
733	-3.40000e+00	9.462666e-05	
734	-3.45000e+00	9.501746e-05	
735	-3.50000e+00	9.539081e-05	
736	-3.55000e+00	9.574806e-05	
737	-3.60000e+00	9.609045e-05	
738	-3.65000e+00	9.641914e-05	
739	-3.70000e+00	9.673520e-05	
740	-3.75000e+00	9.703960e-05	
741	-3.80000e+00	9.733322e-05	
742	-3.85000e+00	9.761684e-05	
743	-3.90000e+00	9.789119e-05	
744	-3.95000e+00	9.815691e-05	
745	-4.00000e+00	9.841459e-05	
746	-4.05000e+00	9.866476e-05	
747	-4.10000e+00	9.890792e-05	
748	-4.15000e+00	9.914449e-05	
749	-4.20000e+00	9.937489e-05	
750	-4.25000e+00	9.959948e-05	

Index   v-sweep         i(vds)          
--------------------------------------------------------------------------------
751	-4.30000e+00	9.981860e-05	
752	-4.35000e+00	1.000325e-04	
753	-4.40000e+00	1.002416e-04	
754	-4.45000e+00	1.004461e-04	
755	-4.50000e+00	1.006461e-04	
756	-4.55000e+00	1.008421e-04	
757	-4.60000e+00	1.010340e-04	
758	-4.65000e+00	1.012223e-04	
759	-4.70000e+00	1.014069e-04	
760	-4.75000e+00	1.015881e-04	
761	-4.80000e+00	1.017661e-04	
762	-4.85000e+00	1.019410e-04	
763	-4.90000e+00	1.021129e-04	
764	-4.95000e+00	1.022820e-04	
765	-5.00000e+00	1.024483e-04	
766	-5.05000e+00	1.026120e-04	
767	-5.10000e+00	1.027733e-04	
768	-5.15000e+00	1.029321e-04	
769	-5.20000e+00	1.030886e-04	
770	-5.25000e+00	1.032428e-04	
771	-5.30000e+00	1.033949e-04	
772	-5.35000e+00	1.035450e-04	
773	-5.40000e+00	1.036931e-04	
774	-5.45000e+00	1.038392e-04	
775	-5.50000e+00	1.039835e-04	
776	-5.55000e+00	1.041260e-04	
777	-5.60000e+00	1.042668e-04	
778	-5.65000e+00	1.044059e-04	
779	-5.70000e+00	1.045434e-04	
780	-5.75000e+00	1.046793e-04	
781	-5.80000e+00	1.048137e-04	
782	-5.85000e+00	1.049467e-04	
783	-5.90000e+00	1.050782e-04	
784	-5.95000e+00	1.052083e-04	
785	-6.00000e+00	1.053372e-04	
786	-6.05000e+00	1.054647e-04	
787	-6.10000e+00	1.055910e-04	
788	-6.15000e+00	1.057160e-04	
789	-6.20000e+00	1.058399e-04	
790	-6.25000e+00	1.059627e-04	
791	-6.30000e+00	1.060843e-04	
792	-6.35000e+00	1.062049e-04	
793	-6.40000e+00	1.063245e-04	
794	-6.45000e+00	1.064431e-04	
795	-6.50000e+00	1.065607e-04	
796	-6.55000e+00	1.066775e-04	
797	-6.60000e+00	1.067934e-04	
Note: No ".plot", ".print", or ".fourier" lines; no simulations run
