
Note: Compatibility modes selected: hs

Warning: m=xx on .subckt line will override multiplier m hierarchy!


Circuit: ***************************

Doing analysis at TEMP = 25.000000 and TNOM = 25.000000


No. of Data Rows : 798
                          ***************************
                          DC transfer characteristic  Mon Jan  9 13:58:50  2023
--------------------------------------------------------------------------------
Index   v-sweep         i(vds)          
--------------------------------------------------------------------------------
0	0.000000e+00	-4.60773e-25	
1	-5.00000e-02	8.260492e-09	
2	-1.00000e-01	1.258695e-08	
3	-1.50000e-01	1.404721e-08	
4	-2.00000e-01	1.440010e-08	
5	-2.50000e-01	1.450767e-08	
6	-3.00000e-01	1.455682e-08	
7	-3.50000e-01	1.458694e-08	
8	-4.00000e-01	1.460901e-08	
9	-4.50000e-01	1.462695e-08	
10	-5.00000e-01	1.464248e-08	
11	-5.50000e-01	1.465642e-08	
12	-6.00000e-01	1.466923e-08	
13	-6.50000e-01	1.468120e-08	
14	-7.00000e-01	1.469250e-08	
15	-7.50000e-01	1.470327e-08	
16	-8.00000e-01	1.471358e-08	
17	-8.50000e-01	1.472350e-08	
18	-9.00000e-01	1.473310e-08	
19	-9.50000e-01	1.474239e-08	
20	-1.00000e+00	1.475143e-08	
21	-1.05000e+00	1.476023e-08	
22	-1.10000e+00	1.476882e-08	
23	-1.15000e+00	1.477722e-08	
24	-1.20000e+00	1.478544e-08	
25	-1.25000e+00	1.479350e-08	
26	-1.30000e+00	1.480140e-08	
27	-1.35000e+00	1.480918e-08	
28	-1.40000e+00	1.481682e-08	
29	-1.45000e+00	1.482434e-08	
30	-1.50000e+00	1.483175e-08	
31	-1.55000e+00	1.483906e-08	
32	-1.60000e+00	1.484627e-08	
33	-1.65000e+00	1.485338e-08	
34	-1.70000e+00	1.486041e-08	
35	-1.75000e+00	1.486735e-08	
36	-1.80000e+00	1.487422e-08	
37	-1.85000e+00	1.488101e-08	
38	-1.90000e+00	1.488773e-08	
39	-1.95000e+00	1.489438e-08	
40	-2.00000e+00	1.490097e-08	
41	-2.05000e+00	1.490750e-08	
42	-2.10000e+00	1.491398e-08	
43	-2.15000e+00	1.492039e-08	
44	-2.20000e+00	1.492675e-08	
45	-2.25000e+00	1.493307e-08	
46	-2.30000e+00	1.493933e-08	
47	-2.35000e+00	1.494555e-08	
48	-2.40000e+00	1.495172e-08	
49	-2.45000e+00	1.495785e-08	
50	-2.50000e+00	1.496394e-08	
51	-2.55000e+00	1.496999e-08	
52	-2.60000e+00	1.497600e-08	
53	-2.65000e+00	1.498197e-08	
54	-2.70000e+00	1.498791e-08	

Index   v-sweep         i(vds)          
--------------------------------------------------------------------------------
55	-2.75000e+00	1.499381e-08	
56	-2.80000e+00	1.499968e-08	
57	-2.85000e+00	1.500552e-08	
58	-2.90000e+00	1.501134e-08	
59	-2.95000e+00	1.501712e-08	
60	-3.00000e+00	1.502288e-08	
61	-3.05000e+00	1.502861e-08	
62	-3.10000e+00	1.503432e-08	
63	-3.15000e+00	1.504000e-08	
64	-3.20000e+00	1.504567e-08	
65	-3.25000e+00	1.505133e-08	
66	-3.30000e+00	1.505697e-08	
67	-3.35000e+00	1.506260e-08	
68	-3.40000e+00	1.506823e-08	
69	-3.45000e+00	1.507385e-08	
70	-3.50000e+00	1.507948e-08	
71	-3.55000e+00	1.508511e-08	
72	-3.60000e+00	1.509077e-08	
73	-3.65000e+00	1.509644e-08	
74	-3.70000e+00	1.510215e-08	
75	-3.75000e+00	1.510790e-08	
76	-3.80000e+00	1.511370e-08	
77	-3.85000e+00	1.511956e-08	
78	-3.90000e+00	1.512550e-08	
79	-3.95000e+00	1.513154e-08	
80	-4.00000e+00	1.513768e-08	
81	-4.05000e+00	1.514395e-08	
82	-4.10000e+00	1.515037e-08	
83	-4.15000e+00	1.515697e-08	
84	-4.20000e+00	1.516376e-08	
85	-4.25000e+00	1.517078e-08	
86	-4.30000e+00	1.517805e-08	
87	-4.35000e+00	1.518561e-08	
88	-4.40000e+00	1.519349e-08	
89	-4.45000e+00	1.520174e-08	
90	-4.50000e+00	1.521040e-08	
91	-4.55000e+00	1.521950e-08	
92	-4.60000e+00	1.522911e-08	
93	-4.65000e+00	1.523927e-08	
94	-4.70000e+00	1.525004e-08	
95	-4.75000e+00	1.526148e-08	
96	-4.80000e+00	1.527366e-08	
97	-4.85000e+00	1.528663e-08	
98	-4.90000e+00	1.530049e-08	
99	-4.95000e+00	1.531530e-08	
100	-5.00000e+00	1.533114e-08	
101	-5.05000e+00	1.534811e-08	
102	-5.10000e+00	1.536630e-08	
103	-5.15000e+00	1.538579e-08	
104	-5.20000e+00	1.540670e-08	
105	-5.25000e+00	1.542913e-08	
106	-5.30000e+00	1.545318e-08	
107	-5.35000e+00	1.547899e-08	
108	-5.40000e+00	1.550667e-08	
109	-5.45000e+00	1.553634e-08	
110	-5.50000e+00	1.556815e-08	
111	-5.55000e+00	1.560223e-08	
112	-5.60000e+00	1.563873e-08	

Index   v-sweep         i(vds)          
--------------------------------------------------------------------------------
113	-5.65000e+00	1.567779e-08	
114	-5.70000e+00	1.571957e-08	
115	-5.75000e+00	1.576423e-08	
116	-5.80000e+00	1.581195e-08	
117	-5.85000e+00	1.586288e-08	
118	-5.90000e+00	1.591722e-08	
119	-5.95000e+00	1.597514e-08	
120	-6.00000e+00	1.603684e-08	
121	-6.05000e+00	1.610250e-08	
122	-6.10000e+00	1.617234e-08	
123	-6.15000e+00	1.624656e-08	
124	-6.20000e+00	1.632536e-08	
125	-6.25000e+00	1.640898e-08	
126	-6.30000e+00	1.649763e-08	
127	-6.35000e+00	1.659154e-08	
128	-6.40000e+00	1.669094e-08	
129	-6.45000e+00	1.679609e-08	
130	-6.50000e+00	1.690721e-08	
131	-6.55000e+00	1.702456e-08	
132	-6.60000e+00	1.714841e-08	
133	0.000000e+00	-7.44873e-23	
134	-5.00000e-02	8.137930e-08	
135	-1.00000e-01	1.575789e-07	
136	-1.50000e-01	2.286011e-07	
137	-2.00000e-01	2.944483e-07	
138	-2.50000e-01	3.551239e-07	
139	-3.00000e-01	4.106316e-07	
140	-3.50000e-01	4.609767e-07	
141	-4.00000e-01	5.061669e-07	
142	-4.50000e-01	5.462132e-07	
143	-5.00000e-01	5.811339e-07	
144	-5.50000e-01	6.109594e-07	
145	-6.00000e-01	6.357451e-07	
146	-6.50000e-01	6.555963e-07	
147	-7.00000e-01	6.707190e-07	
148	-7.50000e-01	6.815103e-07	
149	-8.00000e-01	6.886594e-07	
150	-8.50000e-01	6.931280e-07	
151	-9.00000e-01	6.959022e-07	
152	-9.50000e-01	6.977206e-07	
153	-1.00000e+00	6.990202e-07	
154	-1.05000e+00	7.000307e-07	
155	-1.10000e+00	7.008700e-07	
156	-1.15000e+00	7.016002e-07	
157	-1.20000e+00	7.022563e-07	
158	-1.25000e+00	7.028589e-07	
159	-1.30000e+00	7.034208e-07	
160	-1.35000e+00	7.039507e-07	
161	-1.40000e+00	7.044545e-07	
162	-1.45000e+00	7.049366e-07	
163	-1.50000e+00	7.054001e-07	
164	-1.55000e+00	7.058475e-07	
165	-1.60000e+00	7.062808e-07	
166	-1.65000e+00	7.067016e-07	
167	-1.70000e+00	7.071112e-07	
168	-1.75000e+00	7.075106e-07	
169	-1.80000e+00	7.079009e-07	
170	-1.85000e+00	7.082828e-07	

Index   v-sweep         i(vds)          
--------------------------------------------------------------------------------
171	-1.90000e+00	7.086570e-07	
172	-1.95000e+00	7.090241e-07	
173	-2.00000e+00	7.093847e-07	
174	-2.05000e+00	7.097391e-07	
175	-2.10000e+00	7.100878e-07	
176	-2.15000e+00	7.104313e-07	
177	-2.20000e+00	7.107697e-07	
178	-2.25000e+00	7.111035e-07	
179	-2.30000e+00	7.114330e-07	
180	-2.35000e+00	7.117582e-07	
181	-2.40000e+00	7.120796e-07	
182	-2.45000e+00	7.123972e-07	
183	-2.50000e+00	7.127114e-07	
184	-2.55000e+00	7.130222e-07	
185	-2.60000e+00	7.133299e-07	
186	-2.65000e+00	7.136345e-07	
187	-2.70000e+00	7.139363e-07	
188	-2.75000e+00	7.142354e-07	
189	-2.80000e+00	7.145318e-07	
190	-2.85000e+00	7.148258e-07	
191	-2.90000e+00	7.151173e-07	
192	-2.95000e+00	7.154066e-07	
193	-3.00000e+00	7.156936e-07	
194	-3.05000e+00	7.159786e-07	
195	-3.10000e+00	7.162615e-07	
196	-3.15000e+00	7.165425e-07	
197	-3.20000e+00	7.168216e-07	
198	-3.25000e+00	7.170989e-07	
199	-3.30000e+00	7.173745e-07	
200	-3.35000e+00	7.176484e-07	
201	-3.40000e+00	7.179208e-07	
202	-3.45000e+00	7.181916e-07	
203	-3.50000e+00	7.184609e-07	
204	-3.55000e+00	7.187289e-07	
205	-3.60000e+00	7.189955e-07	
206	-3.65000e+00	7.192608e-07	
207	-3.70000e+00	7.195250e-07	
208	-3.75000e+00	7.197880e-07	
209	-3.80000e+00	7.200501e-07	
210	-3.85000e+00	7.203112e-07	
211	-3.90000e+00	7.205716e-07	
212	-3.95000e+00	7.208312e-07	
213	-4.00000e+00	7.210904e-07	
214	-4.05000e+00	7.213492e-07	
215	-4.10000e+00	7.216078e-07	
216	-4.15000e+00	7.218664e-07	
217	-4.20000e+00	7.221254e-07	
218	-4.25000e+00	7.223850e-07	
219	-4.30000e+00	7.226454e-07	
220	-4.35000e+00	7.229072e-07	
221	-4.40000e+00	7.231706e-07	
222	-4.45000e+00	7.234362e-07	
223	-4.50000e+00	7.237046e-07	
224	-4.55000e+00	7.239762e-07	
225	-4.60000e+00	7.242519e-07	
226	-4.65000e+00	7.245323e-07	
227	-4.70000e+00	7.248183e-07	
228	-4.75000e+00	7.251108e-07	

Index   v-sweep         i(vds)          
--------------------------------------------------------------------------------
229	-4.80000e+00	7.254108e-07	
230	-4.85000e+00	7.257196e-07	
231	-4.90000e+00	7.260383e-07	
232	-4.95000e+00	7.263682e-07	
233	-5.00000e+00	7.267110e-07	
234	-5.05000e+00	7.270682e-07	
235	-5.10000e+00	7.274417e-07	
236	-5.15000e+00	7.278332e-07	
237	-5.20000e+00	7.282449e-07	
238	-5.25000e+00	7.286791e-07	
239	-5.30000e+00	7.291381e-07	
240	-5.35000e+00	7.296246e-07	
241	-5.40000e+00	7.301412e-07	
242	-5.45000e+00	7.306911e-07	
243	-5.50000e+00	7.312772e-07	
244	-5.55000e+00	7.319030e-07	
245	-5.60000e+00	7.325721e-07	
246	-5.65000e+00	7.332882e-07	
247	-5.70000e+00	7.340554e-07	
248	-5.75000e+00	7.348778e-07	
249	-5.80000e+00	7.357600e-07	
250	-5.85000e+00	7.367066e-07	
251	-5.90000e+00	7.377226e-07	
252	-5.95000e+00	7.388132e-07	
253	-6.00000e+00	7.399837e-07	
254	-6.05000e+00	7.412400e-07	
255	-6.10000e+00	7.425880e-07	
256	-6.15000e+00	7.440337e-07	
257	-6.20000e+00	7.455839e-07	
258	-6.25000e+00	7.472450e-07	
259	-6.30000e+00	7.490243e-07	
260	-6.35000e+00	7.509288e-07	
261	-6.40000e+00	7.529662e-07	
262	-6.45000e+00	7.551443e-07	
263	-6.50000e+00	7.574711e-07	
264	-6.55000e+00	7.599551e-07	
265	-6.60000e+00	7.626048e-07	
266	0.000000e+00	-3.07786e-22	
267	-5.00000e-02	1.470696e-07	
268	-1.00000e-01	2.892186e-07	
269	-1.50000e-01	4.264480e-07	
270	-2.00000e-01	5.587590e-07	
271	-2.50000e-01	6.861527e-07	
272	-3.00000e-01	8.086302e-07	
273	-3.50000e-01	9.261926e-07	
274	-4.00000e-01	1.038841e-06	
275	-4.50000e-01	1.146578e-06	
276	-5.00000e-01	1.249403e-06	
277	-5.50000e-01	1.347318e-06	
278	-6.00000e-01	1.440326e-06	
279	-6.50000e-01	1.528427e-06	
280	-7.00000e-01	1.611625e-06	
281	-7.50000e-01	1.689921e-06	
282	-8.00000e-01	1.763318e-06	
283	-8.50000e-01	1.831821e-06	
284	-9.00000e-01	1.895434e-06	
285	-9.50000e-01	1.954163e-06	
286	-1.00000e+00	2.008016e-06	

Index   v-sweep         i(vds)          
--------------------------------------------------------------------------------
287	-1.05000e+00	2.057006e-06	
288	-1.10000e+00	2.101149e-06	
289	-1.15000e+00	2.140472e-06	
290	-1.20000e+00	2.175014e-06	
291	-1.25000e+00	2.204838e-06	
292	-1.30000e+00	2.230046e-06	
293	-1.35000e+00	2.250807e-06	
294	-1.40000e+00	2.267391e-06	
295	-1.45000e+00	2.280213e-06	
296	-1.50000e+00	2.289851e-06	
297	-1.55000e+00	2.297000e-06	
298	-1.60000e+00	2.302352e-06	
299	-1.65000e+00	2.306485e-06	
300	-1.70000e+00	2.309815e-06	
301	-1.75000e+00	2.312617e-06	
302	-1.80000e+00	2.315060e-06	
303	-1.85000e+00	2.317252e-06	
304	-1.90000e+00	2.319260e-06	
305	-1.95000e+00	2.321127e-06	
306	-2.00000e+00	2.322883e-06	
307	-2.05000e+00	2.324550e-06	
308	-2.10000e+00	2.326142e-06	
309	-2.15000e+00	2.327671e-06	
310	-2.20000e+00	2.329145e-06	
311	-2.25000e+00	2.330572e-06	
312	-2.30000e+00	2.331956e-06	
313	-2.35000e+00	2.333303e-06	
314	-2.40000e+00	2.334615e-06	
315	-2.45000e+00	2.335897e-06	
316	-2.50000e+00	2.337151e-06	
317	-2.55000e+00	2.338379e-06	
318	-2.60000e+00	2.339584e-06	
319	-2.65000e+00	2.340766e-06	
320	-2.70000e+00	2.341929e-06	
321	-2.75000e+00	2.343072e-06	
322	-2.80000e+00	2.344198e-06	
323	-2.85000e+00	2.345308e-06	
324	-2.90000e+00	2.346402e-06	
325	-2.95000e+00	2.347482e-06	
326	-3.00000e+00	2.348547e-06	
327	-3.05000e+00	2.349600e-06	
328	-3.10000e+00	2.350641e-06	
329	-3.15000e+00	2.351670e-06	
330	-3.20000e+00	2.352689e-06	
331	-3.25000e+00	2.353697e-06	
332	-3.30000e+00	2.354694e-06	
333	-3.35000e+00	2.355683e-06	
334	-3.40000e+00	2.356662e-06	
335	-3.45000e+00	2.357633e-06	
336	-3.50000e+00	2.358596e-06	
337	-3.55000e+00	2.359551e-06	
338	-3.60000e+00	2.360498e-06	
339	-3.65000e+00	2.361438e-06	
340	-3.70000e+00	2.362372e-06	
341	-3.75000e+00	2.363298e-06	
342	-3.80000e+00	2.364219e-06	
343	-3.85000e+00	2.365133e-06	
344	-3.90000e+00	2.366041e-06	

Index   v-sweep         i(vds)          
--------------------------------------------------------------------------------
345	-3.95000e+00	2.366943e-06	
346	-4.00000e+00	2.367840e-06	
347	-4.05000e+00	2.368732e-06	
348	-4.10000e+00	2.369619e-06	
349	-4.15000e+00	2.370501e-06	
350	-4.20000e+00	2.371379e-06	
351	-4.25000e+00	2.372252e-06	
352	-4.30000e+00	2.373120e-06	
353	-4.35000e+00	2.373985e-06	
354	-4.40000e+00	2.374846e-06	
355	-4.45000e+00	2.375704e-06	
356	-4.50000e+00	2.376558e-06	
357	-4.55000e+00	2.377410e-06	
358	-4.60000e+00	2.378259e-06	
359	-4.65000e+00	2.379107e-06	
360	-4.70000e+00	2.379952e-06	
361	-4.75000e+00	2.380797e-06	
362	-4.80000e+00	2.381641e-06	
363	-4.85000e+00	2.382486e-06	
364	-4.90000e+00	2.383332e-06	
365	-4.95000e+00	2.384180e-06	
366	-5.00000e+00	2.385031e-06	
367	-5.05000e+00	2.385887e-06	
368	-5.10000e+00	2.386748e-06	
369	-5.15000e+00	2.387617e-06	
370	-5.20000e+00	2.388496e-06	
371	-5.25000e+00	2.389385e-06	
372	-5.30000e+00	2.390288e-06	
373	-5.35000e+00	2.391207e-06	
374	-5.40000e+00	2.392145e-06	
375	-5.45000e+00	2.393105e-06	
376	-5.50000e+00	2.394090e-06	
377	-5.55000e+00	2.395105e-06	
378	-5.60000e+00	2.396152e-06	
379	-5.65000e+00	2.397237e-06	
380	-5.70000e+00	2.398366e-06	
381	-5.75000e+00	2.399542e-06	
382	-5.80000e+00	2.400773e-06	
383	-5.85000e+00	2.402064e-06	
384	-5.90000e+00	2.403422e-06	
385	-5.95000e+00	2.404855e-06	
386	-6.00000e+00	2.406371e-06	
387	-6.05000e+00	2.407978e-06	
388	-6.10000e+00	2.409686e-06	
389	-6.15000e+00	2.411505e-06	
390	-6.20000e+00	2.413444e-06	
391	-6.25000e+00	2.415515e-06	
392	-6.30000e+00	2.417730e-06	
393	-6.35000e+00	2.420101e-06	
394	-6.40000e+00	2.422643e-06	
395	-6.45000e+00	2.425367e-06	
396	-6.50000e+00	2.428291e-06	
397	-6.55000e+00	2.431428e-06	
398	-6.60000e+00	2.434796e-06	
399	0.000000e+00	9.012686e-22	
400	-5.00000e-02	2.056435e-07	
401	-1.00000e-01	4.066531e-07	
402	-1.50000e-01	6.030297e-07	

Index   v-sweep         i(vds)          
--------------------------------------------------------------------------------
403	-2.00000e-01	7.947739e-07	
404	-2.50000e-01	9.818866e-07	
405	-3.00000e-01	1.164369e-06	
406	-3.50000e-01	1.342221e-06	
407	-4.00000e-01	1.515444e-06	
408	-4.50000e-01	1.684039e-06	
409	-5.00000e-01	1.848006e-06	
410	-5.50000e-01	2.007347e-06	
411	-6.00000e-01	2.162062e-06	
412	-6.50000e-01	2.312152e-06	
413	-7.00000e-01	2.457618e-06	
414	-7.50000e-01	2.598462e-06	
415	-8.00000e-01	2.734683e-06	
416	-8.50000e-01	2.866282e-06	
417	-9.00000e-01	2.993262e-06	
418	-9.50000e-01	3.115623e-06	
419	-1.00000e+00	3.233365e-06	
420	-1.05000e+00	3.346491e-06	
421	-1.10000e+00	3.455002e-06	
422	-1.15000e+00	3.558898e-06	
423	-1.20000e+00	3.658183e-06	
424	-1.25000e+00	3.752857e-06	
425	-1.30000e+00	3.842922e-06	
426	-1.35000e+00	3.928382e-06	
427	-1.40000e+00	4.009238e-06	
428	-1.45000e+00	4.085496e-06	
429	-1.50000e+00	4.157159e-06	
430	-1.55000e+00	4.224232e-06	
431	-1.60000e+00	4.286724e-06	
432	-1.65000e+00	4.344644e-06	
433	-1.70000e+00	4.398005e-06	
434	-1.75000e+00	4.446825e-06	
435	-1.80000e+00	4.491130e-06	
436	-1.85000e+00	4.530958e-06	
437	-1.90000e+00	4.566361e-06	
438	-1.95000e+00	4.597421e-06	
439	-2.00000e+00	4.624258e-06	
440	-2.05000e+00	4.647052e-06	
441	-2.10000e+00	4.666062e-06	
442	-2.15000e+00	4.681649e-06	
443	-2.20000e+00	4.694276e-06	
444	-2.25000e+00	4.704473e-06	
445	-2.30000e+00	4.712779e-06	
446	-2.35000e+00	4.719676e-06	
447	-2.40000e+00	4.725551e-06	
448	-2.45000e+00	4.730686e-06	
449	-2.50000e+00	4.735283e-06	
450	-2.55000e+00	4.739477e-06	
451	-2.60000e+00	4.743363e-06	
452	-2.65000e+00	4.747006e-06	
453	-2.70000e+00	4.750453e-06	
454	-2.75000e+00	4.753739e-06	
455	-2.80000e+00	4.756887e-06	
456	-2.85000e+00	4.759918e-06	
457	-2.90000e+00	4.762847e-06	
458	-2.95000e+00	4.765687e-06	
459	-3.00000e+00	4.768446e-06	
460	-3.05000e+00	4.771134e-06	

Index   v-sweep         i(vds)          
--------------------------------------------------------------------------------
461	-3.10000e+00	4.773757e-06	
462	-3.15000e+00	4.776321e-06	
463	-3.20000e+00	4.778831e-06	
464	-3.25000e+00	4.781292e-06	
465	-3.30000e+00	4.783708e-06	
466	-3.35000e+00	4.786081e-06	
467	-3.40000e+00	4.788415e-06	
468	-3.45000e+00	4.790712e-06	
469	-3.50000e+00	4.792975e-06	
470	-3.55000e+00	4.795206e-06	
471	-3.60000e+00	4.797407e-06	
472	-3.65000e+00	4.799580e-06	
473	-3.70000e+00	4.801726e-06	
474	-3.75000e+00	4.803847e-06	
475	-3.80000e+00	4.805944e-06	
476	-3.85000e+00	4.808019e-06	
477	-3.90000e+00	4.810072e-06	
478	-3.95000e+00	4.812104e-06	
479	-4.00000e+00	4.814117e-06	
480	-4.05000e+00	4.816112e-06	
481	-4.10000e+00	4.818089e-06	
482	-4.15000e+00	4.820049e-06	
483	-4.20000e+00	4.821994e-06	
484	-4.25000e+00	4.823922e-06	
485	-4.30000e+00	4.825836e-06	
486	-4.35000e+00	4.827736e-06	
487	-4.40000e+00	4.829622e-06	
488	-4.45000e+00	4.831495e-06	
489	-4.50000e+00	4.833356e-06	
490	-4.55000e+00	4.835204e-06	
491	-4.60000e+00	4.837041e-06	
492	-4.65000e+00	4.838867e-06	
493	-4.70000e+00	4.840682e-06	
494	-4.75000e+00	4.842486e-06	
495	-4.80000e+00	4.844281e-06	
496	-4.85000e+00	4.846066e-06	
497	-4.90000e+00	4.847842e-06	
498	-4.95000e+00	4.849610e-06	
499	-5.00000e+00	4.851369e-06	
500	-5.05000e+00	4.853120e-06	
501	-5.10000e+00	4.854864e-06	
502	-5.15000e+00	4.856601e-06	
503	-5.20000e+00	4.858332e-06	
504	-5.25000e+00	4.860057e-06	
505	-5.30000e+00	4.861778e-06	
506	-5.35000e+00	4.863494e-06	
507	-5.40000e+00	4.865208e-06	
508	-5.45000e+00	4.866920e-06	
509	-5.50000e+00	4.868631e-06	
510	-5.55000e+00	4.870343e-06	
511	-5.60000e+00	4.872057e-06	
512	-5.65000e+00	4.873776e-06	
513	-5.70000e+00	4.875501e-06	
514	-5.75000e+00	4.877236e-06	
515	-5.80000e+00	4.878982e-06	
516	-5.85000e+00	4.880744e-06	
517	-5.90000e+00	4.882524e-06	
518	-5.95000e+00	4.884327e-06	

Index   v-sweep         i(vds)          
--------------------------------------------------------------------------------
519	-6.00000e+00	4.886157e-06	
520	-6.05000e+00	4.888020e-06	
521	-6.10000e+00	4.889920e-06	
522	-6.15000e+00	4.891865e-06	
523	-6.20000e+00	4.893861e-06	
524	-6.25000e+00	4.895916e-06	
525	-6.30000e+00	4.898038e-06	
526	-6.35000e+00	4.900237e-06	
527	-6.40000e+00	4.902522e-06	
528	-6.45000e+00	4.904905e-06	
529	-6.50000e+00	4.907397e-06	
530	-6.55000e+00	4.910012e-06	
531	-6.60000e+00	4.912762e-06	
532	0.000000e+00	1.146440e-21	
533	-5.00000e-02	2.584127e-07	
534	-1.00000e-01	5.124600e-07	
535	-1.50000e-01	7.621424e-07	
536	-2.00000e-01	1.007461e-06	
537	-2.50000e-01	1.248415e-06	
538	-3.00000e-01	1.485007e-06	
539	-3.50000e-01	1.717237e-06	
540	-4.00000e-01	1.945105e-06	
541	-4.50000e-01	2.168613e-06	
542	-5.00000e-01	2.387760e-06	
543	-5.50000e-01	2.602547e-06	
544	-6.00000e-01	2.812975e-06	
545	-6.50000e-01	3.019046e-06	
546	-7.00000e-01	3.220758e-06	
547	-7.50000e-01	3.418114e-06	
548	-8.00000e-01	3.611113e-06	
549	-8.50000e-01	3.799757e-06	
550	-9.00000e-01	3.984046e-06	
551	-9.50000e-01	4.163980e-06	
552	-1.00000e+00	4.339561e-06	
553	-1.05000e+00	4.510789e-06	
554	-1.10000e+00	4.677665e-06	
555	-1.15000e+00	4.840189e-06	
556	-1.20000e+00	4.998363e-06	
557	-1.25000e+00	5.152187e-06	
558	-1.30000e+00	5.301661e-06	
559	-1.35000e+00	5.446787e-06	
560	-1.40000e+00	5.587566e-06	
561	-1.45000e+00	5.723998e-06	
562	-1.50000e+00	5.856085e-06	
563	-1.55000e+00	5.983827e-06	
564	-1.60000e+00	6.107225e-06	
565	-1.65000e+00	6.226280e-06	
566	-1.70000e+00	6.340995e-06	
567	-1.75000e+00	6.451370e-06	
568	-1.80000e+00	6.557406e-06	
569	-1.85000e+00	6.659106e-06	
570	-1.90000e+00	6.756471e-06	
571	-1.95000e+00	6.849504e-06	
572	-2.00000e+00	6.938207e-06	
573	-2.05000e+00	7.022584e-06	
574	-2.10000e+00	7.102638e-06	
575	-2.15000e+00	7.178374e-06	
576	-2.20000e+00	7.249798e-06	

Index   v-sweep         i(vds)          
--------------------------------------------------------------------------------
577	-2.25000e+00	7.316918e-06	
578	-2.30000e+00	7.379743e-06	
579	-2.35000e+00	7.438284e-06	
580	-2.40000e+00	7.492560e-06	
581	-2.45000e+00	7.542592e-06	
582	-2.50000e+00	7.588410e-06	
583	-2.55000e+00	7.630056e-06	
584	-2.60000e+00	7.667588e-06	
585	-2.65000e+00	7.701090e-06	
586	-2.70000e+00	7.730677e-06	
587	-2.75000e+00	7.756513e-06	
588	-2.80000e+00	7.778822e-06	
589	-2.85000e+00	7.797897e-06	
590	-2.90000e+00	7.814104e-06	
591	-2.95000e+00	7.827861e-06	
592	-3.00000e+00	7.839606e-06	
593	-3.05000e+00	7.849755e-06	
594	-3.10000e+00	7.858666e-06	
595	-3.15000e+00	7.866629e-06	
596	-3.20000e+00	7.873864e-06	
597	-3.25000e+00	7.880534e-06	
598	-3.30000e+00	7.886758e-06	
599	-3.35000e+00	7.892622e-06	
600	-3.40000e+00	7.898192e-06	
601	-3.45000e+00	7.903513e-06	
602	-3.50000e+00	7.908625e-06	
603	-3.55000e+00	7.913555e-06	
604	-3.60000e+00	7.918325e-06	
605	-3.65000e+00	7.922955e-06	
606	-3.70000e+00	7.927459e-06	
607	-3.75000e+00	7.931850e-06	
608	-3.80000e+00	7.936139e-06	
609	-3.85000e+00	7.940334e-06	
610	-3.90000e+00	7.944444e-06	
611	-3.95000e+00	7.948475e-06	
612	-4.00000e+00	7.952433e-06	
613	-4.05000e+00	7.956325e-06	
614	-4.10000e+00	7.960153e-06	
615	-4.15000e+00	7.963923e-06	
616	-4.20000e+00	7.967639e-06	
617	-4.25000e+00	7.971303e-06	
618	-4.30000e+00	7.974918e-06	
619	-4.35000e+00	7.978489e-06	
620	-4.40000e+00	7.982016e-06	
621	-4.45000e+00	7.985503e-06	
622	-4.50000e+00	7.988952e-06	
623	-4.55000e+00	7.992365e-06	
624	-4.60000e+00	7.995742e-06	
625	-4.65000e+00	7.999087e-06	
626	-4.70000e+00	8.002401e-06	
627	-4.75000e+00	8.005685e-06	
628	-4.80000e+00	8.008941e-06	
629	-4.85000e+00	8.012169e-06	
630	-4.90000e+00	8.015371e-06	
631	-4.95000e+00	8.018548e-06	
632	-5.00000e+00	8.021702e-06	
633	-5.05000e+00	8.024832e-06	
634	-5.10000e+00	8.027941e-06	

Index   v-sweep         i(vds)          
--------------------------------------------------------------------------------
635	-5.15000e+00	8.031029e-06	
636	-5.20000e+00	8.034096e-06	
637	-5.25000e+00	8.037143e-06	
638	-5.30000e+00	8.040172e-06	
639	-5.35000e+00	8.043183e-06	
640	-5.40000e+00	8.046177e-06	
641	-5.45000e+00	8.049153e-06	
642	-5.50000e+00	8.052114e-06	
643	-5.55000e+00	8.055059e-06	
644	-5.60000e+00	8.057990e-06	
645	-5.65000e+00	8.060906e-06	
646	-5.70000e+00	8.063809e-06	
647	-5.75000e+00	8.066699e-06	
648	-5.80000e+00	8.069577e-06	
649	-5.85000e+00	8.072444e-06	
650	-5.90000e+00	8.075300e-06	
651	-5.95000e+00	8.078148e-06	
652	-6.00000e+00	8.080988e-06	
653	-6.05000e+00	8.083820e-06	
654	-6.10000e+00	8.086648e-06	
655	-6.15000e+00	8.089473e-06	
656	-6.20000e+00	8.092296e-06	
657	-6.25000e+00	8.095119e-06	
658	-6.30000e+00	8.097947e-06	
659	-6.35000e+00	8.100781e-06	
660	-6.40000e+00	8.103625e-06	
661	-6.45000e+00	8.106483e-06	
662	-6.50000e+00	8.109359e-06	
663	-6.55000e+00	8.112259e-06	
664	-6.60000e+00	8.115188e-06	
665	0.000000e+00	-2.03987e-31	
666	-5.00000e-02	3.063812e-07	
667	-1.00000e-01	6.086418e-07	
668	-1.50000e-01	9.067823e-07	
669	-2.00000e-01	1.200803e-06	
670	-2.50000e-01	1.490705e-06	
671	-3.00000e-01	1.776489e-06	
672	-3.50000e-01	2.058155e-06	
673	-4.00000e-01	2.335704e-06	
674	-4.50000e-01	2.609135e-06	
675	-5.00000e-01	2.878451e-06	
676	-5.50000e-01	3.143651e-06	
677	-6.00000e-01	3.404737e-06	
678	-6.50000e-01	3.661707e-06	
679	-7.00000e-01	3.914564e-06	
680	-7.50000e-01	4.163307e-06	
681	-8.00000e-01	4.407938e-06	
682	-8.50000e-01	4.648456e-06	
683	-9.00000e-01	4.884862e-06	
684	-9.50000e-01	5.117157e-06	
685	-1.00000e+00	5.345342e-06	
686	-1.05000e+00	5.569416e-06	
687	-1.10000e+00	5.789381e-06	
688	-1.15000e+00	6.005237e-06	
689	-1.20000e+00	6.216985e-06	
690	-1.25000e+00	6.424625e-06	
691	-1.30000e+00	6.628157e-06	
692	-1.35000e+00	6.827583e-06	

Index   v-sweep         i(vds)          
--------------------------------------------------------------------------------
693	-1.40000e+00	7.022903e-06	
694	-1.45000e+00	7.214117e-06	
695	-1.50000e+00	7.401226e-06	
696	-1.55000e+00	7.584231e-06	
697	-1.60000e+00	7.763132e-06	
698	-1.65000e+00	7.937930e-06	
699	-1.70000e+00	8.108625e-06	
700	-1.75000e+00	8.275218e-06	
701	-1.80000e+00	8.437711e-06	
702	-1.85000e+00	8.596102e-06	
703	-1.90000e+00	8.750394e-06	
704	-1.95000e+00	8.900587e-06	
705	-2.00000e+00	9.046682e-06	
706	-2.05000e+00	9.188679e-06	
707	-2.10000e+00	9.326580e-06	
708	-2.15000e+00	9.460384e-06	
709	-2.20000e+00	9.590094e-06	
710	-2.25000e+00	9.715711e-06	
711	-2.30000e+00	9.837235e-06	
712	-2.35000e+00	9.954668e-06	
713	-2.40000e+00	1.006801e-05	
714	-2.45000e+00	1.017727e-05	
715	-2.50000e+00	1.028243e-05	
716	-2.55000e+00	1.038352e-05	
717	-2.60000e+00	1.048052e-05	
718	-2.65000e+00	1.057344e-05	
719	-2.70000e+00	1.066229e-05	
720	-2.75000e+00	1.074706e-05	
721	-2.80000e+00	1.082776e-05	
722	-2.85000e+00	1.090440e-05	
723	-2.90000e+00	1.097699e-05	
724	-2.95000e+00	1.104553e-05	
725	-3.00000e+00	1.111003e-05	
726	-3.05000e+00	1.117051e-05	
727	-3.10000e+00	1.122699e-05	
728	-3.15000e+00	1.127948e-05	
729	-3.20000e+00	1.132802e-05	
730	-3.25000e+00	1.137265e-05	
731	-3.30000e+00	1.141343e-05	
732	-3.35000e+00	1.145042e-05	
733	-3.40000e+00	1.148374e-05	
734	-3.45000e+00	1.151351e-05	
735	-3.50000e+00	1.153992e-05	
736	-3.55000e+00	1.156320e-05	
737	-3.60000e+00	1.158363e-05	
738	-3.65000e+00	1.160154e-05	
739	-3.70000e+00	1.161730e-05	
740	-3.75000e+00	1.163125e-05	
741	-3.80000e+00	1.164374e-05	
742	-3.85000e+00	1.165506e-05	
743	-3.90000e+00	1.166543e-05	
744	-3.95000e+00	1.167506e-05	
745	-4.00000e+00	1.168408e-05	
746	-4.05000e+00	1.169260e-05	
747	-4.10000e+00	1.170072e-05	
748	-4.15000e+00	1.170848e-05	
749	-4.20000e+00	1.171594e-05	
750	-4.25000e+00	1.172315e-05	

Index   v-sweep         i(vds)          
--------------------------------------------------------------------------------
751	-4.30000e+00	1.173013e-05	
752	-4.35000e+00	1.173691e-05	
753	-4.40000e+00	1.174350e-05	
754	-4.45000e+00	1.174994e-05	
755	-4.50000e+00	1.175622e-05	
756	-4.55000e+00	1.176238e-05	
757	-4.60000e+00	1.176841e-05	
758	-4.65000e+00	1.177432e-05	
759	-4.70000e+00	1.178013e-05	
760	-4.75000e+00	1.178585e-05	
761	-4.80000e+00	1.179147e-05	
762	-4.85000e+00	1.179701e-05	
763	-4.90000e+00	1.180247e-05	
764	-4.95000e+00	1.180785e-05	
765	-5.00000e+00	1.181317e-05	
766	-5.05000e+00	1.181842e-05	
767	-5.10000e+00	1.182360e-05	
768	-5.15000e+00	1.182873e-05	
769	-5.20000e+00	1.183381e-05	
770	-5.25000e+00	1.183882e-05	
771	-5.30000e+00	1.184379e-05	
772	-5.35000e+00	1.184872e-05	
773	-5.40000e+00	1.185359e-05	
774	-5.45000e+00	1.185843e-05	
775	-5.50000e+00	1.186322e-05	
776	-5.55000e+00	1.186797e-05	
777	-5.60000e+00	1.187268e-05	
778	-5.65000e+00	1.187736e-05	
779	-5.70000e+00	1.188200e-05	
780	-5.75000e+00	1.188661e-05	
781	-5.80000e+00	1.189119e-05	
782	-5.85000e+00	1.189574e-05	
783	-5.90000e+00	1.190026e-05	
784	-5.95000e+00	1.190475e-05	
785	-6.00000e+00	1.190921e-05	
786	-6.05000e+00	1.191364e-05	
787	-6.10000e+00	1.191805e-05	
788	-6.15000e+00	1.192244e-05	
789	-6.20000e+00	1.192680e-05	
790	-6.25000e+00	1.193114e-05	
791	-6.30000e+00	1.193546e-05	
792	-6.35000e+00	1.193976e-05	
793	-6.40000e+00	1.194403e-05	
794	-6.45000e+00	1.194829e-05	
795	-6.50000e+00	1.195253e-05	
796	-6.55000e+00	1.195676e-05	
797	-6.60000e+00	1.196097e-05	
Note: No ".plot", ".print", or ".fourier" lines; no simulations run
