
Note: Compatibility modes selected: hs

Warning: m=xx on .subckt line will override multiplier m hierarchy!


Circuit: ***************************

Doing analysis at TEMP = -40.000000 and TNOM = -40.000000


No. of Data Rows : 798
                          ***************************
                          DC transfer characteristic  Mon Jan  9 13:58:50  2023
--------------------------------------------------------------------------------
Index   v-sweep         i(vds)          
--------------------------------------------------------------------------------
0	0.000000e+00	6.621158e-23	
1	-5.00000e-02	1.027029e-07	
2	-1.00000e-01	1.557320e-07	
3	-1.50000e-01	1.744815e-07	
4	-2.00000e-01	1.809561e-07	
5	-2.50000e-01	1.847063e-07	
6	-3.00000e-01	1.876942e-07	
7	-3.50000e-01	1.903497e-07	
8	-4.00000e-01	1.928062e-07	
9	-4.50000e-01	1.951200e-07	
10	-5.00000e-01	1.973215e-07	
11	-5.50000e-01	1.994297e-07	
12	-6.00000e-01	2.014583e-07	
13	-6.50000e-01	2.034174e-07	
14	-7.00000e-01	2.053151e-07	
15	-7.50000e-01	2.071580e-07	
16	-8.00000e-01	2.089518e-07	
17	-8.50000e-01	2.107011e-07	
18	-9.00000e-01	2.124099e-07	
19	-9.50000e-01	2.140818e-07	
20	-1.00000e+00	2.157199e-07	
21	-1.05000e+00	2.173269e-07	
22	-1.10000e+00	2.189052e-07	
23	-1.15000e+00	2.204571e-07	
24	-1.20000e+00	2.219843e-07	
25	-1.25000e+00	2.234887e-07	
26	-1.30000e+00	2.249719e-07	
27	-1.35000e+00	2.264353e-07	
28	-1.40000e+00	2.278801e-07	
29	-1.45000e+00	2.293075e-07	
30	-1.50000e+00	2.307187e-07	
31	-1.55000e+00	2.321147e-07	
32	-1.60000e+00	2.334963e-07	
33	-1.65000e+00	2.348644e-07	
34	-1.70000e+00	2.362198e-07	
35	-1.75000e+00	2.375632e-07	
36	-1.80000e+00	2.388952e-07	
37	-1.85000e+00	2.402166e-07	
38	-1.90000e+00	2.415278e-07	
39	-1.95000e+00	2.428294e-07	
40	-2.00000e+00	2.441219e-07	
41	-2.05000e+00	2.454058e-07	
42	-2.10000e+00	2.466816e-07	
43	-2.15000e+00	2.479496e-07	
44	-2.20000e+00	2.492102e-07	
45	-2.25000e+00	2.504638e-07	
46	-2.30000e+00	2.517107e-07	
47	-2.35000e+00	2.529513e-07	
48	-2.40000e+00	2.541858e-07	
49	-2.45000e+00	2.554146e-07	
50	-2.50000e+00	2.566380e-07	
51	-2.55000e+00	2.578561e-07	
52	-2.60000e+00	2.590692e-07	
53	-2.65000e+00	2.602777e-07	
54	-2.70000e+00	2.614816e-07	

Index   v-sweep         i(vds)          
--------------------------------------------------------------------------------
55	-2.75000e+00	2.626812e-07	
56	-2.80000e+00	2.638767e-07	
57	-2.85000e+00	2.650683e-07	
58	-2.90000e+00	2.662561e-07	
59	-2.95000e+00	2.674405e-07	
60	-3.00000e+00	2.686214e-07	
61	-3.05000e+00	2.697992e-07	
62	-3.10000e+00	2.709739e-07	
63	-3.15000e+00	2.721458e-07	
64	-3.20000e+00	2.733149e-07	
65	-3.25000e+00	2.744815e-07	
66	-3.30000e+00	2.756457e-07	
67	-3.35000e+00	2.768076e-07	
68	-3.40000e+00	2.779675e-07	
69	-3.45000e+00	2.791255e-07	
70	-3.50000e+00	2.802817e-07	
71	-3.55000e+00	2.814364e-07	
72	-3.60000e+00	2.825898e-07	
73	-3.65000e+00	2.837420e-07	
74	-3.70000e+00	2.848933e-07	
75	-3.75000e+00	2.860439e-07	
76	-3.80000e+00	2.871941e-07	
77	-3.85000e+00	2.883442e-07	
78	-3.90000e+00	2.894945e-07	
79	-3.95000e+00	2.906452e-07	
80	-4.00000e+00	2.917969e-07	
81	-4.05000e+00	2.929498e-07	
82	-4.10000e+00	2.941044e-07	
83	-4.15000e+00	2.952612e-07	
84	-4.20000e+00	2.964207e-07	
85	-4.25000e+00	2.975834e-07	
86	-4.30000e+00	2.987500e-07	
87	-4.35000e+00	2.999212e-07	
88	-4.40000e+00	3.010976e-07	
89	-4.45000e+00	3.022801e-07	
90	-4.50000e+00	3.034696e-07	
91	-4.55000e+00	3.046668e-07	
92	-4.60000e+00	3.058730e-07	
93	-4.65000e+00	3.070890e-07	
94	-4.70000e+00	3.083161e-07	
95	-4.75000e+00	3.095556e-07	
96	-4.80000e+00	3.108087e-07	
97	-4.85000e+00	3.120769e-07	
98	-4.90000e+00	3.133617e-07	
99	-4.95000e+00	3.146648e-07	
100	-5.00000e+00	3.159878e-07	
101	-5.05000e+00	3.173327e-07	
102	-5.10000e+00	3.187013e-07	
103	-5.15000e+00	3.200958e-07	
104	-5.20000e+00	3.215183e-07	
105	-5.25000e+00	3.229712e-07	
106	-5.30000e+00	3.244570e-07	
107	-5.35000e+00	3.259781e-07	
108	-5.40000e+00	3.275373e-07	
109	-5.45000e+00	3.291375e-07	
110	-5.50000e+00	3.307817e-07	
111	-5.55000e+00	3.324730e-07	
112	-5.60000e+00	3.342148e-07	

Index   v-sweep         i(vds)          
--------------------------------------------------------------------------------
113	-5.65000e+00	3.360103e-07	
114	-5.70000e+00	3.378633e-07	
115	-5.75000e+00	3.397775e-07	
116	-5.80000e+00	3.417568e-07	
117	-5.85000e+00	3.438053e-07	
118	-5.90000e+00	3.459271e-07	
119	-5.95000e+00	3.481268e-07	
120	-6.00000e+00	3.504089e-07	
121	-6.05000e+00	3.527781e-07	
122	-6.10000e+00	3.552393e-07	
123	-6.15000e+00	3.577977e-07	
124	-6.20000e+00	3.604584e-07	
125	-6.25000e+00	3.632270e-07	
126	-6.30000e+00	3.661089e-07	
127	-6.35000e+00	3.691101e-07	
128	-6.40000e+00	3.722365e-07	
129	-6.45000e+00	3.754941e-07	
130	-6.50000e+00	3.788895e-07	
131	-6.55000e+00	3.824290e-07	
132	-6.60000e+00	3.861194e-07	
133	0.000000e+00	-5.24983e-37	
134	-5.00000e-02	9.918208e-07	
135	-1.00000e-01	1.917865e-06	
136	-1.50000e-01	2.779094e-06	
137	-2.00000e-01	3.576464e-06	
138	-2.50000e-01	4.310926e-06	
139	-3.00000e-01	4.983428e-06	
140	-3.50000e-01	5.594922e-06	
141	-4.00000e-01	6.146374e-06	
142	-4.50000e-01	6.638786e-06	
143	-5.00000e-01	7.073228e-06	
144	-5.50000e-01	7.450920e-06	
145	-6.00000e-01	7.773386e-06	
146	-6.50000e-01	8.042785e-06	
147	-7.00000e-01	8.262564e-06	
148	-7.50000e-01	8.438400e-06	
149	-8.00000e-01	8.578698e-06	
150	-8.50000e-01	8.693186e-06	
151	-9.00000e-01	8.790195e-06	
152	-9.50000e-01	8.875326e-06	
153	-1.00000e+00	8.951934e-06	
154	-1.05000e+00	9.022040e-06	
155	-1.10000e+00	9.086932e-06	
156	-1.15000e+00	9.147499e-06	
157	-1.20000e+00	9.204389e-06	
158	-1.25000e+00	9.258099e-06	
159	-1.30000e+00	9.309022e-06	
160	-1.35000e+00	9.357480e-06	
161	-1.40000e+00	9.403736e-06	
162	-1.45000e+00	9.448015e-06	
163	-1.50000e+00	9.490506e-06	
164	-1.55000e+00	9.531371e-06	
165	-1.60000e+00	9.570754e-06	
166	-1.65000e+00	9.608776e-06	
167	-1.70000e+00	9.645547e-06	
168	-1.75000e+00	9.681163e-06	
169	-1.80000e+00	9.715709e-06	
170	-1.85000e+00	9.749262e-06	

Index   v-sweep         i(vds)          
--------------------------------------------------------------------------------
171	-1.90000e+00	9.781889e-06	
172	-1.95000e+00	9.813652e-06	
173	-2.00000e+00	9.844608e-06	
174	-2.05000e+00	9.874805e-06	
175	-2.10000e+00	9.904291e-06	
176	-2.15000e+00	9.933107e-06	
177	-2.20000e+00	9.961291e-06	
178	-2.25000e+00	9.988878e-06	
179	-2.30000e+00	1.001590e-05	
180	-2.35000e+00	1.004239e-05	
181	-2.40000e+00	1.006837e-05	
182	-2.45000e+00	1.009387e-05	
183	-2.50000e+00	1.011891e-05	
184	-2.55000e+00	1.014352e-05	
185	-2.60000e+00	1.016771e-05	
186	-2.65000e+00	1.019150e-05	
187	-2.70000e+00	1.021492e-05	
188	-2.75000e+00	1.023797e-05	
189	-2.80000e+00	1.026067e-05	
190	-2.85000e+00	1.028305e-05	
191	-2.90000e+00	1.030510e-05	
192	-2.95000e+00	1.032685e-05	
193	-3.00000e+00	1.034831e-05	
194	-3.05000e+00	1.036948e-05	
195	-3.10000e+00	1.039038e-05	
196	-3.15000e+00	1.041102e-05	
197	-3.20000e+00	1.043141e-05	
198	-3.25000e+00	1.045156e-05	
199	-3.30000e+00	1.047147e-05	
200	-3.35000e+00	1.049116e-05	
201	-3.40000e+00	1.051063e-05	
202	-3.45000e+00	1.052989e-05	
203	-3.50000e+00	1.054894e-05	
204	-3.55000e+00	1.056781e-05	
205	-3.60000e+00	1.058648e-05	
206	-3.65000e+00	1.060497e-05	
207	-3.70000e+00	1.062328e-05	
208	-3.75000e+00	1.064142e-05	
209	-3.80000e+00	1.065940e-05	
210	-3.85000e+00	1.067721e-05	
211	-3.90000e+00	1.069488e-05	
212	-3.95000e+00	1.071240e-05	
213	-4.00000e+00	1.072977e-05	
214	-4.05000e+00	1.074702e-05	
215	-4.10000e+00	1.076413e-05	
216	-4.15000e+00	1.078112e-05	
217	-4.20000e+00	1.079800e-05	
218	-4.25000e+00	1.081476e-05	
219	-4.30000e+00	1.083143e-05	
220	-4.35000e+00	1.084800e-05	
221	-4.40000e+00	1.086449e-05	
222	-4.45000e+00	1.088090e-05	
223	-4.50000e+00	1.089725e-05	
224	-4.55000e+00	1.091355e-05	
225	-4.60000e+00	1.092980e-05	
226	-4.65000e+00	1.094603e-05	
227	-4.70000e+00	1.096223e-05	
228	-4.75000e+00	1.097844e-05	

Index   v-sweep         i(vds)          
--------------------------------------------------------------------------------
229	-4.80000e+00	1.099467e-05	
230	-4.85000e+00	1.101093e-05	
231	-4.90000e+00	1.102724e-05	
232	-4.95000e+00	1.104363e-05	
233	-5.00000e+00	1.106012e-05	
234	-5.05000e+00	1.107674e-05	
235	-5.10000e+00	1.109350e-05	
236	-5.15000e+00	1.111045e-05	
237	-5.20000e+00	1.112760e-05	
238	-5.25000e+00	1.114500e-05	
239	-5.30000e+00	1.116268e-05	
240	-5.35000e+00	1.118068e-05	
241	-5.40000e+00	1.119905e-05	
242	-5.45000e+00	1.121782e-05	
243	-5.50000e+00	1.123704e-05	
244	-5.55000e+00	1.125677e-05	
245	-5.60000e+00	1.127705e-05	
246	-5.65000e+00	1.129795e-05	
247	-5.70000e+00	1.131952e-05	
248	-5.75000e+00	1.134183e-05	
249	-5.80000e+00	1.136495e-05	
250	-5.85000e+00	1.138894e-05	
251	-5.90000e+00	1.141388e-05	
252	-5.95000e+00	1.143986e-05	
253	-6.00000e+00	1.146694e-05	
254	-6.05000e+00	1.149521e-05	
255	-6.10000e+00	1.152478e-05	
256	-6.15000e+00	1.155573e-05	
257	-6.20000e+00	1.158815e-05	
258	-6.25000e+00	1.162216e-05	
259	-6.30000e+00	1.165785e-05	
260	-6.35000e+00	1.169535e-05	
261	-6.40000e+00	1.173475e-05	
262	-6.45000e+00	1.177620e-05	
263	-6.50000e+00	1.181980e-05	
264	-6.55000e+00	1.186568e-05	
265	-6.60000e+00	1.191399e-05	
266	0.000000e+00	-1.14431e-22	
267	-5.00000e-02	1.639437e-06	
268	-1.00000e-01	3.217333e-06	
269	-1.50000e-01	4.734349e-06	
270	-2.00000e-01	6.191140e-06	
271	-2.50000e-01	7.588358e-06	
272	-3.00000e-01	8.926652e-06	
273	-3.50000e-01	1.020667e-05	
274	-4.00000e-01	1.142904e-05	
275	-4.50000e-01	1.259440e-05	
276	-5.00000e-01	1.370340e-05	
277	-5.50000e-01	1.475665e-05	
278	-6.00000e-01	1.575479e-05	
279	-6.50000e-01	1.669843e-05	
280	-7.00000e-01	1.758821e-05	
281	-7.50000e-01	1.842474e-05	
282	-8.00000e-01	1.920866e-05	
283	-8.50000e-01	1.994059e-05	
284	-9.00000e-01	2.062119e-05	
285	-9.50000e-01	2.125112e-05	
286	-1.00000e+00	2.183112e-05	

Index   v-sweep         i(vds)          
--------------------------------------------------------------------------------
287	-1.05000e+00	2.236195e-05	
288	-1.10000e+00	2.284455e-05	
289	-1.15000e+00	2.328004e-05	
290	-1.20000e+00	2.366997e-05	
291	-1.25000e+00	2.401649e-05	
292	-1.30000e+00	2.432273e-05	
293	-1.35000e+00	2.459290e-05	
294	-1.40000e+00	2.483207e-05	
295	-1.45000e+00	2.504550e-05	
296	-1.50000e+00	2.523787e-05	
297	-1.55000e+00	2.541300e-05	
298	-1.60000e+00	2.557387e-05	
299	-1.65000e+00	2.572277e-05	
300	-1.70000e+00	2.586149e-05	
301	-1.75000e+00	2.599144e-05	
302	-1.80000e+00	2.611378e-05	
303	-1.85000e+00	2.622941e-05	
304	-1.90000e+00	2.633911e-05	
305	-1.95000e+00	2.644353e-05	
306	-2.00000e+00	2.654321e-05	
307	-2.05000e+00	2.663860e-05	
308	-2.10000e+00	2.673012e-05	
309	-2.15000e+00	2.681811e-05	
310	-2.20000e+00	2.690286e-05	
311	-2.25000e+00	2.698465e-05	
312	-2.30000e+00	2.706370e-05	
313	-2.35000e+00	2.714023e-05	
314	-2.40000e+00	2.721441e-05	
315	-2.45000e+00	2.728642e-05	
316	-2.50000e+00	2.735641e-05	
317	-2.55000e+00	2.742449e-05	
318	-2.60000e+00	2.749081e-05	
319	-2.65000e+00	2.755546e-05	
320	-2.70000e+00	2.761855e-05	
321	-2.75000e+00	2.768017e-05	
322	-2.80000e+00	2.774040e-05	
323	-2.85000e+00	2.779932e-05	
324	-2.90000e+00	2.785700e-05	
325	-2.95000e+00	2.791350e-05	
326	-3.00000e+00	2.796888e-05	
327	-3.05000e+00	2.802321e-05	
328	-3.10000e+00	2.807653e-05	
329	-3.15000e+00	2.812888e-05	
330	-3.20000e+00	2.818032e-05	
331	-3.25000e+00	2.823089e-05	
332	-3.30000e+00	2.828062e-05	
333	-3.35000e+00	2.832955e-05	
334	-3.40000e+00	2.837772e-05	
335	-3.45000e+00	2.842515e-05	
336	-3.50000e+00	2.847189e-05	
337	-3.55000e+00	2.851794e-05	
338	-3.60000e+00	2.856335e-05	
339	-3.65000e+00	2.860814e-05	
340	-3.70000e+00	2.865232e-05	
341	-3.75000e+00	2.869593e-05	
342	-3.80000e+00	2.873898e-05	
343	-3.85000e+00	2.878150e-05	
344	-3.90000e+00	2.882350e-05	

Index   v-sweep         i(vds)          
--------------------------------------------------------------------------------
345	-3.95000e+00	2.886500e-05	
346	-4.00000e+00	2.890602e-05	
347	-4.05000e+00	2.894658e-05	
348	-4.10000e+00	2.898669e-05	
349	-4.15000e+00	2.902636e-05	
350	-4.20000e+00	2.906562e-05	
351	-4.25000e+00	2.910447e-05	
352	-4.30000e+00	2.914293e-05	
353	-4.35000e+00	2.918102e-05	
354	-4.40000e+00	2.921874e-05	
355	-4.45000e+00	2.925611e-05	
356	-4.50000e+00	2.929315e-05	
357	-4.55000e+00	2.932987e-05	
358	-4.60000e+00	2.936629e-05	
359	-4.65000e+00	2.940241e-05	
360	-4.70000e+00	2.943825e-05	
361	-4.75000e+00	2.947384e-05	
362	-4.80000e+00	2.950918e-05	
363	-4.85000e+00	2.954430e-05	
364	-4.90000e+00	2.957922e-05	
365	-4.95000e+00	2.961395e-05	
366	-5.00000e+00	2.964852e-05	
367	-5.05000e+00	2.968296e-05	
368	-5.10000e+00	2.971729e-05	
369	-5.15000e+00	2.975155e-05	
370	-5.20000e+00	2.978576e-05	
371	-5.25000e+00	2.981996e-05	
372	-5.30000e+00	2.985419e-05	
373	-5.35000e+00	2.988849e-05	
374	-5.40000e+00	2.992291e-05	
375	-5.45000e+00	2.995750e-05	
376	-5.50000e+00	2.999232e-05	
377	-5.55000e+00	3.002741e-05	
378	-5.60000e+00	3.006285e-05	
379	-5.65000e+00	3.009872e-05	
380	-5.70000e+00	3.013507e-05	
381	-5.75000e+00	3.017199e-05	
382	-5.80000e+00	3.020958e-05	
383	-5.85000e+00	3.024793e-05	
384	-5.90000e+00	3.028713e-05	
385	-5.95000e+00	3.032729e-05	
386	-6.00000e+00	3.036853e-05	
387	-6.05000e+00	3.041098e-05	
388	-6.10000e+00	3.045476e-05	
389	-6.15000e+00	3.050001e-05	
390	-6.20000e+00	3.054688e-05	
391	-6.25000e+00	3.059553e-05	
392	-6.30000e+00	3.064612e-05	
393	-6.35000e+00	3.069883e-05	
394	-6.40000e+00	3.075384e-05	
395	-6.45000e+00	3.081134e-05	
396	-6.50000e+00	3.087154e-05	
397	-6.55000e+00	3.093465e-05	
398	-6.60000e+00	3.100090e-05	
399	0.000000e+00	-3.73219e-38	
400	-5.00000e-02	2.140318e-06	
401	-1.00000e-01	4.223916e-06	
402	-1.50000e-01	6.251265e-06	

Index   v-sweep         i(vds)          
--------------------------------------------------------------------------------
403	-2.00000e-01	8.222837e-06	
404	-2.50000e-01	1.013910e-05	
405	-3.00000e-01	1.200052e-05	
406	-3.50000e-01	1.380756e-05	
407	-4.00000e-01	1.556070e-05	
408	-4.50000e-01	1.726038e-05	
409	-5.00000e-01	1.890707e-05	
410	-5.50000e-01	2.050123e-05	
411	-6.00000e-01	2.204331e-05	
412	-6.50000e-01	2.353378e-05	
413	-7.00000e-01	2.497307e-05	
414	-7.50000e-01	2.636165e-05	
415	-8.00000e-01	2.769996e-05	
416	-8.50000e-01	2.898844e-05	
417	-9.00000e-01	3.022755e-05	
418	-9.50000e-01	3.141773e-05	
419	-1.00000e+00	3.255941e-05	
420	-1.05000e+00	3.365304e-05	
421	-1.10000e+00	3.469907e-05	
422	-1.15000e+00	3.569792e-05	
423	-1.20000e+00	3.665004e-05	
424	-1.25000e+00	3.755587e-05	
425	-1.30000e+00	3.841586e-05	
426	-1.35000e+00	3.923046e-05	
427	-1.40000e+00	4.000012e-05	
428	-1.45000e+00	4.072532e-05	
429	-1.50000e+00	4.140656e-05	
430	-1.55000e+00	4.204435e-05	
431	-1.60000e+00	4.263929e-05	
432	-1.65000e+00	4.319204e-05	
433	-1.70000e+00	4.370343e-05	
434	-1.75000e+00	4.417448e-05	
435	-1.80000e+00	4.460661e-05	
436	-1.85000e+00	4.500171e-05	
437	-1.90000e+00	4.536229e-05	
438	-1.95000e+00	4.569141e-05	
439	-2.00000e+00	4.599245e-05	
440	-2.05000e+00	4.626886e-05	
441	-2.10000e+00	4.652383e-05	
442	-2.15000e+00	4.676022e-05	
443	-2.20000e+00	4.698046e-05	
444	-2.25000e+00	4.718663e-05	
445	-2.30000e+00	4.738046e-05	
446	-2.35000e+00	4.756341e-05	
447	-2.40000e+00	4.773671e-05	
448	-2.45000e+00	4.790140e-05	
449	-2.50000e+00	4.805837e-05	
450	-2.55000e+00	4.820839e-05	
451	-2.60000e+00	4.835211e-05	
452	-2.65000e+00	4.849010e-05	
453	-2.70000e+00	4.862286e-05	
454	-2.75000e+00	4.875083e-05	
455	-2.80000e+00	4.887438e-05	
456	-2.85000e+00	4.899387e-05	
457	-2.90000e+00	4.910959e-05	
458	-2.95000e+00	4.922181e-05	
459	-3.00000e+00	4.933079e-05	
460	-3.05000e+00	4.943672e-05	

Index   v-sweep         i(vds)          
--------------------------------------------------------------------------------
461	-3.10000e+00	4.953983e-05	
462	-3.15000e+00	4.964028e-05	
463	-3.20000e+00	4.973823e-05	
464	-3.25000e+00	4.983384e-05	
465	-3.30000e+00	4.992723e-05	
466	-3.35000e+00	5.001855e-05	
467	-3.40000e+00	5.010789e-05	
468	-3.45000e+00	5.019536e-05	
469	-3.50000e+00	5.028107e-05	
470	-3.55000e+00	5.036510e-05	
471	-3.60000e+00	5.044753e-05	
472	-3.65000e+00	5.052844e-05	
473	-3.70000e+00	5.060790e-05	
474	-3.75000e+00	5.068599e-05	
475	-3.80000e+00	5.076275e-05	
476	-3.85000e+00	5.083826e-05	
477	-3.90000e+00	5.091256e-05	
478	-3.95000e+00	5.098571e-05	
479	-4.00000e+00	5.105774e-05	
480	-4.05000e+00	5.112872e-05	
481	-4.10000e+00	5.119868e-05	
482	-4.15000e+00	5.126766e-05	
483	-4.20000e+00	5.133570e-05	
484	-4.25000e+00	5.140283e-05	
485	-4.30000e+00	5.146909e-05	
486	-4.35000e+00	5.153450e-05	
487	-4.40000e+00	5.159911e-05	
488	-4.45000e+00	5.166294e-05	
489	-4.50000e+00	5.172601e-05	
490	-4.55000e+00	5.178836e-05	
491	-4.60000e+00	5.185000e-05	
492	-4.65000e+00	5.191097e-05	
493	-4.70000e+00	5.197128e-05	
494	-4.75000e+00	5.203096e-05	
495	-4.80000e+00	5.209003e-05	
496	-4.85000e+00	5.214851e-05	
497	-4.90000e+00	5.220642e-05	
498	-4.95000e+00	5.226379e-05	
499	-5.00000e+00	5.232064e-05	
500	-5.05000e+00	5.237699e-05	
501	-5.10000e+00	5.243286e-05	
502	-5.15000e+00	5.248827e-05	
503	-5.20000e+00	5.254326e-05	
504	-5.25000e+00	5.259785e-05	
505	-5.30000e+00	5.265206e-05	
506	-5.35000e+00	5.270592e-05	
507	-5.40000e+00	5.275947e-05	
508	-5.45000e+00	5.281274e-05	
509	-5.50000e+00	5.286577e-05	
510	-5.55000e+00	5.291860e-05	
511	-5.60000e+00	5.297128e-05	
512	-5.65000e+00	5.302385e-05	
513	-5.70000e+00	5.307636e-05	
514	-5.75000e+00	5.312889e-05	
515	-5.80000e+00	5.318148e-05	
516	-5.85000e+00	5.323422e-05	
517	-5.90000e+00	5.328717e-05	
518	-5.95000e+00	5.334043e-05	

Index   v-sweep         i(vds)          
--------------------------------------------------------------------------------
519	-6.00000e+00	5.339408e-05	
520	-6.05000e+00	5.344822e-05	
521	-6.10000e+00	5.350297e-05	
522	-6.15000e+00	5.355843e-05	
523	-6.20000e+00	5.361474e-05	
524	-6.25000e+00	5.367203e-05	
525	-6.30000e+00	5.373045e-05	
526	-6.35000e+00	5.379016e-05	
527	-6.40000e+00	5.385133e-05	
528	-6.45000e+00	5.391414e-05	
529	-6.50000e+00	5.397879e-05	
530	-6.55000e+00	5.404548e-05	
531	-6.60000e+00	5.411445e-05	
532	0.000000e+00	5.793583e-37	
533	-5.00000e-02	2.547836e-06	
534	-1.00000e-01	5.043393e-06	
535	-1.50000e-01	7.487020e-06	
536	-2.00000e-01	9.879065e-06	
537	-2.50000e-01	1.221988e-05	
538	-3.00000e-01	1.450980e-05	
539	-3.50000e-01	1.674919e-05	
540	-4.00000e-01	1.893838e-05	
541	-4.50000e-01	2.107773e-05	
542	-5.00000e-01	2.316758e-05	
543	-5.50000e-01	2.520827e-05	
544	-6.00000e-01	2.720015e-05	
545	-6.50000e-01	2.914355e-05	
546	-7.00000e-01	3.103883e-05	
547	-7.50000e-01	3.288632e-05	
548	-8.00000e-01	3.468636e-05	
549	-8.50000e-01	3.643929e-05	
550	-9.00000e-01	3.814546e-05	
551	-9.50000e-01	3.980518e-05	
552	-1.00000e+00	4.141882e-05	
553	-1.05000e+00	4.298668e-05	
554	-1.10000e+00	4.450913e-05	
555	-1.15000e+00	4.598647e-05	
556	-1.20000e+00	4.741905e-05	
557	-1.25000e+00	4.880720e-05	
558	-1.30000e+00	5.015125e-05	
559	-1.35000e+00	5.145152e-05	
560	-1.40000e+00	5.270834e-05	
561	-1.45000e+00	5.392205e-05	
562	-1.50000e+00	5.509296e-05	
563	-1.55000e+00	5.622141e-05	
564	-1.60000e+00	5.730772e-05	
565	-1.65000e+00	5.835221e-05	
566	-1.70000e+00	5.935521e-05	
567	-1.75000e+00	6.031703e-05	
568	-1.80000e+00	6.123802e-05	
569	-1.85000e+00	6.211848e-05	
570	-1.90000e+00	6.295874e-05	
571	-1.95000e+00	6.375913e-05	
572	-2.00000e+00	6.451996e-05	
573	-2.05000e+00	6.524155e-05	
574	-2.10000e+00	6.592422e-05	
575	-2.15000e+00	6.656826e-05	
576	-2.20000e+00	6.717400e-05	

Index   v-sweep         i(vds)          
--------------------------------------------------------------------------------
577	-2.25000e+00	6.774177e-05	
578	-2.30000e+00	6.827204e-05	
579	-2.35000e+00	6.876552e-05	
580	-2.40000e+00	6.922335e-05	
581	-2.45000e+00	6.964723e-05	
582	-2.50000e+00	7.003948e-05	
583	-2.55000e+00	7.040283e-05	
584	-2.60000e+00	7.074018e-05	
585	-2.65000e+00	7.105438e-05	
586	-2.70000e+00	7.134806e-05	
587	-2.75000e+00	7.162358e-05	
588	-2.80000e+00	7.188302e-05	
589	-2.85000e+00	7.212817e-05	
590	-2.90000e+00	7.236056e-05	
591	-2.95000e+00	7.258154e-05	
592	-3.00000e+00	7.279224e-05	
593	-3.05000e+00	7.299365e-05	
594	-3.10000e+00	7.318666e-05	
595	-3.15000e+00	7.337199e-05	
596	-3.20000e+00	7.355032e-05	
597	-3.25000e+00	7.372222e-05	
598	-3.30000e+00	7.388820e-05	
599	-3.35000e+00	7.404873e-05	
600	-3.40000e+00	7.420421e-05	
601	-3.45000e+00	7.435499e-05	
602	-3.50000e+00	7.450141e-05	
603	-3.55000e+00	7.464376e-05	
604	-3.60000e+00	7.478231e-05	
605	-3.65000e+00	7.491729e-05	
606	-3.70000e+00	7.504892e-05	
607	-3.75000e+00	7.517741e-05	
608	-3.80000e+00	7.530293e-05	
609	-3.85000e+00	7.542565e-05	
610	-3.90000e+00	7.554573e-05	
611	-3.95000e+00	7.566331e-05	
612	-4.00000e+00	7.577851e-05	
613	-4.05000e+00	7.589146e-05	
614	-4.10000e+00	7.600227e-05	
615	-4.15000e+00	7.611105e-05	
616	-4.20000e+00	7.621788e-05	
617	-4.25000e+00	7.632287e-05	
618	-4.30000e+00	7.642608e-05	
619	-4.35000e+00	7.652761e-05	
620	-4.40000e+00	7.662753e-05	
621	-4.45000e+00	7.672589e-05	
622	-4.50000e+00	7.682278e-05	
623	-4.55000e+00	7.691824e-05	
624	-4.60000e+00	7.701234e-05	
625	-4.65000e+00	7.710513e-05	
626	-4.70000e+00	7.719665e-05	
627	-4.75000e+00	7.728696e-05	
628	-4.80000e+00	7.737611e-05	
629	-4.85000e+00	7.746413e-05	
630	-4.90000e+00	7.755106e-05	
631	-4.95000e+00	7.763695e-05	
632	-5.00000e+00	7.772183e-05	
633	-5.05000e+00	7.780574e-05	
634	-5.10000e+00	7.788871e-05	

Index   v-sweep         i(vds)          
--------------------------------------------------------------------------------
635	-5.15000e+00	7.797077e-05	
636	-5.20000e+00	7.805195e-05	
637	-5.25000e+00	7.813229e-05	
638	-5.30000e+00	7.821182e-05	
639	-5.35000e+00	7.829056e-05	
640	-5.40000e+00	7.836854e-05	
641	-5.45000e+00	7.844580e-05	
642	-5.50000e+00	7.852237e-05	
643	-5.55000e+00	7.859826e-05	
644	-5.60000e+00	7.867353e-05	
645	-5.65000e+00	7.874819e-05	
646	-5.70000e+00	7.882229e-05	
647	-5.75000e+00	7.889585e-05	
648	-5.80000e+00	7.896893e-05	
649	-5.85000e+00	7.904155e-05	
650	-5.90000e+00	7.911377e-05	
651	-5.95000e+00	7.918564e-05	
652	-6.00000e+00	7.925721e-05	
653	-6.05000e+00	7.932853e-05	
654	-6.10000e+00	7.939968e-05	
655	-6.15000e+00	7.947072e-05	
656	-6.20000e+00	7.954174e-05	
657	-6.25000e+00	7.961281e-05	
658	-6.30000e+00	7.968403e-05	
659	-6.35000e+00	7.975551e-05	
660	-6.40000e+00	7.982735e-05	
661	-6.45000e+00	7.989967e-05	
662	-6.50000e+00	7.997262e-05	
663	-6.55000e+00	8.004633e-05	
664	-6.60000e+00	8.012097e-05	
665	0.000000e+00	6.181648e-37	
666	-5.00000e-02	2.891905e-06	
667	-1.00000e-01	5.735445e-06	
668	-1.50000e-01	8.530886e-06	
669	-2.00000e-01	1.127849e-05	
670	-2.50000e-01	1.397853e-05	
671	-3.00000e-01	1.663127e-05	
672	-3.50000e-01	1.923696e-05	
673	-4.00000e-01	2.179589e-05	
674	-4.50000e-01	2.430830e-05	
675	-5.00000e-01	2.677448e-05	
676	-5.50000e-01	2.919467e-05	
677	-6.00000e-01	3.156916e-05	
678	-6.50000e-01	3.389819e-05	
679	-7.00000e-01	3.618204e-05	
680	-7.50000e-01	3.842097e-05	
681	-8.00000e-01	4.061524e-05	
682	-8.50000e-01	4.276512e-05	
683	-9.00000e-01	4.487086e-05	
684	-9.50000e-01	4.693274e-05	
685	-1.00000e+00	4.895101e-05	
686	-1.05000e+00	5.092593e-05	
687	-1.10000e+00	5.285777e-05	
688	-1.15000e+00	5.474679e-05	
689	-1.20000e+00	5.659324e-05	
690	-1.25000e+00	5.839738e-05	
691	-1.30000e+00	6.015948e-05	
692	-1.35000e+00	6.187979e-05	

Index   v-sweep         i(vds)          
--------------------------------------------------------------------------------
693	-1.40000e+00	6.355856e-05	
694	-1.45000e+00	6.519607e-05	
695	-1.50000e+00	6.679255e-05	
696	-1.55000e+00	6.834828e-05	
697	-1.60000e+00	6.986350e-05	
698	-1.65000e+00	7.133846e-05	
699	-1.70000e+00	7.277343e-05	
700	-1.75000e+00	7.416865e-05	
701	-1.80000e+00	7.552438e-05	
702	-1.85000e+00	7.684087e-05	
703	-1.90000e+00	7.811837e-05	
704	-1.95000e+00	7.935713e-05	
705	-2.00000e+00	8.055740e-05	
706	-2.05000e+00	8.171942e-05	
707	-2.10000e+00	8.284345e-05	
708	-2.15000e+00	8.392973e-05	
709	-2.20000e+00	8.497849e-05	
710	-2.25000e+00	8.598998e-05	
711	-2.30000e+00	8.696443e-05	
712	-2.35000e+00	8.790205e-05	
713	-2.40000e+00	8.880305e-05	
714	-2.45000e+00	8.966763e-05	
715	-2.50000e+00	9.049593e-05	
716	-2.55000e+00	9.128808e-05	
717	-2.60000e+00	9.204412e-05	
718	-2.65000e+00	9.276403e-05	
719	-2.70000e+00	9.344768e-05	
720	-2.75000e+00	9.409488e-05	
721	-2.80000e+00	9.470544e-05	
722	-2.85000e+00	9.527933e-05	
723	-2.90000e+00	9.581694e-05	
724	-2.95000e+00	9.631924e-05	
725	-3.00000e+00	9.678786e-05	
726	-3.05000e+00	9.722505e-05	
727	-3.10000e+00	9.763338e-05	
728	-3.15000e+00	9.801555e-05	
729	-3.20000e+00	9.837420e-05	
730	-3.25000e+00	9.871176e-05	
731	-3.30000e+00	9.903046e-05	
732	-3.35000e+00	9.933226e-05	
733	-3.40000e+00	9.961887e-05	
734	-3.45000e+00	9.989182e-05	
735	-3.50000e+00	1.001524e-04	
736	-3.55000e+00	1.004018e-04	
737	-3.60000e+00	1.006410e-04	
738	-3.65000e+00	1.008709e-04	
739	-3.70000e+00	1.010923e-04	
740	-3.75000e+00	1.013059e-04	
741	-3.80000e+00	1.015123e-04	
742	-3.85000e+00	1.017119e-04	
743	-3.90000e+00	1.019054e-04	
744	-3.95000e+00	1.020932e-04	
745	-4.00000e+00	1.022756e-04	
746	-4.05000e+00	1.024530e-04	
747	-4.10000e+00	1.026258e-04	
748	-4.15000e+00	1.027942e-04	
749	-4.20000e+00	1.029584e-04	
750	-4.25000e+00	1.031188e-04	

Index   v-sweep         i(vds)          
--------------------------------------------------------------------------------
751	-4.30000e+00	1.032755e-04	
752	-4.35000e+00	1.034288e-04	
753	-4.40000e+00	1.035789e-04	
754	-4.45000e+00	1.037259e-04	
755	-4.50000e+00	1.038699e-04	
756	-4.55000e+00	1.040112e-04	
757	-4.60000e+00	1.041498e-04	
758	-4.65000e+00	1.042859e-04	
759	-4.70000e+00	1.044196e-04	
760	-4.75000e+00	1.045510e-04	
761	-4.80000e+00	1.046803e-04	
762	-4.85000e+00	1.048075e-04	
763	-4.90000e+00	1.049327e-04	
764	-4.95000e+00	1.050559e-04	
765	-5.00000e+00	1.051774e-04	
766	-5.05000e+00	1.052970e-04	
767	-5.10000e+00	1.054150e-04	
768	-5.15000e+00	1.055314e-04	
769	-5.20000e+00	1.056462e-04	
770	-5.25000e+00	1.057595e-04	
771	-5.30000e+00	1.058714e-04	
772	-5.35000e+00	1.059819e-04	
773	-5.40000e+00	1.060910e-04	
774	-5.45000e+00	1.061989e-04	
775	-5.50000e+00	1.063055e-04	
776	-5.55000e+00	1.064109e-04	
777	-5.60000e+00	1.065151e-04	
778	-5.65000e+00	1.066182e-04	
779	-5.70000e+00	1.067203e-04	
780	-5.75000e+00	1.068213e-04	
781	-5.80000e+00	1.069213e-04	
782	-5.85000e+00	1.070203e-04	
783	-5.90000e+00	1.071184e-04	
784	-5.95000e+00	1.072156e-04	
785	-6.00000e+00	1.073119e-04	
786	-6.05000e+00	1.074074e-04	
787	-6.10000e+00	1.075021e-04	
788	-6.15000e+00	1.075961e-04	
789	-6.20000e+00	1.076895e-04	
790	-6.25000e+00	1.077821e-04	
791	-6.30000e+00	1.078742e-04	
792	-6.35000e+00	1.079658e-04	
793	-6.40000e+00	1.080569e-04	
794	-6.45000e+00	1.081475e-04	
795	-6.50000e+00	1.082379e-04	
796	-6.55000e+00	1.083279e-04	
797	-6.60000e+00	1.084178e-04	
Note: No ".plot", ".print", or ".fourier" lines; no simulations run
