
Note: Compatibility modes selected: hs

Warning: m=xx on .subckt line will override multiplier m hierarchy!


Circuit: ***************************

Doing analysis at TEMP = 25.000000 and TNOM = 25.000000


No. of Data Rows : 798
                          ***************************
                          DC transfer characteristic  Mon Jan  9 13:58:50  2023
--------------------------------------------------------------------------------
Index   v-sweep         i(vds)          
--------------------------------------------------------------------------------
0	0.000000e+00	4.624640e-23	
1	-5.00000e-02	2.234816e-07	
2	-1.00000e-01	3.277523e-07	
3	-1.50000e-01	3.568366e-07	
4	-2.00000e-01	3.633872e-07	
5	-2.50000e-01	3.655163e-07	
6	-3.00000e-01	3.665523e-07	
7	-3.50000e-01	3.672118e-07	
8	-4.00000e-01	3.677054e-07	
9	-4.50000e-01	3.681116e-07	
10	-5.00000e-01	3.684655e-07	
11	-5.50000e-01	3.687846e-07	
12	-6.00000e-01	3.690791e-07	
13	-6.50000e-01	3.693548e-07	
14	-7.00000e-01	3.696158e-07	
15	-7.50000e-01	3.698648e-07	
16	-8.00000e-01	3.701038e-07	
17	-8.50000e-01	3.703342e-07	
18	-9.00000e-01	3.705572e-07	
19	-9.50000e-01	3.707737e-07	
20	-1.00000e+00	3.709843e-07	
21	-1.05000e+00	3.711897e-07	
22	-1.10000e+00	3.713905e-07	
23	-1.15000e+00	3.715869e-07	
24	-1.20000e+00	3.717795e-07	
25	-1.25000e+00	3.719684e-07	
26	-1.30000e+00	3.721540e-07	
27	-1.35000e+00	3.723366e-07	
28	-1.40000e+00	3.725163e-07	
29	-1.45000e+00	3.726933e-07	
30	-1.50000e+00	3.728678e-07	
31	-1.55000e+00	3.730400e-07	
32	-1.60000e+00	3.732100e-07	
33	-1.65000e+00	3.733779e-07	
34	-1.70000e+00	3.735439e-07	
35	-1.75000e+00	3.737081e-07	
36	-1.80000e+00	3.738704e-07	
37	-1.85000e+00	3.740312e-07	
38	-1.90000e+00	3.741903e-07	
39	-1.95000e+00	3.743480e-07	
40	-2.00000e+00	3.745043e-07	
41	-2.05000e+00	3.746592e-07	
42	-2.10000e+00	3.748128e-07	
43	-2.15000e+00	3.749651e-07	
44	-2.20000e+00	3.751163e-07	
45	-2.25000e+00	3.752663e-07	
46	-2.30000e+00	3.754153e-07	
47	-2.35000e+00	3.755632e-07	
48	-2.40000e+00	3.757101e-07	
49	-2.45000e+00	3.758561e-07	
50	-2.50000e+00	3.760011e-07	
51	-2.55000e+00	3.761453e-07	
52	-2.60000e+00	3.762886e-07	
53	-2.65000e+00	3.764310e-07	
54	-2.70000e+00	3.765727e-07	

Index   v-sweep         i(vds)          
--------------------------------------------------------------------------------
55	-2.75000e+00	3.767137e-07	
56	-2.80000e+00	3.768539e-07	
57	-2.85000e+00	3.769935e-07	
58	-2.90000e+00	3.771324e-07	
59	-2.95000e+00	3.772707e-07	
60	-3.00000e+00	3.774085e-07	
61	-3.05000e+00	3.775457e-07	
62	-3.10000e+00	3.776825e-07	
63	-3.15000e+00	3.778189e-07	
64	-3.20000e+00	3.779549e-07	
65	-3.25000e+00	3.780907e-07	
66	-3.30000e+00	3.782263e-07	
67	-3.35000e+00	3.783619e-07	
68	-3.40000e+00	3.784975e-07	
69	-3.45000e+00	3.786333e-07	
70	-3.50000e+00	3.787694e-07	
71	-3.55000e+00	3.789061e-07	
72	-3.60000e+00	3.790434e-07	
73	-3.65000e+00	3.791817e-07	
74	-3.70000e+00	3.793212e-07	
75	-3.75000e+00	3.794622e-07	
76	-3.80000e+00	3.796050e-07	
77	-3.85000e+00	3.797501e-07	
78	-3.90000e+00	3.798977e-07	
79	-3.95000e+00	3.800484e-07	
80	-4.00000e+00	3.802026e-07	
81	-4.05000e+00	3.803611e-07	
82	-4.10000e+00	3.805242e-07	
83	-4.15000e+00	3.806929e-07	
84	-4.20000e+00	3.808678e-07	
85	-4.25000e+00	3.810497e-07	
86	-4.30000e+00	3.812395e-07	
87	-4.35000e+00	3.814383e-07	
88	-4.40000e+00	3.816471e-07	
89	-4.45000e+00	3.818670e-07	
90	-4.50000e+00	3.820993e-07	
91	-4.55000e+00	3.823454e-07	
92	-4.60000e+00	3.826065e-07	
93	-4.65000e+00	3.828844e-07	
94	-4.70000e+00	3.831806e-07	
95	-4.75000e+00	3.834969e-07	
96	-4.80000e+00	3.838352e-07	
97	-4.85000e+00	3.841974e-07	
98	-4.90000e+00	3.845856e-07	
99	-4.95000e+00	3.850021e-07	
100	-5.00000e+00	3.854492e-07	
101	-5.05000e+00	3.859295e-07	
102	-5.10000e+00	3.864454e-07	
103	-5.15000e+00	3.869999e-07	
104	-5.20000e+00	3.875956e-07	
105	-5.25000e+00	3.882358e-07	
106	-5.30000e+00	3.889235e-07	
107	-5.35000e+00	3.896620e-07	
108	-5.40000e+00	3.904548e-07	
109	-5.45000e+00	3.913056e-07	
110	-5.50000e+00	3.922179e-07	
111	-5.55000e+00	3.931958e-07	
112	-5.60000e+00	3.942432e-07	

Index   v-sweep         i(vds)          
--------------------------------------------------------------------------------
113	-5.65000e+00	3.953643e-07	
114	-5.70000e+00	3.965636e-07	
115	-5.75000e+00	3.978454e-07	
116	-5.80000e+00	3.992144e-07	
117	-5.85000e+00	4.006754e-07	
118	-5.90000e+00	4.022333e-07	
119	-5.95000e+00	4.038932e-07	
120	-6.00000e+00	4.056604e-07	
121	-6.05000e+00	4.075402e-07	
122	-6.10000e+00	4.095382e-07	
123	-6.15000e+00	4.116600e-07	
124	-6.20000e+00	4.139115e-07	
125	-6.25000e+00	4.162986e-07	
126	-6.30000e+00	4.188275e-07	
127	-6.35000e+00	4.215044e-07	
128	-6.40000e+00	4.243357e-07	
129	-6.45000e+00	4.273279e-07	
130	-6.50000e+00	4.304877e-07	
131	-6.55000e+00	4.338218e-07	
132	-6.60000e+00	4.373373e-07	
133	0.000000e+00	-9.59269e-33	
134	-5.00000e-02	2.570516e-06	
135	-1.00000e-01	4.975575e-06	
136	-1.50000e-01	7.215332e-06	
137	-2.00000e-01	9.289956e-06	
138	-2.50000e-01	1.119963e-05	
139	-3.00000e-01	1.294457e-05	
140	-3.50000e-01	1.452502e-05	
141	-4.00000e-01	1.594132e-05	
142	-4.50000e-01	1.719392e-05	
143	-5.00000e-01	1.828351e-05	
144	-5.50000e-01	1.921118e-05	
145	-6.00000e-01	1.997888e-05	
146	-6.50000e-01	2.059024e-05	
147	-7.00000e-01	2.105233e-05	
148	-7.50000e-01	2.137862e-05	
149	-8.00000e-01	2.159211e-05	
150	-8.50000e-01	2.172400e-05	
151	-9.00000e-01	2.180521e-05	
152	-9.50000e-01	2.185820e-05	
153	-1.00000e+00	2.189599e-05	
154	-1.05000e+00	2.192532e-05	
155	-1.10000e+00	2.194967e-05	
156	-1.15000e+00	2.197086e-05	
157	-1.20000e+00	2.198991e-05	
158	-1.25000e+00	2.200742e-05	
159	-1.30000e+00	2.202376e-05	
160	-1.35000e+00	2.203920e-05	
161	-1.40000e+00	2.205389e-05	
162	-1.45000e+00	2.206797e-05	
163	-1.50000e+00	2.208153e-05	
164	-1.55000e+00	2.209463e-05	
165	-1.60000e+00	2.210734e-05	
166	-1.65000e+00	2.211970e-05	
167	-1.70000e+00	2.213174e-05	
168	-1.75000e+00	2.214351e-05	
169	-1.80000e+00	2.215501e-05	
170	-1.85000e+00	2.216628e-05	

Index   v-sweep         i(vds)          
--------------------------------------------------------------------------------
171	-1.90000e+00	2.217734e-05	
172	-1.95000e+00	2.218820e-05	
173	-2.00000e+00	2.219887e-05	
174	-2.05000e+00	2.220937e-05	
175	-2.10000e+00	2.221972e-05	
176	-2.15000e+00	2.222992e-05	
177	-2.20000e+00	2.223998e-05	
178	-2.25000e+00	2.224991e-05	
179	-2.30000e+00	2.225972e-05	
180	-2.35000e+00	2.226941e-05	
181	-2.40000e+00	2.227899e-05	
182	-2.45000e+00	2.228847e-05	
183	-2.50000e+00	2.229785e-05	
184	-2.55000e+00	2.230714e-05	
185	-2.60000e+00	2.231634e-05	
186	-2.65000e+00	2.232546e-05	
187	-2.70000e+00	2.233449e-05	
188	-2.75000e+00	2.234345e-05	
189	-2.80000e+00	2.235234e-05	
190	-2.85000e+00	2.236116e-05	
191	-2.90000e+00	2.236991e-05	
192	-2.95000e+00	2.237859e-05	
193	-3.00000e+00	2.238722e-05	
194	-3.05000e+00	2.239579e-05	
195	-3.10000e+00	2.240430e-05	
196	-3.15000e+00	2.241275e-05	
197	-3.20000e+00	2.242116e-05	
198	-3.25000e+00	2.242951e-05	
199	-3.30000e+00	2.243781e-05	
200	-3.35000e+00	2.244607e-05	
201	-3.40000e+00	2.245429e-05	
202	-3.45000e+00	2.246246e-05	
203	-3.50000e+00	2.247059e-05	
204	-3.55000e+00	2.247869e-05	
205	-3.60000e+00	2.248674e-05	
206	-3.65000e+00	2.249477e-05	
207	-3.70000e+00	2.250276e-05	
208	-3.75000e+00	2.251073e-05	
209	-3.80000e+00	2.251866e-05	
210	-3.85000e+00	2.252658e-05	
211	-3.90000e+00	2.253448e-05	
212	-3.95000e+00	2.254237e-05	
213	-4.00000e+00	2.255025e-05	
214	-4.05000e+00	2.255812e-05	
215	-4.10000e+00	2.256601e-05	
216	-4.15000e+00	2.257390e-05	
217	-4.20000e+00	2.258182e-05	
218	-4.25000e+00	2.258978e-05	
219	-4.30000e+00	2.259778e-05	
220	-4.35000e+00	2.260584e-05	
221	-4.40000e+00	2.261397e-05	
222	-4.45000e+00	2.262220e-05	
223	-4.50000e+00	2.263054e-05	
224	-4.55000e+00	2.263902e-05	
225	-4.60000e+00	2.264766e-05	
226	-4.65000e+00	2.265649e-05	
227	-4.70000e+00	2.266553e-05	
228	-4.75000e+00	2.267484e-05	

Index   v-sweep         i(vds)          
--------------------------------------------------------------------------------
229	-4.80000e+00	2.268443e-05	
230	-4.85000e+00	2.269436e-05	
231	-4.90000e+00	2.270467e-05	
232	-4.95000e+00	2.271541e-05	
233	-5.00000e+00	2.272663e-05	
234	-5.05000e+00	2.273840e-05	
235	-5.10000e+00	2.275078e-05	
236	-5.15000e+00	2.276383e-05	
237	-5.20000e+00	2.277763e-05	
238	-5.25000e+00	2.279227e-05	
239	-5.30000e+00	2.280783e-05	
240	-5.35000e+00	2.282440e-05	
241	-5.40000e+00	2.284208e-05	
242	-5.45000e+00	2.286098e-05	
243	-5.50000e+00	2.288120e-05	
244	-5.55000e+00	2.290288e-05	
245	-5.60000e+00	2.292613e-05	
246	-5.65000e+00	2.295109e-05	
247	-5.70000e+00	2.297790e-05	
248	-5.75000e+00	2.300671e-05	
249	-5.80000e+00	2.303767e-05	
250	-5.85000e+00	2.307096e-05	
251	-5.90000e+00	2.310675e-05	
252	-5.95000e+00	2.314520e-05	
253	-6.00000e+00	2.318653e-05	
254	-6.05000e+00	2.323092e-05	
255	-6.10000e+00	2.327858e-05	
256	-6.15000e+00	2.332973e-05	
257	-6.20000e+00	2.338459e-05	
258	-6.25000e+00	2.344339e-05	
259	-6.30000e+00	2.350638e-05	
260	-6.35000e+00	2.357381e-05	
261	-6.40000e+00	2.364593e-05	
262	-6.45000e+00	2.372302e-05	
263	-6.50000e+00	2.380535e-05	
264	-6.55000e+00	2.389320e-05	
265	-6.60000e+00	2.398689e-05	
266	0.000000e+00	9.003619e-31	
267	-5.00000e-02	4.535147e-06	
268	-1.00000e-01	8.917889e-06	
269	-1.50000e-01	1.314834e-05	
270	-2.00000e-01	1.722660e-05	
271	-2.50000e-01	2.115279e-05	
272	-3.00000e-01	2.492702e-05	
273	-3.50000e-01	2.854941e-05	
274	-4.00000e-01	3.202007e-05	
275	-4.50000e-01	3.533911e-05	
276	-5.00000e-01	3.850667e-05	
277	-5.50000e-01	4.152285e-05	
278	-6.00000e-01	4.438779e-05	
279	-6.50000e-01	4.710163e-05	
280	-7.00000e-01	4.966450e-05	
281	-7.50000e-01	5.207656e-05	
282	-8.00000e-01	5.433797e-05	
283	-8.50000e-01	5.644892e-05	
284	-9.00000e-01	5.840964e-05	
285	-9.50000e-01	6.022038e-05	
286	-1.00000e+00	6.188147e-05	

Index   v-sweep         i(vds)          
--------------------------------------------------------------------------------
287	-1.05000e+00	6.339334e-05	
288	-1.10000e+00	6.475656e-05	
289	-1.15000e+00	6.597197e-05	
290	-1.20000e+00	6.704079e-05	
291	-1.25000e+00	6.796492e-05	
292	-1.30000e+00	6.874738e-05	
293	-1.35000e+00	6.939306e-05	
294	-1.40000e+00	6.990984e-05	
295	-1.45000e+00	7.030983e-05	
296	-1.50000e+00	7.061014e-05	
297	-1.55000e+00	7.083168e-05	
298	-1.60000e+00	7.099590e-05	
299	-1.65000e+00	7.112110e-05	
300	-1.70000e+00	7.122071e-05	
301	-1.75000e+00	7.130358e-05	
302	-1.80000e+00	7.137526e-05	
303	-1.85000e+00	7.143920e-05	
304	-1.90000e+00	7.149755e-05	
305	-1.95000e+00	7.155172e-05	
306	-2.00000e+00	7.160262e-05	
307	-2.05000e+00	7.165091e-05	
308	-2.10000e+00	7.169705e-05	
309	-2.15000e+00	7.174138e-05	
310	-2.20000e+00	7.178415e-05	
311	-2.25000e+00	7.182556e-05	
312	-2.30000e+00	7.186579e-05	
313	-2.35000e+00	7.190496e-05	
314	-2.40000e+00	7.194317e-05	
315	-2.45000e+00	7.198053e-05	
316	-2.50000e+00	7.201710e-05	
317	-2.55000e+00	7.205296e-05	
318	-2.60000e+00	7.208816e-05	
319	-2.65000e+00	7.212275e-05	
320	-2.70000e+00	7.215678e-05	
321	-2.75000e+00	7.219029e-05	
322	-2.80000e+00	7.222331e-05	
323	-2.85000e+00	7.225587e-05	
324	-2.90000e+00	7.228800e-05	
325	-2.95000e+00	7.231973e-05	
326	-3.00000e+00	7.235109e-05	
327	-3.05000e+00	7.238208e-05	
328	-3.10000e+00	7.241274e-05	
329	-3.15000e+00	7.244307e-05	
330	-3.20000e+00	7.247311e-05	
331	-3.25000e+00	7.250285e-05	
332	-3.30000e+00	7.253232e-05	
333	-3.35000e+00	7.256153e-05	
334	-3.40000e+00	7.259049e-05	
335	-3.45000e+00	7.261922e-05	
336	-3.50000e+00	7.264771e-05	
337	-3.55000e+00	7.267599e-05	
338	-3.60000e+00	7.270406e-05	
339	-3.65000e+00	7.273193e-05	
340	-3.70000e+00	7.275961e-05	
341	-3.75000e+00	7.278711e-05	
342	-3.80000e+00	7.281443e-05	
343	-3.85000e+00	7.284158e-05	
344	-3.90000e+00	7.286857e-05	

Index   v-sweep         i(vds)          
--------------------------------------------------------------------------------
345	-3.95000e+00	7.289540e-05	
346	-4.00000e+00	7.292208e-05	
347	-4.05000e+00	7.294862e-05	
348	-4.10000e+00	7.297501e-05	
349	-4.15000e+00	7.300128e-05	
350	-4.20000e+00	7.302742e-05	
351	-4.25000e+00	7.305344e-05	
352	-4.30000e+00	7.307934e-05	
353	-4.35000e+00	7.310514e-05	
354	-4.40000e+00	7.313085e-05	
355	-4.45000e+00	7.315646e-05	
356	-4.50000e+00	7.318199e-05	
357	-4.55000e+00	7.320746e-05	
358	-4.60000e+00	7.323287e-05	
359	-4.65000e+00	7.325824e-05	
360	-4.70000e+00	7.328359e-05	
361	-4.75000e+00	7.330893e-05	
362	-4.80000e+00	7.333429e-05	
363	-4.85000e+00	7.335970e-05	
364	-4.90000e+00	7.338518e-05	
365	-4.95000e+00	7.341077e-05	
366	-5.00000e+00	7.343650e-05	
367	-5.05000e+00	7.346243e-05	
368	-5.10000e+00	7.348860e-05	
369	-5.15000e+00	7.351506e-05	
370	-5.20000e+00	7.354189e-05	
371	-5.25000e+00	7.356915e-05	
372	-5.30000e+00	7.359692e-05	
373	-5.35000e+00	7.362530e-05	
374	-5.40000e+00	7.365438e-05	
375	-5.45000e+00	7.368427e-05	
376	-5.50000e+00	7.371510e-05	
377	-5.55000e+00	7.374700e-05	
378	-5.60000e+00	7.378011e-05	
379	-5.65000e+00	7.381459e-05	
380	-5.70000e+00	7.385062e-05	
381	-5.75000e+00	7.388840e-05	
382	-5.80000e+00	7.392811e-05	
383	-5.85000e+00	7.397000e-05	
384	-5.90000e+00	7.401430e-05	
385	-5.95000e+00	7.406126e-05	
386	-6.00000e+00	7.411117e-05	
387	-6.05000e+00	7.416433e-05	
388	-6.10000e+00	7.422104e-05	
389	-6.15000e+00	7.428166e-05	
390	-6.20000e+00	7.434655e-05	
391	-6.25000e+00	7.441608e-05	
392	-6.30000e+00	7.449066e-05	
393	-6.35000e+00	7.457074e-05	
394	-6.40000e+00	7.465675e-05	
395	-6.45000e+00	7.474919e-05	
396	-6.50000e+00	7.484856e-05	
397	-6.55000e+00	7.495539e-05	
398	-6.60000e+00	7.507023e-05	
399	0.000000e+00	-2.25160e-30	
400	-5.00000e-02	6.155275e-06	
401	-1.00000e-01	1.217123e-05	
402	-1.50000e-01	1.804797e-05	

Index   v-sweep         i(vds)          
--------------------------------------------------------------------------------
403	-2.00000e-01	2.378558e-05	
404	-2.50000e-01	2.938415e-05	
405	-3.00000e-01	3.484378e-05	
406	-3.50000e-01	4.016457e-05	
407	-4.00000e-01	4.534661e-05	
408	-4.50000e-01	5.038998e-05	
409	-5.00000e-01	5.529479e-05	
410	-5.50000e-01	6.006114e-05	
411	-6.00000e-01	6.468911e-05	
412	-6.50000e-01	6.917881e-05	
413	-7.00000e-01	7.353032e-05	
414	-7.50000e-01	7.774375e-05	
415	-8.00000e-01	8.181920e-05	
416	-8.50000e-01	8.575676e-05	
417	-9.00000e-01	8.955653e-05	
418	-9.50000e-01	9.321861e-05	
419	-1.00000e+00	9.674311e-05	
420	-1.05000e+00	1.001301e-04	
421	-1.10000e+00	1.033798e-04	
422	-1.15000e+00	1.064922e-04	
423	-1.20000e+00	1.094675e-04	
424	-1.25000e+00	1.123057e-04	
425	-1.30000e+00	1.150071e-04	
426	-1.35000e+00	1.175717e-04	
427	-1.40000e+00	1.199997e-04	
428	-1.45000e+00	1.222913e-04	
429	-1.50000e+00	1.244467e-04	
430	-1.55000e+00	1.264660e-04	
431	-1.60000e+00	1.283497e-04	
432	-1.65000e+00	1.300979e-04	
433	-1.70000e+00	1.317112e-04	
434	-1.75000e+00	1.331900e-04	
435	-1.80000e+00	1.345351e-04	
436	-1.85000e+00	1.357476e-04	
437	-1.90000e+00	1.368289e-04	
438	-1.95000e+00	1.377811e-04	
439	-2.00000e+00	1.386075e-04	
440	-2.05000e+00	1.393125e-04	
441	-2.10000e+00	1.399031e-04	
442	-2.15000e+00	1.403887e-04	
443	-2.20000e+00	1.407820e-04	
444	-2.25000e+00	1.410980e-04	
445	-2.30000e+00	1.413528e-04	
446	-2.35000e+00	1.415615e-04	
447	-2.40000e+00	1.417367e-04	
448	-2.45000e+00	1.418877e-04	
449	-2.50000e+00	1.420213e-04	
450	-2.55000e+00	1.421423e-04	
451	-2.60000e+00	1.422537e-04	
452	-2.65000e+00	1.423577e-04	
453	-2.70000e+00	1.424559e-04	
454	-2.75000e+00	1.425494e-04	
455	-2.80000e+00	1.426389e-04	
456	-2.85000e+00	1.427250e-04	
457	-2.90000e+00	1.428082e-04	
458	-2.95000e+00	1.428889e-04	
459	-3.00000e+00	1.429673e-04	
460	-3.05000e+00	1.430438e-04	

Index   v-sweep         i(vds)          
--------------------------------------------------------------------------------
461	-3.10000e+00	1.431184e-04	
462	-3.15000e+00	1.431915e-04	
463	-3.20000e+00	1.432630e-04	
464	-3.25000e+00	1.433332e-04	
465	-3.30000e+00	1.434022e-04	
466	-3.35000e+00	1.434700e-04	
467	-3.40000e+00	1.435367e-04	
468	-3.45000e+00	1.436024e-04	
469	-3.50000e+00	1.436672e-04	
470	-3.55000e+00	1.437311e-04	
471	-3.60000e+00	1.437942e-04	
472	-3.65000e+00	1.438565e-04	
473	-3.70000e+00	1.439181e-04	
474	-3.75000e+00	1.439791e-04	
475	-3.80000e+00	1.440393e-04	
476	-3.85000e+00	1.440990e-04	
477	-3.90000e+00	1.441581e-04	
478	-3.95000e+00	1.442166e-04	
479	-4.00000e+00	1.442746e-04	
480	-4.05000e+00	1.443321e-04	
481	-4.10000e+00	1.443891e-04	
482	-4.15000e+00	1.444456e-04	
483	-4.20000e+00	1.445018e-04	
484	-4.25000e+00	1.445575e-04	
485	-4.30000e+00	1.446128e-04	
486	-4.35000e+00	1.446677e-04	
487	-4.40000e+00	1.447222e-04	
488	-4.45000e+00	1.447764e-04	
489	-4.50000e+00	1.448303e-04	
490	-4.55000e+00	1.448838e-04	
491	-4.60000e+00	1.449370e-04	
492	-4.65000e+00	1.449899e-04	
493	-4.70000e+00	1.450425e-04	
494	-4.75000e+00	1.450949e-04	
495	-4.80000e+00	1.451469e-04	
496	-4.85000e+00	1.451988e-04	
497	-4.90000e+00	1.452503e-04	
498	-4.95000e+00	1.453017e-04	
499	-5.00000e+00	1.453528e-04	
500	-5.05000e+00	1.454037e-04	
501	-5.10000e+00	1.454544e-04	
502	-5.15000e+00	1.455050e-04	
503	-5.20000e+00	1.455554e-04	
504	-5.25000e+00	1.456056e-04	
505	-5.30000e+00	1.456558e-04	
506	-5.35000e+00	1.457058e-04	
507	-5.40000e+00	1.457558e-04	
508	-5.45000e+00	1.458058e-04	
509	-5.50000e+00	1.458558e-04	
510	-5.55000e+00	1.459059e-04	
511	-5.60000e+00	1.459562e-04	
512	-5.65000e+00	1.460066e-04	
513	-5.70000e+00	1.460573e-04	
514	-5.75000e+00	1.461083e-04	
515	-5.80000e+00	1.461598e-04	
516	-5.85000e+00	1.462119e-04	
517	-5.90000e+00	1.462646e-04	
518	-5.95000e+00	1.463182e-04	

Index   v-sweep         i(vds)          
--------------------------------------------------------------------------------
519	-6.00000e+00	1.463727e-04	
520	-6.05000e+00	1.464284e-04	
521	-6.10000e+00	1.464853e-04	
522	-6.15000e+00	1.465439e-04	
523	-6.20000e+00	1.466042e-04	
524	-6.25000e+00	1.466665e-04	
525	-6.30000e+00	1.467312e-04	
526	-6.35000e+00	1.467984e-04	
527	-6.40000e+00	1.468686e-04	
528	-6.45000e+00	1.469422e-04	
529	-6.50000e+00	1.470195e-04	
530	-6.55000e+00	1.471009e-04	
531	-6.60000e+00	1.471869e-04	
532	0.000000e+00	1.907738e-20	
533	-5.00000e-02	7.504729e-06	
534	-1.00000e-01	1.488189e-05	
535	-1.50000e-01	2.213157e-05	
536	-2.00000e-01	2.925385e-05	
537	-2.50000e-01	3.624881e-05	
538	-3.00000e-01	4.311652e-05	
539	-3.50000e-01	4.985708e-05	
540	-4.00000e-01	5.647057e-05	
541	-4.50000e-01	6.295706e-05	
542	-5.00000e-01	6.931664e-05	
543	-5.50000e-01	7.554939e-05	
544	-6.00000e-01	8.165539e-05	
545	-6.50000e-01	8.763472e-05	
546	-7.00000e-01	9.348747e-05	
547	-7.50000e-01	9.921372e-05	
548	-8.00000e-01	1.048135e-04	
549	-8.50000e-01	1.102870e-04	
550	-9.00000e-01	1.156343e-04	
551	-9.50000e-01	1.208553e-04	
552	-1.00000e+00	1.259503e-04	
553	-1.05000e+00	1.309192e-04	
554	-1.10000e+00	1.357623e-04	
555	-1.15000e+00	1.404794e-04	
556	-1.20000e+00	1.450709e-04	
557	-1.25000e+00	1.495366e-04	
558	-1.30000e+00	1.538768e-04	
559	-1.35000e+00	1.580915e-04	
560	-1.40000e+00	1.621807e-04	
561	-1.45000e+00	1.661446e-04	
562	-1.50000e+00	1.699833e-04	
563	-1.55000e+00	1.736969e-04	
564	-1.60000e+00	1.772853e-04	
565	-1.65000e+00	1.807489e-04	
566	-1.70000e+00	1.840875e-04	
567	-1.75000e+00	1.873014e-04	
568	-1.80000e+00	1.903907e-04	
569	-1.85000e+00	1.933553e-04	
570	-1.90000e+00	1.961956e-04	
571	-1.95000e+00	1.989115e-04	
572	-2.00000e+00	2.015033e-04	
573	-2.05000e+00	2.039711e-04	
574	-2.10000e+00	2.063149e-04	
575	-2.15000e+00	2.085351e-04	
576	-2.20000e+00	2.106318e-04	

Index   v-sweep         i(vds)          
--------------------------------------------------------------------------------
577	-2.25000e+00	2.126053e-04	
578	-2.30000e+00	2.144559e-04	
579	-2.35000e+00	2.161839e-04	
580	-2.40000e+00	2.177899e-04	
581	-2.45000e+00	2.192743e-04	
582	-2.50000e+00	2.206380e-04	
583	-2.55000e+00	2.218821e-04	
584	-2.60000e+00	2.230079e-04	
585	-2.65000e+00	2.240174e-04	
586	-2.70000e+00	2.249135e-04	
587	-2.75000e+00	2.256999e-04	
588	-2.80000e+00	2.263820e-04	
589	-2.85000e+00	2.269670e-04	
590	-2.90000e+00	2.274640e-04	
591	-2.95000e+00	2.278841e-04	
592	-3.00000e+00	2.282397e-04	
593	-3.05000e+00	2.285431e-04	
594	-3.10000e+00	2.288057e-04	
595	-3.15000e+00	2.290370e-04	
596	-3.20000e+00	2.292446e-04	
597	-3.25000e+00	2.294340e-04	
598	-3.30000e+00	2.296095e-04	
599	-3.35000e+00	2.297738e-04	
600	-3.40000e+00	2.299293e-04	
601	-3.45000e+00	2.300775e-04	
602	-3.50000e+00	2.302196e-04	
603	-3.55000e+00	2.303565e-04	
604	-3.60000e+00	2.304889e-04	
605	-3.65000e+00	2.306173e-04	
606	-3.70000e+00	2.307423e-04	
607	-3.75000e+00	2.308641e-04	
608	-3.80000e+00	2.309832e-04	
609	-3.85000e+00	2.310997e-04	
610	-3.90000e+00	2.312139e-04	
611	-3.95000e+00	2.313260e-04	
612	-4.00000e+00	2.314361e-04	
613	-4.05000e+00	2.315444e-04	
614	-4.10000e+00	2.316510e-04	
615	-4.15000e+00	2.317560e-04	
616	-4.20000e+00	2.318596e-04	
617	-4.25000e+00	2.319618e-04	
618	-4.30000e+00	2.320627e-04	
619	-4.35000e+00	2.321625e-04	
620	-4.40000e+00	2.322610e-04	
621	-4.45000e+00	2.323585e-04	
622	-4.50000e+00	2.324550e-04	
623	-4.55000e+00	2.325505e-04	
624	-4.60000e+00	2.326451e-04	
625	-4.65000e+00	2.327388e-04	
626	-4.70000e+00	2.328317e-04	
627	-4.75000e+00	2.329238e-04	
628	-4.80000e+00	2.330152e-04	
629	-4.85000e+00	2.331058e-04	
630	-4.90000e+00	2.331957e-04	
631	-4.95000e+00	2.332850e-04	
632	-5.00000e+00	2.333736e-04	
633	-5.05000e+00	2.334616e-04	
634	-5.10000e+00	2.335491e-04	

Index   v-sweep         i(vds)          
--------------------------------------------------------------------------------
635	-5.15000e+00	2.336360e-04	
636	-5.20000e+00	2.337223e-04	
637	-5.25000e+00	2.338082e-04	
638	-5.30000e+00	2.338935e-04	
639	-5.35000e+00	2.339784e-04	
640	-5.40000e+00	2.340628e-04	
641	-5.45000e+00	2.341467e-04	
642	-5.50000e+00	2.342303e-04	
643	-5.55000e+00	2.343134e-04	
644	-5.60000e+00	2.343961e-04	
645	-5.65000e+00	2.344785e-04	
646	-5.70000e+00	2.345605e-04	
647	-5.75000e+00	2.346422e-04	
648	-5.80000e+00	2.347236e-04	
649	-5.85000e+00	2.348047e-04	
650	-5.90000e+00	2.348855e-04	
651	-5.95000e+00	2.349661e-04	
652	-6.00000e+00	2.350465e-04	
653	-6.05000e+00	2.351268e-04	
654	-6.10000e+00	2.352070e-04	
655	-6.15000e+00	2.352871e-04	
656	-6.20000e+00	2.353672e-04	
657	-6.25000e+00	2.354474e-04	
658	-6.30000e+00	2.355278e-04	
659	-6.35000e+00	2.356084e-04	
660	-6.40000e+00	2.356894e-04	
661	-6.45000e+00	2.357710e-04	
662	-6.50000e+00	2.358531e-04	
663	-6.55000e+00	2.359360e-04	
664	-6.60000e+00	2.360200e-04	
665	0.000000e+00	1.958435e-30	
666	-5.00000e-02	8.638446e-06	
667	-1.00000e-01	1.715972e-05	
668	-1.50000e-01	2.556389e-05	
669	-2.00000e-01	3.385103e-05	
670	-2.50000e-01	4.202121e-05	
671	-3.00000e-01	5.007451e-05	
672	-3.50000e-01	5.801100e-05	
673	-4.00000e-01	6.583074e-05	
674	-4.50000e-01	7.353381e-05	
675	-5.00000e-01	8.112029e-05	
676	-5.50000e-01	8.859023e-05	
677	-6.00000e-01	9.594373e-05	
678	-6.50000e-01	1.031808e-04	
679	-7.00000e-01	1.103016e-04	
680	-7.50000e-01	1.173062e-04	
681	-8.00000e-01	1.241946e-04	
682	-8.50000e-01	1.309669e-04	
683	-9.00000e-01	1.376232e-04	
684	-9.50000e-01	1.441635e-04	
685	-1.00000e+00	1.505879e-04	
686	-1.05000e+00	1.568965e-04	
687	-1.10000e+00	1.630894e-04	
688	-1.15000e+00	1.691667e-04	
689	-1.20000e+00	1.751283e-04	
690	-1.25000e+00	1.809744e-04	
691	-1.30000e+00	1.867051e-04	
692	-1.35000e+00	1.923203e-04	

Index   v-sweep         i(vds)          
--------------------------------------------------------------------------------
693	-1.40000e+00	1.978203e-04	
694	-1.45000e+00	2.032051e-04	
695	-1.50000e+00	2.084747e-04	
696	-1.55000e+00	2.136292e-04	
697	-1.60000e+00	2.186686e-04	
698	-1.65000e+00	2.235932e-04	
699	-1.70000e+00	2.284029e-04	
700	-1.75000e+00	2.330977e-04	
701	-1.80000e+00	2.376779e-04	
702	-1.85000e+00	2.421434e-04	
703	-1.90000e+00	2.464944e-04	
704	-1.95000e+00	2.507308e-04	
705	-2.00000e+00	2.548529e-04	
706	-2.05000e+00	2.588606e-04	
707	-2.10000e+00	2.627540e-04	
708	-2.15000e+00	2.665333e-04	
709	-2.20000e+00	2.701985e-04	
710	-2.25000e+00	2.737497e-04	
711	-2.30000e+00	2.771869e-04	
712	-2.35000e+00	2.805103e-04	
713	-2.40000e+00	2.837200e-04	
714	-2.45000e+00	2.868161e-04	
715	-2.50000e+00	2.897985e-04	
716	-2.55000e+00	2.926676e-04	
717	-2.60000e+00	2.954233e-04	
718	-2.65000e+00	2.980659e-04	
719	-2.70000e+00	3.005953e-04	
720	-2.75000e+00	3.030119e-04	
721	-2.80000e+00	3.053157e-04	
722	-2.85000e+00	3.075069e-04	
723	-2.90000e+00	3.095858e-04	
724	-2.95000e+00	3.115526e-04	
725	-3.00000e+00	3.134076e-04	
726	-3.05000e+00	3.151511e-04	
727	-3.10000e+00	3.167837e-04	
728	-3.15000e+00	3.183059e-04	
729	-3.20000e+00	3.197184e-04	
730	-3.25000e+00	3.210222e-04	
731	-3.30000e+00	3.222184e-04	
732	-3.35000e+00	3.233089e-04	
733	-3.40000e+00	3.242957e-04	
734	-3.45000e+00	3.251818e-04	
735	-3.50000e+00	3.259713e-04	
736	-3.55000e+00	3.266692e-04	
737	-3.60000e+00	3.272821e-04	
738	-3.65000e+00	3.278182e-04	
739	-3.70000e+00	3.282866e-04	
740	-3.75000e+00	3.286974e-04	
741	-3.80000e+00	3.290603e-04	
742	-3.85000e+00	3.293847e-04	
743	-3.90000e+00	3.296784e-04	
744	-3.95000e+00	3.299477e-04	
745	-4.00000e+00	3.301977e-04	
746	-4.05000e+00	3.304323e-04	
747	-4.10000e+00	3.306543e-04	
748	-4.15000e+00	3.308660e-04	
749	-4.20000e+00	3.310689e-04	
750	-4.25000e+00	3.312645e-04	

Index   v-sweep         i(vds)          
--------------------------------------------------------------------------------
751	-4.30000e+00	3.314536e-04	
752	-4.35000e+00	3.316372e-04	
753	-4.40000e+00	3.318157e-04	
754	-4.45000e+00	3.319899e-04	
755	-4.50000e+00	3.321601e-04	
756	-4.55000e+00	3.323266e-04	
757	-4.60000e+00	3.324899e-04	
758	-4.65000e+00	3.326501e-04	
759	-4.70000e+00	3.328076e-04	
760	-4.75000e+00	3.329624e-04	
761	-4.80000e+00	3.331149e-04	
762	-4.85000e+00	3.332652e-04	
763	-4.90000e+00	3.334134e-04	
764	-4.95000e+00	3.335596e-04	
765	-5.00000e+00	3.337040e-04	
766	-5.05000e+00	3.338467e-04	
767	-5.10000e+00	3.339878e-04	
768	-5.15000e+00	3.341273e-04	
769	-5.20000e+00	3.342654e-04	
770	-5.25000e+00	3.344021e-04	
771	-5.30000e+00	3.345375e-04	
772	-5.35000e+00	3.346716e-04	
773	-5.40000e+00	3.348046e-04	
774	-5.45000e+00	3.349365e-04	
775	-5.50000e+00	3.350673e-04	
776	-5.55000e+00	3.351970e-04	
777	-5.60000e+00	3.353258e-04	
778	-5.65000e+00	3.354536e-04	
779	-5.70000e+00	3.355806e-04	
780	-5.75000e+00	3.357066e-04	
781	-5.80000e+00	3.358319e-04	
782	-5.85000e+00	3.359563e-04	
783	-5.90000e+00	3.360800e-04	
784	-5.95000e+00	3.362030e-04	
785	-6.00000e+00	3.363252e-04	
786	-6.05000e+00	3.364468e-04	
787	-6.10000e+00	3.365677e-04	
788	-6.15000e+00	3.366879e-04	
789	-6.20000e+00	3.368076e-04	
790	-6.25000e+00	3.369267e-04	
791	-6.30000e+00	3.370452e-04	
792	-6.35000e+00	3.371632e-04	
793	-6.40000e+00	3.372807e-04	
794	-6.45000e+00	3.373977e-04	
795	-6.50000e+00	3.375143e-04	
796	-6.55000e+00	3.376304e-04	
797	-6.60000e+00	3.377461e-04	
Note: No ".plot", ".print", or ".fourier" lines; no simulations run
