
Note: Compatibility modes selected: hs

Warning: m=xx on .subckt line will override multiplier m hierarchy!


Circuit: ***************************

Doing analysis at TEMP = 25.000000 and TNOM = 25.000000


No. of Data Rows : 798
                          ***************************
                          DC transfer characteristic  Mon Jan  9 13:58:50  2023
--------------------------------------------------------------------------------
Index   v-sweep         i(vds)          
--------------------------------------------------------------------------------
0	0.000000e+00	-1.03729e-32	
1	-5.00000e-02	3.696683e-07	
2	-1.00000e-01	6.133162e-07	
3	-1.50000e-01	7.435617e-07	
4	-2.00000e-01	7.962600e-07	
5	-2.50000e-01	8.180261e-07	
6	-3.00000e-01	8.312967e-07	
7	-3.50000e-01	8.418988e-07	
8	-4.00000e-01	8.513299e-07	
9	-4.50000e-01	8.600827e-07	
10	-5.00000e-01	8.683658e-07	
11	-5.50000e-01	8.762880e-07	
12	-6.00000e-01	8.839159e-07	
13	-6.50000e-01	8.912948e-07	
14	-7.00000e-01	8.984583e-07	
15	-7.50000e-01	9.054326e-07	
16	-8.00000e-01	9.122387e-07	
17	-8.50000e-01	9.188940e-07	
18	-9.00000e-01	9.254135e-07	
19	-9.50000e-01	9.318096e-07	
20	-1.00000e+00	9.380934e-07	
21	-1.05000e+00	9.442744e-07	
22	-1.10000e+00	9.503612e-07	
23	-1.15000e+00	9.563612e-07	
24	-1.20000e+00	9.622810e-07	
25	-1.25000e+00	9.681267e-07	
26	-1.30000e+00	9.739037e-07	
27	-1.35000e+00	9.796168e-07	
28	-1.40000e+00	9.852704e-07	
29	-1.45000e+00	9.908687e-07	
30	-1.50000e+00	9.964151e-07	
31	-1.55000e+00	1.001913e-06	
32	-1.60000e+00	1.007366e-06	
33	-1.65000e+00	1.012776e-06	
34	-1.70000e+00	1.018147e-06	
35	-1.75000e+00	1.023480e-06	
36	-1.80000e+00	1.028777e-06	
37	-1.85000e+00	1.034042e-06	
38	-1.90000e+00	1.039275e-06	
39	-1.95000e+00	1.044479e-06	
40	-2.00000e+00	1.049655e-06	
41	-2.05000e+00	1.054805e-06	
42	-2.10000e+00	1.059931e-06	
43	-2.15000e+00	1.065033e-06	
44	-2.20000e+00	1.070113e-06	
45	-2.25000e+00	1.075172e-06	
46	-2.30000e+00	1.080211e-06	
47	-2.35000e+00	1.085232e-06	
48	-2.40000e+00	1.090235e-06	
49	-2.45000e+00	1.095221e-06	
50	-2.50000e+00	1.100192e-06	
51	-2.55000e+00	1.105148e-06	
52	-2.60000e+00	1.110089e-06	
53	-2.65000e+00	1.115018e-06	
54	-2.70000e+00	1.119933e-06	

Index   v-sweep         i(vds)          
--------------------------------------------------------------------------------
55	-2.75000e+00	1.124837e-06	
56	-2.80000e+00	1.129729e-06	
57	-2.85000e+00	1.134611e-06	
58	-2.90000e+00	1.139483e-06	
59	-2.95000e+00	1.144345e-06	
60	-3.00000e+00	1.149199e-06	
61	-3.05000e+00	1.154044e-06	
62	-3.10000e+00	1.158882e-06	
63	-3.15000e+00	1.163712e-06	
64	-3.20000e+00	1.168536e-06	
65	-3.25000e+00	1.173354e-06	
66	-3.30000e+00	1.178166e-06	
67	-3.35000e+00	1.182973e-06	
68	-3.40000e+00	1.187776e-06	
69	-3.45000e+00	1.192576e-06	
70	-3.50000e+00	1.197373e-06	
71	-3.55000e+00	1.202167e-06	
72	-3.60000e+00	1.206960e-06	
73	-3.65000e+00	1.211753e-06	
74	-3.70000e+00	1.216546e-06	
75	-3.75000e+00	1.221340e-06	
76	-3.80000e+00	1.226137e-06	
77	-3.85000e+00	1.230937e-06	
78	-3.90000e+00	1.235743e-06	
79	-3.95000e+00	1.240555e-06	
80	-4.00000e+00	1.245376e-06	
81	-4.05000e+00	1.250206e-06	
82	-4.10000e+00	1.255049e-06	
83	-4.15000e+00	1.259906e-06	
84	-4.20000e+00	1.264779e-06	
85	-4.25000e+00	1.269672e-06	
86	-4.30000e+00	1.274587e-06	
87	-4.35000e+00	1.279527e-06	
88	-4.40000e+00	1.284496e-06	
89	-4.45000e+00	1.289497e-06	
90	-4.50000e+00	1.294534e-06	
91	-4.55000e+00	1.299612e-06	
92	-4.60000e+00	1.304736e-06	
93	-4.65000e+00	1.309910e-06	
94	-4.70000e+00	1.315140e-06	
95	-4.75000e+00	1.320432e-06	
96	-4.80000e+00	1.325792e-06	
97	-4.85000e+00	1.331227e-06	
98	-4.90000e+00	1.336744e-06	
99	-4.95000e+00	1.342351e-06	
100	-5.00000e+00	1.348056e-06	
101	-5.05000e+00	1.353868e-06	
102	-5.10000e+00	1.359796e-06	
103	-5.15000e+00	1.365849e-06	
104	-5.20000e+00	1.372039e-06	
105	-5.25000e+00	1.378376e-06	
106	-5.30000e+00	1.384872e-06	
107	-5.35000e+00	1.391538e-06	
108	-5.40000e+00	1.398388e-06	
109	-5.45000e+00	1.405436e-06	
110	-5.50000e+00	1.412694e-06	
111	-5.55000e+00	1.420179e-06	
112	-5.60000e+00	1.427905e-06	

Index   v-sweep         i(vds)          
--------------------------------------------------------------------------------
113	-5.65000e+00	1.435889e-06	
114	-5.70000e+00	1.444147e-06	
115	-5.75000e+00	1.452698e-06	
116	-5.80000e+00	1.461559e-06	
117	-5.85000e+00	1.470750e-06	
118	-5.90000e+00	1.480291e-06	
119	-5.95000e+00	1.490201e-06	
120	-6.00000e+00	1.500504e-06	
121	-6.05000e+00	1.511220e-06	
122	-6.10000e+00	1.522372e-06	
123	-6.15000e+00	1.533985e-06	
124	-6.20000e+00	1.546083e-06	
125	-6.25000e+00	1.558692e-06	
126	-6.30000e+00	1.571837e-06	
127	-6.35000e+00	1.585545e-06	
128	-6.40000e+00	1.599845e-06	
129	-6.45000e+00	1.614765e-06	
130	-6.50000e+00	1.630334e-06	
131	-6.55000e+00	1.646582e-06	
132	-6.60000e+00	1.663542e-06	
133	0.000000e+00	-1.20373e-30	
134	-5.00000e-02	2.542048e-06	
135	-1.00000e-01	4.937293e-06	
136	-1.50000e-01	7.186966e-06	
137	-2.00000e-01	9.292298e-06	
138	-2.50000e-01	1.125452e-05	
139	-3.00000e-01	1.307487e-05	
140	-3.50000e-01	1.475459e-05	
141	-4.00000e-01	1.629496e-05	
142	-4.50000e-01	1.769728e-05	
143	-5.00000e-01	1.896294e-05	
144	-5.50000e-01	2.009346e-05	
145	-6.00000e-01	2.109059e-05	
146	-6.50000e-01	2.195655e-05	
147	-7.00000e-01	2.269444e-05	
148	-7.50000e-01	2.330915e-05	
149	-8.00000e-01	2.380889e-05	
150	-8.50000e-01	2.420725e-05	
151	-9.00000e-01	2.452396e-05	
152	-9.50000e-01	2.478148e-05	
153	-1.00000e+00	2.499916e-05	
154	-1.05000e+00	2.519017e-05	
155	-1.10000e+00	2.536247e-05	
156	-1.15000e+00	2.552079e-05	
157	-1.20000e+00	2.566806e-05	
158	-1.25000e+00	2.580625e-05	
159	-1.30000e+00	2.593675e-05	
160	-1.35000e+00	2.606061e-05	
161	-1.40000e+00	2.617865e-05	
162	-1.45000e+00	2.629153e-05	
163	-1.50000e+00	2.639980e-05	
164	-1.55000e+00	2.650392e-05	
165	-1.60000e+00	2.660428e-05	
166	-1.65000e+00	2.670121e-05	
167	-1.70000e+00	2.679500e-05	
168	-1.75000e+00	2.688592e-05	
169	-1.80000e+00	2.697417e-05	
170	-1.85000e+00	2.705997e-05	

Index   v-sweep         i(vds)          
--------------------------------------------------------------------------------
171	-1.90000e+00	2.714349e-05	
172	-1.95000e+00	2.722489e-05	
173	-2.00000e+00	2.730431e-05	
174	-2.05000e+00	2.738187e-05	
175	-2.10000e+00	2.745771e-05	
176	-2.15000e+00	2.753191e-05	
177	-2.20000e+00	2.760459e-05	
178	-2.25000e+00	2.767582e-05	
179	-2.30000e+00	2.774569e-05	
180	-2.35000e+00	2.781428e-05	
181	-2.40000e+00	2.788164e-05	
182	-2.45000e+00	2.794785e-05	
183	-2.50000e+00	2.801297e-05	
184	-2.55000e+00	2.807704e-05	
185	-2.60000e+00	2.814011e-05	
186	-2.65000e+00	2.820224e-05	
187	-2.70000e+00	2.826347e-05	
188	-2.75000e+00	2.832384e-05	
189	-2.80000e+00	2.838339e-05	
190	-2.85000e+00	2.844214e-05	
191	-2.90000e+00	2.850015e-05	
192	-2.95000e+00	2.855743e-05	
193	-3.00000e+00	2.861401e-05	
194	-3.05000e+00	2.866994e-05	
195	-3.10000e+00	2.872522e-05	
196	-3.15000e+00	2.877989e-05	
197	-3.20000e+00	2.883397e-05	
198	-3.25000e+00	2.888747e-05	
199	-3.30000e+00	2.894043e-05	
200	-3.35000e+00	2.899287e-05	
201	-3.40000e+00	2.904479e-05	
202	-3.45000e+00	2.909622e-05	
203	-3.50000e+00	2.914718e-05	
204	-3.55000e+00	2.919768e-05	
205	-3.60000e+00	2.924774e-05	
206	-3.65000e+00	2.929738e-05	
207	-3.70000e+00	2.934660e-05	
208	-3.75000e+00	2.939543e-05	
209	-3.80000e+00	2.944387e-05	
210	-3.85000e+00	2.949195e-05	
211	-3.90000e+00	2.953968e-05	
212	-3.95000e+00	2.958706e-05	
213	-4.00000e+00	2.963412e-05	
214	-4.05000e+00	2.968087e-05	
215	-4.10000e+00	2.972732e-05	
216	-4.15000e+00	2.977350e-05	
217	-4.20000e+00	2.981941e-05	
218	-4.25000e+00	2.986508e-05	
219	-4.30000e+00	2.991053e-05	
220	-4.35000e+00	2.995577e-05	
221	-4.40000e+00	3.000083e-05	
222	-4.45000e+00	3.004573e-05	
223	-4.50000e+00	3.009050e-05	
224	-4.55000e+00	3.013517e-05	
225	-4.60000e+00	3.017978e-05	
226	-4.65000e+00	3.022434e-05	
227	-4.70000e+00	3.026891e-05	
228	-4.75000e+00	3.031353e-05	

Index   v-sweep         i(vds)          
--------------------------------------------------------------------------------
229	-4.80000e+00	3.035823e-05	
230	-4.85000e+00	3.040307e-05	
231	-4.90000e+00	3.044811e-05	
232	-4.95000e+00	3.049341e-05	
233	-5.00000e+00	3.053902e-05	
234	-5.05000e+00	3.058502e-05	
235	-5.10000e+00	3.063149e-05	
236	-5.15000e+00	3.067850e-05	
237	-5.20000e+00	3.072615e-05	
238	-5.25000e+00	3.077454e-05	
239	-5.30000e+00	3.082376e-05	
240	-5.35000e+00	3.087393e-05	
241	-5.40000e+00	3.092517e-05	
242	-5.45000e+00	3.097760e-05	
243	-5.50000e+00	3.103137e-05	
244	-5.55000e+00	3.108662e-05	
245	-5.60000e+00	3.114349e-05	
246	-5.65000e+00	3.120217e-05	
247	-5.70000e+00	3.126281e-05	
248	-5.75000e+00	3.132561e-05	
249	-5.80000e+00	3.139077e-05	
250	-5.85000e+00	3.145848e-05	
251	-5.90000e+00	3.152897e-05	
252	-5.95000e+00	3.160247e-05	
253	-6.00000e+00	3.167921e-05	
254	-6.05000e+00	3.175944e-05	
255	-6.10000e+00	3.184344e-05	
256	-6.15000e+00	3.193148e-05	
257	-6.20000e+00	3.202384e-05	
258	-6.25000e+00	3.212083e-05	
259	-6.30000e+00	3.222275e-05	
260	-6.35000e+00	3.232995e-05	
261	-6.40000e+00	3.244275e-05	
262	-6.45000e+00	3.256151e-05	
263	-6.50000e+00	3.268659e-05	
264	-6.55000e+00	3.281837e-05	
265	-6.60000e+00	3.295725e-05	
266	0.000000e+00	-2.52861e-22	
267	-5.00000e-02	4.117024e-06	
268	-1.00000e-01	8.098577e-06	
269	-1.50000e-01	1.194555e-05	
270	-2.00000e-01	1.565884e-05	
271	-2.50000e-01	1.923934e-05	
272	-3.00000e-01	2.268792e-05	
273	-3.50000e-01	2.600547e-05	
274	-4.00000e-01	2.919287e-05	
275	-4.50000e-01	3.225099e-05	
276	-5.00000e-01	3.518072e-05	
277	-5.50000e-01	3.798293e-05	
278	-6.00000e-01	4.065848e-05	
279	-6.50000e-01	4.320826e-05	
280	-7.00000e-01	4.563312e-05	
281	-7.50000e-01	4.793396e-05	
282	-8.00000e-01	5.011165e-05	
283	-8.50000e-01	5.216709e-05	
284	-9.00000e-01	5.410117e-05	
285	-9.50000e-01	5.591483e-05	
286	-1.00000e+00	5.760902e-05	

Index   v-sweep         i(vds)          
--------------------------------------------------------------------------------
287	-1.05000e+00	5.918477e-05	
288	-1.10000e+00	6.064317e-05	
289	-1.15000e+00	6.198546e-05	
290	-1.20000e+00	6.321311e-05	
291	-1.25000e+00	6.432795e-05	
292	-1.30000e+00	6.533244e-05	
293	-1.35000e+00	6.623007e-05	
294	-1.40000e+00	6.702594e-05	
295	-1.45000e+00	6.772752e-05	
296	-1.50000e+00	6.834493e-05	
297	-1.55000e+00	6.889050e-05	
298	-1.60000e+00	6.937701e-05	
299	-1.65000e+00	6.981597e-05	
300	-1.70000e+00	7.021666e-05	
301	-1.75000e+00	7.058610e-05	
302	-1.80000e+00	7.092957e-05	
303	-1.85000e+00	7.125106e-05	
304	-1.90000e+00	7.155367e-05	
305	-1.95000e+00	7.183985e-05	
306	-2.00000e+00	7.211157e-05	
307	-2.05000e+00	7.237046e-05	
308	-2.10000e+00	7.261789e-05	
309	-2.15000e+00	7.285500e-05	
310	-2.20000e+00	7.308278e-05	
311	-2.25000e+00	7.330208e-05	
312	-2.30000e+00	7.351364e-05	
313	-2.35000e+00	7.371808e-05	
314	-2.40000e+00	7.391599e-05	
315	-2.45000e+00	7.410787e-05	
316	-2.50000e+00	7.429415e-05	
317	-2.55000e+00	7.447524e-05	
318	-2.60000e+00	7.465150e-05	
319	-2.65000e+00	7.482324e-05	
320	-2.70000e+00	7.499075e-05	
321	-2.75000e+00	7.515431e-05	
322	-2.80000e+00	7.531415e-05	
323	-2.85000e+00	7.547048e-05	
324	-2.90000e+00	7.562352e-05	
325	-2.95000e+00	7.577344e-05	
326	-3.00000e+00	7.592040e-05	
327	-3.05000e+00	7.606458e-05	
328	-3.10000e+00	7.620611e-05	
329	-3.15000e+00	7.634512e-05	
330	-3.20000e+00	7.648173e-05	
331	-3.25000e+00	7.661607e-05	
332	-3.30000e+00	7.674824e-05	
333	-3.35000e+00	7.687833e-05	
334	-3.40000e+00	7.700645e-05	
335	-3.45000e+00	7.713267e-05	
336	-3.50000e+00	7.725707e-05	
337	-3.55000e+00	7.737975e-05	
338	-3.60000e+00	7.750076e-05	
339	-3.65000e+00	7.762017e-05	
340	-3.70000e+00	7.773805e-05	
341	-3.75000e+00	7.785445e-05	
342	-3.80000e+00	7.796944e-05	
343	-3.85000e+00	7.808306e-05	
344	-3.90000e+00	7.819537e-05	

Index   v-sweep         i(vds)          
--------------------------------------------------------------------------------
345	-3.95000e+00	7.830641e-05	
346	-4.00000e+00	7.841623e-05	
347	-4.05000e+00	7.852488e-05	
348	-4.10000e+00	7.863239e-05	
349	-4.15000e+00	7.873880e-05	
350	-4.20000e+00	7.884416e-05	
351	-4.25000e+00	7.894850e-05	
352	-4.30000e+00	7.905185e-05	
353	-4.35000e+00	7.915425e-05	
354	-4.40000e+00	7.925573e-05	
355	-4.45000e+00	7.935633e-05	
356	-4.50000e+00	7.945608e-05	
357	-4.55000e+00	7.955502e-05	
358	-4.60000e+00	7.965318e-05	
359	-4.65000e+00	7.975059e-05	
360	-4.70000e+00	7.984730e-05	
361	-4.75000e+00	7.994333e-05	
362	-4.80000e+00	8.003874e-05	
363	-4.85000e+00	8.013356e-05	
364	-4.90000e+00	8.022784e-05	
365	-4.95000e+00	8.032164e-05	
366	-5.00000e+00	8.041500e-05	
367	-5.05000e+00	8.050798e-05	
368	-5.10000e+00	8.060065e-05	
369	-5.15000e+00	8.069308e-05	
370	-5.20000e+00	8.078536e-05	
371	-5.25000e+00	8.087755e-05	
372	-5.30000e+00	8.096976e-05	
373	-5.35000e+00	8.106209e-05	
374	-5.40000e+00	8.115466e-05	
375	-5.45000e+00	8.124758e-05	
376	-5.50000e+00	8.134099e-05	
377	-5.55000e+00	8.143505e-05	
378	-5.60000e+00	8.152991e-05	
379	-5.65000e+00	8.162574e-05	
380	-5.70000e+00	8.172274e-05	
381	-5.75000e+00	8.182112e-05	
382	-5.80000e+00	8.192109e-05	
383	-5.85000e+00	8.202290e-05	
384	-5.90000e+00	8.212682e-05	
385	-5.95000e+00	8.223312e-05	
386	-6.00000e+00	8.234209e-05	
387	-6.05000e+00	8.245408e-05	
388	-6.10000e+00	8.256941e-05	
389	-6.15000e+00	8.268845e-05	
390	-6.20000e+00	8.281160e-05	
391	-6.25000e+00	8.293928e-05	
392	-6.30000e+00	8.307192e-05	
393	-6.35000e+00	8.320999e-05	
394	-6.40000e+00	8.335399e-05	
395	-6.45000e+00	8.350444e-05	
396	-6.50000e+00	8.366189e-05	
397	-6.55000e+00	8.382691e-05	
398	-6.60000e+00	8.400013e-05	
399	0.000000e+00	-4.72579e-22	
400	-5.00000e-02	5.322864e-06	
401	-1.00000e-01	1.052140e-05	
402	-1.50000e-01	1.559629e-05	

Index   v-sweep         i(vds)          
--------------------------------------------------------------------------------
403	-2.00000e-01	2.054822e-05	
404	-2.50000e-01	2.537787e-05	
405	-3.00000e-01	3.008593e-05	
406	-3.50000e-01	3.467306e-05	
407	-4.00000e-01	3.913995e-05	
408	-4.50000e-01	4.348727e-05	
409	-5.00000e-01	4.771570e-05	
410	-5.50000e-01	5.182589e-05	
411	-6.00000e-01	5.581853e-05	
412	-6.50000e-01	5.969427e-05	
413	-7.00000e-01	6.345378e-05	
414	-7.50000e-01	6.709773e-05	
415	-8.00000e-01	7.062677e-05	
416	-8.50000e-01	7.404157e-05	
417	-9.00000e-01	7.734279e-05	
418	-9.50000e-01	8.053107e-05	
419	-1.00000e+00	8.360709e-05	
420	-1.05000e+00	8.657148e-05	
421	-1.10000e+00	8.942492e-05	
422	-1.15000e+00	9.216806e-05	
423	-1.20000e+00	9.480154e-05	
424	-1.25000e+00	9.732605e-05	
425	-1.30000e+00	9.974223e-05	
426	-1.35000e+00	1.020508e-04	
427	-1.40000e+00	1.042523e-04	
428	-1.45000e+00	1.063476e-04	
429	-1.50000e+00	1.083374e-04	
430	-1.55000e+00	1.102223e-04	
431	-1.60000e+00	1.120032e-04	
432	-1.65000e+00	1.136808e-04	
433	-1.70000e+00	1.152562e-04	
434	-1.75000e+00	1.167304e-04	
435	-1.80000e+00	1.181046e-04	
436	-1.85000e+00	1.193805e-04	
437	-1.90000e+00	1.205600e-04	
438	-1.95000e+00	1.216460e-04	
439	-2.00000e+00	1.226422e-04	
440	-2.05000e+00	1.235536e-04	
441	-2.10000e+00	1.243867e-04	
442	-2.15000e+00	1.251490e-04	
443	-2.20000e+00	1.258488e-04	
444	-2.25000e+00	1.264938e-04	
445	-2.30000e+00	1.270915e-04	
446	-2.35000e+00	1.276482e-04	
447	-2.40000e+00	1.281692e-04	
448	-2.45000e+00	1.286591e-04	
449	-2.50000e+00	1.291216e-04	
450	-2.55000e+00	1.295599e-04	
451	-2.60000e+00	1.299767e-04	
452	-2.65000e+00	1.303742e-04	
453	-2.70000e+00	1.307544e-04	
454	-2.75000e+00	1.311189e-04	
455	-2.80000e+00	1.314691e-04	
456	-2.85000e+00	1.318064e-04	
457	-2.90000e+00	1.321318e-04	
458	-2.95000e+00	1.324463e-04	
459	-3.00000e+00	1.327507e-04	
460	-3.05000e+00	1.330458e-04	

Index   v-sweep         i(vds)          
--------------------------------------------------------------------------------
461	-3.10000e+00	1.333323e-04	
462	-3.15000e+00	1.336107e-04	
463	-3.20000e+00	1.338817e-04	
464	-3.25000e+00	1.341457e-04	
465	-3.30000e+00	1.344032e-04	
466	-3.35000e+00	1.346545e-04	
467	-3.40000e+00	1.349001e-04	
468	-3.45000e+00	1.351402e-04	
469	-3.50000e+00	1.353752e-04	
470	-3.55000e+00	1.356054e-04	
471	-3.60000e+00	1.358309e-04	
472	-3.65000e+00	1.360522e-04	
473	-3.70000e+00	1.362693e-04	
474	-3.75000e+00	1.364825e-04	
475	-3.80000e+00	1.366920e-04	
476	-3.85000e+00	1.368980e-04	
477	-3.90000e+00	1.371005e-04	
478	-3.95000e+00	1.372999e-04	
479	-4.00000e+00	1.374961e-04	
480	-4.05000e+00	1.376895e-04	
481	-4.10000e+00	1.378799e-04	
482	-4.15000e+00	1.380677e-04	
483	-4.20000e+00	1.382529e-04	
484	-4.25000e+00	1.384356e-04	
485	-4.30000e+00	1.386159e-04	
486	-4.35000e+00	1.387939e-04	
487	-4.40000e+00	1.389697e-04	
488	-4.45000e+00	1.391434e-04	
489	-4.50000e+00	1.393150e-04	
490	-4.55000e+00	1.394847e-04	
491	-4.60000e+00	1.396524e-04	
492	-4.65000e+00	1.398183e-04	
493	-4.70000e+00	1.399825e-04	
494	-4.75000e+00	1.401449e-04	
495	-4.80000e+00	1.403056e-04	
496	-4.85000e+00	1.404648e-04	
497	-4.90000e+00	1.406225e-04	
498	-4.95000e+00	1.407786e-04	
499	-5.00000e+00	1.409334e-04	
500	-5.05000e+00	1.410867e-04	
501	-5.10000e+00	1.412387e-04	
502	-5.15000e+00	1.413895e-04	
503	-5.20000e+00	1.415391e-04	
504	-5.25000e+00	1.416875e-04	
505	-5.30000e+00	1.418348e-04	
506	-5.35000e+00	1.419811e-04	
507	-5.40000e+00	1.421265e-04	
508	-5.45000e+00	1.422710e-04	
509	-5.50000e+00	1.424146e-04	
510	-5.55000e+00	1.425576e-04	
511	-5.60000e+00	1.426999e-04	
512	-5.65000e+00	1.428417e-04	
513	-5.70000e+00	1.429832e-04	
514	-5.75000e+00	1.431243e-04	
515	-5.80000e+00	1.432653e-04	
516	-5.85000e+00	1.434063e-04	
517	-5.90000e+00	1.435475e-04	
518	-5.95000e+00	1.436890e-04	

Index   v-sweep         i(vds)          
--------------------------------------------------------------------------------
519	-6.00000e+00	1.438311e-04	
520	-6.05000e+00	1.439740e-04	
521	-6.10000e+00	1.441179e-04	
522	-6.15000e+00	1.442630e-04	
523	-6.20000e+00	1.444098e-04	
524	-6.25000e+00	1.445584e-04	
525	-6.30000e+00	1.447093e-04	
526	-6.35000e+00	1.448627e-04	
527	-6.40000e+00	1.450191e-04	
528	-6.45000e+00	1.451790e-04	
529	-6.50000e+00	1.453427e-04	
530	-6.55000e+00	1.455108e-04	
531	-6.60000e+00	1.456839e-04	
532	0.000000e+00	1.819859e-32	
533	-5.00000e-02	6.284527e-06	
534	-1.00000e-01	1.245449e-05	
535	-1.50000e-01	1.851043e-05	
536	-2.00000e-01	2.445288e-05	
537	-2.50000e-01	3.028240e-05	
538	-3.00000e-01	3.599953e-05	
539	-3.50000e-01	4.160480e-05	
540	-4.00000e-01	4.709875e-05	
541	-4.50000e-01	5.248192e-05	
542	-5.00000e-01	5.775484e-05	
543	-5.50000e-01	6.291805e-05	
544	-6.00000e-01	6.797209e-05	
545	-6.50000e-01	7.291748e-05	
546	-7.00000e-01	7.775476e-05	
547	-7.50000e-01	8.248445e-05	
548	-8.00000e-01	8.710708e-05	
549	-8.50000e-01	9.162319e-05	
550	-9.00000e-01	9.603328e-05	
551	-9.50000e-01	1.003379e-04	
552	-1.00000e+00	1.045376e-04	
553	-1.05000e+00	1.086328e-04	
554	-1.10000e+00	1.126241e-04	
555	-1.15000e+00	1.165120e-04	
556	-1.20000e+00	1.202970e-04	
557	-1.25000e+00	1.239797e-04	
558	-1.30000e+00	1.275605e-04	
559	-1.35000e+00	1.310400e-04	
560	-1.40000e+00	1.344186e-04	
561	-1.45000e+00	1.376970e-04	
562	-1.50000e+00	1.408756e-04	
563	-1.55000e+00	1.439549e-04	
564	-1.60000e+00	1.469354e-04	
565	-1.65000e+00	1.498177e-04	
566	-1.70000e+00	1.526022e-04	
567	-1.75000e+00	1.552896e-04	
568	-1.80000e+00	1.578802e-04	
569	-1.85000e+00	1.603747e-04	
570	-1.90000e+00	1.627735e-04	
571	-1.95000e+00	1.650773e-04	
572	-2.00000e+00	1.672865e-04	
573	-2.05000e+00	1.694017e-04	
574	-2.10000e+00	1.714235e-04	
575	-2.15000e+00	1.733526e-04	
576	-2.20000e+00	1.751894e-04	

Index   v-sweep         i(vds)          
--------------------------------------------------------------------------------
577	-2.25000e+00	1.769349e-04	
578	-2.30000e+00	1.785896e-04	
579	-2.35000e+00	1.801545e-04	
580	-2.40000e+00	1.816307e-04	
581	-2.45000e+00	1.830193e-04	
582	-2.50000e+00	1.843220e-04	
583	-2.55000e+00	1.855407e-04	
584	-2.60000e+00	1.866782e-04	
585	-2.65000e+00	1.877378e-04	
586	-2.70000e+00	1.887239e-04	
587	-2.75000e+00	1.896417e-04	
588	-2.80000e+00	1.904968e-04	
589	-2.85000e+00	1.912954e-04	
590	-2.90000e+00	1.920431e-04	
591	-2.95000e+00	1.927456e-04	
592	-3.00000e+00	1.934076e-04	
593	-3.05000e+00	1.940336e-04	
594	-3.10000e+00	1.946274e-04	
595	-3.15000e+00	1.951924e-04	
596	-3.20000e+00	1.957314e-04	
597	-3.25000e+00	1.962469e-04	
598	-3.30000e+00	1.967412e-04	
599	-3.35000e+00	1.972161e-04	
600	-3.40000e+00	1.976733e-04	
601	-3.45000e+00	1.981143e-04	
602	-3.50000e+00	1.985405e-04	
603	-3.55000e+00	1.989529e-04	
604	-3.60000e+00	1.993526e-04	
605	-3.65000e+00	1.997405e-04	
606	-3.70000e+00	2.001174e-04	
607	-3.75000e+00	2.004841e-04	
608	-3.80000e+00	2.008413e-04	
609	-3.85000e+00	2.011896e-04	
610	-3.90000e+00	2.015295e-04	
611	-3.95000e+00	2.018615e-04	
612	-4.00000e+00	2.021860e-04	
613	-4.05000e+00	2.025036e-04	
614	-4.10000e+00	2.028146e-04	
615	-4.15000e+00	2.031193e-04	
616	-4.20000e+00	2.034181e-04	
617	-4.25000e+00	2.037113e-04	
618	-4.30000e+00	2.039992e-04	
619	-4.35000e+00	2.042819e-04	
620	-4.40000e+00	2.045599e-04	
621	-4.45000e+00	2.048332e-04	
622	-4.50000e+00	2.051021e-04	
623	-4.55000e+00	2.053668e-04	
624	-4.60000e+00	2.056275e-04	
625	-4.65000e+00	2.058844e-04	
626	-4.70000e+00	2.061376e-04	
627	-4.75000e+00	2.063872e-04	
628	-4.80000e+00	2.066335e-04	
629	-4.85000e+00	2.068764e-04	
630	-4.90000e+00	2.071163e-04	
631	-4.95000e+00	2.073532e-04	
632	-5.00000e+00	2.075871e-04	
633	-5.05000e+00	2.078183e-04	
634	-5.10000e+00	2.080467e-04	

Index   v-sweep         i(vds)          
--------------------------------------------------------------------------------
635	-5.15000e+00	2.082726e-04	
636	-5.20000e+00	2.084960e-04	
637	-5.25000e+00	2.087169e-04	
638	-5.30000e+00	2.089356e-04	
639	-5.35000e+00	2.091520e-04	
640	-5.40000e+00	2.093662e-04	
641	-5.45000e+00	2.095783e-04	
642	-5.50000e+00	2.097884e-04	
643	-5.55000e+00	2.099966e-04	
644	-5.60000e+00	2.102029e-04	
645	-5.65000e+00	2.104074e-04	
646	-5.70000e+00	2.106102e-04	
647	-5.75000e+00	2.108113e-04	
648	-5.80000e+00	2.110109e-04	
649	-5.85000e+00	2.112090e-04	
650	-5.90000e+00	2.114057e-04	
651	-5.95000e+00	2.116012e-04	
652	-6.00000e+00	2.117954e-04	
653	-6.05000e+00	2.119886e-04	
654	-6.10000e+00	2.121808e-04	
655	-6.15000e+00	2.123722e-04	
656	-6.20000e+00	2.125629e-04	
657	-6.25000e+00	2.127531e-04	
658	-6.30000e+00	2.129430e-04	
659	-6.35000e+00	2.131327e-04	
660	-6.40000e+00	2.133224e-04	
661	-6.45000e+00	2.135125e-04	
662	-6.50000e+00	2.137031e-04	
663	-6.55000e+00	2.138946e-04	
664	-6.60000e+00	2.140873e-04	
665	0.000000e+00	6.269538e-20	
666	-5.00000e-02	7.075573e-06	
667	-1.00000e-01	1.404499e-05	
668	-1.50000e-01	2.090870e-05	
669	-2.00000e-01	2.766714e-05	
670	-2.50000e-01	3.432075e-05	
671	-3.00000e-01	4.086998e-05	
672	-3.50000e-01	4.731527e-05	
673	-4.00000e-01	5.365706e-05	
674	-4.50000e-01	5.989579e-05	
675	-5.00000e-01	6.603189e-05	
676	-5.50000e-01	7.206581e-05	
677	-6.00000e-01	7.799798e-05	
678	-6.50000e-01	8.382884e-05	
679	-7.00000e-01	8.955882e-05	
680	-7.50000e-01	9.518835e-05	
681	-8.00000e-01	1.007179e-04	
682	-8.50000e-01	1.061478e-04	
683	-9.00000e-01	1.114786e-04	
684	-9.50000e-01	1.167107e-04	
685	-1.00000e+00	1.218445e-04	
686	-1.05000e+00	1.268804e-04	
687	-1.10000e+00	1.318189e-04	
688	-1.15000e+00	1.366604e-04	
689	-1.20000e+00	1.414053e-04	
690	-1.25000e+00	1.460541e-04	
691	-1.30000e+00	1.506071e-04	
692	-1.35000e+00	1.550648e-04	

Index   v-sweep         i(vds)          
--------------------------------------------------------------------------------
693	-1.40000e+00	1.594276e-04	
694	-1.45000e+00	1.636960e-04	
695	-1.50000e+00	1.678703e-04	
696	-1.55000e+00	1.719510e-04	
697	-1.60000e+00	1.759384e-04	
698	-1.65000e+00	1.798331e-04	
699	-1.70000e+00	1.836354e-04	
700	-1.75000e+00	1.873457e-04	
701	-1.80000e+00	1.909645e-04	
702	-1.85000e+00	1.944922e-04	
703	-1.90000e+00	1.979291e-04	
704	-1.95000e+00	2.012757e-04	
705	-2.00000e+00	2.045325e-04	
706	-2.05000e+00	2.076997e-04	
707	-2.10000e+00	2.107780e-04	
708	-2.15000e+00	2.137675e-04	
709	-2.20000e+00	2.166689e-04	
710	-2.25000e+00	2.194824e-04	
711	-2.30000e+00	2.222086e-04	
712	-2.35000e+00	2.248478e-04	
713	-2.40000e+00	2.274005e-04	
714	-2.45000e+00	2.298670e-04	
715	-2.50000e+00	2.322479e-04	
716	-2.55000e+00	2.345435e-04	
717	-2.60000e+00	2.367544e-04	
718	-2.65000e+00	2.388809e-04	
719	-2.70000e+00	2.409235e-04	
720	-2.75000e+00	2.428828e-04	
721	-2.80000e+00	2.447592e-04	
722	-2.85000e+00	2.465532e-04	
723	-2.90000e+00	2.482654e-04	
724	-2.95000e+00	2.498964e-04	
725	-3.00000e+00	2.514468e-04	
726	-3.05000e+00	2.529173e-04	
727	-3.10000e+00	2.543088e-04	
728	-3.15000e+00	2.556226e-04	
729	-3.20000e+00	2.568604e-04	
730	-3.25000e+00	2.580247e-04	
731	-3.30000e+00	2.591188e-04	
732	-3.35000e+00	2.601467e-04	
733	-3.40000e+00	2.611132e-04	
734	-3.45000e+00	2.620234e-04	
735	-3.50000e+00	2.628822e-04	
736	-3.55000e+00	2.636946e-04	
737	-3.60000e+00	2.644649e-04	
738	-3.65000e+00	2.651973e-04	
739	-3.70000e+00	2.658954e-04	
740	-3.75000e+00	2.665624e-04	
741	-3.80000e+00	2.672012e-04	
742	-3.85000e+00	2.678142e-04	
743	-3.90000e+00	2.684038e-04	
744	-3.95000e+00	2.689719e-04	
745	-4.00000e+00	2.695202e-04	
746	-4.05000e+00	2.700503e-04	
747	-4.10000e+00	2.705635e-04	
748	-4.15000e+00	2.710612e-04	
749	-4.20000e+00	2.715443e-04	
750	-4.25000e+00	2.720140e-04	

Index   v-sweep         i(vds)          
--------------------------------------------------------------------------------
751	-4.30000e+00	2.724711e-04	
752	-4.35000e+00	2.729165e-04	
753	-4.40000e+00	2.733508e-04	
754	-4.45000e+00	2.737748e-04	
755	-4.50000e+00	2.741890e-04	
756	-4.55000e+00	2.745941e-04	
757	-4.60000e+00	2.749905e-04	
758	-4.65000e+00	2.753788e-04	
759	-4.70000e+00	2.757593e-04	
760	-4.75000e+00	2.761325e-04	
761	-4.80000e+00	2.764987e-04	
762	-4.85000e+00	2.768583e-04	
763	-4.90000e+00	2.772116e-04	
764	-4.95000e+00	2.775589e-04	
765	-5.00000e+00	2.779005e-04	
766	-5.05000e+00	2.782366e-04	
767	-5.10000e+00	2.785675e-04	
768	-5.15000e+00	2.788935e-04	
769	-5.20000e+00	2.792146e-04	
770	-5.25000e+00	2.795312e-04	
771	-5.30000e+00	2.798433e-04	
772	-5.35000e+00	2.801513e-04	
773	-5.40000e+00	2.804552e-04	
774	-5.45000e+00	2.807552e-04	
775	-5.50000e+00	2.810515e-04	
776	-5.55000e+00	2.813442e-04	
777	-5.60000e+00	2.816334e-04	
778	-5.65000e+00	2.819193e-04	
779	-5.70000e+00	2.822019e-04	
780	-5.75000e+00	2.824814e-04	
781	-5.80000e+00	2.827579e-04	
782	-5.85000e+00	2.830316e-04	
783	-5.90000e+00	2.833024e-04	
784	-5.95000e+00	2.835705e-04	
785	-6.00000e+00	2.838361e-04	
786	-6.05000e+00	2.840991e-04	
787	-6.10000e+00	2.843597e-04	
788	-6.15000e+00	2.846180e-04	
789	-6.20000e+00	2.848741e-04	
790	-6.25000e+00	2.851280e-04	
791	-6.30000e+00	2.853799e-04	
792	-6.35000e+00	2.856299e-04	
793	-6.40000e+00	2.858780e-04	
794	-6.45000e+00	2.861245e-04	
795	-6.50000e+00	2.863693e-04	
796	-6.55000e+00	2.866128e-04	
797	-6.60000e+00	2.868549e-04	
Note: No ".plot", ".print", or ".fourier" lines; no simulations run
