
Note: Compatibility modes selected: hs

Warning: m=xx on .subckt line will override multiplier m hierarchy!


Circuit: ***************************

Doing analysis at TEMP = -40.000000 and TNOM = -40.000000


No. of Data Rows : 798
                          ***************************
                          DC transfer characteristic  Mon Jan  9 13:58:50  2023
--------------------------------------------------------------------------------
Index   v-sweep         i(vds)          
--------------------------------------------------------------------------------
0	0.000000e+00	-6.64470e-24	
1	-5.00000e-02	4.697148e-08	
2	-1.00000e-01	5.552754e-08	
3	-1.50000e-01	5.676812e-08	
4	-2.00000e-01	5.712593e-08	
5	-2.50000e-01	5.729813e-08	
6	-3.00000e-01	5.740874e-08	
7	-3.50000e-01	5.749216e-08	
8	-4.00000e-01	5.756106e-08	
9	-4.50000e-01	5.762108e-08	
10	-5.00000e-01	5.767513e-08	
11	-5.50000e-01	5.772485e-08	
12	-6.00000e-01	5.777128e-08	
13	-6.50000e-01	5.781508e-08	
14	-7.00000e-01	5.785674e-08	
15	-7.50000e-01	5.789660e-08	
16	-8.00000e-01	5.793492e-08	
17	-8.50000e-01	5.797191e-08	
18	-9.00000e-01	5.800774e-08	
19	-9.50000e-01	5.804252e-08	
20	-1.00000e+00	5.807638e-08	
21	-1.05000e+00	5.810940e-08	
22	-1.10000e+00	5.814166e-08	
23	-1.15000e+00	5.817324e-08	
24	-1.20000e+00	5.820418e-08	
25	-1.25000e+00	5.823453e-08	
26	-1.30000e+00	5.826435e-08	
27	-1.35000e+00	5.829366e-08	
28	-1.40000e+00	5.832252e-08	
29	-1.45000e+00	5.835093e-08	
30	-1.50000e+00	5.837895e-08	
31	-1.55000e+00	5.840658e-08	
32	-1.60000e+00	5.843386e-08	
33	-1.65000e+00	5.846080e-08	
34	-1.70000e+00	5.848742e-08	
35	-1.75000e+00	5.851375e-08	
36	-1.80000e+00	5.853979e-08	
37	-1.85000e+00	5.856556e-08	
38	-1.90000e+00	5.859108e-08	
39	-1.95000e+00	5.861635e-08	
40	-2.00000e+00	5.864140e-08	
41	-2.05000e+00	5.866622e-08	
42	-2.10000e+00	5.869084e-08	
43	-2.15000e+00	5.871526e-08	
44	-2.20000e+00	5.873948e-08	
45	-2.25000e+00	5.876352e-08	
46	-2.30000e+00	5.878739e-08	
47	-2.35000e+00	5.881109e-08	
48	-2.40000e+00	5.883462e-08	
49	-2.45000e+00	5.885800e-08	
50	-2.50000e+00	5.888124e-08	
51	-2.55000e+00	5.890433e-08	
52	-2.60000e+00	5.892729e-08	
53	-2.65000e+00	5.895011e-08	
54	-2.70000e+00	5.897281e-08	

Index   v-sweep         i(vds)          
--------------------------------------------------------------------------------
55	-2.75000e+00	5.899539e-08	
56	-2.80000e+00	5.901786e-08	
57	-2.85000e+00	5.904022e-08	
58	-2.90000e+00	5.906247e-08	
59	-2.95000e+00	5.908464e-08	
60	-3.00000e+00	5.910672e-08	
61	-3.05000e+00	5.912872e-08	
62	-3.10000e+00	5.915066e-08	
63	-3.15000e+00	5.917254e-08	
64	-3.20000e+00	5.919437e-08	
65	-3.25000e+00	5.921617e-08	
66	-3.30000e+00	5.923796e-08	
67	-3.35000e+00	5.925975e-08	
68	-3.40000e+00	5.928157e-08	
69	-3.45000e+00	5.930344e-08	
70	-3.50000e+00	5.932539e-08	
71	-3.55000e+00	5.934745e-08	
72	-3.60000e+00	5.936965e-08	
73	-3.65000e+00	5.939204e-08	
74	-3.70000e+00	5.941466e-08	
75	-3.75000e+00	5.943756e-08	
76	-3.80000e+00	5.946081e-08	
77	-3.85000e+00	5.948447e-08	
78	-3.90000e+00	5.950861e-08	
79	-3.95000e+00	5.953330e-08	
80	-4.00000e+00	5.955865e-08	
81	-4.05000e+00	5.958475e-08	
82	-4.10000e+00	5.961170e-08	
83	-4.15000e+00	5.963963e-08	
84	-4.20000e+00	5.966867e-08	
85	-4.25000e+00	5.969895e-08	
86	-4.30000e+00	5.973063e-08	
87	-4.35000e+00	5.976388e-08	
88	-4.40000e+00	5.979888e-08	
89	-4.45000e+00	5.983582e-08	
90	-4.50000e+00	5.987492e-08	
91	-4.55000e+00	5.991639e-08	
92	-4.60000e+00	5.996048e-08	
93	-4.65000e+00	6.000745e-08	
94	-4.70000e+00	6.005757e-08	
95	-4.75000e+00	6.011114e-08	
96	-4.80000e+00	6.016846e-08	
97	-4.85000e+00	6.022987e-08	
98	-4.90000e+00	6.029571e-08	
99	-4.95000e+00	6.036636e-08	
100	-5.00000e+00	6.044219e-08	
101	-5.05000e+00	6.052364e-08	
102	-5.10000e+00	6.061111e-08	
103	-5.15000e+00	6.070507e-08	
104	-5.20000e+00	6.080599e-08	
105	-5.25000e+00	6.091436e-08	
106	-5.30000e+00	6.103070e-08	
107	-5.35000e+00	6.115555e-08	
108	-5.40000e+00	6.128949e-08	
109	-5.45000e+00	6.143308e-08	
110	-5.50000e+00	6.158694e-08	
111	-5.55000e+00	6.175171e-08	
112	-5.60000e+00	6.192803e-08	

Index   v-sweep         i(vds)          
--------------------------------------------------------------------------------
113	-5.65000e+00	6.211660e-08	
114	-5.70000e+00	6.231810e-08	
115	-5.75000e+00	6.253327e-08	
116	-5.80000e+00	6.276286e-08	
117	-5.85000e+00	6.300764e-08	
118	-5.90000e+00	6.326841e-08	
119	-5.95000e+00	6.354598e-08	
120	-6.00000e+00	6.384120e-08	
121	-6.05000e+00	6.415494e-08	
122	-6.10000e+00	6.448809e-08	
123	-6.15000e+00	6.484155e-08	
124	-6.20000e+00	6.521626e-08	
125	-6.25000e+00	6.561319e-08	
126	-6.30000e+00	6.603330e-08	
127	-6.35000e+00	6.647760e-08	
128	-6.40000e+00	6.694712e-08	
129	-6.45000e+00	6.744288e-08	
130	-6.50000e+00	6.796597e-08	
131	-6.55000e+00	6.851746e-08	
132	-6.60000e+00	6.909847e-08	
133	0.000000e+00	-9.80836e-22	
134	-5.00000e-02	1.595269e-06	
135	-1.00000e-01	3.077195e-06	
136	-1.50000e-01	4.445960e-06	
137	-2.00000e-01	5.701756e-06	
138	-2.50000e-01	6.844796e-06	
139	-3.00000e-01	7.875322e-06	
140	-3.50000e-01	8.793631e-06	
141	-4.00000e-01	9.600116e-06	
142	-4.50000e-01	1.029534e-05	
143	-5.00000e-01	1.088023e-05	
144	-5.50000e-01	1.135639e-05	
145	-6.00000e-01	1.172693e-05	
146	-6.50000e-01	1.199801e-05	
147	-7.00000e-01	1.218139e-05	
148	-7.50000e-01	1.229609e-05	
149	-8.00000e-01	1.236504e-05	
150	-8.50000e-01	1.240772e-05	
151	-9.00000e-01	1.243643e-05	
152	-9.50000e-01	1.245764e-05	
153	-1.00000e+00	1.247458e-05	
154	-1.05000e+00	1.248890e-05	
155	-1.10000e+00	1.250150e-05	
156	-1.15000e+00	1.251288e-05	
157	-1.20000e+00	1.252336e-05	
158	-1.25000e+00	1.253314e-05	
159	-1.30000e+00	1.254237e-05	
160	-1.35000e+00	1.255113e-05	
161	-1.40000e+00	1.255951e-05	
162	-1.45000e+00	1.256756e-05	
163	-1.50000e+00	1.257532e-05	
164	-1.55000e+00	1.258284e-05	
165	-1.60000e+00	1.259012e-05	
166	-1.65000e+00	1.259721e-05	
167	-1.70000e+00	1.260412e-05	
168	-1.75000e+00	1.261087e-05	
169	-1.80000e+00	1.261747e-05	
170	-1.85000e+00	1.262393e-05	

Index   v-sweep         i(vds)          
--------------------------------------------------------------------------------
171	-1.90000e+00	1.263027e-05	
172	-1.95000e+00	1.263650e-05	
173	-2.00000e+00	1.264261e-05	
174	-2.05000e+00	1.264863e-05	
175	-2.10000e+00	1.265456e-05	
176	-2.15000e+00	1.266039e-05	
177	-2.20000e+00	1.266615e-05	
178	-2.25000e+00	1.267183e-05	
179	-2.30000e+00	1.267744e-05	
180	-2.35000e+00	1.268299e-05	
181	-2.40000e+00	1.268847e-05	
182	-2.45000e+00	1.269388e-05	
183	-2.50000e+00	1.269925e-05	
184	-2.55000e+00	1.270455e-05	
185	-2.60000e+00	1.270981e-05	
186	-2.65000e+00	1.271502e-05	
187	-2.70000e+00	1.272018e-05	
188	-2.75000e+00	1.272530e-05	
189	-2.80000e+00	1.273037e-05	
190	-2.85000e+00	1.273540e-05	
191	-2.90000e+00	1.274040e-05	
192	-2.95000e+00	1.274536e-05	
193	-3.00000e+00	1.275028e-05	
194	-3.05000e+00	1.275517e-05	
195	-3.10000e+00	1.276002e-05	
196	-3.15000e+00	1.276484e-05	
197	-3.20000e+00	1.276964e-05	
198	-3.25000e+00	1.277440e-05	
199	-3.30000e+00	1.277914e-05	
200	-3.35000e+00	1.278385e-05	
201	-3.40000e+00	1.278853e-05	
202	-3.45000e+00	1.279320e-05	
203	-3.50000e+00	1.279783e-05	
204	-3.55000e+00	1.280245e-05	
205	-3.60000e+00	1.280705e-05	
206	-3.65000e+00	1.281163e-05	
207	-3.70000e+00	1.281619e-05	
208	-3.75000e+00	1.282073e-05	
209	-3.80000e+00	1.282527e-05	
210	-3.85000e+00	1.282979e-05	
211	-3.90000e+00	1.283431e-05	
212	-3.95000e+00	1.283882e-05	
213	-4.00000e+00	1.284333e-05	
214	-4.05000e+00	1.284785e-05	
215	-4.10000e+00	1.285238e-05	
216	-4.15000e+00	1.285692e-05	
217	-4.20000e+00	1.286148e-05	
218	-4.25000e+00	1.286607e-05	
219	-4.30000e+00	1.287069e-05	
220	-4.35000e+00	1.287537e-05	
221	-4.40000e+00	1.288010e-05	
222	-4.45000e+00	1.288490e-05	
223	-4.50000e+00	1.288978e-05	
224	-4.55000e+00	1.289476e-05	
225	-4.60000e+00	1.289985e-05	
226	-4.65000e+00	1.290507e-05	
227	-4.70000e+00	1.291045e-05	
228	-4.75000e+00	1.291600e-05	

Index   v-sweep         i(vds)          
--------------------------------------------------------------------------------
229	-4.80000e+00	1.292175e-05	
230	-4.85000e+00	1.292773e-05	
231	-4.90000e+00	1.293397e-05	
232	-4.95000e+00	1.294049e-05	
233	-5.00000e+00	1.294734e-05	
234	-5.05000e+00	1.295455e-05	
235	-5.10000e+00	1.296215e-05	
236	-5.15000e+00	1.297021e-05	
237	-5.20000e+00	1.297876e-05	
238	-5.25000e+00	1.298785e-05	
239	-5.30000e+00	1.299753e-05	
240	-5.35000e+00	1.300788e-05	
241	-5.40000e+00	1.301894e-05	
242	-5.45000e+00	1.303078e-05	
243	-5.50000e+00	1.304347e-05	
244	-5.55000e+00	1.305709e-05	
245	-5.60000e+00	1.307171e-05	
246	-5.65000e+00	1.308742e-05	
247	-5.70000e+00	1.310430e-05	
248	-5.75000e+00	1.312244e-05	
249	-5.80000e+00	1.314194e-05	
250	-5.85000e+00	1.316290e-05	
251	-5.90000e+00	1.318543e-05	
252	-5.95000e+00	1.320962e-05	
253	-6.00000e+00	1.323561e-05	
254	-6.05000e+00	1.326351e-05	
255	-6.10000e+00	1.329343e-05	
256	-6.15000e+00	1.332552e-05	
257	-6.20000e+00	1.335991e-05	
258	-6.25000e+00	1.339673e-05	
259	-6.30000e+00	1.343613e-05	
260	-6.35000e+00	1.347826e-05	
261	-6.40000e+00	1.352328e-05	
262	-6.45000e+00	1.357134e-05	
263	-6.50000e+00	1.362262e-05	
264	-6.55000e+00	1.367727e-05	
265	-6.60000e+00	1.373547e-05	
266	0.000000e+00	1.245145e-20	
267	-5.00000e-02	2.916568e-06	
268	-1.00000e-01	5.729211e-06	
269	-1.50000e-01	8.438062e-06	
270	-2.00000e-01	1.104325e-05	
271	-2.50000e-01	1.354491e-05	
272	-3.00000e-01	1.594317e-05	
273	-3.50000e-01	1.823817e-05	
274	-4.00000e-01	2.043003e-05	
275	-4.50000e-01	2.251891e-05	
276	-5.00000e-01	2.450492e-05	
277	-5.50000e-01	2.638823e-05	
278	-6.00000e-01	2.816897e-05	
279	-6.50000e-01	2.984729e-05	
280	-7.00000e-01	3.142335e-05	
281	-7.50000e-01	3.289732e-05	
282	-8.00000e-01	3.426939e-05	
283	-8.50000e-01	3.553977e-05	
284	-9.00000e-01	3.670869e-05	
285	-9.50000e-01	3.777645e-05	
286	-1.00000e+00	3.874342e-05	

Index   v-sweep         i(vds)          
--------------------------------------------------------------------------------
287	-1.05000e+00	3.961009e-05	
288	-1.10000e+00	4.037716e-05	
289	-1.15000e+00	4.104567e-05	
290	-1.20000e+00	4.161726e-05	
291	-1.25000e+00	4.209451e-05	
292	-1.30000e+00	4.248170e-05	
293	-1.35000e+00	4.278561e-05	
294	-1.40000e+00	4.301640e-05	
295	-1.45000e+00	4.318745e-05	
296	-1.50000e+00	4.331361e-05	
297	-1.55000e+00	4.340852e-05	
298	-1.60000e+00	4.348267e-05	
299	-1.65000e+00	4.354319e-05	
300	-1.70000e+00	4.359462e-05	
301	-1.75000e+00	4.363976e-05	
302	-1.80000e+00	4.368039e-05	
303	-1.85000e+00	4.371766e-05	
304	-1.90000e+00	4.375231e-05	
305	-1.95000e+00	4.378487e-05	
306	-2.00000e+00	4.381573e-05	
307	-2.05000e+00	4.384517e-05	
308	-2.10000e+00	4.387339e-05	
309	-2.15000e+00	4.390056e-05	
310	-2.20000e+00	4.392682e-05	
311	-2.25000e+00	4.395227e-05	
312	-2.30000e+00	4.397699e-05	
313	-2.35000e+00	4.400107e-05	
314	-2.40000e+00	4.402457e-05	
315	-2.45000e+00	4.404753e-05	
316	-2.50000e+00	4.407001e-05	
317	-2.55000e+00	4.409205e-05	
318	-2.60000e+00	4.411367e-05	
319	-2.65000e+00	4.413491e-05	
320	-2.70000e+00	4.415580e-05	
321	-2.75000e+00	4.417637e-05	
322	-2.80000e+00	4.419662e-05	
323	-2.85000e+00	4.421660e-05	
324	-2.90000e+00	4.423630e-05	
325	-2.95000e+00	4.425575e-05	
326	-3.00000e+00	4.427497e-05	
327	-3.05000e+00	4.429396e-05	
328	-3.10000e+00	4.431274e-05	
329	-3.15000e+00	4.433132e-05	
330	-3.20000e+00	4.434971e-05	
331	-3.25000e+00	4.436792e-05	
332	-3.30000e+00	4.438596e-05	
333	-3.35000e+00	4.440383e-05	
334	-3.40000e+00	4.442155e-05	
335	-3.45000e+00	4.443913e-05	
336	-3.50000e+00	4.445656e-05	
337	-3.55000e+00	4.447385e-05	
338	-3.60000e+00	4.449102e-05	
339	-3.65000e+00	4.450806e-05	
340	-3.70000e+00	4.452499e-05	
341	-3.75000e+00	4.454180e-05	
342	-3.80000e+00	4.455850e-05	
343	-3.85000e+00	4.457510e-05	
344	-3.90000e+00	4.459159e-05	

Index   v-sweep         i(vds)          
--------------------------------------------------------------------------------
345	-3.95000e+00	4.460799e-05	
346	-4.00000e+00	4.462430e-05	
347	-4.05000e+00	4.464051e-05	
348	-4.10000e+00	4.465665e-05	
349	-4.15000e+00	4.467270e-05	
350	-4.20000e+00	4.468868e-05	
351	-4.25000e+00	4.470458e-05	
352	-4.30000e+00	4.472042e-05	
353	-4.35000e+00	4.473620e-05	
354	-4.40000e+00	4.475192e-05	
355	-4.45000e+00	4.476759e-05	
356	-4.50000e+00	4.478323e-05	
357	-4.55000e+00	4.479883e-05	
358	-4.60000e+00	4.481441e-05	
359	-4.65000e+00	4.482997e-05	
360	-4.70000e+00	4.484554e-05	
361	-4.75000e+00	4.486113e-05	
362	-4.80000e+00	4.487675e-05	
363	-4.85000e+00	4.489243e-05	
364	-4.90000e+00	4.490818e-05	
365	-4.95000e+00	4.492404e-05	
366	-5.00000e+00	4.494002e-05	
367	-5.05000e+00	4.495618e-05	
368	-5.10000e+00	4.497253e-05	
369	-5.15000e+00	4.498913e-05	
370	-5.20000e+00	4.500601e-05	
371	-5.25000e+00	4.502324e-05	
372	-5.30000e+00	4.504087e-05	
373	-5.35000e+00	4.505897e-05	
374	-5.40000e+00	4.507760e-05	
375	-5.45000e+00	4.509685e-05	
376	-5.50000e+00	4.511680e-05	
377	-5.55000e+00	4.513755e-05	
378	-5.60000e+00	4.515919e-05	
379	-5.65000e+00	4.518184e-05	
380	-5.70000e+00	4.520563e-05	
381	-5.75000e+00	4.523068e-05	
382	-5.80000e+00	4.525714e-05	
383	-5.85000e+00	4.528516e-05	
384	-5.90000e+00	4.531490e-05	
385	-5.95000e+00	4.534654e-05	
386	-6.00000e+00	4.538027e-05	
387	-6.05000e+00	4.541630e-05	
388	-6.10000e+00	4.545483e-05	
389	-6.15000e+00	4.549610e-05	
390	-6.20000e+00	4.554035e-05	
391	-6.25000e+00	4.558784e-05	
392	-6.30000e+00	4.563883e-05	
393	-6.35000e+00	4.569362e-05	
394	-6.40000e+00	4.575250e-05	
395	-6.45000e+00	4.581580e-05	
396	-6.50000e+00	4.588385e-05	
397	-6.55000e+00	4.595700e-05	
398	-6.60000e+00	4.603561e-05	
399	0.000000e+00	-2.37666e-36	
400	-5.00000e-02	3.976744e-06	
401	-1.00000e-01	7.859172e-06	
402	-1.50000e-01	1.164739e-05	

Index   v-sweep         i(vds)          
--------------------------------------------------------------------------------
403	-2.00000e-01	1.534151e-05	
404	-2.50000e-01	1.894165e-05	
405	-3.00000e-01	2.244789e-05	
406	-3.50000e-01	2.586037e-05	
407	-4.00000e-01	2.917918e-05	
408	-4.50000e-01	3.240443e-05	
409	-5.00000e-01	3.553624e-05	
410	-5.50000e-01	3.857470e-05	
411	-6.00000e-01	4.151994e-05	
412	-6.50000e-01	4.437205e-05	
413	-7.00000e-01	4.713116e-05	
414	-7.50000e-01	4.979736e-05	
415	-8.00000e-01	5.237077e-05	
416	-8.50000e-01	5.485151e-05	
417	-9.00000e-01	5.723967e-05	
418	-9.50000e-01	5.953539e-05	
419	-1.00000e+00	6.173877e-05	
420	-1.05000e+00	6.384993e-05	
421	-1.10000e+00	6.586898e-05	
422	-1.15000e+00	6.779606e-05	
423	-1.20000e+00	6.963129e-05	
424	-1.25000e+00	7.137480e-05	
425	-1.30000e+00	7.302674e-05	
426	-1.35000e+00	7.458725e-05	
427	-1.40000e+00	7.605649e-05	
428	-1.45000e+00	7.743464e-05	
429	-1.50000e+00	7.872192e-05	
430	-1.55000e+00	7.991856e-05	
431	-1.60000e+00	8.102485e-05	
432	-1.65000e+00	8.204116e-05	
433	-1.70000e+00	8.296795e-05	
434	-1.75000e+00	8.380588e-05	
435	-1.80000e+00	8.455581e-05	
436	-1.85000e+00	8.521904e-05	
437	-1.90000e+00	8.579741e-05	
438	-1.95000e+00	8.629370e-05	
439	-2.00000e+00	8.671199e-05	
440	-2.05000e+00	8.705812e-05	
441	-2.10000e+00	8.734002e-05	
442	-2.15000e+00	8.756743e-05	
443	-2.20000e+00	8.775106e-05	
444	-2.25000e+00	8.790120e-05	
445	-2.30000e+00	8.802662e-05	
446	-2.35000e+00	8.813408e-05	
447	-2.40000e+00	8.822846e-05	
448	-2.45000e+00	8.831314e-05	
449	-2.50000e+00	8.839049e-05	
450	-2.55000e+00	8.846213e-05	
451	-2.60000e+00	8.852922e-05	
452	-2.65000e+00	8.859260e-05	
453	-2.70000e+00	8.865289e-05	
454	-2.75000e+00	8.871056e-05	
455	-2.80000e+00	8.876599e-05	
456	-2.85000e+00	8.881946e-05	
457	-2.90000e+00	8.887122e-05	
458	-2.95000e+00	8.892145e-05	
459	-3.00000e+00	8.897031e-05	
460	-3.05000e+00	8.901794e-05	

Index   v-sweep         i(vds)          
--------------------------------------------------------------------------------
461	-3.10000e+00	8.906446e-05	
462	-3.15000e+00	8.910997e-05	
463	-3.20000e+00	8.915455e-05	
464	-3.25000e+00	8.919827e-05	
465	-3.30000e+00	8.924120e-05	
466	-3.35000e+00	8.928340e-05	
467	-3.40000e+00	8.932493e-05	
468	-3.45000e+00	8.936582e-05	
469	-3.50000e+00	8.940613e-05	
470	-3.55000e+00	8.944588e-05	
471	-3.60000e+00	8.948511e-05	
472	-3.65000e+00	8.952386e-05	
473	-3.70000e+00	8.956215e-05	
474	-3.75000e+00	8.960000e-05	
475	-3.80000e+00	8.963745e-05	
476	-3.85000e+00	8.967450e-05	
477	-3.90000e+00	8.971119e-05	
478	-3.95000e+00	8.974753e-05	
479	-4.00000e+00	8.978353e-05	
480	-4.05000e+00	8.981922e-05	
481	-4.10000e+00	8.985461e-05	
482	-4.15000e+00	8.988971e-05	
483	-4.20000e+00	8.992453e-05	
484	-4.25000e+00	8.995909e-05	
485	-4.30000e+00	8.999340e-05	
486	-4.35000e+00	9.002747e-05	
487	-4.40000e+00	9.006131e-05	
488	-4.45000e+00	9.009492e-05	
489	-4.50000e+00	9.012832e-05	
490	-4.55000e+00	9.016152e-05	
491	-4.60000e+00	9.019452e-05	
492	-4.65000e+00	9.022733e-05	
493	-4.70000e+00	9.025996e-05	
494	-4.75000e+00	9.029242e-05	
495	-4.80000e+00	9.032472e-05	
496	-4.85000e+00	9.035685e-05	
497	-4.90000e+00	9.038884e-05	
498	-4.95000e+00	9.042069e-05	
499	-5.00000e+00	9.045241e-05	
500	-5.05000e+00	9.048401e-05	
501	-5.10000e+00	9.051550e-05	
502	-5.15000e+00	9.054690e-05	
503	-5.20000e+00	9.057822e-05	
504	-5.25000e+00	9.060948e-05	
505	-5.30000e+00	9.064069e-05	
506	-5.35000e+00	9.067189e-05	
507	-5.40000e+00	9.070309e-05	
508	-5.45000e+00	9.073432e-05	
509	-5.50000e+00	9.076562e-05	
510	-5.55000e+00	9.079704e-05	
511	-5.60000e+00	9.082860e-05	
512	-5.65000e+00	9.086038e-05	
513	-5.70000e+00	9.089241e-05	
514	-5.75000e+00	9.092477e-05	
515	-5.80000e+00	9.095754e-05	
516	-5.85000e+00	9.099079e-05	
517	-5.90000e+00	9.102461e-05	
518	-5.95000e+00	9.105912e-05	

Index   v-sweep         i(vds)          
--------------------------------------------------------------------------------
519	-6.00000e+00	9.109443e-05	
520	-6.05000e+00	9.113067e-05	
521	-6.10000e+00	9.116798e-05	
522	-6.15000e+00	9.120651e-05	
523	-6.20000e+00	9.124644e-05	
524	-6.25000e+00	9.128796e-05	
525	-6.30000e+00	9.133127e-05	
526	-6.35000e+00	9.137660e-05	
527	-6.40000e+00	9.142419e-05	
528	-6.45000e+00	9.147430e-05	
529	-6.50000e+00	9.152722e-05	
530	-6.55000e+00	9.158325e-05	
531	-6.60000e+00	9.164274e-05	
532	0.000000e+00	4.310202e-20	
533	-5.00000e-02	4.827143e-06	
534	-1.00000e-01	9.568730e-06	
535	-1.50000e-01	1.422485e-05	
536	-2.00000e-01	1.879560e-05	
537	-2.50000e-01	2.328107e-05	
538	-3.00000e-01	2.768134e-05	
539	-3.50000e-01	3.199652e-05	
540	-4.00000e-01	3.622668e-05	
541	-4.50000e-01	4.037194e-05	
542	-5.00000e-01	4.443236e-05	
543	-5.50000e-01	4.840805e-05	
544	-6.00000e-01	5.229909e-05	
545	-6.50000e-01	5.610559e-05	
546	-7.00000e-01	5.982762e-05	
547	-7.50000e-01	6.346528e-05	
548	-8.00000e-01	6.701865e-05	
549	-8.50000e-01	7.048784e-05	
550	-9.00000e-01	7.387293e-05	
551	-9.50000e-01	7.717402e-05	
552	-1.00000e+00	8.039118e-05	
553	-1.05000e+00	8.352453e-05	
554	-1.10000e+00	8.657414e-05	
555	-1.15000e+00	8.954010e-05	
556	-1.20000e+00	9.242252e-05	
557	-1.25000e+00	9.522148e-05	
558	-1.30000e+00	9.793708e-05	
559	-1.35000e+00	1.005694e-04	
560	-1.40000e+00	1.031186e-04	
561	-1.45000e+00	1.055846e-04	
562	-1.50000e+00	1.079677e-04	
563	-1.55000e+00	1.102679e-04	
564	-1.60000e+00	1.124853e-04	
565	-1.65000e+00	1.146200e-04	
566	-1.70000e+00	1.166721e-04	
567	-1.75000e+00	1.186418e-04	
568	-1.80000e+00	1.205291e-04	
569	-1.85000e+00	1.223341e-04	
570	-1.90000e+00	1.240570e-04	
571	-1.95000e+00	1.256978e-04	
572	-2.00000e+00	1.272568e-04	
573	-2.05000e+00	1.287341e-04	
574	-2.10000e+00	1.301298e-04	
575	-2.15000e+00	1.314441e-04	
576	-2.20000e+00	1.326773e-04	

Index   v-sweep         i(vds)          
--------------------------------------------------------------------------------
577	-2.25000e+00	1.338296e-04	
578	-2.30000e+00	1.349014e-04	
579	-2.35000e+00	1.358929e-04	
580	-2.40000e+00	1.368048e-04	
581	-2.45000e+00	1.376377e-04	
582	-2.50000e+00	1.383926e-04	
583	-2.55000e+00	1.390707e-04	
584	-2.60000e+00	1.396737e-04	
585	-2.65000e+00	1.402042e-04	
586	-2.70000e+00	1.406656e-04	
587	-2.75000e+00	1.410625e-04	
588	-2.80000e+00	1.414008e-04	
589	-2.85000e+00	1.416879e-04	
590	-2.90000e+00	1.419317e-04	
591	-2.95000e+00	1.421403e-04	
592	-3.00000e+00	1.423212e-04	
593	-3.05000e+00	1.424805e-04	
594	-3.10000e+00	1.426232e-04	
595	-3.15000e+00	1.427530e-04	
596	-3.20000e+00	1.428727e-04	
597	-3.25000e+00	1.429843e-04	
598	-3.30000e+00	1.430893e-04	
599	-3.35000e+00	1.431889e-04	
600	-3.40000e+00	1.432838e-04	
601	-3.45000e+00	1.433749e-04	
602	-3.50000e+00	1.434625e-04	
603	-3.55000e+00	1.435472e-04	
604	-3.60000e+00	1.436292e-04	
605	-3.65000e+00	1.437089e-04	
606	-3.70000e+00	1.437865e-04	
607	-3.75000e+00	1.438622e-04	
608	-3.80000e+00	1.439362e-04	
609	-3.85000e+00	1.440087e-04	
610	-3.90000e+00	1.440796e-04	
611	-3.95000e+00	1.441493e-04	
612	-4.00000e+00	1.442177e-04	
613	-4.05000e+00	1.442850e-04	
614	-4.10000e+00	1.443513e-04	
615	-4.15000e+00	1.444165e-04	
616	-4.20000e+00	1.444809e-04	
617	-4.25000e+00	1.445443e-04	
618	-4.30000e+00	1.446070e-04	
619	-4.35000e+00	1.446689e-04	
620	-4.40000e+00	1.447301e-04	
621	-4.45000e+00	1.447906e-04	
622	-4.50000e+00	1.448505e-04	
623	-4.55000e+00	1.449097e-04	
624	-4.60000e+00	1.449684e-04	
625	-4.65000e+00	1.450265e-04	
626	-4.70000e+00	1.450841e-04	
627	-4.75000e+00	1.451413e-04	
628	-4.80000e+00	1.451979e-04	
629	-4.85000e+00	1.452541e-04	
630	-4.90000e+00	1.453099e-04	
631	-4.95000e+00	1.453652e-04	
632	-5.00000e+00	1.454202e-04	
633	-5.05000e+00	1.454747e-04	
634	-5.10000e+00	1.455289e-04	

Index   v-sweep         i(vds)          
--------------------------------------------------------------------------------
635	-5.15000e+00	1.455828e-04	
636	-5.20000e+00	1.456363e-04	
637	-5.25000e+00	1.456895e-04	
638	-5.30000e+00	1.457424e-04	
639	-5.35000e+00	1.457950e-04	
640	-5.40000e+00	1.458473e-04	
641	-5.45000e+00	1.458994e-04	
642	-5.50000e+00	1.459511e-04	
643	-5.55000e+00	1.460027e-04	
644	-5.60000e+00	1.460540e-04	
645	-5.65000e+00	1.461051e-04	
646	-5.70000e+00	1.461559e-04	
647	-5.75000e+00	1.462066e-04	
648	-5.80000e+00	1.462571e-04	
649	-5.85000e+00	1.463075e-04	
650	-5.90000e+00	1.463577e-04	
651	-5.95000e+00	1.464078e-04	
652	-6.00000e+00	1.464579e-04	
653	-6.05000e+00	1.465079e-04	
654	-6.10000e+00	1.465579e-04	
655	-6.15000e+00	1.466080e-04	
656	-6.20000e+00	1.466582e-04	
657	-6.25000e+00	1.467085e-04	
658	-6.30000e+00	1.467590e-04	
659	-6.35000e+00	1.468099e-04	
660	-6.40000e+00	1.468612e-04	
661	-6.45000e+00	1.469129e-04	
662	-6.50000e+00	1.469653e-04	
663	-6.55000e+00	1.470184e-04	
664	-6.60000e+00	1.470724e-04	
665	0.000000e+00	-1.41271e-36	
666	-5.00000e-02	5.508912e-06	
667	-1.00000e-01	1.094010e-05	
668	-1.50000e-01	1.629364e-05	
669	-2.00000e-01	2.156961e-05	
670	-2.50000e-01	2.676809e-05	
671	-3.00000e-01	3.188916e-05	
672	-3.50000e-01	3.693289e-05	
673	-4.00000e-01	4.189937e-05	
674	-4.50000e-01	4.678866e-05	
675	-5.00000e-01	5.160085e-05	
676	-5.50000e-01	5.633601e-05	
677	-6.00000e-01	6.099422e-05	
678	-6.50000e-01	6.557556e-05	
679	-7.00000e-01	7.008011e-05	
680	-7.50000e-01	7.450794e-05	
681	-8.00000e-01	7.885912e-05	
682	-8.50000e-01	8.313374e-05	
683	-9.00000e-01	8.733188e-05	
684	-9.50000e-01	9.145360e-05	
685	-1.00000e+00	9.549899e-05	
686	-1.05000e+00	9.946812e-05	
687	-1.10000e+00	1.033611e-04	
688	-1.15000e+00	1.071779e-04	
689	-1.20000e+00	1.109187e-04	
690	-1.25000e+00	1.145836e-04	
691	-1.30000e+00	1.181726e-04	
692	-1.35000e+00	1.216858e-04	

Index   v-sweep         i(vds)          
--------------------------------------------------------------------------------
693	-1.40000e+00	1.251233e-04	
694	-1.45000e+00	1.284851e-04	
695	-1.50000e+00	1.317714e-04	
696	-1.55000e+00	1.349821e-04	
697	-1.60000e+00	1.381175e-04	
698	-1.65000e+00	1.411775e-04	
699	-1.70000e+00	1.441623e-04	
700	-1.75000e+00	1.470719e-04	
701	-1.80000e+00	1.499064e-04	
702	-1.85000e+00	1.526658e-04	
703	-1.90000e+00	1.553503e-04	
704	-1.95000e+00	1.579600e-04	
705	-2.00000e+00	1.604949e-04	
706	-2.05000e+00	1.629550e-04	
707	-2.10000e+00	1.653406e-04	
708	-2.15000e+00	1.676516e-04	
709	-2.20000e+00	1.698882e-04	
710	-2.25000e+00	1.720503e-04	
711	-2.30000e+00	1.741383e-04	
712	-2.35000e+00	1.761520e-04	
713	-2.40000e+00	1.780916e-04	
714	-2.45000e+00	1.799572e-04	
715	-2.50000e+00	1.817489e-04	
716	-2.55000e+00	1.834669e-04	
717	-2.60000e+00	1.851111e-04	
718	-2.65000e+00	1.866818e-04	
719	-2.70000e+00	1.881791e-04	
720	-2.75000e+00	1.896030e-04	
721	-2.80000e+00	1.909539e-04	
722	-2.85000e+00	1.922319e-04	
723	-2.90000e+00	1.934371e-04	
724	-2.95000e+00	1.945699e-04	
725	-3.00000e+00	1.956306e-04	
726	-3.05000e+00	1.966195e-04	
727	-3.10000e+00	1.975372e-04	
728	-3.15000e+00	1.983843e-04	
729	-3.20000e+00	1.991616e-04	
730	-3.25000e+00	1.998703e-04	
731	-3.30000e+00	2.005118e-04	
732	-3.35000e+00	2.010882e-04	
733	-3.40000e+00	2.016022e-04	
734	-3.45000e+00	2.020571e-04	
735	-3.50000e+00	2.024575e-04	
736	-3.55000e+00	2.028086e-04	
737	-3.60000e+00	2.031166e-04	
738	-3.65000e+00	2.033878e-04	
739	-3.70000e+00	2.036285e-04	
740	-3.75000e+00	2.038443e-04	
741	-3.80000e+00	2.040401e-04	
742	-3.85000e+00	2.042198e-04	
743	-3.90000e+00	2.043865e-04	
744	-3.95000e+00	2.045426e-04	
745	-4.00000e+00	2.046899e-04	
746	-4.05000e+00	2.048298e-04	
747	-4.10000e+00	2.049635e-04	
748	-4.15000e+00	2.050918e-04	
749	-4.20000e+00	2.052155e-04	
750	-4.25000e+00	2.053351e-04	

Index   v-sweep         i(vds)          
--------------------------------------------------------------------------------
751	-4.30000e+00	2.054510e-04	
752	-4.35000e+00	2.055637e-04	
753	-4.40000e+00	2.056735e-04	
754	-4.45000e+00	2.057807e-04	
755	-4.50000e+00	2.058855e-04	
756	-4.55000e+00	2.059880e-04	
757	-4.60000e+00	2.060886e-04	
758	-4.65000e+00	2.061874e-04	
759	-4.70000e+00	2.062844e-04	
760	-4.75000e+00	2.063798e-04	
761	-4.80000e+00	2.064738e-04	
762	-4.85000e+00	2.065663e-04	
763	-4.90000e+00	2.066576e-04	
764	-4.95000e+00	2.067477e-04	
765	-5.00000e+00	2.068367e-04	
766	-5.05000e+00	2.069246e-04	
767	-5.10000e+00	2.070114e-04	
768	-5.15000e+00	2.070974e-04	
769	-5.20000e+00	2.071824e-04	
770	-5.25000e+00	2.072666e-04	
771	-5.30000e+00	2.073500e-04	
772	-5.35000e+00	2.074326e-04	
773	-5.40000e+00	2.075144e-04	
774	-5.45000e+00	2.075956e-04	
775	-5.50000e+00	2.076761e-04	
776	-5.55000e+00	2.077560e-04	
777	-5.60000e+00	2.078352e-04	
778	-5.65000e+00	2.079139e-04	
779	-5.70000e+00	2.079920e-04	
780	-5.75000e+00	2.080696e-04	
781	-5.80000e+00	2.081467e-04	
782	-5.85000e+00	2.082233e-04	
783	-5.90000e+00	2.082994e-04	
784	-5.95000e+00	2.083751e-04	
785	-6.00000e+00	2.084504e-04	
786	-6.05000e+00	2.085252e-04	
787	-6.10000e+00	2.085996e-04	
788	-6.15000e+00	2.086736e-04	
789	-6.20000e+00	2.087473e-04	
790	-6.25000e+00	2.088206e-04	
791	-6.30000e+00	2.088936e-04	
792	-6.35000e+00	2.089663e-04	
793	-6.40000e+00	2.090386e-04	
794	-6.45000e+00	2.091108e-04	
795	-6.50000e+00	2.091826e-04	
796	-6.55000e+00	2.092542e-04	
797	-6.60000e+00	2.093257e-04	
Note: No ".plot", ".print", or ".fourier" lines; no simulations run
