
Note: Compatibility modes selected: hs

Warning: m=xx on .subckt line will override multiplier m hierarchy!


Circuit: ***************************

Doing analysis at TEMP = 125.000000 and TNOM = 125.000000


No. of Data Rows : 798
                          ***************************
                          DC transfer characteristic  Mon Jan  9 13:58:51  2023
--------------------------------------------------------------------------------
Index   v-sweep         i(vds)          
--------------------------------------------------------------------------------
0	0.000000e+00	-2.98324e-24	
1	-5.00000e-02	1.467291e-07	
2	-1.00000e-01	2.233068e-07	
3	-1.50000e-01	2.654063e-07	
4	-2.00000e-01	2.847384e-07	
5	-2.50000e-01	2.913808e-07	
6	-3.00000e-01	2.934998e-07	
7	-3.50000e-01	2.943331e-07	
8	-4.00000e-01	2.947596e-07	
9	-4.50000e-01	2.950294e-07	
10	-5.00000e-01	2.952274e-07	
11	-5.50000e-01	2.953877e-07	
12	-6.00000e-01	2.955260e-07	
13	-6.50000e-01	2.956504e-07	
14	-7.00000e-01	2.957653e-07	
15	-7.50000e-01	2.958734e-07	
16	-8.00000e-01	2.959764e-07	
17	-8.50000e-01	2.960754e-07	
18	-9.00000e-01	2.961711e-07	
19	-9.50000e-01	2.962643e-07	
20	-1.00000e+00	2.963551e-07	
21	-1.05000e+00	2.964441e-07	
22	-1.10000e+00	2.965314e-07	
23	-1.15000e+00	2.966172e-07	
24	-1.20000e+00	2.967017e-07	
25	-1.25000e+00	2.967851e-07	
26	-1.30000e+00	2.968673e-07	
27	-1.35000e+00	2.969486e-07	
28	-1.40000e+00	2.970290e-07	
29	-1.45000e+00	2.971085e-07	
30	-1.50000e+00	2.971873e-07	
31	-1.55000e+00	2.972654e-07	
32	-1.60000e+00	2.973428e-07	
33	-1.65000e+00	2.974196e-07	
34	-1.70000e+00	2.974959e-07	
35	-1.75000e+00	2.975715e-07	
36	-1.80000e+00	2.976467e-07	
37	-1.85000e+00	2.977213e-07	
38	-1.90000e+00	2.977956e-07	
39	-1.95000e+00	2.978693e-07	
40	-2.00000e+00	2.979427e-07	
41	-2.05000e+00	2.980156e-07	
42	-2.10000e+00	2.980882e-07	
43	-2.15000e+00	2.981604e-07	
44	-2.20000e+00	2.982323e-07	
45	-2.25000e+00	2.983038e-07	
46	-2.30000e+00	2.983751e-07	
47	-2.35000e+00	2.984460e-07	
48	-2.40000e+00	2.985166e-07	
49	-2.45000e+00	2.985870e-07	
50	-2.50000e+00	2.986571e-07	
51	-2.55000e+00	2.987269e-07	
52	-2.60000e+00	2.987965e-07	
53	-2.65000e+00	2.988659e-07	
54	-2.70000e+00	2.989350e-07	

Index   v-sweep         i(vds)          
--------------------------------------------------------------------------------
55	-2.75000e+00	2.990039e-07	
56	-2.80000e+00	2.990727e-07	
57	-2.85000e+00	2.991412e-07	
58	-2.90000e+00	2.992095e-07	
59	-2.95000e+00	2.992777e-07	
60	-3.00000e+00	2.993457e-07	
61	-3.05000e+00	2.994136e-07	
62	-3.10000e+00	2.994813e-07	
63	-3.15000e+00	2.995490e-07	
64	-3.20000e+00	2.996166e-07	
65	-3.25000e+00	2.996841e-07	
66	-3.30000e+00	2.997517e-07	
67	-3.35000e+00	2.998192e-07	
68	-3.40000e+00	2.998869e-07	
69	-3.45000e+00	2.999547e-07	
70	-3.50000e+00	3.000227e-07	
71	-3.55000e+00	3.000909e-07	
72	-3.60000e+00	3.001596e-07	
73	-3.65000e+00	3.002287e-07	
74	-3.70000e+00	3.002983e-07	
75	-3.75000e+00	3.003688e-07	
76	-3.80000e+00	3.004400e-07	
77	-3.85000e+00	3.005123e-07	
78	-3.90000e+00	3.005859e-07	
79	-3.95000e+00	3.006609e-07	
80	-4.00000e+00	3.007376e-07	
81	-4.05000e+00	3.008162e-07	
82	-4.10000e+00	3.008972e-07	
83	-4.15000e+00	3.009807e-07	
84	-4.20000e+00	3.010673e-07	
85	-4.25000e+00	3.011572e-07	
86	-4.30000e+00	3.012509e-07	
87	-4.35000e+00	3.013490e-07	
88	-4.40000e+00	3.014519e-07	
89	-4.45000e+00	3.015603e-07	
90	-4.50000e+00	3.016748e-07	
91	-4.55000e+00	3.017960e-07	
92	-4.60000e+00	3.019246e-07	
93	-4.65000e+00	3.020616e-07	
94	-4.70000e+00	3.022077e-07	
95	-4.75000e+00	3.023638e-07	
96	-4.80000e+00	3.025310e-07	
97	-4.85000e+00	3.027102e-07	
98	-4.90000e+00	3.029025e-07	
99	-4.95000e+00	3.031092e-07	
100	-5.00000e+00	3.033314e-07	
101	-5.05000e+00	3.035705e-07	
102	-5.10000e+00	3.038279e-07	
103	-5.15000e+00	3.041051e-07	
104	-5.20000e+00	3.044035e-07	
105	-5.25000e+00	3.047248e-07	
106	-5.30000e+00	3.050707e-07	
107	-5.35000e+00	3.054431e-07	
108	-5.40000e+00	3.058436e-07	
109	-5.45000e+00	3.062744e-07	
110	-5.50000e+00	3.067375e-07	
111	-5.55000e+00	3.072349e-07	
112	-5.60000e+00	3.077688e-07	

Index   v-sweep         i(vds)          
--------------------------------------------------------------------------------
113	-5.65000e+00	3.083416e-07	
114	-5.70000e+00	3.089557e-07	
115	-5.75000e+00	3.096134e-07	
116	-5.80000e+00	3.103174e-07	
117	-5.85000e+00	3.110703e-07	
118	-5.90000e+00	3.118748e-07	
119	-5.95000e+00	3.127337e-07	
120	-6.00000e+00	3.136500e-07	
121	-6.05000e+00	3.146266e-07	
122	-6.10000e+00	3.156667e-07	
123	-6.15000e+00	3.167733e-07	
124	-6.20000e+00	3.179497e-07	
125	-6.25000e+00	3.191994e-07	
126	-6.30000e+00	3.205256e-07	
127	-6.35000e+00	3.219319e-07	
128	-6.40000e+00	3.234219e-07	
129	-6.45000e+00	3.249992e-07	
130	-6.50000e+00	3.266677e-07	
131	-6.55000e+00	3.284311e-07	
132	-6.60000e+00	3.302934e-07	
133	0.000000e+00	4.340519e-22	
134	-5.00000e-02	5.506847e-07	
135	-1.00000e-01	1.028262e-06	
136	-1.50000e-01	1.467317e-06	
137	-2.00000e-01	1.875928e-06	
138	-2.50000e-01	2.255988e-06	
139	-3.00000e-01	2.607949e-06	
140	-3.50000e-01	2.931928e-06	
141	-4.00000e-01	3.227972e-06	
142	-4.50000e-01	3.496117e-06	
143	-5.00000e-01	3.736411e-06	
144	-5.50000e-01	3.948926e-06	
145	-6.00000e-01	4.133778e-06	
146	-6.50000e-01	4.291167e-06	
147	-7.00000e-01	4.421450e-06	
148	-7.50000e-01	4.525294e-06	
149	-8.00000e-01	4.603964e-06	
150	-8.50000e-01	4.659781e-06	
151	-9.00000e-01	4.696560e-06	
152	-9.50000e-01	4.719367e-06	
153	-1.00000e+00	4.733268e-06	
154	-1.05000e+00	4.742074e-06	
155	-1.10000e+00	4.748096e-06	
156	-1.15000e+00	4.752583e-06	
157	-1.20000e+00	4.756188e-06	
158	-1.25000e+00	4.759258e-06	
159	-1.30000e+00	4.761986e-06	
160	-1.35000e+00	4.764481e-06	
161	-1.40000e+00	4.766812e-06	
162	-1.45000e+00	4.769021e-06	
163	-1.50000e+00	4.771137e-06	
164	-1.55000e+00	4.773179e-06	
165	-1.60000e+00	4.775161e-06	
166	-1.65000e+00	4.777092e-06	
167	-1.70000e+00	4.778980e-06	
168	-1.75000e+00	4.780832e-06	
169	-1.80000e+00	4.782651e-06	
170	-1.85000e+00	4.784441e-06	

Index   v-sweep         i(vds)          
--------------------------------------------------------------------------------
171	-1.90000e+00	4.786206e-06	
172	-1.95000e+00	4.787948e-06	
173	-2.00000e+00	4.789669e-06	
174	-2.05000e+00	4.791370e-06	
175	-2.10000e+00	4.793054e-06	
176	-2.15000e+00	4.794722e-06	
177	-2.20000e+00	4.796374e-06	
178	-2.25000e+00	4.798013e-06	
179	-2.30000e+00	4.799638e-06	
180	-2.35000e+00	4.801251e-06	
181	-2.40000e+00	4.802852e-06	
182	-2.45000e+00	4.804442e-06	
183	-2.50000e+00	4.806022e-06	
184	-2.55000e+00	4.807592e-06	
185	-2.60000e+00	4.809152e-06	
186	-2.65000e+00	4.810704e-06	
187	-2.70000e+00	4.812248e-06	
188	-2.75000e+00	4.813783e-06	
189	-2.80000e+00	4.815311e-06	
190	-2.85000e+00	4.816832e-06	
191	-2.90000e+00	4.818345e-06	
192	-2.95000e+00	4.819852e-06	
193	-3.00000e+00	4.821353e-06	
194	-3.05000e+00	4.822848e-06	
195	-3.10000e+00	4.824336e-06	
196	-3.15000e+00	4.825819e-06	
197	-3.20000e+00	4.827297e-06	
198	-3.25000e+00	4.828769e-06	
199	-3.30000e+00	4.830236e-06	
200	-3.35000e+00	4.831699e-06	
201	-3.40000e+00	4.833157e-06	
202	-3.45000e+00	4.834610e-06	
203	-3.50000e+00	4.836060e-06	
204	-3.55000e+00	4.837505e-06	
205	-3.60000e+00	4.838947e-06	
206	-3.65000e+00	4.840385e-06	
207	-3.70000e+00	4.841820e-06	
208	-3.75000e+00	4.843252e-06	
209	-3.80000e+00	4.844682e-06	
210	-3.85000e+00	4.846110e-06	
211	-3.90000e+00	4.847537e-06	
212	-3.95000e+00	4.848962e-06	
213	-4.00000e+00	4.850388e-06	
214	-4.05000e+00	4.851814e-06	
215	-4.10000e+00	4.853242e-06	
216	-4.15000e+00	4.854673e-06	
217	-4.20000e+00	4.856109e-06	
218	-4.25000e+00	4.857550e-06	
219	-4.30000e+00	4.859000e-06	
220	-4.35000e+00	4.860459e-06	
221	-4.40000e+00	4.861931e-06	
222	-4.45000e+00	4.863418e-06	
223	-4.50000e+00	4.864924e-06	
224	-4.55000e+00	4.866452e-06	
225	-4.60000e+00	4.868006e-06	
226	-4.65000e+00	4.869591e-06	
227	-4.70000e+00	4.871213e-06	
228	-4.75000e+00	4.872876e-06	

Index   v-sweep         i(vds)          
--------------------------------------------------------------------------------
229	-4.80000e+00	4.874588e-06	
230	-4.85000e+00	4.876355e-06	
231	-4.90000e+00	4.878186e-06	
232	-4.95000e+00	4.880089e-06	
233	-5.00000e+00	4.882073e-06	
234	-5.05000e+00	4.884150e-06	
235	-5.10000e+00	4.886330e-06	
236	-5.15000e+00	4.888626e-06	
237	-5.20000e+00	4.891051e-06	
238	-5.25000e+00	4.893620e-06	
239	-5.30000e+00	4.896349e-06	
240	-5.35000e+00	4.899254e-06	
241	-5.40000e+00	4.902353e-06	
242	-5.45000e+00	4.905667e-06	
243	-5.50000e+00	4.909215e-06	
244	-5.55000e+00	4.913019e-06	
245	-5.60000e+00	4.917104e-06	
246	-5.65000e+00	4.921495e-06	
247	-5.70000e+00	4.926217e-06	
248	-5.75000e+00	4.931299e-06	
249	-5.80000e+00	4.936770e-06	
250	-5.85000e+00	4.942663e-06	
251	-5.90000e+00	4.949009e-06	
252	-5.95000e+00	4.955844e-06	
253	-6.00000e+00	4.963203e-06	
254	-6.05000e+00	4.971125e-06	
255	-6.10000e+00	4.979650e-06	
256	-6.15000e+00	4.988818e-06	
257	-6.20000e+00	4.998675e-06	
258	-6.25000e+00	5.009264e-06	
259	-6.30000e+00	5.020633e-06	
260	-6.35000e+00	5.032831e-06	
261	-6.40000e+00	5.045909e-06	
262	-6.45000e+00	5.059919e-06	
263	-6.50000e+00	5.074915e-06	
264	-6.55000e+00	5.090955e-06	
265	-6.60000e+00	5.108096e-06	
266	0.000000e+00	-4.52099e-26	
267	-5.00000e-02	8.922670e-07	
268	-1.00000e-01	1.713445e-06	
269	-1.50000e-01	2.498049e-06	
270	-2.00000e-01	3.254149e-06	
271	-2.50000e-01	3.983631e-06	
272	-3.00000e-01	4.686940e-06	
273	-3.50000e-01	5.364182e-06	
274	-4.00000e-01	6.015386e-06	
275	-4.50000e-01	6.640563e-06	
276	-5.00000e-01	7.239718e-06	
277	-5.50000e-01	7.812858e-06	
278	-6.00000e-01	8.359988e-06	
279	-6.50000e-01	8.881116e-06	
280	-7.00000e-01	9.376248e-06	
281	-7.50000e-01	9.845394e-06	
282	-8.00000e-01	1.028856e-05	
283	-8.50000e-01	1.070577e-05	
284	-9.00000e-01	1.109703e-05	
285	-9.50000e-01	1.146235e-05	
286	-1.00000e+00	1.180177e-05	

Index   v-sweep         i(vds)          
--------------------------------------------------------------------------------
287	-1.05000e+00	1.211532e-05	
288	-1.10000e+00	1.240304e-05	
289	-1.15000e+00	1.266500e-05	
290	-1.20000e+00	1.290127e-05	
291	-1.25000e+00	1.311201e-05	
292	-1.30000e+00	1.329740e-05	
293	-1.35000e+00	1.345776e-05	
294	-1.40000e+00	1.359360e-05	
295	-1.45000e+00	1.370571e-05	
296	-1.50000e+00	1.379538e-05	
297	-1.55000e+00	1.386459e-05	
298	-1.60000e+00	1.391611e-05	
299	-1.65000e+00	1.395342e-05	
300	-1.70000e+00	1.398022e-05	
301	-1.75000e+00	1.399980e-05	
302	-1.80000e+00	1.401466e-05	
303	-1.85000e+00	1.402651e-05	
304	-1.90000e+00	1.403642e-05	
305	-1.95000e+00	1.404506e-05	
306	-2.00000e+00	1.405285e-05	
307	-2.05000e+00	1.406004e-05	
308	-2.10000e+00	1.406679e-05	
309	-2.15000e+00	1.407321e-05	
310	-2.20000e+00	1.407937e-05	
311	-2.25000e+00	1.408533e-05	
312	-2.30000e+00	1.409113e-05	
313	-2.35000e+00	1.409679e-05	
314	-2.40000e+00	1.410233e-05	
315	-2.45000e+00	1.410776e-05	
316	-2.50000e+00	1.411311e-05	
317	-2.55000e+00	1.411837e-05	
318	-2.60000e+00	1.412357e-05	
319	-2.65000e+00	1.412870e-05	
320	-2.70000e+00	1.413377e-05	
321	-2.75000e+00	1.413878e-05	
322	-2.80000e+00	1.414375e-05	
323	-2.85000e+00	1.414867e-05	
324	-2.90000e+00	1.415355e-05	
325	-2.95000e+00	1.415839e-05	
326	-3.00000e+00	1.416319e-05	
327	-3.05000e+00	1.416796e-05	
328	-3.10000e+00	1.417269e-05	
329	-3.15000e+00	1.417740e-05	
330	-3.20000e+00	1.418207e-05	
331	-3.25000e+00	1.418672e-05	
332	-3.30000e+00	1.419133e-05	
333	-3.35000e+00	1.419593e-05	
334	-3.40000e+00	1.420050e-05	
335	-3.45000e+00	1.420505e-05	
336	-3.50000e+00	1.420957e-05	
337	-3.55000e+00	1.421408e-05	
338	-3.60000e+00	1.421856e-05	
339	-3.65000e+00	1.422303e-05	
340	-3.70000e+00	1.422748e-05	
341	-3.75000e+00	1.423191e-05	
342	-3.80000e+00	1.423632e-05	
343	-3.85000e+00	1.424072e-05	
344	-3.90000e+00	1.424510e-05	

Index   v-sweep         i(vds)          
--------------------------------------------------------------------------------
345	-3.95000e+00	1.424947e-05	
346	-4.00000e+00	1.425382e-05	
347	-4.05000e+00	1.425816e-05	
348	-4.10000e+00	1.426248e-05	
349	-4.15000e+00	1.426680e-05	
350	-4.20000e+00	1.427110e-05	
351	-4.25000e+00	1.427539e-05	
352	-4.30000e+00	1.427966e-05	
353	-4.35000e+00	1.428393e-05	
354	-4.40000e+00	1.428819e-05	
355	-4.45000e+00	1.429244e-05	
356	-4.50000e+00	1.429669e-05	
357	-4.55000e+00	1.430093e-05	
358	-4.60000e+00	1.430516e-05	
359	-4.65000e+00	1.430939e-05	
360	-4.70000e+00	1.431362e-05	
361	-4.75000e+00	1.431785e-05	
362	-4.80000e+00	1.432209e-05	
363	-4.85000e+00	1.432633e-05	
364	-4.90000e+00	1.433059e-05	
365	-4.95000e+00	1.433486e-05	
366	-5.00000e+00	1.433916e-05	
367	-5.05000e+00	1.434348e-05	
368	-5.10000e+00	1.434784e-05	
369	-5.15000e+00	1.435224e-05	
370	-5.20000e+00	1.435669e-05	
371	-5.25000e+00	1.436121e-05	
372	-5.30000e+00	1.436580e-05	
373	-5.35000e+00	1.437048e-05	
374	-5.40000e+00	1.437526e-05	
375	-5.45000e+00	1.438016e-05	
376	-5.50000e+00	1.438519e-05	
377	-5.55000e+00	1.439039e-05	
378	-5.60000e+00	1.439577e-05	
379	-5.65000e+00	1.440135e-05	
380	-5.70000e+00	1.440717e-05	
381	-5.75000e+00	1.441325e-05	
382	-5.80000e+00	1.441963e-05	
383	-5.85000e+00	1.442634e-05	
384	-5.90000e+00	1.443342e-05	
385	-5.95000e+00	1.444092e-05	
386	-6.00000e+00	1.444887e-05	
387	-6.05000e+00	1.445734e-05	
388	-6.10000e+00	1.446636e-05	
389	-6.15000e+00	1.447600e-05	
390	-6.20000e+00	1.448632e-05	
391	-6.25000e+00	1.449739e-05	
392	-6.30000e+00	1.450926e-05	
393	-6.35000e+00	1.452202e-05	
394	-6.40000e+00	1.453574e-05	
395	-6.45000e+00	1.455050e-05	
396	-6.50000e+00	1.456640e-05	
397	-6.55000e+00	1.458352e-05	
398	-6.60000e+00	1.460195e-05	
399	0.000000e+00	-3.22696e-25	
400	-5.00000e-02	1.188846e-06	
401	-1.00000e-01	2.308559e-06	
402	-1.50000e-01	3.393598e-06	

Index   v-sweep         i(vds)          
--------------------------------------------------------------------------------
403	-2.00000e-01	4.452025e-06	
404	-2.50000e-01	5.485728e-06	
405	-3.00000e-01	6.495151e-06	
406	-3.50000e-01	7.480399e-06	
407	-4.00000e-01	8.441501e-06	
408	-4.50000e-01	9.378465e-06	
409	-5.00000e-01	1.029130e-05	
410	-5.50000e-01	1.118000e-05	
411	-6.00000e-01	1.204458e-05	
412	-6.50000e-01	1.288503e-05	
413	-7.00000e-01	1.370137e-05	
414	-7.50000e-01	1.449359e-05	
415	-8.00000e-01	1.526170e-05	
416	-8.50000e-01	1.600571e-05	
417	-9.00000e-01	1.672561e-05	
418	-9.50000e-01	1.742142e-05	
419	-1.00000e+00	1.809313e-05	
420	-1.05000e+00	1.874076e-05	
421	-1.10000e+00	1.936430e-05	
422	-1.15000e+00	1.996377e-05	
423	-1.20000e+00	2.053916e-05	
424	-1.25000e+00	2.109049e-05	
425	-1.30000e+00	2.161777e-05	
426	-1.35000e+00	2.212100e-05	
427	-1.40000e+00	2.260019e-05	
428	-1.45000e+00	2.305536e-05	
429	-1.50000e+00	2.348652e-05	
430	-1.55000e+00	2.389368e-05	
431	-1.60000e+00	2.427687e-05	
432	-1.65000e+00	2.463612e-05	
433	-1.70000e+00	2.497145e-05	
434	-1.75000e+00	2.528292e-05	
435	-1.80000e+00	2.557059e-05	
436	-1.85000e+00	2.583452e-05	
437	-1.90000e+00	2.607484e-05	
438	-1.95000e+00	2.629170e-05	
439	-2.00000e+00	2.648532e-05	
440	-2.05000e+00	2.665603e-05	
441	-2.10000e+00	2.680431e-05	
442	-2.15000e+00	2.693086e-05	
443	-2.20000e+00	2.703670e-05	
444	-2.25000e+00	2.712331e-05	
445	-2.30000e+00	2.719268e-05	
446	-2.35000e+00	2.724728e-05	
447	-2.40000e+00	2.728992e-05	
448	-2.45000e+00	2.732342e-05	
449	-2.50000e+00	2.735024e-05	
450	-2.55000e+00	2.737237e-05	
451	-2.60000e+00	2.739124e-05	
452	-2.65000e+00	2.740786e-05	
453	-2.70000e+00	2.742289e-05	
454	-2.75000e+00	2.743679e-05	
455	-2.80000e+00	2.744985e-05	
456	-2.85000e+00	2.746228e-05	
457	-2.90000e+00	2.747422e-05	
458	-2.95000e+00	2.748577e-05	
459	-3.00000e+00	2.749699e-05	
460	-3.05000e+00	2.750795e-05	

Index   v-sweep         i(vds)          
--------------------------------------------------------------------------------
461	-3.10000e+00	2.751869e-05	
462	-3.15000e+00	2.752923e-05	
463	-3.20000e+00	2.753960e-05	
464	-3.25000e+00	2.754981e-05	
465	-3.30000e+00	2.755990e-05	
466	-3.35000e+00	2.756986e-05	
467	-3.40000e+00	2.757971e-05	
468	-3.45000e+00	2.758945e-05	
469	-3.50000e+00	2.759911e-05	
470	-3.55000e+00	2.760867e-05	
471	-3.60000e+00	2.761816e-05	
472	-3.65000e+00	2.762757e-05	
473	-3.70000e+00	2.763691e-05	
474	-3.75000e+00	2.764618e-05	
475	-3.80000e+00	2.765540e-05	
476	-3.85000e+00	2.766455e-05	
477	-3.90000e+00	2.767365e-05	
478	-3.95000e+00	2.768269e-05	
479	-4.00000e+00	2.769169e-05	
480	-4.05000e+00	2.770064e-05	
481	-4.10000e+00	2.770954e-05	
482	-4.15000e+00	2.771840e-05	
483	-4.20000e+00	2.772722e-05	
484	-4.25000e+00	2.773600e-05	
485	-4.30000e+00	2.774474e-05	
486	-4.35000e+00	2.775344e-05	
487	-4.40000e+00	2.776211e-05	
488	-4.45000e+00	2.777075e-05	
489	-4.50000e+00	2.777935e-05	
490	-4.55000e+00	2.778792e-05	
491	-4.60000e+00	2.779647e-05	
492	-4.65000e+00	2.780498e-05	
493	-4.70000e+00	2.781347e-05	
494	-4.75000e+00	2.782193e-05	
495	-4.80000e+00	2.783037e-05	
496	-4.85000e+00	2.783878e-05	
497	-4.90000e+00	2.784717e-05	
498	-4.95000e+00	2.785553e-05	
499	-5.00000e+00	2.786388e-05	
500	-5.05000e+00	2.787220e-05	
501	-5.10000e+00	2.788051e-05	
502	-5.15000e+00	2.788880e-05	
503	-5.20000e+00	2.789708e-05	
504	-5.25000e+00	2.790534e-05	
505	-5.30000e+00	2.791360e-05	
506	-5.35000e+00	2.792184e-05	
507	-5.40000e+00	2.793009e-05	
508	-5.45000e+00	2.793833e-05	
509	-5.50000e+00	2.794658e-05	
510	-5.55000e+00	2.795484e-05	
511	-5.60000e+00	2.796313e-05	
512	-5.65000e+00	2.797143e-05	
513	-5.70000e+00	2.797978e-05	
514	-5.75000e+00	2.798817e-05	
515	-5.80000e+00	2.799662e-05	
516	-5.85000e+00	2.800514e-05	
517	-5.90000e+00	2.801376e-05	
518	-5.95000e+00	2.802248e-05	

Index   v-sweep         i(vds)          
--------------------------------------------------------------------------------
519	-6.00000e+00	2.803133e-05	
520	-6.05000e+00	2.804034e-05	
521	-6.10000e+00	2.804953e-05	
522	-6.15000e+00	2.805893e-05	
523	-6.20000e+00	2.806857e-05	
524	-6.25000e+00	2.807850e-05	
525	-6.30000e+00	2.808875e-05	
526	-6.35000e+00	2.809936e-05	
527	-6.40000e+00	2.811040e-05	
528	-6.45000e+00	2.812192e-05	
529	-6.50000e+00	2.813397e-05	
530	-6.55000e+00	2.814662e-05	
531	-6.60000e+00	2.815995e-05	
532	0.000000e+00	4.060948e-21	
533	-5.00000e-02	1.453264e-06	
534	-1.00000e-01	2.839093e-06	
535	-1.50000e-01	4.191895e-06	
536	-2.00000e-01	5.519728e-06	
537	-2.50000e-01	6.824478e-06	
538	-3.00000e-01	8.106591e-06	
539	-3.50000e-01	9.366173e-06	
540	-4.00000e-01	1.060325e-05	
541	-4.50000e-01	1.181783e-05	
542	-5.00000e-01	1.300992e-05	
543	-5.50000e-01	1.417953e-05	
544	-6.00000e-01	1.532665e-05	
545	-6.50000e-01	1.645128e-05	
546	-7.00000e-01	1.755344e-05	
547	-7.50000e-01	1.863313e-05	
548	-8.00000e-01	1.969034e-05	
549	-8.50000e-01	2.072508e-05	
550	-9.00000e-01	2.173736e-05	
551	-9.50000e-01	2.272718e-05	
552	-1.00000e+00	2.369454e-05	
553	-1.05000e+00	2.463944e-05	
554	-1.10000e+00	2.556189e-05	
555	-1.15000e+00	2.646189e-05	
556	-1.20000e+00	2.733944e-05	
557	-1.25000e+00	2.819456e-05	
558	-1.30000e+00	2.902724e-05	
559	-1.35000e+00	2.983748e-05	
560	-1.40000e+00	3.062529e-05	
561	-1.45000e+00	3.139068e-05	
562	-1.50000e+00	3.213364e-05	
563	-1.55000e+00	3.285419e-05	
564	-1.60000e+00	3.355232e-05	
565	-1.65000e+00	3.422805e-05	
566	-1.70000e+00	3.488137e-05	
567	-1.75000e+00	3.551230e-05	
568	-1.80000e+00	3.612084e-05	
569	-1.85000e+00	3.670699e-05	
570	-1.90000e+00	3.727077e-05	
571	-1.95000e+00	3.781217e-05	
572	-2.00000e+00	3.833122e-05	
573	-2.05000e+00	3.882792e-05	
574	-2.10000e+00	3.930229e-05	
575	-2.15000e+00	3.975433e-05	
576	-2.20000e+00	4.018407e-05	

Index   v-sweep         i(vds)          
--------------------------------------------------------------------------------
577	-2.25000e+00	4.059152e-05	
578	-2.30000e+00	4.097672e-05	
579	-2.35000e+00	4.133968e-05	
580	-2.40000e+00	4.168046e-05	
581	-2.45000e+00	4.199910e-05	
582	-2.50000e+00	4.229566e-05	
583	-2.55000e+00	4.257022e-05	
584	-2.60000e+00	4.282290e-05	
585	-2.65000e+00	4.305384e-05	
586	-2.70000e+00	4.326324e-05	
587	-2.75000e+00	4.345139e-05	
588	-2.80000e+00	4.361866e-05	
589	-2.85000e+00	4.376560e-05	
590	-2.90000e+00	4.389295e-05	
591	-2.95000e+00	4.400175e-05	
592	-3.00000e+00	4.409336e-05	
593	-3.05000e+00	4.416952e-05	
594	-3.10000e+00	4.423231e-05	
595	-3.15000e+00	4.428399e-05	
596	-3.20000e+00	4.432685e-05	
597	-3.25000e+00	4.436297e-05	
598	-3.30000e+00	4.439407e-05	
599	-3.35000e+00	4.442151e-05	
600	-3.40000e+00	4.444628e-05	
601	-3.45000e+00	4.446909e-05	
602	-3.50000e+00	4.449046e-05	
603	-3.55000e+00	4.451073e-05	
604	-3.60000e+00	4.453015e-05	
605	-3.65000e+00	4.454890e-05	
606	-3.70000e+00	4.456710e-05	
607	-3.75000e+00	4.458486e-05	
608	-3.80000e+00	4.460224e-05	
609	-3.85000e+00	4.461929e-05	
610	-3.90000e+00	4.463607e-05	
611	-3.95000e+00	4.465260e-05	
612	-4.00000e+00	4.466890e-05	
613	-4.05000e+00	4.468501e-05	
614	-4.10000e+00	4.470094e-05	
615	-4.15000e+00	4.471671e-05	
616	-4.20000e+00	4.473233e-05	
617	-4.25000e+00	4.474780e-05	
618	-4.30000e+00	4.476315e-05	
619	-4.35000e+00	4.477838e-05	
620	-4.40000e+00	4.479349e-05	
621	-4.45000e+00	4.480850e-05	
622	-4.50000e+00	4.482341e-05	
623	-4.55000e+00	4.483823e-05	
624	-4.60000e+00	4.485295e-05	
625	-4.65000e+00	4.486759e-05	
626	-4.70000e+00	4.488216e-05	
627	-4.75000e+00	4.489664e-05	
628	-4.80000e+00	4.491106e-05	
629	-4.85000e+00	4.492540e-05	
630	-4.90000e+00	4.493968e-05	
631	-4.95000e+00	4.495389e-05	
632	-5.00000e+00	4.496805e-05	
633	-5.05000e+00	4.498215e-05	
634	-5.10000e+00	4.499619e-05	

Index   v-sweep         i(vds)          
--------------------------------------------------------------------------------
635	-5.15000e+00	4.501017e-05	
636	-5.20000e+00	4.502411e-05	
637	-5.25000e+00	4.503800e-05	
638	-5.30000e+00	4.505184e-05	
639	-5.35000e+00	4.506563e-05	
640	-5.40000e+00	4.507938e-05	
641	-5.45000e+00	4.509309e-05	
642	-5.50000e+00	4.510675e-05	
643	-5.55000e+00	4.512038e-05	
644	-5.60000e+00	4.513397e-05	
645	-5.65000e+00	4.514752e-05	
646	-5.70000e+00	4.516104e-05	
647	-5.75000e+00	4.517452e-05	
648	-5.80000e+00	4.518798e-05	
649	-5.85000e+00	4.520140e-05	
650	-5.90000e+00	4.521481e-05	
651	-5.95000e+00	4.522819e-05	
652	-6.00000e+00	4.524155e-05	
653	-6.05000e+00	4.525489e-05	
654	-6.10000e+00	4.526823e-05	
655	-6.15000e+00	4.528156e-05	
656	-6.20000e+00	4.529489e-05	
657	-6.25000e+00	4.530823e-05	
658	-6.30000e+00	4.532159e-05	
659	-6.35000e+00	4.533499e-05	
660	-6.40000e+00	4.534843e-05	
661	-6.45000e+00	4.536192e-05	
662	-6.50000e+00	4.537549e-05	
663	-6.55000e+00	4.538916e-05	
664	-6.60000e+00	4.540295e-05	
665	0.000000e+00	-1.10933e-25	
666	-5.00000e-02	1.694447e-06	
667	-1.00000e-01	3.322913e-06	
668	-1.50000e-01	4.919758e-06	
669	-2.00000e-01	6.493037e-06	
670	-2.50000e-01	8.044638e-06	
671	-3.00000e-01	9.575005e-06	
672	-3.50000e-01	1.108425e-05	
673	-4.00000e-01	1.257238e-05	
674	-4.50000e-01	1.403943e-05	
675	-5.00000e-01	1.548539e-05	
676	-5.50000e-01	1.691027e-05	
677	-6.00000e-01	1.831406e-05	
678	-6.50000e-01	1.969678e-05	
679	-7.00000e-01	2.105842e-05	
680	-7.50000e-01	2.239899e-05	
681	-8.00000e-01	2.371849e-05	
682	-8.50000e-01	2.501692e-05	
683	-9.00000e-01	2.629429e-05	
684	-9.50000e-01	2.755059e-05	
685	-1.00000e+00	2.878584e-05	
686	-1.05000e+00	3.000004e-05	
687	-1.10000e+00	3.119318e-05	
688	-1.15000e+00	3.236527e-05	
689	-1.20000e+00	3.351632e-05	
690	-1.25000e+00	3.464632e-05	
691	-1.30000e+00	3.575529e-05	
692	-1.35000e+00	3.684322e-05	

Index   v-sweep         i(vds)          
--------------------------------------------------------------------------------
693	-1.40000e+00	3.791011e-05	
694	-1.45000e+00	3.895597e-05	
695	-1.50000e+00	3.998081e-05	
696	-1.55000e+00	4.098462e-05	
697	-1.60000e+00	4.196741e-05	
698	-1.65000e+00	4.292919e-05	
699	-1.70000e+00	4.386994e-05	
700	-1.75000e+00	4.478969e-05	
701	-1.80000e+00	4.568843e-05	
702	-1.85000e+00	4.656617e-05	
703	-1.90000e+00	4.742291e-05	
704	-1.95000e+00	4.825865e-05	
705	-2.00000e+00	4.907339e-05	
706	-2.05000e+00	4.986715e-05	
707	-2.10000e+00	5.063993e-05	
708	-2.15000e+00	5.139172e-05	
709	-2.20000e+00	5.212254e-05	
710	-2.25000e+00	5.283238e-05	
711	-2.30000e+00	5.352127e-05	
712	-2.35000e+00	5.418919e-05	
713	-2.40000e+00	5.483615e-05	
714	-2.45000e+00	5.546217e-05	
715	-2.50000e+00	5.606725e-05	
716	-2.55000e+00	5.665139e-05	
717	-2.60000e+00	5.721460e-05	
718	-2.65000e+00	5.775690e-05	
719	-2.70000e+00	5.827829e-05	
720	-2.75000e+00	5.877879e-05	
721	-2.80000e+00	5.925840e-05	
722	-2.85000e+00	5.971715e-05	
723	-2.90000e+00	6.015505e-05	
724	-2.95000e+00	6.057213e-05	
725	-3.00000e+00	6.096840e-05	
726	-3.05000e+00	6.134390e-05	
727	-3.10000e+00	6.169867e-05	
728	-3.15000e+00	6.203275e-05	
729	-3.20000e+00	6.234621e-05	
730	-3.25000e+00	6.263911e-05	
731	-3.30000e+00	6.291156e-05	
732	-3.35000e+00	6.316368e-05	
733	-3.40000e+00	6.339562e-05	
734	-3.45000e+00	6.360761e-05	
735	-3.50000e+00	6.379993e-05	
736	-3.55000e+00	6.397295e-05	
737	-3.60000e+00	6.412720e-05	
738	-3.65000e+00	6.426336e-05	
739	-3.70000e+00	6.438232e-05	
740	-3.75000e+00	6.448523e-05	
741	-3.80000e+00	6.457354e-05	
742	-3.85000e+00	6.464893e-05	
743	-3.90000e+00	6.471327e-05	
744	-3.95000e+00	6.476849e-05	
745	-4.00000e+00	6.481641e-05	
746	-4.05000e+00	6.485866e-05	
747	-4.10000e+00	6.489659e-05	
748	-4.15000e+00	6.493126e-05	
749	-4.20000e+00	6.496347e-05	
750	-4.25000e+00	6.499381e-05	

Index   v-sweep         i(vds)          
--------------------------------------------------------------------------------
751	-4.30000e+00	6.502271e-05	
752	-4.35000e+00	6.505048e-05	
753	-4.40000e+00	6.507735e-05	
754	-4.45000e+00	6.510350e-05	
755	-4.50000e+00	6.512903e-05	
756	-4.55000e+00	6.515406e-05	
757	-4.60000e+00	6.517865e-05	
758	-4.65000e+00	6.520285e-05	
759	-4.70000e+00	6.522672e-05	
760	-4.75000e+00	6.525029e-05	
761	-4.80000e+00	6.527359e-05	
762	-4.85000e+00	6.529665e-05	
763	-4.90000e+00	6.531948e-05	
764	-4.95000e+00	6.534210e-05	
765	-5.00000e+00	6.536453e-05	
766	-5.05000e+00	6.538679e-05	
767	-5.10000e+00	6.540887e-05	
768	-5.15000e+00	6.543081e-05	
769	-5.20000e+00	6.545259e-05	
770	-5.25000e+00	6.547424e-05	
771	-5.30000e+00	6.549576e-05	
772	-5.35000e+00	6.551715e-05	
773	-5.40000e+00	6.553843e-05	
774	-5.45000e+00	6.555960e-05	
775	-5.50000e+00	6.558066e-05	
776	-5.55000e+00	6.560161e-05	
777	-5.60000e+00	6.562248e-05	
778	-5.65000e+00	6.564325e-05	
779	-5.70000e+00	6.566393e-05	
780	-5.75000e+00	6.568452e-05	
781	-5.80000e+00	6.570504e-05	
782	-5.85000e+00	6.572547e-05	
783	-5.90000e+00	6.574583e-05	
784	-5.95000e+00	6.576612e-05	
785	-6.00000e+00	6.578634e-05	
786	-6.05000e+00	6.580649e-05	
787	-6.10000e+00	6.582658e-05	
788	-6.15000e+00	6.584660e-05	
789	-6.20000e+00	6.586657e-05	
790	-6.25000e+00	6.588647e-05	
791	-6.30000e+00	6.590632e-05	
792	-6.35000e+00	6.592612e-05	
793	-6.40000e+00	6.594587e-05	
794	-6.45000e+00	6.596556e-05	
795	-6.50000e+00	6.598521e-05	
796	-6.55000e+00	6.600482e-05	
797	-6.60000e+00	6.602439e-05	
Note: No ".plot", ".print", or ".fourier" lines; no simulations run
