
Note: Compatibility modes selected: hs

Warning: m=xx on .subckt line will override multiplier m hierarchy!


Circuit: ***************************

Doing analysis at TEMP = 25.000000 and TNOM = 25.000000


No. of Data Rows : 798
                          ***************************
                          DC transfer characteristic  Mon Jan  9 13:58:50  2023
--------------------------------------------------------------------------------
Index   v-sweep         i(vds)          
--------------------------------------------------------------------------------
0	0.000000e+00	4.508556e-23	
1	-5.00000e-02	1.121701e-07	
2	-1.00000e-01	1.649140e-07	
3	-1.50000e-01	1.798020e-07	
4	-2.00000e-01	1.831644e-07	
5	-2.50000e-01	1.842522e-07	
6	-3.00000e-01	1.847794e-07	
7	-3.50000e-01	1.851142e-07	
8	-4.00000e-01	1.853644e-07	
9	-4.50000e-01	1.855701e-07	
10	-5.00000e-01	1.857492e-07	
11	-5.50000e-01	1.859107e-07	
12	-6.00000e-01	1.860596e-07	
13	-6.50000e-01	1.861991e-07	
14	-7.00000e-01	1.863311e-07	
15	-7.50000e-01	1.864570e-07	
16	-8.00000e-01	1.865778e-07	
17	-8.50000e-01	1.866943e-07	
18	-9.00000e-01	1.868071e-07	
19	-9.50000e-01	1.869165e-07	
20	-1.00000e+00	1.870229e-07	
21	-1.05000e+00	1.871268e-07	
22	-1.10000e+00	1.872282e-07	
23	-1.15000e+00	1.873275e-07	
24	-1.20000e+00	1.874248e-07	
25	-1.25000e+00	1.875203e-07	
26	-1.30000e+00	1.876141e-07	
27	-1.35000e+00	1.877064e-07	
28	-1.40000e+00	1.877972e-07	
29	-1.45000e+00	1.878866e-07	
30	-1.50000e+00	1.879748e-07	
31	-1.55000e+00	1.880618e-07	
32	-1.60000e+00	1.881477e-07	
33	-1.65000e+00	1.882325e-07	
34	-1.70000e+00	1.883164e-07	
35	-1.75000e+00	1.883993e-07	
36	-1.80000e+00	1.884814e-07	
37	-1.85000e+00	1.885626e-07	
38	-1.90000e+00	1.886430e-07	
39	-1.95000e+00	1.887226e-07	
40	-2.00000e+00	1.888015e-07	
41	-2.05000e+00	1.888798e-07	
42	-2.10000e+00	1.889574e-07	
43	-2.15000e+00	1.890343e-07	
44	-2.20000e+00	1.891107e-07	
45	-2.25000e+00	1.891865e-07	
46	-2.30000e+00	1.892617e-07	
47	-2.35000e+00	1.893364e-07	
48	-2.40000e+00	1.894106e-07	
49	-2.45000e+00	1.894844e-07	
50	-2.50000e+00	1.895576e-07	
51	-2.55000e+00	1.896304e-07	
52	-2.60000e+00	1.897028e-07	
53	-2.65000e+00	1.897748e-07	
54	-2.70000e+00	1.898463e-07	

Index   v-sweep         i(vds)          
--------------------------------------------------------------------------------
55	-2.75000e+00	1.899175e-07	
56	-2.80000e+00	1.899883e-07	
57	-2.85000e+00	1.900588e-07	
58	-2.90000e+00	1.901290e-07	
59	-2.95000e+00	1.901988e-07	
60	-3.00000e+00	1.902684e-07	
61	-3.05000e+00	1.903377e-07	
62	-3.10000e+00	1.904067e-07	
63	-3.15000e+00	1.904756e-07	
64	-3.20000e+00	1.905443e-07	
65	-3.25000e+00	1.906129e-07	
66	-3.30000e+00	1.906814e-07	
67	-3.35000e+00	1.907498e-07	
68	-3.40000e+00	1.908183e-07	
69	-3.45000e+00	1.908868e-07	
70	-3.50000e+00	1.909555e-07	
71	-3.55000e+00	1.910245e-07	
72	-3.60000e+00	1.910938e-07	
73	-3.65000e+00	1.911636e-07	
74	-3.70000e+00	1.912340e-07	
75	-3.75000e+00	1.913051e-07	
76	-3.80000e+00	1.913772e-07	
77	-3.85000e+00	1.914503e-07	
78	-3.90000e+00	1.915247e-07	
79	-3.95000e+00	1.916007e-07	
80	-4.00000e+00	1.916785e-07	
81	-4.05000e+00	1.917583e-07	
82	-4.10000e+00	1.918405e-07	
83	-4.15000e+00	1.919254e-07	
84	-4.20000e+00	1.920135e-07	
85	-4.25000e+00	1.921051e-07	
86	-4.30000e+00	1.922007e-07	
87	-4.35000e+00	1.923007e-07	
88	-4.40000e+00	1.924057e-07	
89	-4.45000e+00	1.925163e-07	
90	-4.50000e+00	1.926331e-07	
91	-4.55000e+00	1.927568e-07	
92	-4.60000e+00	1.928881e-07	
93	-4.65000e+00	1.930277e-07	
94	-4.70000e+00	1.931765e-07	
95	-4.75000e+00	1.933354e-07	
96	-4.80000e+00	1.935053e-07	
97	-4.85000e+00	1.936872e-07	
98	-4.90000e+00	1.938821e-07	
99	-4.95000e+00	1.940912e-07	
100	-5.00000e+00	1.943157e-07	
101	-5.05000e+00	1.945567e-07	
102	-5.10000e+00	1.948157e-07	
103	-5.15000e+00	1.950940e-07	
104	-5.20000e+00	1.953930e-07	
105	-5.25000e+00	1.957142e-07	
106	-5.30000e+00	1.960593e-07	
107	-5.35000e+00	1.964299e-07	
108	-5.40000e+00	1.968278e-07	
109	-5.45000e+00	1.972546e-07	
110	-5.50000e+00	1.977124e-07	
111	-5.55000e+00	1.982031e-07	
112	-5.60000e+00	1.987287e-07	

Index   v-sweep         i(vds)          
--------------------------------------------------------------------------------
113	-5.65000e+00	1.992913e-07	
114	-5.70000e+00	1.998930e-07	
115	-5.75000e+00	2.005363e-07	
116	-5.80000e+00	2.012232e-07	
117	-5.85000e+00	2.019564e-07	
118	-5.90000e+00	2.027382e-07	
119	-5.95000e+00	2.035712e-07	
120	-6.00000e+00	2.044581e-07	
121	-6.05000e+00	2.054015e-07	
122	-6.10000e+00	2.064042e-07	
123	-6.15000e+00	2.074691e-07	
124	-6.20000e+00	2.085992e-07	
125	-6.25000e+00	2.097973e-07	
126	-6.30000e+00	2.110667e-07	
127	-6.35000e+00	2.124103e-07	
128	-6.40000e+00	2.138315e-07	
129	-6.45000e+00	2.153336e-07	
130	-6.50000e+00	2.169198e-07	
131	-6.55000e+00	2.185936e-07	
132	-6.60000e+00	2.203585e-07	
133	0.000000e+00	-1.01791e-22	
134	-5.00000e-02	1.277178e-06	
135	-1.00000e-01	2.472247e-06	
136	-1.50000e-01	3.585283e-06	
137	-2.00000e-01	4.616368e-06	
138	-2.50000e-01	5.565593e-06	
139	-3.00000e-01	6.433062e-06	
140	-3.50000e-01	7.218901e-06	
141	-4.00000e-01	7.923271e-06	
142	-4.50000e-01	8.546397e-06	
143	-5.00000e-01	9.088613e-06	
144	-5.50000e-01	9.550464e-06	
145	-6.00000e-01	9.932902e-06	
146	-6.50000e-01	1.023771e-05	
147	-7.00000e-01	1.046836e-05	
148	-7.50000e-01	1.063147e-05	
149	-8.00000e-01	1.073836e-05	
150	-8.50000e-01	1.080447e-05	
151	-9.00000e-01	1.084519e-05	
152	-9.50000e-01	1.087173e-05	
153	-1.00000e+00	1.089064e-05	
154	-1.05000e+00	1.090531e-05	
155	-1.10000e+00	1.091748e-05	
156	-1.15000e+00	1.092806e-05	
157	-1.20000e+00	1.093757e-05	
158	-1.25000e+00	1.094630e-05	
159	-1.30000e+00	1.095446e-05	
160	-1.35000e+00	1.096216e-05	
161	-1.40000e+00	1.096949e-05	
162	-1.45000e+00	1.097651e-05	
163	-1.50000e+00	1.098327e-05	
164	-1.55000e+00	1.098981e-05	
165	-1.60000e+00	1.099614e-05	
166	-1.65000e+00	1.100231e-05	
167	-1.70000e+00	1.100831e-05	
168	-1.75000e+00	1.101417e-05	
169	-1.80000e+00	1.101991e-05	
170	-1.85000e+00	1.102553e-05	

Index   v-sweep         i(vds)          
--------------------------------------------------------------------------------
171	-1.90000e+00	1.103104e-05	
172	-1.95000e+00	1.103645e-05	
173	-2.00000e+00	1.104177e-05	
174	-2.05000e+00	1.104700e-05	
175	-2.10000e+00	1.105216e-05	
176	-2.15000e+00	1.105724e-05	
177	-2.20000e+00	1.106225e-05	
178	-2.25000e+00	1.106720e-05	
179	-2.30000e+00	1.107209e-05	
180	-2.35000e+00	1.107692e-05	
181	-2.40000e+00	1.108169e-05	
182	-2.45000e+00	1.108641e-05	
183	-2.50000e+00	1.109109e-05	
184	-2.55000e+00	1.109572e-05	
185	-2.60000e+00	1.110030e-05	
186	-2.65000e+00	1.110484e-05	
187	-2.70000e+00	1.110934e-05	
188	-2.75000e+00	1.111381e-05	
189	-2.80000e+00	1.111823e-05	
190	-2.85000e+00	1.112263e-05	
191	-2.90000e+00	1.112698e-05	
192	-2.95000e+00	1.113131e-05	
193	-3.00000e+00	1.113561e-05	
194	-3.05000e+00	1.113987e-05	
195	-3.10000e+00	1.114411e-05	
196	-3.15000e+00	1.114832e-05	
197	-3.20000e+00	1.115251e-05	
198	-3.25000e+00	1.115667e-05	
199	-3.30000e+00	1.116081e-05	
200	-3.35000e+00	1.116492e-05	
201	-3.40000e+00	1.116901e-05	
202	-3.45000e+00	1.117308e-05	
203	-3.50000e+00	1.117713e-05	
204	-3.55000e+00	1.118116e-05	
205	-3.60000e+00	1.118517e-05	
206	-3.65000e+00	1.118917e-05	
207	-3.70000e+00	1.119315e-05	
208	-3.75000e+00	1.119711e-05	
209	-3.80000e+00	1.120107e-05	
210	-3.85000e+00	1.120501e-05	
211	-3.90000e+00	1.120894e-05	
212	-3.95000e+00	1.121287e-05	
213	-4.00000e+00	1.121679e-05	
214	-4.05000e+00	1.122071e-05	
215	-4.10000e+00	1.122464e-05	
216	-4.15000e+00	1.122857e-05	
217	-4.20000e+00	1.123251e-05	
218	-4.25000e+00	1.123647e-05	
219	-4.30000e+00	1.124045e-05	
220	-4.35000e+00	1.124446e-05	
221	-4.40000e+00	1.124851e-05	
222	-4.45000e+00	1.125260e-05	
223	-4.50000e+00	1.125675e-05	
224	-4.55000e+00	1.126097e-05	
225	-4.60000e+00	1.126526e-05	
226	-4.65000e+00	1.126965e-05	
227	-4.70000e+00	1.127415e-05	
228	-4.75000e+00	1.127877e-05	

Index   v-sweep         i(vds)          
--------------------------------------------------------------------------------
229	-4.80000e+00	1.128353e-05	
230	-4.85000e+00	1.128847e-05	
231	-4.90000e+00	1.129359e-05	
232	-4.95000e+00	1.129892e-05	
233	-5.00000e+00	1.130449e-05	
234	-5.05000e+00	1.131033e-05	
235	-5.10000e+00	1.131646e-05	
236	-5.15000e+00	1.132294e-05	
237	-5.20000e+00	1.132978e-05	
238	-5.25000e+00	1.133704e-05	
239	-5.30000e+00	1.134475e-05	
240	-5.35000e+00	1.135296e-05	
241	-5.40000e+00	1.136172e-05	
242	-5.45000e+00	1.137109e-05	
243	-5.50000e+00	1.138111e-05	
244	-5.55000e+00	1.139184e-05	
245	-5.60000e+00	1.140336e-05	
246	-5.65000e+00	1.141572e-05	
247	-5.70000e+00	1.142899e-05	
248	-5.75000e+00	1.144326e-05	
249	-5.80000e+00	1.145859e-05	
250	-5.85000e+00	1.147507e-05	
251	-5.90000e+00	1.149278e-05	
252	-5.95000e+00	1.151182e-05	
253	-6.00000e+00	1.153228e-05	
254	-6.05000e+00	1.155425e-05	
255	-6.10000e+00	1.157784e-05	
256	-6.15000e+00	1.160316e-05	
257	-6.20000e+00	1.163032e-05	
258	-6.25000e+00	1.165943e-05	
259	-6.30000e+00	1.169061e-05	
260	-6.35000e+00	1.172398e-05	
261	-6.40000e+00	1.175969e-05	
262	-6.45000e+00	1.179785e-05	
263	-6.50000e+00	1.183860e-05	
264	-6.55000e+00	1.188210e-05	
265	-6.60000e+00	1.192848e-05	
266	0.000000e+00	8.321427e-31	
267	-5.00000e-02	2.254597e-06	
268	-1.00000e-01	4.433476e-06	
269	-1.50000e-01	6.536692e-06	
270	-2.00000e-01	8.564299e-06	
271	-2.50000e-01	1.051635e-05	
272	-3.00000e-01	1.239291e-05	
273	-3.50000e-01	1.419402e-05	
274	-4.00000e-01	1.591974e-05	
275	-4.50000e-01	1.757014e-05	
276	-5.00000e-01	1.914526e-05	
277	-5.50000e-01	2.064518e-05	
278	-6.00000e-01	2.206995e-05	
279	-6.50000e-01	2.341964e-05	
280	-7.00000e-01	2.469432e-05	
281	-7.50000e-01	2.589406e-05	
282	-8.00000e-01	2.701895e-05	
283	-8.50000e-01	2.806907e-05	
284	-9.00000e-01	2.904455e-05	
285	-9.50000e-01	2.994550e-05	
286	-1.00000e+00	3.077208e-05	

Index   v-sweep         i(vds)          
--------------------------------------------------------------------------------
287	-1.05000e+00	3.152451e-05	
288	-1.10000e+00	3.220308e-05	
289	-1.15000e+00	3.280819e-05	
290	-1.20000e+00	3.334045e-05	
291	-1.25000e+00	3.380079e-05	
292	-1.30000e+00	3.419071e-05	
293	-1.35000e+00	3.451263e-05	
294	-1.40000e+00	3.477042e-05	
295	-1.45000e+00	3.497008e-05	
296	-1.50000e+00	3.512007e-05	
297	-1.55000e+00	3.523077e-05	
298	-1.60000e+00	3.531284e-05	
299	-1.65000e+00	3.537540e-05	
300	-1.70000e+00	3.542516e-05	
301	-1.75000e+00	3.546654e-05	
302	-1.80000e+00	3.550232e-05	
303	-1.85000e+00	3.553423e-05	
304	-1.90000e+00	3.556335e-05	
305	-1.95000e+00	3.559038e-05	
306	-2.00000e+00	3.561577e-05	
307	-2.05000e+00	3.563986e-05	
308	-2.10000e+00	3.566287e-05	
309	-2.15000e+00	3.568497e-05	
310	-2.20000e+00	3.570630e-05	
311	-2.25000e+00	3.572695e-05	
312	-2.30000e+00	3.574701e-05	
313	-2.35000e+00	3.576653e-05	
314	-2.40000e+00	3.578558e-05	
315	-2.45000e+00	3.580421e-05	
316	-2.50000e+00	3.582244e-05	
317	-2.55000e+00	3.584031e-05	
318	-2.60000e+00	3.585785e-05	
319	-2.65000e+00	3.587509e-05	
320	-2.70000e+00	3.589205e-05	
321	-2.75000e+00	3.590875e-05	
322	-2.80000e+00	3.592520e-05	
323	-2.85000e+00	3.594143e-05	
324	-2.90000e+00	3.595744e-05	
325	-2.95000e+00	3.597325e-05	
326	-3.00000e+00	3.598887e-05	
327	-3.05000e+00	3.600431e-05	
328	-3.10000e+00	3.601959e-05	
329	-3.15000e+00	3.603470e-05	
330	-3.20000e+00	3.604966e-05	
331	-3.25000e+00	3.606448e-05	
332	-3.30000e+00	3.607916e-05	
333	-3.35000e+00	3.609371e-05	
334	-3.40000e+00	3.610814e-05	
335	-3.45000e+00	3.612245e-05	
336	-3.50000e+00	3.613664e-05	
337	-3.55000e+00	3.615073e-05	
338	-3.60000e+00	3.616471e-05	
339	-3.65000e+00	3.617859e-05	
340	-3.70000e+00	3.619238e-05	
341	-3.75000e+00	3.620607e-05	
342	-3.80000e+00	3.621968e-05	
343	-3.85000e+00	3.623320e-05	
344	-3.90000e+00	3.624664e-05	

Index   v-sweep         i(vds)          
--------------------------------------------------------------------------------
345	-3.95000e+00	3.626001e-05	
346	-4.00000e+00	3.627329e-05	
347	-4.05000e+00	3.628651e-05	
348	-4.10000e+00	3.629965e-05	
349	-4.15000e+00	3.631273e-05	
350	-4.20000e+00	3.632575e-05	
351	-4.25000e+00	3.633871e-05	
352	-4.30000e+00	3.635161e-05	
353	-4.35000e+00	3.636446e-05	
354	-4.40000e+00	3.637726e-05	
355	-4.45000e+00	3.639001e-05	
356	-4.50000e+00	3.640272e-05	
357	-4.55000e+00	3.641540e-05	
358	-4.60000e+00	3.642805e-05	
359	-4.65000e+00	3.644069e-05	
360	-4.70000e+00	3.645331e-05	
361	-4.75000e+00	3.646592e-05	
362	-4.80000e+00	3.647855e-05	
363	-4.85000e+00	3.649119e-05	
364	-4.90000e+00	3.650388e-05	
365	-4.95000e+00	3.651661e-05	
366	-5.00000e+00	3.652942e-05	
367	-5.05000e+00	3.654232e-05	
368	-5.10000e+00	3.655534e-05	
369	-5.15000e+00	3.656850e-05	
370	-5.20000e+00	3.658185e-05	
371	-5.25000e+00	3.659540e-05	
372	-5.30000e+00	3.660922e-05	
373	-5.35000e+00	3.662332e-05	
374	-5.40000e+00	3.663778e-05	
375	-5.45000e+00	3.665263e-05	
376	-5.50000e+00	3.666795e-05	
377	-5.55000e+00	3.668379e-05	
378	-5.60000e+00	3.670024e-05	
379	-5.65000e+00	3.671736e-05	
380	-5.70000e+00	3.673525e-05	
381	-5.75000e+00	3.675399e-05	
382	-5.80000e+00	3.677370e-05	
383	-5.85000e+00	3.679448e-05	
384	-5.90000e+00	3.681645e-05	
385	-5.95000e+00	3.683974e-05	
386	-6.00000e+00	3.686448e-05	
387	-6.05000e+00	3.689083e-05	
388	-6.10000e+00	3.691895e-05	
389	-6.15000e+00	3.694899e-05	
390	-6.20000e+00	3.698114e-05	
391	-6.25000e+00	3.701558e-05	
392	-6.30000e+00	3.705253e-05	
393	-6.35000e+00	3.709220e-05	
394	-6.40000e+00	3.713480e-05	
395	-6.45000e+00	3.718058e-05	
396	-6.50000e+00	3.722979e-05	
397	-6.55000e+00	3.728270e-05	
398	-6.60000e+00	3.733957e-05	
399	0.000000e+00	-1.54641e-31	
400	-5.00000e-02	3.063033e-06	
401	-1.00000e-01	6.056771e-06	
402	-1.50000e-01	8.981261e-06	

Index   v-sweep         i(vds)          
--------------------------------------------------------------------------------
403	-2.00000e-01	1.183655e-05	
404	-2.50000e-01	1.462268e-05	
405	-3.00000e-01	1.733970e-05	
406	-3.50000e-01	1.998766e-05	
407	-4.00000e-01	2.256660e-05	
408	-4.50000e-01	2.507657e-05	
409	-5.00000e-01	2.751761e-05	
410	-5.50000e-01	2.988977e-05	
411	-6.00000e-01	3.219311e-05	
412	-6.50000e-01	3.442765e-05	
413	-7.00000e-01	3.659346e-05	
414	-7.50000e-01	3.869058e-05	
415	-8.00000e-01	4.071906e-05	
416	-8.50000e-01	4.267895e-05	
417	-9.00000e-01	4.457029e-05	
418	-9.50000e-01	4.639313e-05	
419	-1.00000e+00	4.814753e-05	
420	-1.05000e+00	4.983354e-05	
421	-1.10000e+00	5.145121e-05	
422	-1.15000e+00	5.300060e-05	
423	-1.20000e+00	5.448176e-05	
424	-1.25000e+00	5.589475e-05	
425	-1.30000e+00	5.723965e-05	
426	-1.35000e+00	5.851650e-05	
427	-1.40000e+00	5.972541e-05	
428	-1.45000e+00	6.086644e-05	
429	-1.50000e+00	6.193969e-05	
430	-1.55000e+00	6.294527e-05	
431	-1.60000e+00	6.388332e-05	
432	-1.65000e+00	6.475401e-05	
433	-1.70000e+00	6.555753e-05	
434	-1.75000e+00	6.629417e-05	
435	-1.80000e+00	6.696428e-05	
436	-1.85000e+00	6.756839e-05	
437	-1.90000e+00	6.810722e-05	
438	-1.95000e+00	6.858182e-05	
439	-2.00000e+00	6.899375e-05	
440	-2.05000e+00	6.934532e-05	
441	-2.10000e+00	6.963988e-05	
442	-2.15000e+00	6.988218e-05	
443	-2.20000e+00	7.007846e-05	
444	-2.25000e+00	7.023623e-05	
445	-2.30000e+00	7.036347e-05	
446	-2.35000e+00	7.046769e-05	
447	-2.40000e+00	7.055514e-05	
448	-2.45000e+00	7.063055e-05	
449	-2.50000e+00	7.069729e-05	
450	-2.55000e+00	7.075767e-05	
451	-2.60000e+00	7.081329e-05	
452	-2.65000e+00	7.086522e-05	
453	-2.70000e+00	7.091423e-05	
454	-2.75000e+00	7.096086e-05	
455	-2.80000e+00	7.100551e-05	
456	-2.85000e+00	7.104848e-05	
457	-2.90000e+00	7.109001e-05	
458	-2.95000e+00	7.113026e-05	
459	-3.00000e+00	7.116940e-05	
460	-3.05000e+00	7.120755e-05	

Index   v-sweep         i(vds)          
--------------------------------------------------------------------------------
461	-3.10000e+00	7.124479e-05	
462	-3.15000e+00	7.128122e-05	
463	-3.20000e+00	7.131691e-05	
464	-3.25000e+00	7.135193e-05	
465	-3.30000e+00	7.138631e-05	
466	-3.35000e+00	7.142012e-05	
467	-3.40000e+00	7.145340e-05	
468	-3.45000e+00	7.148617e-05	
469	-3.50000e+00	7.151848e-05	
470	-3.55000e+00	7.155035e-05	
471	-3.60000e+00	7.158181e-05	
472	-3.65000e+00	7.161289e-05	
473	-3.70000e+00	7.164360e-05	
474	-3.75000e+00	7.167398e-05	
475	-3.80000e+00	7.170403e-05	
476	-3.85000e+00	7.173377e-05	
477	-3.90000e+00	7.176322e-05	
478	-3.95000e+00	7.179239e-05	
479	-4.00000e+00	7.182130e-05	
480	-4.05000e+00	7.184996e-05	
481	-4.10000e+00	7.187838e-05	
482	-4.15000e+00	7.190658e-05	
483	-4.20000e+00	7.193455e-05	
484	-4.25000e+00	7.196231e-05	
485	-4.30000e+00	7.198988e-05	
486	-4.35000e+00	7.201725e-05	
487	-4.40000e+00	7.204444e-05	
488	-4.45000e+00	7.207145e-05	
489	-4.50000e+00	7.209829e-05	
490	-4.55000e+00	7.212497e-05	
491	-4.60000e+00	7.215149e-05	
492	-4.65000e+00	7.217786e-05	
493	-4.70000e+00	7.220409e-05	
494	-4.75000e+00	7.223017e-05	
495	-4.80000e+00	7.225612e-05	
496	-4.85000e+00	7.228195e-05	
497	-4.90000e+00	7.230765e-05	
498	-4.95000e+00	7.233323e-05	
499	-5.00000e+00	7.235871e-05	
500	-5.05000e+00	7.238408e-05	
501	-5.10000e+00	7.240935e-05	
502	-5.15000e+00	7.243454e-05	
503	-5.20000e+00	7.245965e-05	
504	-5.25000e+00	7.248469e-05	
505	-5.30000e+00	7.250968e-05	
506	-5.35000e+00	7.253462e-05	
507	-5.40000e+00	7.255954e-05	
508	-5.45000e+00	7.258445e-05	
509	-5.50000e+00	7.260937e-05	
510	-5.55000e+00	7.263432e-05	
511	-5.60000e+00	7.265934e-05	
512	-5.65000e+00	7.268446e-05	
513	-5.70000e+00	7.270971e-05	
514	-5.75000e+00	7.273513e-05	
515	-5.80000e+00	7.276078e-05	
516	-5.85000e+00	7.278670e-05	
517	-5.90000e+00	7.281295e-05	
518	-5.95000e+00	7.283961e-05	

Index   v-sweep         i(vds)          
--------------------------------------------------------------------------------
519	-6.00000e+00	7.286674e-05	
520	-6.05000e+00	7.289444e-05	
521	-6.10000e+00	7.292279e-05	
522	-6.15000e+00	7.295190e-05	
523	-6.20000e+00	7.298189e-05	
524	-6.25000e+00	7.301289e-05	
525	-6.30000e+00	7.304502e-05	
526	-6.35000e+00	7.307846e-05	
527	-6.40000e+00	7.311335e-05	
528	-6.45000e+00	7.314990e-05	
529	-6.50000e+00	7.318828e-05	
530	-6.55000e+00	7.322872e-05	
531	-6.60000e+00	7.327144e-05	
532	0.000000e+00	4.069506e-21	
533	-5.00000e-02	3.738607e-06	
534	-1.00000e-01	7.413691e-06	
535	-1.50000e-01	1.102529e-05	
536	-2.00000e-01	1.457345e-05	
537	-2.50000e-01	1.805821e-05	
538	-3.00000e-01	2.147961e-05	
539	-3.50000e-01	2.483768e-05	
540	-4.00000e-01	2.813247e-05	
541	-4.50000e-01	3.136402e-05	
542	-5.00000e-01	3.453237e-05	
543	-5.50000e-01	3.763755e-05	
544	-6.00000e-01	4.067961e-05	
545	-6.50000e-01	4.365860e-05	
546	-7.00000e-01	4.657454e-05	
547	-7.50000e-01	4.942748e-05	
548	-8.00000e-01	5.221745e-05	
549	-8.50000e-01	5.494451e-05	
550	-9.00000e-01	5.760869e-05	
551	-9.50000e-01	6.021002e-05	
552	-1.00000e+00	6.274856e-05	
553	-1.05000e+00	6.522434e-05	
554	-1.10000e+00	6.763740e-05	
555	-1.15000e+00	6.998778e-05	
556	-1.20000e+00	7.227553e-05	
557	-1.25000e+00	7.450068e-05	
558	-1.30000e+00	7.666329e-05	
559	-1.35000e+00	7.876338e-05	
560	-1.40000e+00	8.080100e-05	
561	-1.45000e+00	8.277620e-05	
562	-1.50000e+00	8.468902e-05	
563	-1.55000e+00	8.653950e-05	
564	-1.60000e+00	8.832769e-05	
565	-1.65000e+00	9.005364e-05	
566	-1.70000e+00	9.171739e-05	
567	-1.75000e+00	9.331900e-05	
568	-1.80000e+00	9.485851e-05	
569	-1.85000e+00	9.633598e-05	
570	-1.90000e+00	9.775146e-05	
571	-1.95000e+00	9.910502e-05	
572	-2.00000e+00	1.003967e-04	
573	-2.05000e+00	1.016266e-04	
574	-2.10000e+00	1.027948e-04	
575	-2.15000e+00	1.039014e-04	
576	-2.20000e+00	1.049465e-04	

Index   v-sweep         i(vds)          
--------------------------------------------------------------------------------
577	-2.25000e+00	1.059302e-04	
578	-2.30000e+00	1.068527e-04	
579	-2.35000e+00	1.077141e-04	
580	-2.40000e+00	1.085147e-04	
581	-2.45000e+00	1.092548e-04	
582	-2.50000e+00	1.099347e-04	
583	-2.55000e+00	1.105550e-04	
584	-2.60000e+00	1.111164e-04	
585	-2.65000e+00	1.116198e-04	
586	-2.70000e+00	1.120667e-04	
587	-2.75000e+00	1.124590e-04	
588	-2.80000e+00	1.127993e-04	
589	-2.85000e+00	1.130912e-04	
590	-2.90000e+00	1.133392e-04	
591	-2.95000e+00	1.135489e-04	
592	-3.00000e+00	1.137264e-04	
593	-3.05000e+00	1.138779e-04	
594	-3.10000e+00	1.140091e-04	
595	-3.15000e+00	1.141246e-04	
596	-3.20000e+00	1.142283e-04	
597	-3.25000e+00	1.143229e-04	
598	-3.30000e+00	1.144106e-04	
599	-3.35000e+00	1.144927e-04	
600	-3.40000e+00	1.145703e-04	
601	-3.45000e+00	1.146443e-04	
602	-3.50000e+00	1.147153e-04	
603	-3.55000e+00	1.147837e-04	
604	-3.60000e+00	1.148498e-04	
605	-3.65000e+00	1.149139e-04	
606	-3.70000e+00	1.149763e-04	
607	-3.75000e+00	1.150371e-04	
608	-3.80000e+00	1.150966e-04	
609	-3.85000e+00	1.151548e-04	
610	-3.90000e+00	1.152118e-04	
611	-3.95000e+00	1.152677e-04	
612	-4.00000e+00	1.153227e-04	
613	-4.05000e+00	1.153767e-04	
614	-4.10000e+00	1.154299e-04	
615	-4.15000e+00	1.154824e-04	
616	-4.20000e+00	1.155341e-04	
617	-4.25000e+00	1.155851e-04	
618	-4.30000e+00	1.156355e-04	
619	-4.35000e+00	1.156852e-04	
620	-4.40000e+00	1.157344e-04	
621	-4.45000e+00	1.157831e-04	
622	-4.50000e+00	1.158312e-04	
623	-4.55000e+00	1.158789e-04	
624	-4.60000e+00	1.159261e-04	
625	-4.65000e+00	1.159728e-04	
626	-4.70000e+00	1.160192e-04	
627	-4.75000e+00	1.160651e-04	
628	-4.80000e+00	1.161107e-04	
629	-4.85000e+00	1.161559e-04	
630	-4.90000e+00	1.162008e-04	
631	-4.95000e+00	1.162453e-04	
632	-5.00000e+00	1.162896e-04	
633	-5.05000e+00	1.163335e-04	
634	-5.10000e+00	1.163771e-04	

Index   v-sweep         i(vds)          
--------------------------------------------------------------------------------
635	-5.15000e+00	1.164205e-04	
636	-5.20000e+00	1.164636e-04	
637	-5.25000e+00	1.165064e-04	
638	-5.30000e+00	1.165489e-04	
639	-5.35000e+00	1.165913e-04	
640	-5.40000e+00	1.166334e-04	
641	-5.45000e+00	1.166753e-04	
642	-5.50000e+00	1.167169e-04	
643	-5.55000e+00	1.167584e-04	
644	-5.60000e+00	1.167997e-04	
645	-5.65000e+00	1.168408e-04	
646	-5.70000e+00	1.168817e-04	
647	-5.75000e+00	1.169224e-04	
648	-5.80000e+00	1.169630e-04	
649	-5.85000e+00	1.170035e-04	
650	-5.90000e+00	1.170438e-04	
651	-5.95000e+00	1.170840e-04	
652	-6.00000e+00	1.171241e-04	
653	-6.05000e+00	1.171641e-04	
654	-6.10000e+00	1.172041e-04	
655	-6.15000e+00	1.172441e-04	
656	-6.20000e+00	1.172840e-04	
657	-6.25000e+00	1.173240e-04	
658	-6.30000e+00	1.173641e-04	
659	-6.35000e+00	1.174043e-04	
660	-6.40000e+00	1.174447e-04	
661	-6.45000e+00	1.174853e-04	
662	-6.50000e+00	1.175263e-04	
663	-6.55000e+00	1.175676e-04	
664	-6.60000e+00	1.176094e-04	
665	0.000000e+00	-1.53068e-30	
666	-5.00000e-02	4.308207e-06	
667	-1.00000e-01	8.557999e-06	
668	-1.50000e-01	1.274941e-05	
669	-2.00000e-01	1.688248e-05	
670	-2.50000e-01	2.095724e-05	
671	-3.00000e-01	2.497373e-05	
672	-3.50000e-01	2.893198e-05	
673	-4.00000e-01	3.283203e-05	
674	-4.50000e-01	3.667391e-05	
675	-5.00000e-01	4.045766e-05	
676	-5.50000e-01	4.418332e-05	
677	-6.00000e-01	4.785091e-05	
678	-6.50000e-01	5.146048e-05	
679	-7.00000e-01	5.501205e-05	
680	-7.50000e-01	5.850567e-05	
681	-8.00000e-01	6.194137e-05	
682	-8.50000e-01	6.531918e-05	
683	-9.00000e-01	6.863915e-05	
684	-9.50000e-01	7.190129e-05	
685	-1.00000e+00	7.510566e-05	
686	-1.05000e+00	7.825229e-05	
687	-1.10000e+00	8.134120e-05	
688	-1.15000e+00	8.437244e-05	
689	-1.20000e+00	8.734604e-05	
690	-1.25000e+00	9.026204e-05	
691	-1.30000e+00	9.312047e-05	
692	-1.35000e+00	9.592137e-05	

Index   v-sweep         i(vds)          
--------------------------------------------------------------------------------
693	-1.40000e+00	9.866477e-05	
694	-1.45000e+00	1.013507e-04	
695	-1.50000e+00	1.039792e-04	
696	-1.55000e+00	1.065503e-04	
697	-1.60000e+00	1.090641e-04	
698	-1.65000e+00	1.115206e-04	
699	-1.70000e+00	1.139197e-04	
700	-1.75000e+00	1.162616e-04	
701	-1.80000e+00	1.185464e-04	
702	-1.85000e+00	1.207739e-04	
703	-1.90000e+00	1.229443e-04	
704	-1.95000e+00	1.250576e-04	
705	-2.00000e+00	1.271139e-04	
706	-2.05000e+00	1.291131e-04	
707	-2.10000e+00	1.310553e-04	
708	-2.15000e+00	1.329406e-04	
709	-2.20000e+00	1.347690e-04	
710	-2.25000e+00	1.365406e-04	
711	-2.30000e+00	1.382553e-04	
712	-2.35000e+00	1.399132e-04	
713	-2.40000e+00	1.415145e-04	
714	-2.45000e+00	1.430590e-04	
715	-2.50000e+00	1.445469e-04	
716	-2.55000e+00	1.459782e-04	
717	-2.60000e+00	1.473530e-04	
718	-2.65000e+00	1.486714e-04	
719	-2.70000e+00	1.499333e-04	
720	-2.75000e+00	1.511390e-04	
721	-2.80000e+00	1.522884e-04	
722	-2.85000e+00	1.533816e-04	
723	-2.90000e+00	1.544188e-04	
724	-2.95000e+00	1.554001e-04	
725	-3.00000e+00	1.563256e-04	
726	-3.05000e+00	1.571956e-04	
727	-3.10000e+00	1.580102e-04	
728	-3.15000e+00	1.587697e-04	
729	-3.20000e+00	1.594745e-04	
730	-3.25000e+00	1.601251e-04	
731	-3.30000e+00	1.607220e-04	
732	-3.35000e+00	1.612662e-04	
733	-3.40000e+00	1.617586e-04	
734	-3.45000e+00	1.622009e-04	
735	-3.50000e+00	1.625949e-04	
736	-3.55000e+00	1.629432e-04	
737	-3.60000e+00	1.632492e-04	
738	-3.65000e+00	1.635169e-04	
739	-3.70000e+00	1.637508e-04	
740	-3.75000e+00	1.639559e-04	
741	-3.80000e+00	1.641372e-04	
742	-3.85000e+00	1.642993e-04	
743	-3.90000e+00	1.644460e-04	
744	-3.95000e+00	1.645806e-04	
745	-4.00000e+00	1.647056e-04	
746	-4.05000e+00	1.648229e-04	
747	-4.10000e+00	1.649338e-04	
748	-4.15000e+00	1.650396e-04	
749	-4.20000e+00	1.651411e-04	
750	-4.25000e+00	1.652388e-04	

Index   v-sweep         i(vds)          
--------------------------------------------------------------------------------
751	-4.30000e+00	1.653333e-04	
752	-4.35000e+00	1.654251e-04	
753	-4.40000e+00	1.655143e-04	
754	-4.45000e+00	1.656013e-04	
755	-4.50000e+00	1.656864e-04	
756	-4.55000e+00	1.657696e-04	
757	-4.60000e+00	1.658512e-04	
758	-4.65000e+00	1.659313e-04	
759	-4.70000e+00	1.660099e-04	
760	-4.75000e+00	1.660873e-04	
761	-4.80000e+00	1.661635e-04	
762	-4.85000e+00	1.662386e-04	
763	-4.90000e+00	1.663126e-04	
764	-4.95000e+00	1.663857e-04	
765	-5.00000e+00	1.664578e-04	
766	-5.05000e+00	1.665291e-04	
767	-5.10000e+00	1.665996e-04	
768	-5.15000e+00	1.666693e-04	
769	-5.20000e+00	1.667382e-04	
770	-5.25000e+00	1.668065e-04	
771	-5.30000e+00	1.668742e-04	
772	-5.35000e+00	1.669412e-04	
773	-5.40000e+00	1.670076e-04	
774	-5.45000e+00	1.670734e-04	
775	-5.50000e+00	1.671388e-04	
776	-5.55000e+00	1.672036e-04	
777	-5.60000e+00	1.672679e-04	
778	-5.65000e+00	1.673317e-04	
779	-5.70000e+00	1.673951e-04	
780	-5.75000e+00	1.674581e-04	
781	-5.80000e+00	1.675206e-04	
782	-5.85000e+00	1.675828e-04	
783	-5.90000e+00	1.676446e-04	
784	-5.95000e+00	1.677060e-04	
785	-6.00000e+00	1.677670e-04	
786	-6.05000e+00	1.678277e-04	
787	-6.10000e+00	1.678881e-04	
788	-6.15000e+00	1.679481e-04	
789	-6.20000e+00	1.680079e-04	
790	-6.25000e+00	1.680674e-04	
791	-6.30000e+00	1.681265e-04	
792	-6.35000e+00	1.681855e-04	
793	-6.40000e+00	1.682441e-04	
794	-6.45000e+00	1.683025e-04	
795	-6.50000e+00	1.683607e-04	
796	-6.55000e+00	1.684187e-04	
797	-6.60000e+00	1.684765e-04	
Note: No ".plot", ".print", or ".fourier" lines; no simulations run
