
Note: Compatibility modes selected: hs

Warning: m=xx on .subckt line will override multiplier m hierarchy!


Circuit: ***************************

Doing analysis at TEMP = -40.000000 and TNOM = -40.000000


No. of Data Rows : 798
                          ***************************
                          DC transfer characteristic  Mon Jan  9 13:58:50  2023
--------------------------------------------------------------------------------
Index   v-sweep         i(vds)          
--------------------------------------------------------------------------------
0	0.000000e+00	-5.96459e-38	
1	-5.00000e-02	1.914366e-06	
2	-1.00000e-01	2.521042e-06	
3	-1.50000e-01	2.677988e-06	
4	-2.00000e-01	2.761232e-06	
5	-2.50000e-01	2.828305e-06	
6	-3.00000e-01	2.889129e-06	
7	-3.50000e-01	2.946523e-06	
8	-4.00000e-01	3.001658e-06	
9	-4.50000e-01	3.055156e-06	
10	-5.00000e-01	3.107405e-06	
11	-5.50000e-01	3.158672e-06	
12	-6.00000e-01	3.209151e-06	
13	-6.50000e-01	3.258993e-06	
14	-7.00000e-01	3.308315e-06	
15	-7.50000e-01	3.357212e-06	
16	-8.00000e-01	3.405762e-06	
17	-8.50000e-01	3.454030e-06	
18	-9.00000e-01	3.502072e-06	
19	-9.50000e-01	3.549932e-06	
20	-1.00000e+00	3.597653e-06	
21	-1.05000e+00	3.645269e-06	
22	-1.10000e+00	3.692810e-06	
23	-1.15000e+00	3.740303e-06	
24	-1.20000e+00	3.787771e-06	
25	-1.25000e+00	3.835235e-06	
26	-1.30000e+00	3.882715e-06	
27	-1.35000e+00	3.930227e-06	
28	-1.40000e+00	3.977785e-06	
29	-1.45000e+00	4.025404e-06	
30	-1.50000e+00	4.073095e-06	
31	-1.55000e+00	4.120871e-06	
32	-1.60000e+00	4.168740e-06	
33	-1.65000e+00	4.216713e-06	
34	-1.70000e+00	4.264799e-06	
35	-1.75000e+00	4.313004e-06	
36	-1.80000e+00	4.361336e-06	
37	-1.85000e+00	4.409802e-06	
38	-1.90000e+00	4.458409e-06	
39	-1.95000e+00	4.507162e-06	
40	-2.00000e+00	4.556065e-06	
41	-2.05000e+00	4.605126e-06	
42	-2.10000e+00	4.654347e-06	
43	-2.15000e+00	4.703734e-06	
44	-2.20000e+00	4.753290e-06	
45	-2.25000e+00	4.803020e-06	
46	-2.30000e+00	4.852927e-06	
47	-2.35000e+00	4.903014e-06	
48	-2.40000e+00	4.953285e-06	
49	-2.45000e+00	5.003743e-06	
50	-2.50000e+00	5.054391e-06	
51	-2.55000e+00	5.105231e-06	
52	-2.60000e+00	5.156267e-06	
53	-2.65000e+00	5.207500e-06	
54	-2.70000e+00	5.258933e-06	

Index   v-sweep         i(vds)          
--------------------------------------------------------------------------------
55	-2.75000e+00	5.310569e-06	
56	-2.80000e+00	5.362410e-06	
57	-2.85000e+00	5.414458e-06	
58	-2.90000e+00	5.466715e-06	
59	-2.95000e+00	5.519183e-06	
60	-3.00000e+00	5.571865e-06	
61	-3.05000e+00	5.624763e-06	
62	-3.10000e+00	5.677878e-06	
63	-3.15000e+00	5.731215e-06	
64	-3.20000e+00	5.784774e-06	
65	-3.25000e+00	5.838558e-06	
66	-3.30000e+00	5.892571e-06	
67	-3.35000e+00	5.946816e-06	
68	-3.40000e+00	6.001295e-06	
69	-3.45000e+00	6.056012e-06	
70	-3.50000e+00	6.110972e-06	
71	-3.55000e+00	6.166178e-06	
72	-3.60000e+00	6.221636e-06	
73	-3.65000e+00	6.277352e-06	
74	-3.70000e+00	6.333332e-06	
75	-3.75000e+00	6.389581e-06	
76	-3.80000e+00	6.446110e-06	
77	-3.85000e+00	6.502925e-06	
78	-3.90000e+00	6.560037e-06	
79	-3.95000e+00	6.617457e-06	
80	-4.00000e+00	6.675196e-06	
81	-4.05000e+00	6.733268e-06	
82	-4.10000e+00	6.791688e-06	
83	-4.15000e+00	6.850472e-06	
84	-4.20000e+00	6.909639e-06	
85	-4.25000e+00	6.969208e-06	
86	-4.30000e+00	7.029200e-06	
87	-4.35000e+00	7.089641e-06	
88	-4.40000e+00	7.150556e-06	
89	-4.45000e+00	7.211975e-06	
90	-4.50000e+00	7.273927e-06	
91	-4.55000e+00	7.336448e-06	
92	-4.60000e+00	7.399573e-06	
93	-4.65000e+00	7.463343e-06	
94	-4.70000e+00	7.527801e-06	
95	-4.75000e+00	7.592993e-06	
96	-4.80000e+00	7.658969e-06	
97	-4.85000e+00	7.725783e-06	
98	-4.90000e+00	7.793492e-06	
99	-4.95000e+00	7.862157e-06	
100	-5.00000e+00	7.931845e-06	
101	-5.05000e+00	8.002625e-06	
102	-5.10000e+00	8.074572e-06	
103	-5.15000e+00	8.147766e-06	
104	-5.20000e+00	8.222290e-06	
105	-5.25000e+00	8.298235e-06	
106	-5.30000e+00	8.375695e-06	
107	-5.35000e+00	8.454770e-06	
108	-5.40000e+00	8.535567e-06	
109	-5.45000e+00	8.618195e-06	
110	-5.50000e+00	8.702774e-06	
111	-5.55000e+00	8.789426e-06	
112	-5.60000e+00	8.878281e-06	

Index   v-sweep         i(vds)          
--------------------------------------------------------------------------------
113	-5.65000e+00	8.969477e-06	
114	-5.70000e+00	9.063154e-06	
115	-5.75000e+00	9.159465e-06	
116	-5.80000e+00	9.258564e-06	
117	-5.85000e+00	9.360616e-06	
118	-5.90000e+00	9.465792e-06	
119	-5.95000e+00	9.574270e-06	
120	-6.00000e+00	9.686236e-06	
121	-6.05000e+00	9.801883e-06	
122	-6.10000e+00	9.921412e-06	
123	-6.15000e+00	1.004503e-05	
124	-6.20000e+00	1.017296e-05	
125	-6.25000e+00	1.030543e-05	
126	-6.30000e+00	1.044266e-05	
127	-6.35000e+00	1.058491e-05	
128	-6.40000e+00	1.073241e-05	
129	-6.45000e+00	1.088544e-05	
130	-6.50000e+00	1.104426e-05	
131	-6.55000e+00	1.120914e-05	
132	-6.60000e+00	1.138038e-05	
133	0.000000e+00	2.090112e-35	
134	-5.00000e-02	3.799509e-05	
135	-1.00000e-01	7.339301e-05	
136	-1.50000e-01	1.062365e-04	
137	-2.00000e-01	1.365680e-04	
138	-2.50000e-01	1.644294e-04	
139	-3.00000e-01	1.898624e-04	
140	-3.50000e-01	2.129089e-04	
141	-4.00000e-01	2.336111e-04	
142	-4.50000e-01	2.520128e-04	
143	-5.00000e-01	2.681607e-04	
144	-5.50000e-01	2.821081e-04	
145	-6.00000e-01	2.939224e-04	
146	-6.50000e-01	3.037012e-04	
147	-7.00000e-01	3.116003e-04	
148	-7.50000e-01	3.178691e-04	
149	-8.00000e-01	3.228470e-04	
150	-8.50000e-01	3.268884e-04	
151	-9.00000e-01	3.302768e-04	
152	-9.50000e-01	3.332046e-04	
153	-1.00000e+00	3.357951e-04	
154	-1.05000e+00	3.381289e-04	
155	-1.10000e+00	3.402607e-04	
156	-1.15000e+00	3.422294e-04	
157	-1.20000e+00	3.440632e-04	
158	-1.25000e+00	3.457840e-04	
159	-1.30000e+00	3.474082e-04	
160	-1.35000e+00	3.489494e-04	
161	-1.40000e+00	3.504181e-04	
162	-1.45000e+00	3.518231e-04	
163	-1.50000e+00	3.531718e-04	
164	-1.55000e+00	3.544701e-04	
165	-1.60000e+00	3.557232e-04	
166	-1.65000e+00	3.569357e-04	
167	-1.70000e+00	3.581112e-04	
168	-1.75000e+00	3.592530e-04	
169	-1.80000e+00	3.603641e-04	
170	-1.85000e+00	3.614470e-04	

Index   v-sweep         i(vds)          
--------------------------------------------------------------------------------
171	-1.90000e+00	3.625038e-04	
172	-1.95000e+00	3.635367e-04	
173	-2.00000e+00	3.645473e-04	
174	-2.05000e+00	3.655372e-04	
175	-2.10000e+00	3.665079e-04	
176	-2.15000e+00	3.674606e-04	
177	-2.20000e+00	3.683965e-04	
178	-2.25000e+00	3.693166e-04	
179	-2.30000e+00	3.702219e-04	
180	-2.35000e+00	3.711134e-04	
181	-2.40000e+00	3.719917e-04	
182	-2.45000e+00	3.728576e-04	
183	-2.50000e+00	3.737118e-04	
184	-2.55000e+00	3.745550e-04	
185	-2.60000e+00	3.753876e-04	
186	-2.65000e+00	3.762103e-04	
187	-2.70000e+00	3.770236e-04	
188	-2.75000e+00	3.778278e-04	
189	-2.80000e+00	3.786234e-04	
190	-2.85000e+00	3.794109e-04	
191	-2.90000e+00	3.801906e-04	
192	-2.95000e+00	3.809628e-04	
193	-3.00000e+00	3.817279e-04	
194	-3.05000e+00	3.824862e-04	
195	-3.10000e+00	3.832379e-04	
196	-3.15000e+00	3.839835e-04	
197	-3.20000e+00	3.847230e-04	
198	-3.25000e+00	3.854567e-04	
199	-3.30000e+00	3.861850e-04	
200	-3.35000e+00	3.869080e-04	
201	-3.40000e+00	3.876258e-04	
202	-3.45000e+00	3.883388e-04	
203	-3.50000e+00	3.890471e-04	
204	-3.55000e+00	3.897509e-04	
205	-3.60000e+00	3.904503e-04	
206	-3.65000e+00	3.911457e-04	
207	-3.70000e+00	3.918370e-04	
208	-3.75000e+00	3.925246e-04	
209	-3.80000e+00	3.932085e-04	
210	-3.85000e+00	3.938890e-04	
211	-3.90000e+00	3.945663e-04	
212	-3.95000e+00	3.952405e-04	
213	-4.00000e+00	3.959119e-04	
214	-4.05000e+00	3.965807e-04	
215	-4.10000e+00	3.972470e-04	
216	-4.15000e+00	3.979112e-04	
217	-4.20000e+00	3.985736e-04	
218	-4.25000e+00	3.992344e-04	
219	-4.30000e+00	3.998939e-04	
220	-4.35000e+00	4.005525e-04	
221	-4.40000e+00	4.012106e-04	
222	-4.45000e+00	4.018686e-04	
223	-4.50000e+00	4.025271e-04	
224	-4.55000e+00	4.031864e-04	
225	-4.60000e+00	4.038471e-04	
226	-4.65000e+00	4.045100e-04	
227	-4.70000e+00	4.051756e-04	
228	-4.75000e+00	4.058448e-04	

Index   v-sweep         i(vds)          
--------------------------------------------------------------------------------
229	-4.80000e+00	4.065183e-04	
230	-4.85000e+00	4.071970e-04	
231	-4.90000e+00	4.078819e-04	
232	-4.95000e+00	4.085741e-04	
233	-5.00000e+00	4.092747e-04	
234	-5.05000e+00	4.099849e-04	
235	-5.10000e+00	4.107061e-04	
236	-5.15000e+00	4.114397e-04	
237	-5.20000e+00	4.121872e-04	
238	-5.25000e+00	4.129504e-04	
239	-5.30000e+00	4.137309e-04	
240	-5.35000e+00	4.145308e-04	
241	-5.40000e+00	4.153520e-04	
242	-5.45000e+00	4.161967e-04	
243	-5.50000e+00	4.170672e-04	
244	-5.55000e+00	4.179660e-04	
245	-5.60000e+00	4.188956e-04	
246	-5.65000e+00	4.198587e-04	
247	-5.70000e+00	4.208583e-04	
248	-5.75000e+00	4.218974e-04	
249	-5.80000e+00	4.229792e-04	
250	-5.85000e+00	4.241071e-04	
251	-5.90000e+00	4.252846e-04	
252	-5.95000e+00	4.265154e-04	
253	-6.00000e+00	4.278033e-04	
254	-6.05000e+00	4.291525e-04	
255	-6.10000e+00	4.305671e-04	
256	-6.15000e+00	4.320516e-04	
257	-6.20000e+00	4.336106e-04	
258	-6.25000e+00	4.352487e-04	
259	-6.30000e+00	4.369710e-04	
260	-6.35000e+00	4.387825e-04	
261	-6.40000e+00	4.406886e-04	
262	-6.45000e+00	4.426948e-04	
263	-6.50000e+00	4.448068e-04	
264	-6.55000e+00	4.470304e-04	
265	-6.60000e+00	4.493717e-04	
266	0.000000e+00	-2.12497e-35	
267	-5.00000e-02	6.171426e-05	
268	-1.00000e-01	1.210581e-04	
269	-1.50000e-01	1.780614e-04	
270	-2.00000e-01	2.327535e-04	
271	-2.50000e-01	2.851636e-04	
272	-3.00000e-01	3.353207e-04	
273	-3.50000e-01	3.832533e-04	
274	-4.00000e-01	4.289898e-04	
275	-4.50000e-01	4.725583e-04	
276	-5.00000e-01	5.139865e-04	
277	-5.50000e-01	5.533020e-04	
278	-6.00000e-01	5.905319e-04	
279	-6.50000e-01	6.257035e-04	
280	-7.00000e-01	6.588433e-04	
281	-7.50000e-01	6.899781e-04	
282	-8.00000e-01	7.191343e-04	
283	-8.50000e-01	7.463382e-04	
284	-9.00000e-01	7.716163e-04	
285	-9.50000e-01	7.949950e-04	
286	-1.00000e+00	8.165012e-04	

Index   v-sweep         i(vds)          
--------------------------------------------------------------------------------
287	-1.05000e+00	8.361628e-04	
288	-1.10000e+00	8.540096e-04	
289	-1.15000e+00	8.700752e-04	
290	-1.20000e+00	8.844014e-04	
291	-1.25000e+00	8.970470e-04	
292	-1.30000e+00	9.081013e-04	
293	-1.35000e+00	9.176986e-04	
294	-1.40000e+00	9.260185e-04	
295	-1.45000e+00	9.332643e-04	
296	-1.50000e+00	9.396327e-04	
297	-1.55000e+00	9.452932e-04	
298	-1.60000e+00	9.503824e-04	
299	-1.65000e+00	9.550067e-04	
300	-1.70000e+00	9.592485e-04	
301	-1.75000e+00	9.631715e-04	
302	-1.80000e+00	9.668259e-04	
303	-1.85000e+00	9.702512e-04	
304	-1.90000e+00	9.734790e-04	
305	-1.95000e+00	9.765353e-04	
306	-2.00000e+00	9.794410e-04	
307	-2.05000e+00	9.822137e-04	
308	-2.10000e+00	9.848682e-04	
309	-2.15000e+00	9.874169e-04	
310	-2.20000e+00	9.898703e-04	
311	-2.25000e+00	9.922377e-04	
312	-2.30000e+00	9.945267e-04	
313	-2.35000e+00	9.967444e-04	
314	-2.40000e+00	9.988966e-04	
315	-2.45000e+00	1.000989e-03	
316	-2.50000e+00	1.003025e-03	
317	-2.55000e+00	1.005011e-03	
318	-2.60000e+00	1.006949e-03	
319	-2.65000e+00	1.008842e-03	
320	-2.70000e+00	1.010695e-03	
321	-2.75000e+00	1.012509e-03	
322	-2.80000e+00	1.014287e-03	
323	-2.85000e+00	1.016031e-03	
324	-2.90000e+00	1.017743e-03	
325	-2.95000e+00	1.019425e-03	
326	-3.00000e+00	1.021079e-03	
327	-3.05000e+00	1.022706e-03	
328	-3.10000e+00	1.024308e-03	
329	-3.15000e+00	1.025886e-03	
330	-3.20000e+00	1.027441e-03	
331	-3.25000e+00	1.028975e-03	
332	-3.30000e+00	1.030488e-03	
333	-3.35000e+00	1.031982e-03	
334	-3.40000e+00	1.033457e-03	
335	-3.45000e+00	1.034914e-03	
336	-3.50000e+00	1.036354e-03	
337	-3.55000e+00	1.037778e-03	
338	-3.60000e+00	1.039187e-03	
339	-3.65000e+00	1.040580e-03	
340	-3.70000e+00	1.041959e-03	
341	-3.75000e+00	1.043325e-03	
342	-3.80000e+00	1.044677e-03	
343	-3.85000e+00	1.046017e-03	
344	-3.90000e+00	1.047345e-03	

Index   v-sweep         i(vds)          
--------------------------------------------------------------------------------
345	-3.95000e+00	1.048661e-03	
346	-4.00000e+00	1.049966e-03	
347	-4.05000e+00	1.051260e-03	
348	-4.10000e+00	1.052544e-03	
349	-4.15000e+00	1.053818e-03	
350	-4.20000e+00	1.055083e-03	
351	-4.25000e+00	1.056338e-03	
352	-4.30000e+00	1.057585e-03	
353	-4.35000e+00	1.058823e-03	
354	-4.40000e+00	1.060054e-03	
355	-4.45000e+00	1.061277e-03	
356	-4.50000e+00	1.062493e-03	
357	-4.55000e+00	1.063703e-03	
358	-4.60000e+00	1.064907e-03	
359	-4.65000e+00	1.066106e-03	
360	-4.70000e+00	1.067299e-03	
361	-4.75000e+00	1.068489e-03	
362	-4.80000e+00	1.069675e-03	
363	-4.85000e+00	1.070859e-03	
364	-4.90000e+00	1.072041e-03	
365	-4.95000e+00	1.073222e-03	
366	-5.00000e+00	1.074404e-03	
367	-5.05000e+00	1.075587e-03	
368	-5.10000e+00	1.076773e-03	
369	-5.15000e+00	1.077963e-03	
370	-5.20000e+00	1.079159e-03	
371	-5.25000e+00	1.080363e-03	
372	-5.30000e+00	1.081576e-03	
373	-5.35000e+00	1.082801e-03	
374	-5.40000e+00	1.084039e-03	
375	-5.45000e+00	1.085294e-03	
376	-5.50000e+00	1.086568e-03	
377	-5.55000e+00	1.087864e-03	
378	-5.60000e+00	1.089185e-03	
379	-5.65000e+00	1.090534e-03	
380	-5.70000e+00	1.091915e-03	
381	-5.75000e+00	1.093333e-03	
382	-5.80000e+00	1.094791e-03	
383	-5.85000e+00	1.096293e-03	
384	-5.90000e+00	1.097846e-03	
385	-5.95000e+00	1.099454e-03	
386	-6.00000e+00	1.101122e-03	
387	-6.05000e+00	1.102856e-03	
388	-6.10000e+00	1.104663e-03	
389	-6.15000e+00	1.106549e-03	
390	-6.20000e+00	1.108521e-03	
391	-6.25000e+00	1.110587e-03	
392	-6.30000e+00	1.112754e-03	
393	-6.35000e+00	1.115030e-03	
394	-6.40000e+00	1.117424e-03	
395	-6.45000e+00	1.119945e-03	
396	-6.50000e+00	1.122602e-03	
397	-6.55000e+00	1.125406e-03	
398	-6.60000e+00	1.128365e-03	
399	0.000000e+00	5.436745e-36	
400	-5.00000e-02	7.821372e-05	
401	-1.00000e-01	1.542861e-04	
402	-1.50000e-01	2.282392e-04	

Index   v-sweep         i(vds)          
--------------------------------------------------------------------------------
403	-2.00000e-01	3.000948e-04	
404	-2.50000e-01	3.698745e-04	
405	-3.00000e-01	4.375999e-04	
406	-3.50000e-01	5.032923e-04	
407	-4.00000e-01	5.669729e-04	
408	-4.50000e-01	6.286626e-04	
409	-5.00000e-01	6.883823e-04	
410	-5.50000e-01	7.461526e-04	
411	-6.00000e-01	8.019941e-04	
412	-6.50000e-01	8.559271e-04	
413	-7.00000e-01	9.079716e-04	
414	-7.50000e-01	9.581477e-04	
415	-8.00000e-01	1.006475e-03	
416	-8.50000e-01	1.052973e-03	
417	-9.00000e-01	1.097662e-03	
418	-9.50000e-01	1.140561e-03	
419	-1.00000e+00	1.181688e-03	
420	-1.05000e+00	1.221062e-03	
421	-1.10000e+00	1.258703e-03	
422	-1.15000e+00	1.294628e-03	
423	-1.20000e+00	1.328855e-03	
424	-1.25000e+00	1.361403e-03	
425	-1.30000e+00	1.392289e-03	
426	-1.35000e+00	1.421529e-03	
427	-1.40000e+00	1.449140e-03	
428	-1.45000e+00	1.475136e-03	
429	-1.50000e+00	1.499530e-03	
430	-1.55000e+00	1.522333e-03	
431	-1.60000e+00	1.543553e-03	
432	-1.65000e+00	1.563192e-03	
433	-1.70000e+00	1.581249e-03	
434	-1.75000e+00	1.597722e-03	
435	-1.80000e+00	1.612622e-03	
436	-1.85000e+00	1.625986e-03	
437	-1.90000e+00	1.637899e-03	
438	-1.95000e+00	1.648496e-03	
439	-2.00000e+00	1.657939e-03	
440	-2.05000e+00	1.666398e-03	
441	-2.10000e+00	1.674030e-03	
442	-2.15000e+00	1.680971e-03	
443	-2.20000e+00	1.687332e-03	
444	-2.25000e+00	1.693205e-03	
445	-2.30000e+00	1.698662e-03	
446	-2.35000e+00	1.703764e-03	
447	-2.40000e+00	1.708560e-03	
448	-2.45000e+00	1.713088e-03	
449	-2.50000e+00	1.717383e-03	
450	-2.55000e+00	1.721471e-03	
451	-2.60000e+00	1.725375e-03	
452	-2.65000e+00	1.729115e-03	
453	-2.70000e+00	1.732708e-03	
454	-2.75000e+00	1.736168e-03	
455	-2.80000e+00	1.739507e-03	
456	-2.85000e+00	1.742736e-03	
457	-2.90000e+00	1.745864e-03	
458	-2.95000e+00	1.748899e-03	
459	-3.00000e+00	1.751850e-03	
460	-3.05000e+00	1.754722e-03	

Index   v-sweep         i(vds)          
--------------------------------------------------------------------------------
461	-3.10000e+00	1.757521e-03	
462	-3.15000e+00	1.760253e-03	
463	-3.20000e+00	1.762921e-03	
464	-3.25000e+00	1.765531e-03	
465	-3.30000e+00	1.768085e-03	
466	-3.35000e+00	1.770588e-03	
467	-3.40000e+00	1.773043e-03	
468	-3.45000e+00	1.775452e-03	
469	-3.50000e+00	1.777818e-03	
470	-3.55000e+00	1.780143e-03	
471	-3.60000e+00	1.782430e-03	
472	-3.65000e+00	1.784681e-03	
473	-3.70000e+00	1.786897e-03	
474	-3.75000e+00	1.789081e-03	
475	-3.80000e+00	1.791233e-03	
476	-3.85000e+00	1.793356e-03	
477	-3.90000e+00	1.795451e-03	
478	-3.95000e+00	1.797518e-03	
479	-4.00000e+00	1.799561e-03	
480	-4.05000e+00	1.801578e-03	
481	-4.10000e+00	1.803572e-03	
482	-4.15000e+00	1.805544e-03	
483	-4.20000e+00	1.807494e-03	
484	-4.25000e+00	1.809423e-03	
485	-4.30000e+00	1.811333e-03	
486	-4.35000e+00	1.813223e-03	
487	-4.40000e+00	1.815095e-03	
488	-4.45000e+00	1.816950e-03	
489	-4.50000e+00	1.818788e-03	
490	-4.55000e+00	1.820610e-03	
491	-4.60000e+00	1.822416e-03	
492	-4.65000e+00	1.824207e-03	
493	-4.70000e+00	1.825984e-03	
494	-4.75000e+00	1.827747e-03	
495	-4.80000e+00	1.829497e-03	
496	-4.85000e+00	1.831235e-03	
497	-4.90000e+00	1.832961e-03	
498	-4.95000e+00	1.834676e-03	
499	-5.00000e+00	1.836381e-03	
500	-5.05000e+00	1.838076e-03	
501	-5.10000e+00	1.839762e-03	
502	-5.15000e+00	1.841440e-03	
503	-5.20000e+00	1.843112e-03	
504	-5.25000e+00	1.844778e-03	
505	-5.30000e+00	1.846439e-03	
506	-5.35000e+00	1.848096e-03	
507	-5.40000e+00	1.849752e-03	
508	-5.45000e+00	1.851408e-03	
509	-5.50000e+00	1.853065e-03	
510	-5.55000e+00	1.854725e-03	
511	-5.60000e+00	1.856391e-03	
512	-5.65000e+00	1.858064e-03	
513	-5.70000e+00	1.859748e-03	
514	-5.75000e+00	1.861446e-03	
515	-5.80000e+00	1.863159e-03	
516	-5.85000e+00	1.864893e-03	
517	-5.90000e+00	1.866651e-03	
518	-5.95000e+00	1.868436e-03	

Index   v-sweep         i(vds)          
--------------------------------------------------------------------------------
519	-6.00000e+00	1.870253e-03	
520	-6.05000e+00	1.872108e-03	
521	-6.10000e+00	1.874005e-03	
522	-6.15000e+00	1.875950e-03	
523	-6.20000e+00	1.877949e-03	
524	-6.25000e+00	1.880009e-03	
525	-6.30000e+00	1.882137e-03	
526	-6.35000e+00	1.884341e-03	
527	-6.40000e+00	1.886628e-03	
528	-6.45000e+00	1.889008e-03	
529	-6.50000e+00	1.891488e-03	
530	-6.55000e+00	1.894081e-03	
531	-6.60000e+00	1.896795e-03	
532	0.000000e+00	1.425825e-35	
533	-5.00000e-02	9.033867e-05	
534	-1.00000e-01	1.787352e-04	
535	-1.50000e-01	2.652066e-04	
536	-2.00000e-01	3.497697e-04	
537	-2.50000e-01	4.324413e-04	
538	-3.00000e-01	5.132381e-04	
539	-3.50000e-01	5.921765e-04	
540	-4.00000e-01	6.692731e-04	
541	-4.50000e-01	7.445442e-04	
542	-5.00000e-01	8.180061e-04	
543	-5.50000e-01	8.896750e-04	
544	-6.00000e-01	9.595667e-04	
545	-6.50000e-01	1.027697e-03	
546	-7.00000e-01	1.094083e-03	
547	-7.50000e-01	1.158738e-03	
548	-8.00000e-01	1.221680e-03	
549	-8.50000e-01	1.282923e-03	
550	-9.00000e-01	1.342483e-03	
551	-9.50000e-01	1.400375e-03	
552	-1.00000e+00	1.456614e-03	
553	-1.05000e+00	1.511215e-03	
554	-1.10000e+00	1.564193e-03	
555	-1.15000e+00	1.615563e-03	
556	-1.20000e+00	1.665339e-03	
557	-1.25000e+00	1.713536e-03	
558	-1.30000e+00	1.760168e-03	
559	-1.35000e+00	1.805250e-03	
560	-1.40000e+00	1.848795e-03	
561	-1.45000e+00	1.890818e-03	
562	-1.50000e+00	1.931331e-03	
563	-1.55000e+00	1.970349e-03	
564	-1.60000e+00	2.007884e-03	
565	-1.65000e+00	2.043949e-03	
566	-1.70000e+00	2.078556e-03	
567	-1.75000e+00	2.111717e-03	
568	-1.80000e+00	2.143442e-03	
569	-1.85000e+00	2.173741e-03	
570	-1.90000e+00	2.202620e-03	
571	-1.95000e+00	2.230083e-03	
572	-2.00000e+00	2.256132e-03	
573	-2.05000e+00	2.280760e-03	
574	-2.10000e+00	2.303954e-03	
575	-2.15000e+00	2.325690e-03	
576	-2.20000e+00	2.345938e-03	

Index   v-sweep         i(vds)          
--------------------------------------------------------------------------------
577	-2.25000e+00	2.364662e-03	
578	-2.30000e+00	2.381838e-03	
579	-2.35000e+00	2.397470e-03	
580	-2.40000e+00	2.411613e-03	
581	-2.45000e+00	2.424369e-03	
582	-2.50000e+00	2.435878e-03	
583	-2.55000e+00	2.446295e-03	
584	-2.60000e+00	2.455770e-03	
585	-2.65000e+00	2.464440e-03	
586	-2.70000e+00	2.472423e-03	
587	-2.75000e+00	2.479820e-03	
588	-2.80000e+00	2.486711e-03	
589	-2.85000e+00	2.493167e-03	
590	-2.90000e+00	2.499243e-03	
591	-2.95000e+00	2.504988e-03	
592	-3.00000e+00	2.510440e-03	
593	-3.05000e+00	2.515633e-03	
594	-3.10000e+00	2.520595e-03	
595	-3.15000e+00	2.525350e-03	
596	-3.20000e+00	2.529918e-03	
597	-3.25000e+00	2.534318e-03	
598	-3.30000e+00	2.538565e-03	
599	-3.35000e+00	2.542671e-03	
600	-3.40000e+00	2.546650e-03	
601	-3.45000e+00	2.550511e-03	
602	-3.50000e+00	2.554263e-03	
603	-3.55000e+00	2.557915e-03	
604	-3.60000e+00	2.561474e-03	
605	-3.65000e+00	2.564947e-03	
606	-3.70000e+00	2.568340e-03	
607	-3.75000e+00	2.571657e-03	
608	-3.80000e+00	2.574904e-03	
609	-3.85000e+00	2.578084e-03	
610	-3.90000e+00	2.581203e-03	
611	-3.95000e+00	2.584264e-03	
612	-4.00000e+00	2.587269e-03	
613	-4.05000e+00	2.590222e-03	
614	-4.10000e+00	2.593127e-03	
615	-4.15000e+00	2.595985e-03	
616	-4.20000e+00	2.598798e-03	
617	-4.25000e+00	2.601570e-03	
618	-4.30000e+00	2.604302e-03	
619	-4.35000e+00	2.606996e-03	
620	-4.40000e+00	2.609654e-03	
621	-4.45000e+00	2.612277e-03	
622	-4.50000e+00	2.614867e-03	
623	-4.55000e+00	2.617426e-03	
624	-4.60000e+00	2.619955e-03	
625	-4.65000e+00	2.622455e-03	
626	-4.70000e+00	2.624927e-03	
627	-4.75000e+00	2.627372e-03	
628	-4.80000e+00	2.629793e-03	
629	-4.85000e+00	2.632189e-03	
630	-4.90000e+00	2.634561e-03	
631	-4.95000e+00	2.636911e-03	
632	-5.00000e+00	2.639239e-03	
633	-5.05000e+00	2.641546e-03	
634	-5.10000e+00	2.643834e-03	

Index   v-sweep         i(vds)          
--------------------------------------------------------------------------------
635	-5.15000e+00	2.646102e-03	
636	-5.20000e+00	2.648352e-03	
637	-5.25000e+00	2.650585e-03	
638	-5.30000e+00	2.652801e-03	
639	-5.35000e+00	2.655001e-03	
640	-5.40000e+00	2.657187e-03	
641	-5.45000e+00	2.659358e-03	
642	-5.50000e+00	2.661517e-03	
643	-5.55000e+00	2.663664e-03	
644	-5.60000e+00	2.665800e-03	
645	-5.65000e+00	2.667926e-03	
646	-5.70000e+00	2.670045e-03	
647	-5.75000e+00	2.672157e-03	
648	-5.80000e+00	2.674264e-03	
649	-5.85000e+00	2.676369e-03	
650	-5.90000e+00	2.678472e-03	
651	-5.95000e+00	2.680577e-03	
652	-6.00000e+00	2.682686e-03	
653	-6.05000e+00	2.684802e-03	
654	-6.10000e+00	2.686927e-03	
655	-6.15000e+00	2.689066e-03	
656	-6.20000e+00	2.691222e-03	
657	-6.25000e+00	2.693399e-03	
658	-6.30000e+00	2.695603e-03	
659	-6.35000e+00	2.697837e-03	
660	-6.40000e+00	2.700108e-03	
661	-6.45000e+00	2.702421e-03	
662	-6.50000e+00	2.704783e-03	
663	-6.55000e+00	2.707202e-03	
664	-6.60000e+00	2.709684e-03	
665	0.000000e+00	3.396447e-20	
666	-5.00000e-02	9.959406e-05	
667	-1.00000e-01	1.974154e-04	
668	-1.50000e-01	2.934776e-04	
669	-2.00000e-01	3.877940e-04	
670	-2.50000e-01	4.803781e-04	
671	-3.00000e-01	5.712432e-04	
672	-3.50000e-01	6.604027e-04	
673	-4.00000e-01	7.478696e-04	
674	-4.50000e-01	8.336571e-04	
675	-5.00000e-01	9.177783e-04	
676	-5.50000e-01	1.000246e-03	
677	-6.00000e-01	1.081074e-03	
678	-6.50000e-01	1.160274e-03	
679	-7.00000e-01	1.237859e-03	
680	-7.50000e-01	1.313841e-03	
681	-8.00000e-01	1.388235e-03	
682	-8.50000e-01	1.461051e-03	
683	-9.00000e-01	1.532303e-03	
684	-9.50000e-01	1.602003e-03	
685	-1.00000e+00	1.670163e-03	
686	-1.05000e+00	1.736795e-03	
687	-1.10000e+00	1.801911e-03	
688	-1.15000e+00	1.865524e-03	
689	-1.20000e+00	1.927646e-03	
690	-1.25000e+00	1.988288e-03	
691	-1.30000e+00	2.047462e-03	
692	-1.35000e+00	2.105180e-03	

Index   v-sweep         i(vds)          
--------------------------------------------------------------------------------
693	-1.40000e+00	2.161454e-03	
694	-1.45000e+00	2.216294e-03	
695	-1.50000e+00	2.269714e-03	
696	-1.55000e+00	2.321723e-03	
697	-1.60000e+00	2.372333e-03	
698	-1.65000e+00	2.421555e-03	
699	-1.70000e+00	2.469401e-03	
700	-1.75000e+00	2.515881e-03	
701	-1.80000e+00	2.561005e-03	
702	-1.85000e+00	2.604785e-03	
703	-1.90000e+00	2.647232e-03	
704	-1.95000e+00	2.688354e-03	
705	-2.00000e+00	2.728161e-03	
706	-2.05000e+00	2.766665e-03	
707	-2.10000e+00	2.803872e-03	
708	-2.15000e+00	2.839791e-03	
709	-2.20000e+00	2.874430e-03	
710	-2.25000e+00	2.907795e-03	
711	-2.30000e+00	2.939890e-03	
712	-2.35000e+00	2.970716e-03	
713	-2.40000e+00	3.000271e-03	
714	-2.45000e+00	3.028549e-03	
715	-2.50000e+00	3.055537e-03	
716	-2.55000e+00	3.081210e-03	
717	-2.60000e+00	3.105534e-03	
718	-2.65000e+00	3.128466e-03	
719	-2.70000e+00	3.149949e-03	
720	-2.75000e+00	3.169934e-03	
721	-2.80000e+00	3.188386e-03	
722	-2.85000e+00	3.205309e-03	
723	-2.90000e+00	3.220755e-03	
724	-2.95000e+00	3.234823e-03	
725	-3.00000e+00	3.247641e-03	
726	-3.05000e+00	3.259351e-03	
727	-3.10000e+00	3.270094e-03	
728	-3.15000e+00	3.279996e-03	
729	-3.20000e+00	3.289172e-03	
730	-3.25000e+00	3.297718e-03	
731	-3.30000e+00	3.305718e-03	
732	-3.35000e+00	3.313240e-03	
733	-3.40000e+00	3.320344e-03	
734	-3.45000e+00	3.327077e-03	
735	-3.50000e+00	3.333484e-03	
736	-3.55000e+00	3.339598e-03	
737	-3.60000e+00	3.345451e-03	
738	-3.65000e+00	3.351068e-03	
739	-3.70000e+00	3.356473e-03	
740	-3.75000e+00	3.361684e-03	
741	-3.80000e+00	3.366719e-03	
742	-3.85000e+00	3.371593e-03	
743	-3.90000e+00	3.376319e-03	
744	-3.95000e+00	3.380909e-03	
745	-4.00000e+00	3.385373e-03	
746	-4.05000e+00	3.389721e-03	
747	-4.10000e+00	3.393960e-03	
748	-4.15000e+00	3.398098e-03	
749	-4.20000e+00	3.402143e-03	
750	-4.25000e+00	3.406100e-03	

Index   v-sweep         i(vds)          
--------------------------------------------------------------------------------
751	-4.30000e+00	3.409974e-03	
752	-4.35000e+00	3.413771e-03	
753	-4.40000e+00	3.417495e-03	
754	-4.45000e+00	3.421151e-03	
755	-4.50000e+00	3.424742e-03	
756	-4.55000e+00	3.428272e-03	
757	-4.60000e+00	3.431744e-03	
758	-4.65000e+00	3.435161e-03	
759	-4.70000e+00	3.438526e-03	
760	-4.75000e+00	3.441842e-03	
761	-4.80000e+00	3.445111e-03	
762	-4.85000e+00	3.448335e-03	
763	-4.90000e+00	3.451516e-03	
764	-4.95000e+00	3.454656e-03	
765	-5.00000e+00	3.457757e-03	
766	-5.05000e+00	3.460821e-03	
767	-5.10000e+00	3.463850e-03	
768	-5.15000e+00	3.466844e-03	
769	-5.20000e+00	3.469805e-03	
770	-5.25000e+00	3.472735e-03	
771	-5.30000e+00	3.475635e-03	
772	-5.35000e+00	3.478506e-03	
773	-5.40000e+00	3.481348e-03	
774	-5.45000e+00	3.484165e-03	
775	-5.50000e+00	3.486955e-03	
776	-5.55000e+00	3.489721e-03	
777	-5.60000e+00	3.492464e-03	
778	-5.65000e+00	3.495184e-03	
779	-5.70000e+00	3.497882e-03	
780	-5.75000e+00	3.500560e-03	
781	-5.80000e+00	3.503218e-03	
782	-5.85000e+00	3.505858e-03	
783	-5.90000e+00	3.508480e-03	
784	-5.95000e+00	3.511087e-03	
785	-6.00000e+00	3.513679e-03	
786	-6.05000e+00	3.516258e-03	
787	-6.10000e+00	3.518824e-03	
788	-6.15000e+00	3.521381e-03	
789	-6.20000e+00	3.523930e-03	
790	-6.25000e+00	3.526472e-03	
791	-6.30000e+00	3.529011e-03	
792	-6.35000e+00	3.531549e-03	
793	-6.40000e+00	3.534088e-03	
794	-6.45000e+00	3.536631e-03	
795	-6.50000e+00	3.539183e-03	
796	-6.55000e+00	3.541747e-03	
797	-6.60000e+00	3.544328e-03	
Note: No ".plot", ".print", or ".fourier" lines; no simulations run
