
Note: Compatibility modes selected: hs

Warning: m=xx on .subckt line will override multiplier m hierarchy!


Circuit: ***************************

Doing analysis at TEMP = -40.000000 and TNOM = -40.000000


No. of Data Rows : 798
                          ***************************
                          DC transfer characteristic  Mon Jan  9 13:58:50  2023
--------------------------------------------------------------------------------
Index   v-sweep         i(vds)          
--------------------------------------------------------------------------------
0	0.000000e+00	-7.37752e-38	
1	-5.00000e-02	4.200842e-07	
2	-1.00000e-01	6.498853e-07	
3	-1.50000e-01	7.399965e-07	
4	-2.00000e-01	7.732600e-07	
5	-2.50000e-01	7.928074e-07	
6	-3.00000e-01	8.084960e-07	
7	-3.50000e-01	8.225145e-07	
8	-4.00000e-01	8.355467e-07	
9	-4.50000e-01	8.478878e-07	
10	-5.00000e-01	8.596989e-07	
11	-5.50000e-01	8.710827e-07	
12	-6.00000e-01	8.821114e-07	
13	-6.50000e-01	8.928389e-07	
14	-7.00000e-01	9.033075e-07	
15	-7.50000e-01	9.135511e-07	
16	-8.00000e-01	9.235976e-07	
17	-8.50000e-01	9.334702e-07	
18	-9.00000e-01	9.431885e-07	
19	-9.50000e-01	9.527695e-07	
20	-1.00000e+00	9.622275e-07	
21	-1.05000e+00	9.715752e-07	
22	-1.10000e+00	9.808237e-07	
23	-1.15000e+00	9.899825e-07	
24	-1.20000e+00	9.990604e-07	
25	-1.25000e+00	1.008065e-06	
26	-1.30000e+00	1.017003e-06	
27	-1.35000e+00	1.025880e-06	
28	-1.40000e+00	1.034703e-06	
29	-1.45000e+00	1.043476e-06	
30	-1.50000e+00	1.052203e-06	
31	-1.55000e+00	1.060890e-06	
32	-1.60000e+00	1.069538e-06	
33	-1.65000e+00	1.078153e-06	
34	-1.70000e+00	1.086737e-06	
35	-1.75000e+00	1.095293e-06	
36	-1.80000e+00	1.103823e-06	
37	-1.85000e+00	1.112330e-06	
38	-1.90000e+00	1.120817e-06	
39	-1.95000e+00	1.129285e-06	
40	-2.00000e+00	1.137737e-06	
41	-2.05000e+00	1.146174e-06	
42	-2.10000e+00	1.154598e-06	
43	-2.15000e+00	1.163010e-06	
44	-2.20000e+00	1.171413e-06	
45	-2.25000e+00	1.179806e-06	
46	-2.30000e+00	1.188193e-06	
47	-2.35000e+00	1.196573e-06	
48	-2.40000e+00	1.204948e-06	
49	-2.45000e+00	1.213320e-06	
50	-2.50000e+00	1.221688e-06	
51	-2.55000e+00	1.230055e-06	
52	-2.60000e+00	1.238420e-06	
53	-2.65000e+00	1.246786e-06	
54	-2.70000e+00	1.255152e-06	

Index   v-sweep         i(vds)          
--------------------------------------------------------------------------------
55	-2.75000e+00	1.263519e-06	
56	-2.80000e+00	1.271888e-06	
57	-2.85000e+00	1.280261e-06	
58	-2.90000e+00	1.288637e-06	
59	-2.95000e+00	1.297017e-06	
60	-3.00000e+00	1.305402e-06	
61	-3.05000e+00	1.313793e-06	
62	-3.10000e+00	1.322189e-06	
63	-3.15000e+00	1.330593e-06	
64	-3.20000e+00	1.339003e-06	
65	-3.25000e+00	1.347422e-06	
66	-3.30000e+00	1.355849e-06	
67	-3.35000e+00	1.364286e-06	
68	-3.40000e+00	1.372733e-06	
69	-3.45000e+00	1.381191e-06	
70	-3.50000e+00	1.389660e-06	
71	-3.55000e+00	1.398142e-06	
72	-3.60000e+00	1.406638e-06	
73	-3.65000e+00	1.415148e-06	
74	-3.70000e+00	1.423674e-06	
75	-3.75000e+00	1.432216e-06	
76	-3.80000e+00	1.440778e-06	
77	-3.85000e+00	1.449359e-06	
78	-3.90000e+00	1.457962e-06	
79	-3.95000e+00	1.466589e-06	
80	-4.00000e+00	1.475242e-06	
81	-4.05000e+00	1.483922e-06	
82	-4.10000e+00	1.492633e-06	
83	-4.15000e+00	1.501378e-06	
84	-4.20000e+00	1.510160e-06	
85	-4.25000e+00	1.518981e-06	
86	-4.30000e+00	1.527846e-06	
87	-4.35000e+00	1.536760e-06	
88	-4.40000e+00	1.545725e-06	
89	-4.45000e+00	1.554749e-06	
90	-4.50000e+00	1.563834e-06	
91	-4.55000e+00	1.572988e-06	
92	-4.60000e+00	1.582217e-06	
93	-4.65000e+00	1.591528e-06	
94	-4.70000e+00	1.600927e-06	
95	-4.75000e+00	1.610422e-06	
96	-4.80000e+00	1.620023e-06	
97	-4.85000e+00	1.629738e-06	
98	-4.90000e+00	1.639577e-06	
99	-4.95000e+00	1.649550e-06	
100	-5.00000e+00	1.659668e-06	
101	-5.05000e+00	1.669943e-06	
102	-5.10000e+00	1.680388e-06	
103	-5.15000e+00	1.691015e-06	
104	-5.20000e+00	1.701840e-06	
105	-5.25000e+00	1.712877e-06	
106	-5.30000e+00	1.724141e-06	
107	-5.35000e+00	1.735650e-06	
108	-5.40000e+00	1.747421e-06	
109	-5.45000e+00	1.759472e-06	
110	-5.50000e+00	1.771823e-06	
111	-5.55000e+00	1.784495e-06	
112	-5.60000e+00	1.797509e-06	

Index   v-sweep         i(vds)          
--------------------------------------------------------------------------------
113	-5.65000e+00	1.810886e-06	
114	-5.70000e+00	1.824652e-06	
115	-5.75000e+00	1.838830e-06	
116	-5.80000e+00	1.853445e-06	
117	-5.85000e+00	1.868526e-06	
118	-5.90000e+00	1.884099e-06	
119	-5.95000e+00	1.900194e-06	
120	-6.00000e+00	1.916840e-06	
121	-6.05000e+00	1.934069e-06	
122	-6.10000e+00	1.951914e-06	
123	-6.15000e+00	1.970408e-06	
124	-6.20000e+00	1.989587e-06	
125	-6.25000e+00	2.009485e-06	
126	-6.30000e+00	2.030142e-06	
127	-6.35000e+00	2.051595e-06	
128	-6.40000e+00	2.073884e-06	
129	-6.45000e+00	2.097052e-06	
130	-6.50000e+00	2.121139e-06	
131	-6.55000e+00	2.146190e-06	
132	-6.60000e+00	2.172250e-06	
133	0.000000e+00	-5.37460e-37	
134	-5.00000e-02	3.717476e-06	
135	-1.00000e-01	7.190988e-06	
136	-1.50000e-01	1.042472e-05	
137	-2.00000e-01	1.342282e-05	
138	-2.50000e-01	1.618936e-05	
139	-3.00000e-01	1.872841e-05	
140	-3.50000e-01	2.104400e-05	
141	-4.00000e-01	2.314018e-05	
142	-4.50000e-01	2.502108e-05	
143	-5.00000e-01	2.669100e-05	
144	-5.50000e-01	2.815461e-05	
145	-6.00000e-01	2.941744e-05	
146	-6.50000e-01	3.048671e-05	
147	-7.00000e-01	3.137318e-05	
148	-7.50000e-01	3.209401e-05	
149	-8.00000e-01	3.267517e-05	
150	-8.50000e-01	3.314886e-05	
151	-9.00000e-01	3.354553e-05	
152	-9.50000e-01	3.388787e-05	
153	-1.00000e+00	3.419074e-05	
154	-1.05000e+00	3.446370e-05	
155	-1.10000e+00	3.471312e-05	
156	-1.15000e+00	3.494342e-05	
157	-1.20000e+00	3.515784e-05	
158	-1.25000e+00	3.535886e-05	
159	-1.30000e+00	3.554837e-05	
160	-1.35000e+00	3.572790e-05	
161	-1.40000e+00	3.589869e-05	
162	-1.45000e+00	3.606175e-05	
163	-1.50000e+00	3.621793e-05	
164	-1.55000e+00	3.636795e-05	
165	-1.60000e+00	3.651241e-05	
166	-1.65000e+00	3.665184e-05	
167	-1.70000e+00	3.678670e-05	
168	-1.75000e+00	3.691737e-05	
169	-1.80000e+00	3.704420e-05	
170	-1.85000e+00	3.716750e-05	

Index   v-sweep         i(vds)          
--------------------------------------------------------------------------------
171	-1.90000e+00	3.728755e-05	
172	-1.95000e+00	3.740456e-05	
173	-2.00000e+00	3.751878e-05	
174	-2.05000e+00	3.763038e-05	
175	-2.10000e+00	3.773954e-05	
176	-2.15000e+00	3.784643e-05	
177	-2.20000e+00	3.795117e-05	
178	-2.25000e+00	3.805391e-05	
179	-2.30000e+00	3.815475e-05	
180	-2.35000e+00	3.825382e-05	
181	-2.40000e+00	3.835121e-05	
182	-2.45000e+00	3.844701e-05	
183	-2.50000e+00	3.854130e-05	
184	-2.55000e+00	3.863417e-05	
185	-2.60000e+00	3.872569e-05	
186	-2.65000e+00	3.881592e-05	
187	-2.70000e+00	3.890492e-05	
188	-2.75000e+00	3.899276e-05	
189	-2.80000e+00	3.907948e-05	
190	-2.85000e+00	3.916514e-05	
191	-2.90000e+00	3.924979e-05	
192	-2.95000e+00	3.933347e-05	
193	-3.00000e+00	3.941622e-05	
194	-3.05000e+00	3.949808e-05	
195	-3.10000e+00	3.957908e-05	
196	-3.15000e+00	3.965927e-05	
197	-3.20000e+00	3.973867e-05	
198	-3.25000e+00	3.981731e-05	
199	-3.30000e+00	3.989523e-05	
200	-3.35000e+00	3.997245e-05	
201	-3.40000e+00	4.004900e-05	
202	-3.45000e+00	4.012490e-05	
203	-3.50000e+00	4.020018e-05	
204	-3.55000e+00	4.027486e-05	
205	-3.60000e+00	4.034896e-05	
206	-3.65000e+00	4.042250e-05	
207	-3.70000e+00	4.049551e-05	
208	-3.75000e+00	4.056801e-05	
209	-3.80000e+00	4.064001e-05	
210	-3.85000e+00	4.071154e-05	
211	-3.90000e+00	4.078262e-05	
212	-3.95000e+00	4.085327e-05	
213	-4.00000e+00	4.092351e-05	
214	-4.05000e+00	4.099336e-05	
215	-4.10000e+00	4.106286e-05	
216	-4.15000e+00	4.113201e-05	
217	-4.20000e+00	4.120085e-05	
218	-4.25000e+00	4.126941e-05	
219	-4.30000e+00	4.133771e-05	
220	-4.35000e+00	4.140580e-05	
221	-4.40000e+00	4.147370e-05	
222	-4.45000e+00	4.154146e-05	
223	-4.50000e+00	4.160912e-05	
224	-4.55000e+00	4.167673e-05	
225	-4.60000e+00	4.174433e-05	
226	-4.65000e+00	4.181199e-05	
227	-4.70000e+00	4.187976e-05	
228	-4.75000e+00	4.194771e-05	

Index   v-sweep         i(vds)          
--------------------------------------------------------------------------------
229	-4.80000e+00	4.201592e-05	
230	-4.85000e+00	4.208446e-05	
231	-4.90000e+00	4.215343e-05	
232	-4.95000e+00	4.222292e-05	
233	-5.00000e+00	4.229302e-05	
234	-5.05000e+00	4.236386e-05	
235	-5.10000e+00	4.243555e-05	
236	-5.15000e+00	4.250822e-05	
237	-5.20000e+00	4.258202e-05	
238	-5.25000e+00	4.265708e-05	
239	-5.30000e+00	4.273359e-05	
240	-5.35000e+00	4.281170e-05	
241	-5.40000e+00	4.289161e-05	
242	-5.45000e+00	4.297351e-05	
243	-5.50000e+00	4.305761e-05	
244	-5.55000e+00	4.314413e-05	
245	-5.60000e+00	4.323332e-05	
246	-5.65000e+00	4.332543e-05	
247	-5.70000e+00	4.342072e-05	
248	-5.75000e+00	4.351947e-05	
249	-5.80000e+00	4.362198e-05	
250	-5.85000e+00	4.372856e-05	
251	-5.90000e+00	4.383955e-05	
252	-5.95000e+00	4.395528e-05	
253	-6.00000e+00	4.407612e-05	
254	-6.05000e+00	4.420245e-05	
255	-6.10000e+00	4.433466e-05	
256	-6.15000e+00	4.447316e-05	
257	-6.20000e+00	4.461838e-05	
258	-6.25000e+00	4.477078e-05	
259	-6.30000e+00	4.493082e-05	
260	-6.35000e+00	4.509898e-05	
261	-6.40000e+00	4.527576e-05	
262	-6.45000e+00	4.546169e-05	
263	-6.50000e+00	4.565731e-05	
264	-6.55000e+00	4.586316e-05	
265	-6.60000e+00	4.607984e-05	
266	0.000000e+00	-2.52203e-36	
267	-5.00000e-02	5.939855e-06	
268	-1.00000e-01	1.165395e-05	
269	-1.50000e-01	1.714523e-05	
270	-2.00000e-01	2.241662e-05	
271	-2.50000e-01	2.747102e-05	
272	-3.00000e-01	3.231128e-05	
273	-3.50000e-01	3.694024e-05	
274	-4.00000e-01	4.136071e-05	
275	-4.50000e-01	4.557545e-05	
276	-5.00000e-01	4.958722e-05	
277	-5.50000e-01	5.339872e-05	
278	-6.00000e-01	5.701266e-05	
279	-6.50000e-01	6.043169e-05	
280	-7.00000e-01	6.365846e-05	
281	-7.50000e-01	6.669560e-05	
282	-8.00000e-01	6.954572e-05	
283	-8.50000e-01	7.221144e-05	
284	-9.00000e-01	7.469537e-05	
285	-9.50000e-01	7.700017e-05	
286	-1.00000e+00	7.912857e-05	

Index   v-sweep         i(vds)          
--------------------------------------------------------------------------------
287	-1.05000e+00	8.108340e-05	
288	-1.10000e+00	8.286777e-05	
289	-1.15000e+00	8.448521e-05	
290	-1.20000e+00	8.594006e-05	
291	-1.25000e+00	8.723810e-05	
292	-1.30000e+00	8.838751e-05	
293	-1.35000e+00	8.939983e-05	
294	-1.40000e+00	9.029015e-05	
295	-1.45000e+00	9.107583e-05	
296	-1.50000e+00	9.177417e-05	
297	-1.55000e+00	9.240060e-05	
298	-1.60000e+00	9.296792e-05	
299	-1.65000e+00	9.348635e-05	
300	-1.70000e+00	9.396398e-05	
301	-1.75000e+00	9.440716e-05	
302	-1.80000e+00	9.482097e-05	
303	-1.85000e+00	9.520948e-05	
304	-1.90000e+00	9.557599e-05	
305	-1.95000e+00	9.592321e-05	
306	-2.00000e+00	9.625339e-05	
307	-2.05000e+00	9.656843e-05	
308	-2.10000e+00	9.686990e-05	
309	-2.15000e+00	9.715918e-05	
310	-2.20000e+00	9.743742e-05	
311	-2.25000e+00	9.770564e-05	
312	-2.30000e+00	9.796471e-05	
313	-2.35000e+00	9.821540e-05	
314	-2.40000e+00	9.845839e-05	
315	-2.45000e+00	9.869428e-05	
316	-2.50000e+00	9.892359e-05	
317	-2.55000e+00	9.914681e-05	
318	-2.60000e+00	9.936435e-05	
319	-2.65000e+00	9.957661e-05	
320	-2.70000e+00	9.978393e-05	
321	-2.75000e+00	9.998661e-05	
322	-2.80000e+00	1.001850e-04	
323	-2.85000e+00	1.003792e-04	
324	-2.90000e+00	1.005696e-04	
325	-2.95000e+00	1.007564e-04	
326	-3.00000e+00	1.009398e-04	
327	-3.05000e+00	1.011199e-04	
328	-3.10000e+00	1.012969e-04	
329	-3.15000e+00	1.014710e-04	
330	-3.20000e+00	1.016424e-04	
331	-3.25000e+00	1.018111e-04	
332	-3.30000e+00	1.019772e-04	
333	-3.35000e+00	1.021410e-04	
334	-3.40000e+00	1.023025e-04	
335	-3.45000e+00	1.024618e-04	
336	-3.50000e+00	1.026191e-04	
337	-3.55000e+00	1.027743e-04	
338	-3.60000e+00	1.029276e-04	
339	-3.65000e+00	1.030791e-04	
340	-3.70000e+00	1.032288e-04	
341	-3.75000e+00	1.033768e-04	
342	-3.80000e+00	1.035231e-04	
343	-3.85000e+00	1.036680e-04	
344	-3.90000e+00	1.038113e-04	

Index   v-sweep         i(vds)          
--------------------------------------------------------------------------------
345	-3.95000e+00	1.039531e-04	
346	-4.00000e+00	1.040936e-04	
347	-4.05000e+00	1.042327e-04	
348	-4.10000e+00	1.043705e-04	
349	-4.15000e+00	1.045071e-04	
350	-4.20000e+00	1.046425e-04	
351	-4.25000e+00	1.047767e-04	
352	-4.30000e+00	1.049098e-04	
353	-4.35000e+00	1.050419e-04	
354	-4.40000e+00	1.051729e-04	
355	-4.45000e+00	1.053030e-04	
356	-4.50000e+00	1.054321e-04	
357	-4.55000e+00	1.055604e-04	
358	-4.60000e+00	1.056879e-04	
359	-4.65000e+00	1.058145e-04	
360	-4.70000e+00	1.059405e-04	
361	-4.75000e+00	1.060658e-04	
362	-4.80000e+00	1.061906e-04	
363	-4.85000e+00	1.063148e-04	
364	-4.90000e+00	1.064387e-04	
365	-4.95000e+00	1.065622e-04	
366	-5.00000e+00	1.066854e-04	
367	-5.05000e+00	1.068085e-04	
368	-5.10000e+00	1.069316e-04	
369	-5.15000e+00	1.070547e-04	
370	-5.20000e+00	1.071781e-04	
371	-5.25000e+00	1.073020e-04	
372	-5.30000e+00	1.074263e-04	
373	-5.35000e+00	1.075514e-04	
374	-5.40000e+00	1.076775e-04	
375	-5.45000e+00	1.078047e-04	
376	-5.50000e+00	1.079332e-04	
377	-5.55000e+00	1.080635e-04	
378	-5.60000e+00	1.081956e-04	
379	-5.65000e+00	1.083300e-04	
380	-5.70000e+00	1.084669e-04	
381	-5.75000e+00	1.086067e-04	
382	-5.80000e+00	1.087498e-04	
383	-5.85000e+00	1.088966e-04	
384	-5.90000e+00	1.090475e-04	
385	-5.95000e+00	1.092029e-04	
386	-6.00000e+00	1.093634e-04	
387	-6.05000e+00	1.095295e-04	
388	-6.10000e+00	1.097017e-04	
389	-6.15000e+00	1.098806e-04	
390	-6.20000e+00	1.100669e-04	
391	-6.25000e+00	1.102612e-04	
392	-6.30000e+00	1.104643e-04	
393	-6.35000e+00	1.106767e-04	
394	-6.40000e+00	1.108994e-04	
395	-6.45000e+00	1.111331e-04	
396	-6.50000e+00	1.113786e-04	
397	-6.55000e+00	1.116369e-04	
398	-6.60000e+00	1.119090e-04	
399	0.000000e+00	-2.02754e-36	
400	-5.00000e-02	7.548445e-06	
401	-1.00000e-01	1.489065e-05	
402	-1.50000e-01	2.202879e-05	

Index   v-sweep         i(vds)          
--------------------------------------------------------------------------------
403	-2.00000e-01	2.896504e-05	
404	-2.50000e-01	3.570155e-05	
405	-3.00000e-01	4.224047e-05	
406	-3.50000e-01	4.858390e-05	
407	-4.00000e-01	5.473396e-05	
408	-4.50000e-01	6.069272e-05	
409	-5.00000e-01	6.646226e-05	
410	-5.50000e-01	7.204462e-05	
411	-6.00000e-01	7.744183e-05	
412	-6.50000e-01	8.265592e-05	
413	-7.00000e-01	8.768888e-05	
414	-7.50000e-01	9.254269e-05	
415	-8.00000e-01	9.721931e-05	
416	-8.50000e-01	1.017207e-04	
417	-9.00000e-01	1.060488e-04	
418	-9.50000e-01	1.102054e-04	
419	-1.00000e+00	1.141926e-04	
420	-1.05000e+00	1.180121e-04	
421	-1.10000e+00	1.216658e-04	
422	-1.15000e+00	1.251556e-04	
423	-1.20000e+00	1.284833e-04	
424	-1.25000e+00	1.316507e-04	
425	-1.30000e+00	1.346596e-04	
426	-1.35000e+00	1.375117e-04	
427	-1.40000e+00	1.402088e-04	
428	-1.45000e+00	1.427526e-04	
429	-1.50000e+00	1.451447e-04	
430	-1.55000e+00	1.473866e-04	
431	-1.60000e+00	1.494799e-04	
432	-1.65000e+00	1.514259e-04	
433	-1.70000e+00	1.532258e-04	
434	-1.75000e+00	1.548809e-04	
435	-1.80000e+00	1.563935e-04	
436	-1.85000e+00	1.577672e-04	
437	-1.90000e+00	1.590088e-04	
438	-1.95000e+00	1.601286e-04	
439	-2.00000e+00	1.611393e-04	
440	-2.05000e+00	1.620551e-04	
441	-2.10000e+00	1.628893e-04	
442	-2.15000e+00	1.636539e-04	
443	-2.20000e+00	1.643591e-04	
444	-2.25000e+00	1.650135e-04	
445	-2.30000e+00	1.656242e-04	
446	-2.35000e+00	1.661970e-04	
447	-2.40000e+00	1.667367e-04	
448	-2.45000e+00	1.672473e-04	
449	-2.50000e+00	1.677323e-04	
450	-2.55000e+00	1.681943e-04	
451	-2.60000e+00	1.686359e-04	
452	-2.65000e+00	1.690590e-04	
453	-2.70000e+00	1.694656e-04	
454	-2.75000e+00	1.698569e-04	
455	-2.80000e+00	1.702345e-04	
456	-2.85000e+00	1.705995e-04	
457	-2.90000e+00	1.709529e-04	
458	-2.95000e+00	1.712956e-04	
459	-3.00000e+00	1.716284e-04	
460	-3.05000e+00	1.719520e-04	

Index   v-sweep         i(vds)          
--------------------------------------------------------------------------------
461	-3.10000e+00	1.722672e-04	
462	-3.15000e+00	1.725744e-04	
463	-3.20000e+00	1.728742e-04	
464	-3.25000e+00	1.731670e-04	
465	-3.30000e+00	1.734534e-04	
466	-3.35000e+00	1.737336e-04	
467	-3.40000e+00	1.740081e-04	
468	-3.45000e+00	1.742772e-04	
469	-3.50000e+00	1.745411e-04	
470	-3.55000e+00	1.748002e-04	
471	-3.60000e+00	1.750547e-04	
472	-3.65000e+00	1.753048e-04	
473	-3.70000e+00	1.755508e-04	
474	-3.75000e+00	1.757929e-04	
475	-3.80000e+00	1.760312e-04	
476	-3.85000e+00	1.762659e-04	
477	-3.90000e+00	1.764973e-04	
478	-3.95000e+00	1.767253e-04	
479	-4.00000e+00	1.769503e-04	
480	-4.05000e+00	1.771723e-04	
481	-4.10000e+00	1.773914e-04	
482	-4.15000e+00	1.776078e-04	
483	-4.20000e+00	1.778215e-04	
484	-4.25000e+00	1.780328e-04	
485	-4.30000e+00	1.782416e-04	
486	-4.35000e+00	1.784481e-04	
487	-4.40000e+00	1.786523e-04	
488	-4.45000e+00	1.788544e-04	
489	-4.50000e+00	1.790544e-04	
490	-4.55000e+00	1.792524e-04	
491	-4.60000e+00	1.794485e-04	
492	-4.65000e+00	1.796428e-04	
493	-4.70000e+00	1.798352e-04	
494	-4.75000e+00	1.800260e-04	
495	-4.80000e+00	1.802151e-04	
496	-4.85000e+00	1.804027e-04	
497	-4.90000e+00	1.805887e-04	
498	-4.95000e+00	1.807733e-04	
499	-5.00000e+00	1.809566e-04	
500	-5.05000e+00	1.811385e-04	
501	-5.10000e+00	1.813193e-04	
502	-5.15000e+00	1.814990e-04	
503	-5.20000e+00	1.816776e-04	
504	-5.25000e+00	1.818553e-04	
505	-5.30000e+00	1.820322e-04	
506	-5.35000e+00	1.822084e-04	
507	-5.40000e+00	1.823841e-04	
508	-5.45000e+00	1.825593e-04	
509	-5.50000e+00	1.827342e-04	
510	-5.55000e+00	1.829091e-04	
511	-5.60000e+00	1.830840e-04	
512	-5.65000e+00	1.832592e-04	
513	-5.70000e+00	1.834350e-04	
514	-5.75000e+00	1.836115e-04	
515	-5.80000e+00	1.837891e-04	
516	-5.85000e+00	1.839680e-04	
517	-5.90000e+00	1.841487e-04	
518	-5.95000e+00	1.843313e-04	

Index   v-sweep         i(vds)          
--------------------------------------------------------------------------------
519	-6.00000e+00	1.845165e-04	
520	-6.05000e+00	1.847044e-04	
521	-6.10000e+00	1.848957e-04	
522	-6.15000e+00	1.850909e-04	
523	-6.20000e+00	1.852904e-04	
524	-6.25000e+00	1.854948e-04	
525	-6.30000e+00	1.857048e-04	
526	-6.35000e+00	1.859211e-04	
527	-6.40000e+00	1.861444e-04	
528	-6.45000e+00	1.863754e-04	
529	-6.50000e+00	1.866150e-04	
530	-6.55000e+00	1.868640e-04	
531	-6.60000e+00	1.871233e-04	
532	0.000000e+00	1.570751e-36	
533	-5.00000e-02	8.778550e-06	
534	-1.00000e-01	1.736835e-05	
535	-1.50000e-01	2.577108e-05	
536	-2.00000e-01	3.398842e-05	
537	-2.50000e-01	4.202201e-05	
538	-3.00000e-01	4.987353e-05	
539	-3.50000e-01	5.754460e-05	
540	-4.00000e-01	6.503686e-05	
541	-4.50000e-01	7.235193e-05	
542	-5.00000e-01	7.949143e-05	
543	-5.50000e-01	8.645694e-05	
544	-6.00000e-01	9.325007e-05	
545	-6.50000e-01	9.987238e-05	
546	-7.00000e-01	1.063255e-04	
547	-7.50000e-01	1.126108e-04	
548	-8.00000e-01	1.187301e-04	
549	-8.50000e-01	1.246847e-04	
550	-9.00000e-01	1.304763e-04	
551	-9.50000e-01	1.361063e-04	
552	-1.00000e+00	1.415762e-04	
553	-1.05000e+00	1.468875e-04	
554	-1.10000e+00	1.520417e-04	
555	-1.15000e+00	1.570403e-04	
556	-1.20000e+00	1.618847e-04	
557	-1.25000e+00	1.665763e-04	
558	-1.30000e+00	1.711167e-04	
559	-1.35000e+00	1.755071e-04	
560	-1.40000e+00	1.797491e-04	
561	-1.45000e+00	1.838439e-04	
562	-1.50000e+00	1.877930e-04	
563	-1.55000e+00	1.915978e-04	
564	-1.60000e+00	1.952595e-04	
565	-1.65000e+00	1.987795e-04	
566	-1.70000e+00	2.021591e-04	
567	-1.75000e+00	2.053994e-04	
568	-1.80000e+00	2.085018e-04	
569	-1.85000e+00	2.114674e-04	
570	-1.90000e+00	2.142970e-04	
571	-1.95000e+00	2.169916e-04	
572	-2.00000e+00	2.195519e-04	
573	-2.05000e+00	2.219781e-04	
574	-2.10000e+00	2.242700e-04	
575	-2.15000e+00	2.264270e-04	
576	-2.20000e+00	2.284477e-04	

Index   v-sweep         i(vds)          
--------------------------------------------------------------------------------
577	-2.25000e+00	2.303303e-04	
578	-2.30000e+00	2.320738e-04	
579	-2.35000e+00	2.336787e-04	
580	-2.40000e+00	2.351485e-04	
581	-2.45000e+00	2.364909e-04	
582	-2.50000e+00	2.377166e-04	
583	-2.55000e+00	2.388378e-04	
584	-2.60000e+00	2.398674e-04	
585	-2.65000e+00	2.408171e-04	
586	-2.70000e+00	2.416976e-04	
587	-2.75000e+00	2.425179e-04	
588	-2.80000e+00	2.432858e-04	
589	-2.85000e+00	2.440079e-04	
590	-2.90000e+00	2.446897e-04	
591	-2.95000e+00	2.453359e-04	
592	-3.00000e+00	2.459504e-04	
593	-3.05000e+00	2.465365e-04	
594	-3.10000e+00	2.470973e-04	
595	-3.15000e+00	2.476350e-04	
596	-3.20000e+00	2.481520e-04	
597	-3.25000e+00	2.486500e-04	
598	-3.30000e+00	2.491308e-04	
599	-3.35000e+00	2.495956e-04	
600	-3.40000e+00	2.500459e-04	
601	-3.45000e+00	2.504827e-04	
602	-3.50000e+00	2.509070e-04	
603	-3.55000e+00	2.513198e-04	
604	-3.60000e+00	2.517218e-04	
605	-3.65000e+00	2.521137e-04	
606	-3.70000e+00	2.524963e-04	
607	-3.75000e+00	2.528701e-04	
608	-3.80000e+00	2.532356e-04	
609	-3.85000e+00	2.535934e-04	
610	-3.90000e+00	2.539439e-04	
611	-3.95000e+00	2.542874e-04	
612	-4.00000e+00	2.546245e-04	
613	-4.05000e+00	2.549554e-04	
614	-4.10000e+00	2.552804e-04	
615	-4.15000e+00	2.555999e-04	
616	-4.20000e+00	2.559141e-04	
617	-4.25000e+00	2.562233e-04	
618	-4.30000e+00	2.565278e-04	
619	-4.35000e+00	2.568277e-04	
620	-4.40000e+00	2.571232e-04	
621	-4.45000e+00	2.574146e-04	
622	-4.50000e+00	2.577020e-04	
623	-4.55000e+00	2.579856e-04	
624	-4.60000e+00	2.582655e-04	
625	-4.65000e+00	2.585420e-04	
626	-4.70000e+00	2.588151e-04	
627	-4.75000e+00	2.590850e-04	
628	-4.80000e+00	2.593518e-04	
629	-4.85000e+00	2.596156e-04	
630	-4.90000e+00	2.598766e-04	
631	-4.95000e+00	2.601348e-04	
632	-5.00000e+00	2.603903e-04	
633	-5.05000e+00	2.606433e-04	
634	-5.10000e+00	2.608939e-04	

Index   v-sweep         i(vds)          
--------------------------------------------------------------------------------
635	-5.15000e+00	2.611421e-04	
636	-5.20000e+00	2.613880e-04	
637	-5.25000e+00	2.616317e-04	
638	-5.30000e+00	2.618734e-04	
639	-5.35000e+00	2.621130e-04	
640	-5.40000e+00	2.623508e-04	
641	-5.45000e+00	2.625867e-04	
642	-5.50000e+00	2.628210e-04	
643	-5.55000e+00	2.630537e-04	
644	-5.60000e+00	2.632848e-04	
645	-5.65000e+00	2.635146e-04	
646	-5.70000e+00	2.637432e-04	
647	-5.75000e+00	2.639707e-04	
648	-5.80000e+00	2.641972e-04	
649	-5.85000e+00	2.644230e-04	
650	-5.90000e+00	2.646482e-04	
651	-5.95000e+00	2.648730e-04	
652	-6.00000e+00	2.650977e-04	
653	-6.05000e+00	2.653225e-04	
654	-6.10000e+00	2.655477e-04	
655	-6.15000e+00	2.657736e-04	
656	-6.20000e+00	2.660004e-04	
657	-6.25000e+00	2.662287e-04	
658	-6.30000e+00	2.664588e-04	
659	-6.35000e+00	2.666911e-04	
660	-6.40000e+00	2.669262e-04	
661	-6.45000e+00	2.671645e-04	
662	-6.50000e+00	2.674067e-04	
663	-6.55000e+00	2.676533e-04	
664	-6.60000e+00	2.679051e-04	
665	0.000000e+00	-8.11239e-20	
666	-5.00000e-02	9.757442e-06	
667	-1.00000e-01	1.934128e-05	
668	-1.50000e-01	2.875286e-05	
669	-2.00000e-01	3.799349e-05	
670	-2.50000e-01	4.706451e-05	
671	-3.00000e-01	5.596722e-05	
672	-3.50000e-01	6.470293e-05	
673	-4.00000e-01	7.327295e-05	
674	-4.50000e-01	8.167857e-05	
675	-5.00000e-01	8.992107e-05	
676	-5.50000e-01	9.800175e-05	
677	-6.00000e-01	1.059219e-04	
678	-6.50000e-01	1.136827e-04	
679	-7.00000e-01	1.212855e-04	
680	-7.50000e-01	1.287316e-04	
681	-8.00000e-01	1.360221e-04	
682	-8.50000e-01	1.431583e-04	
683	-9.00000e-01	1.501415e-04	
684	-9.50000e-01	1.569728e-04	
685	-1.00000e+00	1.636536e-04	
686	-1.05000e+00	1.701849e-04	
687	-1.10000e+00	1.765680e-04	
688	-1.15000e+00	1.828042e-04	
689	-1.20000e+00	1.888944e-04	
690	-1.25000e+00	1.948401e-04	
691	-1.30000e+00	2.006423e-04	
692	-1.35000e+00	2.063021e-04	

Index   v-sweep         i(vds)          
--------------------------------------------------------------------------------
693	-1.40000e+00	2.118209e-04	
694	-1.45000e+00	2.171996e-04	
695	-1.50000e+00	2.224394e-04	
696	-1.55000e+00	2.275415e-04	
697	-1.60000e+00	2.325070e-04	
698	-1.65000e+00	2.373369e-04	
699	-1.70000e+00	2.420325e-04	
700	-1.75000e+00	2.465947e-04	
701	-1.80000e+00	2.510248e-04	
702	-1.85000e+00	2.553236e-04	
703	-1.90000e+00	2.594924e-04	
704	-1.95000e+00	2.635321e-04	
705	-2.00000e+00	2.674438e-04	
706	-2.05000e+00	2.712283e-04	
707	-2.10000e+00	2.748869e-04	
708	-2.15000e+00	2.784202e-04	
709	-2.20000e+00	2.818292e-04	
710	-2.25000e+00	2.851146e-04	
711	-2.30000e+00	2.882772e-04	
712	-2.35000e+00	2.913174e-04	
713	-2.40000e+00	2.942356e-04	
714	-2.45000e+00	2.970315e-04	
715	-2.50000e+00	2.997048e-04	
716	-2.55000e+00	3.022544e-04	
717	-2.60000e+00	3.046782e-04	
718	-2.65000e+00	3.069735e-04	
719	-2.70000e+00	3.091367e-04	
720	-2.75000e+00	3.111643e-04	
721	-2.80000e+00	3.130535e-04	
722	-2.85000e+00	3.148041e-04	
723	-2.90000e+00	3.164197e-04	
724	-2.95000e+00	3.179073e-04	
725	-3.00000e+00	3.192771e-04	
726	-3.05000e+00	3.205406e-04	
727	-3.10000e+00	3.217096e-04	
728	-3.15000e+00	3.227953e-04	
729	-3.20000e+00	3.238078e-04	
730	-3.25000e+00	3.247561e-04	
731	-3.30000e+00	3.256478e-04	
732	-3.35000e+00	3.264895e-04	
733	-3.40000e+00	3.272869e-04	
734	-3.45000e+00	3.280449e-04	
735	-3.50000e+00	3.287675e-04	
736	-3.55000e+00	3.294584e-04	
737	-3.60000e+00	3.301206e-04	
738	-3.65000e+00	3.307569e-04	
739	-3.70000e+00	3.313695e-04	
740	-3.75000e+00	3.319605e-04	
741	-3.80000e+00	3.325318e-04	
742	-3.85000e+00	3.330848e-04	
743	-3.90000e+00	3.336210e-04	
744	-3.95000e+00	3.341418e-04	
745	-4.00000e+00	3.346481e-04	
746	-4.05000e+00	3.351410e-04	
747	-4.10000e+00	3.356215e-04	
748	-4.15000e+00	3.360903e-04	
749	-4.20000e+00	3.365481e-04	
750	-4.25000e+00	3.369958e-04	

Index   v-sweep         i(vds)          
--------------------------------------------------------------------------------
751	-4.30000e+00	3.374337e-04	
752	-4.35000e+00	3.378627e-04	
753	-4.40000e+00	3.382831e-04	
754	-4.45000e+00	3.386954e-04	
755	-4.50000e+00	3.391001e-04	
756	-4.55000e+00	3.394975e-04	
757	-4.60000e+00	3.398881e-04	
758	-4.65000e+00	3.402722e-04	
759	-4.70000e+00	3.406500e-04	
760	-4.75000e+00	3.410220e-04	
761	-4.80000e+00	3.413883e-04	
762	-4.85000e+00	3.417493e-04	
763	-4.90000e+00	3.421051e-04	
764	-4.95000e+00	3.424561e-04	
765	-5.00000e+00	3.428023e-04	
766	-5.05000e+00	3.431440e-04	
767	-5.10000e+00	3.434815e-04	
768	-5.15000e+00	3.438148e-04	
769	-5.20000e+00	3.441441e-04	
770	-5.25000e+00	3.444696e-04	
771	-5.30000e+00	3.447915e-04	
772	-5.35000e+00	3.451098e-04	
773	-5.40000e+00	3.454247e-04	
774	-5.45000e+00	3.457364e-04	
775	-5.50000e+00	3.460449e-04	
776	-5.55000e+00	3.463504e-04	
777	-5.60000e+00	3.466530e-04	
778	-5.65000e+00	3.469528e-04	
779	-5.70000e+00	3.472499e-04	
780	-5.75000e+00	3.475445e-04	
781	-5.80000e+00	3.478366e-04	
782	-5.85000e+00	3.481264e-04	
783	-5.90000e+00	3.484139e-04	
784	-5.95000e+00	3.486994e-04	
785	-6.00000e+00	3.489828e-04	
786	-6.05000e+00	3.492645e-04	
787	-6.10000e+00	3.495445e-04	
788	-6.15000e+00	3.498229e-04	
789	-6.20000e+00	3.501000e-04	
790	-6.25000e+00	3.503760e-04	
791	-6.30000e+00	3.506510e-04	
792	-6.35000e+00	3.509253e-04	
793	-6.40000e+00	3.511992e-04	
794	-6.45000e+00	3.514729e-04	
795	-6.50000e+00	3.517468e-04	
796	-6.55000e+00	3.520212e-04	
797	-6.60000e+00	3.522964e-04	
Note: No ".plot", ".print", or ".fourier" lines; no simulations run
