
Note: Compatibility modes selected: hs

Warning: m=xx on .subckt line will override multiplier m hierarchy!


Circuit: ***************************

Doing analysis at TEMP = 25.000000 and TNOM = 25.000000


No. of Data Rows : 798
                          ***************************
                          DC transfer characteristic  Mon Jan  9 13:58:50  2023
--------------------------------------------------------------------------------
Index   v-sweep         i(vds)          
--------------------------------------------------------------------------------
0	0.000000e+00	-3.28366e-32	
1	-5.00000e-02	1.441409e-06	
2	-1.00000e-01	2.223143e-06	
3	-1.50000e-01	2.508467e-06	
4	-2.00000e-01	2.587087e-06	
5	-2.50000e-01	2.616938e-06	
6	-3.00000e-01	2.634609e-06	
7	-3.50000e-01	2.647922e-06	
8	-4.00000e-01	2.659105e-06	
9	-4.50000e-01	2.668996e-06	
10	-5.00000e-01	2.677986e-06	
11	-5.50000e-01	2.686293e-06	
12	-6.00000e-01	2.694050e-06	
13	-6.50000e-01	2.701351e-06	
14	-7.00000e-01	2.708261e-06	
15	-7.50000e-01	2.714832e-06	
16	-8.00000e-01	2.721105e-06	
17	-8.50000e-01	2.727113e-06	
18	-9.00000e-01	2.732882e-06	
19	-9.50000e-01	2.738435e-06	
20	-1.00000e+00	2.743793e-06	
21	-1.05000e+00	2.748972e-06	
22	-1.10000e+00	2.753986e-06	
23	-1.15000e+00	2.758849e-06	
24	-1.20000e+00	2.763572e-06	
25	-1.25000e+00	2.768166e-06	
26	-1.30000e+00	2.772638e-06	
27	-1.35000e+00	2.776998e-06	
28	-1.40000e+00	2.781253e-06	
29	-1.45000e+00	2.785408e-06	
30	-1.50000e+00	2.789472e-06	
31	-1.55000e+00	2.793447e-06	
32	-1.60000e+00	2.797341e-06	
33	-1.65000e+00	2.801157e-06	
34	-1.70000e+00	2.804899e-06	
35	-1.75000e+00	2.808571e-06	
36	-1.80000e+00	2.812178e-06	
37	-1.85000e+00	2.815722e-06	
38	-1.90000e+00	2.819206e-06	
39	-1.95000e+00	2.822633e-06	
40	-2.00000e+00	2.826006e-06	
41	-2.05000e+00	2.829327e-06	
42	-2.10000e+00	2.832599e-06	
43	-2.15000e+00	2.835824e-06	
44	-2.20000e+00	2.839003e-06	
45	-2.25000e+00	2.842139e-06	
46	-2.30000e+00	2.845233e-06	
47	-2.35000e+00	2.848287e-06	
48	-2.40000e+00	2.851303e-06	
49	-2.45000e+00	2.854282e-06	
50	-2.50000e+00	2.857226e-06	
51	-2.55000e+00	2.860135e-06	
52	-2.60000e+00	2.863012e-06	
53	-2.65000e+00	2.865857e-06	
54	-2.70000e+00	2.868671e-06	

Index   v-sweep         i(vds)          
--------------------------------------------------------------------------------
55	-2.75000e+00	2.871456e-06	
56	-2.80000e+00	2.874213e-06	
57	-2.85000e+00	2.876942e-06	
58	-2.90000e+00	2.879645e-06	
59	-2.95000e+00	2.882323e-06	
60	-3.00000e+00	2.884976e-06	
61	-3.05000e+00	2.887606e-06	
62	-3.10000e+00	2.890213e-06	
63	-3.15000e+00	2.892799e-06	
64	-3.20000e+00	2.895365e-06	
65	-3.25000e+00	2.897911e-06	
66	-3.30000e+00	2.900440e-06	
67	-3.35000e+00	2.902951e-06	
68	-3.40000e+00	2.905447e-06	
69	-3.45000e+00	2.907930e-06	
70	-3.50000e+00	2.910399e-06	
71	-3.55000e+00	2.912858e-06	
72	-3.60000e+00	2.915307e-06	
73	-3.65000e+00	2.917750e-06	
74	-3.70000e+00	2.920189e-06	
75	-3.75000e+00	2.922625e-06	
76	-3.80000e+00	2.925063e-06	
77	-3.85000e+00	2.927504e-06	
78	-3.90000e+00	2.929953e-06	
79	-3.95000e+00	2.932413e-06	
80	-4.00000e+00	2.934888e-06	
81	-4.05000e+00	2.937384e-06	
82	-4.10000e+00	2.939904e-06	
83	-4.15000e+00	2.942455e-06	
84	-4.20000e+00	2.945042e-06	
85	-4.25000e+00	2.947673e-06	
86	-4.30000e+00	2.950354e-06	
87	-4.35000e+00	2.953094e-06	
88	-4.40000e+00	2.955900e-06	
89	-4.45000e+00	2.958781e-06	
90	-4.50000e+00	2.961748e-06	
91	-4.55000e+00	2.964811e-06	
92	-4.60000e+00	2.967982e-06	
93	-4.65000e+00	2.971271e-06	
94	-4.70000e+00	2.974694e-06	
95	-4.75000e+00	2.978262e-06	
96	-4.80000e+00	2.981992e-06	
97	-4.85000e+00	2.985899e-06	
98	-4.90000e+00	2.989998e-06	
99	-4.95000e+00	2.994309e-06	
100	-5.00000e+00	2.998850e-06	
101	-5.05000e+00	3.003639e-06	
102	-5.10000e+00	3.008699e-06	
103	-5.15000e+00	3.014050e-06	
104	-5.20000e+00	3.019716e-06	
105	-5.25000e+00	3.025720e-06	
106	-5.30000e+00	3.032088e-06	
107	-5.35000e+00	3.038846e-06	
108	-5.40000e+00	3.046021e-06	
109	-5.45000e+00	3.053642e-06	
110	-5.50000e+00	3.061739e-06	
111	-5.55000e+00	3.070343e-06	
112	-5.60000e+00	3.079486e-06	

Index   v-sweep         i(vds)          
--------------------------------------------------------------------------------
113	-5.65000e+00	3.089202e-06	
114	-5.70000e+00	3.099524e-06	
115	-5.75000e+00	3.110490e-06	
116	-5.80000e+00	3.122136e-06	
117	-5.85000e+00	3.134500e-06	
118	-5.90000e+00	3.147622e-06	
119	-5.95000e+00	3.161544e-06	
120	-6.00000e+00	3.176306e-06	
121	-6.05000e+00	3.191953e-06	
122	-6.10000e+00	3.208528e-06	
123	-6.15000e+00	3.226078e-06	
124	-6.20000e+00	3.244650e-06	
125	-6.25000e+00	3.264291e-06	
126	-6.30000e+00	3.285052e-06	
127	-6.35000e+00	3.306981e-06	
128	-6.40000e+00	3.330132e-06	
129	-6.45000e+00	3.354557e-06	
130	-6.50000e+00	3.380310e-06	
131	-6.55000e+00	3.407446e-06	
132	-6.60000e+00	3.436022e-06	
133	0.000000e+00	-4.15459e-30	
134	-5.00000e-02	1.387507e-05	
135	-1.00000e-01	2.690286e-05	
136	-1.50000e-01	3.908712e-05	
137	-2.00000e-01	5.043165e-05	
138	-2.50000e-01	6.094028e-05	
139	-3.00000e-01	7.061694e-05	
140	-3.50000e-01	7.946571e-05	
141	-4.00000e-01	8.749089e-05	
142	-4.50000e-01	9.469719e-05	
143	-5.00000e-01	1.010900e-04	
144	-5.50000e-01	1.066761e-04	
145	-6.00000e-01	1.114646e-04	
146	-6.50000e-01	1.154695e-04	
147	-7.00000e-01	1.187144e-04	
148	-7.50000e-01	1.212421e-04	
149	-8.00000e-01	1.231284e-04	
150	-8.50000e-01	1.244928e-04	
151	-9.00000e-01	1.254823e-04	
152	-9.50000e-01	1.262310e-04	
153	-1.00000e+00	1.268322e-04	
154	-1.05000e+00	1.273406e-04	
155	-1.10000e+00	1.277868e-04	
156	-1.15000e+00	1.281883e-04	
157	-1.20000e+00	1.285557e-04	
158	-1.25000e+00	1.288959e-04	
159	-1.30000e+00	1.292135e-04	
160	-1.35000e+00	1.295122e-04	
161	-1.40000e+00	1.297946e-04	
162	-1.45000e+00	1.300626e-04	
163	-1.50000e+00	1.303181e-04	
164	-1.55000e+00	1.305623e-04	
165	-1.60000e+00	1.307965e-04	
166	-1.65000e+00	1.310215e-04	
167	-1.70000e+00	1.312383e-04	
168	-1.75000e+00	1.314475e-04	
169	-1.80000e+00	1.316497e-04	
170	-1.85000e+00	1.318456e-04	

Index   v-sweep         i(vds)          
--------------------------------------------------------------------------------
171	-1.90000e+00	1.320355e-04	
172	-1.95000e+00	1.322200e-04	
173	-2.00000e+00	1.323994e-04	
174	-2.05000e+00	1.325740e-04	
175	-2.10000e+00	1.327442e-04	
176	-2.15000e+00	1.329102e-04	
177	-2.20000e+00	1.330723e-04	
178	-2.25000e+00	1.332308e-04	
179	-2.30000e+00	1.333858e-04	
180	-2.35000e+00	1.335376e-04	
181	-2.40000e+00	1.336862e-04	
182	-2.45000e+00	1.338319e-04	
183	-2.50000e+00	1.339749e-04	
184	-2.55000e+00	1.341152e-04	
185	-2.60000e+00	1.342530e-04	
186	-2.65000e+00	1.343885e-04	
187	-2.70000e+00	1.345216e-04	
188	-2.75000e+00	1.346526e-04	
189	-2.80000e+00	1.347815e-04	
190	-2.85000e+00	1.349085e-04	
191	-2.90000e+00	1.350335e-04	
192	-2.95000e+00	1.351568e-04	
193	-3.00000e+00	1.352783e-04	
194	-3.05000e+00	1.353981e-04	
195	-3.10000e+00	1.355163e-04	
196	-3.15000e+00	1.356329e-04	
197	-3.20000e+00	1.357481e-04	
198	-3.25000e+00	1.358619e-04	
199	-3.30000e+00	1.359743e-04	
200	-3.35000e+00	1.360853e-04	
201	-3.40000e+00	1.361951e-04	
202	-3.45000e+00	1.363036e-04	
203	-3.50000e+00	1.364110e-04	
204	-3.55000e+00	1.365172e-04	
205	-3.60000e+00	1.366223e-04	
206	-3.65000e+00	1.367264e-04	
207	-3.70000e+00	1.368294e-04	
208	-3.75000e+00	1.369315e-04	
209	-3.80000e+00	1.370327e-04	
210	-3.85000e+00	1.371329e-04	
211	-3.90000e+00	1.372323e-04	
212	-3.95000e+00	1.373309e-04	
213	-4.00000e+00	1.374288e-04	
214	-4.05000e+00	1.375259e-04	
215	-4.10000e+00	1.376225e-04	
216	-4.15000e+00	1.377184e-04	
217	-4.20000e+00	1.378139e-04	
218	-4.25000e+00	1.379090e-04	
219	-4.30000e+00	1.380037e-04	
220	-4.35000e+00	1.380981e-04	
221	-4.40000e+00	1.381924e-04	
222	-4.45000e+00	1.382867e-04	
223	-4.50000e+00	1.383811e-04	
224	-4.55000e+00	1.384758e-04	
225	-4.60000e+00	1.385708e-04	
226	-4.65000e+00	1.386665e-04	
227	-4.70000e+00	1.387629e-04	
228	-4.75000e+00	1.388603e-04	

Index   v-sweep         i(vds)          
--------------------------------------------------------------------------------
229	-4.80000e+00	1.389588e-04	
230	-4.85000e+00	1.390589e-04	
231	-4.90000e+00	1.391607e-04	
232	-4.95000e+00	1.392646e-04	
233	-5.00000e+00	1.393708e-04	
234	-5.05000e+00	1.394798e-04	
235	-5.10000e+00	1.395919e-04	
236	-5.15000e+00	1.397075e-04	
237	-5.20000e+00	1.398272e-04	
238	-5.25000e+00	1.399513e-04	
239	-5.30000e+00	1.400805e-04	
240	-5.35000e+00	1.402152e-04	
241	-5.40000e+00	1.403561e-04	
242	-5.45000e+00	1.405038e-04	
243	-5.50000e+00	1.406591e-04	
244	-5.55000e+00	1.408225e-04	
245	-5.60000e+00	1.409950e-04	
246	-5.65000e+00	1.411772e-04	
247	-5.70000e+00	1.413702e-04	
248	-5.75000e+00	1.415747e-04	
249	-5.80000e+00	1.417918e-04	
250	-5.85000e+00	1.420224e-04	
251	-5.90000e+00	1.422676e-04	
252	-5.95000e+00	1.425286e-04	
253	-6.00000e+00	1.428065e-04	
254	-6.05000e+00	1.431024e-04	
255	-6.10000e+00	1.434178e-04	
256	-6.15000e+00	1.437538e-04	
257	-6.20000e+00	1.441120e-04	
258	-6.25000e+00	1.444937e-04	
259	-6.30000e+00	1.449003e-04	
260	-6.35000e+00	1.453336e-04	
261	-6.40000e+00	1.457950e-04	
262	-6.45000e+00	1.462862e-04	
263	-6.50000e+00	1.468090e-04	
264	-6.55000e+00	1.473651e-04	
265	-6.60000e+00	1.479564e-04	
266	0.000000e+00	-1.38326e-29	
267	-5.00000e-02	2.345272e-05	
268	-1.00000e-01	4.612545e-05	
269	-1.50000e-01	6.802109e-05	
270	-2.00000e-01	8.914253e-05	
271	-2.50000e-01	1.094926e-04	
272	-3.00000e-01	1.290743e-04	
273	-3.50000e-01	1.478904e-04	
274	-4.00000e-01	1.659439e-04	
275	-4.50000e-01	1.832375e-04	
276	-5.00000e-01	1.997742e-04	
277	-5.50000e-01	2.155568e-04	
278	-6.00000e-01	2.305884e-04	
279	-6.50000e-01	2.448716e-04	
280	-7.00000e-01	2.584096e-04	
281	-7.50000e-01	2.712053e-04	
282	-8.00000e-01	2.832617e-04	
283	-8.50000e-01	2.945819e-04	
284	-9.00000e-01	3.051691e-04	
285	-9.50000e-01	3.150268e-04	
286	-1.00000e+00	3.241584e-04	

Index   v-sweep         i(vds)          
--------------------------------------------------------------------------------
287	-1.05000e+00	3.325682e-04	
288	-1.10000e+00	3.402605e-04	
289	-1.15000e+00	3.472411e-04	
290	-1.20000e+00	3.535170e-04	
291	-1.25000e+00	3.590979e-04	
292	-1.30000e+00	3.639980e-04	
293	-1.35000e+00	3.682386e-04	
294	-1.40000e+00	3.718528e-04	
295	-1.45000e+00	3.748907e-04	
296	-1.50000e+00	3.774226e-04	
297	-1.55000e+00	3.795351e-04	
298	-1.60000e+00	3.813188e-04	
299	-1.65000e+00	3.828540e-04	
300	-1.70000e+00	3.842031e-04	
301	-1.75000e+00	3.854109e-04	
302	-1.80000e+00	3.865087e-04	
303	-1.85000e+00	3.875182e-04	
304	-1.90000e+00	3.884552e-04	
305	-1.95000e+00	3.893314e-04	
306	-2.00000e+00	3.901556e-04	
307	-2.05000e+00	3.909348e-04	
308	-2.10000e+00	3.916746e-04	
309	-2.15000e+00	3.923794e-04	
310	-2.20000e+00	3.930532e-04	
311	-2.25000e+00	3.936989e-04	
312	-2.30000e+00	3.943194e-04	
313	-2.35000e+00	3.949169e-04	
314	-2.40000e+00	3.954934e-04	
315	-2.45000e+00	3.960507e-04	
316	-2.50000e+00	3.965903e-04	
317	-2.55000e+00	3.971136e-04	
318	-2.60000e+00	3.976218e-04	
319	-2.65000e+00	3.981159e-04	
320	-2.70000e+00	3.985970e-04	
321	-2.75000e+00	3.990658e-04	
322	-2.80000e+00	3.995231e-04	
323	-2.85000e+00	3.999697e-04	
324	-2.90000e+00	4.004062e-04	
325	-2.95000e+00	4.008333e-04	
326	-3.00000e+00	4.012513e-04	
327	-3.05000e+00	4.016609e-04	
328	-3.10000e+00	4.020625e-04	
329	-3.15000e+00	4.024564e-04	
330	-3.20000e+00	4.028432e-04	
331	-3.25000e+00	4.032231e-04	
332	-3.30000e+00	4.035965e-04	
333	-3.35000e+00	4.039636e-04	
334	-3.40000e+00	4.043249e-04	
335	-3.45000e+00	4.046805e-04	
336	-3.50000e+00	4.050306e-04	
337	-3.55000e+00	4.053756e-04	
338	-3.60000e+00	4.057157e-04	
339	-3.65000e+00	4.060510e-04	
340	-3.70000e+00	4.063817e-04	
341	-3.75000e+00	4.067081e-04	
342	-3.80000e+00	4.070302e-04	
343	-3.85000e+00	4.073483e-04	
344	-3.90000e+00	4.076625e-04	

Index   v-sweep         i(vds)          
--------------------------------------------------------------------------------
345	-3.95000e+00	4.079730e-04	
346	-4.00000e+00	4.082799e-04	
347	-4.05000e+00	4.085833e-04	
348	-4.10000e+00	4.088833e-04	
349	-4.15000e+00	4.091801e-04	
350	-4.20000e+00	4.094739e-04	
351	-4.25000e+00	4.097646e-04	
352	-4.30000e+00	4.100525e-04	
353	-4.35000e+00	4.103376e-04	
354	-4.40000e+00	4.106200e-04	
355	-4.45000e+00	4.108999e-04	
356	-4.50000e+00	4.111774e-04	
357	-4.55000e+00	4.114526e-04	
358	-4.60000e+00	4.117257e-04	
359	-4.65000e+00	4.119967e-04	
360	-4.70000e+00	4.122659e-04	
361	-4.75000e+00	4.125333e-04	
362	-4.80000e+00	4.127992e-04	
363	-4.85000e+00	4.130638e-04	
364	-4.90000e+00	4.133273e-04	
365	-4.95000e+00	4.135898e-04	
366	-5.00000e+00	4.138518e-04	
367	-5.05000e+00	4.141134e-04	
368	-5.10000e+00	4.143750e-04	
369	-5.15000e+00	4.146369e-04	
370	-5.20000e+00	4.148997e-04	
371	-5.25000e+00	4.151636e-04	
372	-5.30000e+00	4.154292e-04	
373	-5.35000e+00	4.156970e-04	
374	-5.40000e+00	4.159677e-04	
375	-5.45000e+00	4.162419e-04	
376	-5.50000e+00	4.165203e-04	
377	-5.55000e+00	4.168038e-04	
378	-5.60000e+00	4.170931e-04	
379	-5.65000e+00	4.173893e-04	
380	-5.70000e+00	4.176933e-04	
381	-5.75000e+00	4.180064e-04	
382	-5.80000e+00	4.183297e-04	
383	-5.85000e+00	4.186644e-04	
384	-5.90000e+00	4.190121e-04	
385	-5.95000e+00	4.193743e-04	
386	-6.00000e+00	4.197525e-04	
387	-6.05000e+00	4.201485e-04	
388	-6.10000e+00	4.205642e-04	
389	-6.15000e+00	4.210015e-04	
390	-6.20000e+00	4.214626e-04	
391	-6.25000e+00	4.219496e-04	
392	-6.30000e+00	4.224650e-04	
393	-6.35000e+00	4.230113e-04	
394	-6.40000e+00	4.235911e-04	
395	-6.45000e+00	4.242072e-04	
396	-6.50000e+00	4.248626e-04	
397	-6.55000e+00	4.255603e-04	
398	-6.60000e+00	4.263035e-04	
399	0.000000e+00	8.863687e-30	
400	-5.00000e-02	3.095661e-05	
401	-1.00000e-01	6.119820e-05	
402	-1.50000e-01	9.072713e-05	

Index   v-sweep         i(vds)          
--------------------------------------------------------------------------------
403	-2.00000e-01	1.195458e-04	
404	-2.50000e-01	1.476565e-04	
405	-3.00000e-01	1.750616e-04	
406	-3.50000e-01	2.017634e-04	
407	-4.00000e-01	2.277644e-04	
408	-4.50000e-01	2.530668e-04	
409	-5.00000e-01	2.776729e-04	
410	-5.50000e-01	3.015852e-04	
411	-6.00000e-01	3.248058e-04	
412	-6.50000e-01	3.473372e-04	
413	-7.00000e-01	3.691817e-04	
414	-7.50000e-01	3.903415e-04	
415	-8.00000e-01	4.108190e-04	
416	-8.50000e-01	4.306165e-04	
417	-9.00000e-01	4.497364e-04	
418	-9.50000e-01	4.681808e-04	
419	-1.00000e+00	4.859522e-04	
420	-1.05000e+00	5.030528e-04	
421	-1.10000e+00	5.194851e-04	
422	-1.15000e+00	5.352512e-04	
423	-1.20000e+00	5.503537e-04	
424	-1.25000e+00	5.647948e-04	
425	-1.30000e+00	5.785770e-04	
426	-1.35000e+00	5.917028e-04	
427	-1.40000e+00	6.041745e-04	
428	-1.45000e+00	6.159949e-04	
429	-1.50000e+00	6.271666e-04	
430	-1.55000e+00	6.376925e-04	
431	-1.60000e+00	6.475756e-04	
432	-1.65000e+00	6.568193e-04	
433	-1.70000e+00	6.654275e-04	
434	-1.75000e+00	6.734047e-04	
435	-1.80000e+00	6.807566e-04	
436	-1.85000e+00	6.874904e-04	
437	-1.90000e+00	6.936158e-04	
438	-1.95000e+00	6.991464e-04	
439	-2.00000e+00	7.041015e-04	
440	-2.05000e+00	7.085087e-04	
441	-2.10000e+00	7.124060e-04	
442	-2.15000e+00	7.158428e-04	
443	-2.20000e+00	7.188773e-04	
444	-2.25000e+00	7.215713e-04	
445	-2.30000e+00	7.239836e-04	
446	-2.35000e+00	7.261647e-04	
447	-2.40000e+00	7.281561e-04	
448	-2.45000e+00	7.299903e-04	
449	-2.50000e+00	7.316927e-04	
450	-2.55000e+00	7.332832e-04	
451	-2.60000e+00	7.347776e-04	
452	-2.65000e+00	7.361885e-04	
453	-2.70000e+00	7.375260e-04	
454	-2.75000e+00	7.387988e-04	
455	-2.80000e+00	7.400138e-04	
456	-2.85000e+00	7.411770e-04	
457	-2.90000e+00	7.422934e-04	
458	-2.95000e+00	7.433675e-04	
459	-3.00000e+00	7.444029e-04	
460	-3.05000e+00	7.454030e-04	

Index   v-sweep         i(vds)          
--------------------------------------------------------------------------------
461	-3.10000e+00	7.463706e-04	
462	-3.15000e+00	7.473084e-04	
463	-3.20000e+00	7.482185e-04	
464	-3.25000e+00	7.491029e-04	
465	-3.30000e+00	7.499635e-04	
466	-3.35000e+00	7.508018e-04	
467	-3.40000e+00	7.516193e-04	
468	-3.45000e+00	7.524174e-04	
469	-3.50000e+00	7.531972e-04	
470	-3.55000e+00	7.539598e-04	
471	-3.60000e+00	7.547062e-04	
472	-3.65000e+00	7.554373e-04	
473	-3.70000e+00	7.561540e-04	
474	-3.75000e+00	7.568570e-04	
475	-3.80000e+00	7.575470e-04	
476	-3.85000e+00	7.582247e-04	
477	-3.90000e+00	7.588907e-04	
478	-3.95000e+00	7.595456e-04	
479	-4.00000e+00	7.601899e-04	
480	-4.05000e+00	7.608240e-04	
481	-4.10000e+00	7.614485e-04	
482	-4.15000e+00	7.620637e-04	
483	-4.20000e+00	7.626701e-04	
484	-4.25000e+00	7.632680e-04	
485	-4.30000e+00	7.638577e-04	
486	-4.35000e+00	7.644397e-04	
487	-4.40000e+00	7.650142e-04	
488	-4.45000e+00	7.655815e-04	
489	-4.50000e+00	7.661419e-04	
490	-4.55000e+00	7.666956e-04	
491	-4.60000e+00	7.672429e-04	
492	-4.65000e+00	7.677841e-04	
493	-4.70000e+00	7.683193e-04	
494	-4.75000e+00	7.688488e-04	
495	-4.80000e+00	7.693727e-04	
496	-4.85000e+00	7.698914e-04	
497	-4.90000e+00	7.704049e-04	
498	-4.95000e+00	7.709136e-04	
499	-5.00000e+00	7.714175e-04	
500	-5.05000e+00	7.719169e-04	
501	-5.10000e+00	7.724120e-04	
502	-5.15000e+00	7.729030e-04	
503	-5.20000e+00	7.733901e-04	
504	-5.25000e+00	7.738736e-04	
505	-5.30000e+00	7.743537e-04	
506	-5.35000e+00	7.748306e-04	
507	-5.40000e+00	7.753047e-04	
508	-5.45000e+00	7.757763e-04	
509	-5.50000e+00	7.762458e-04	
510	-5.55000e+00	7.767134e-04	
511	-5.60000e+00	7.771798e-04	
512	-5.65000e+00	7.776453e-04	
513	-5.70000e+00	7.781105e-04	
514	-5.75000e+00	7.785761e-04	
515	-5.80000e+00	7.790426e-04	
516	-5.85000e+00	7.795109e-04	
517	-5.90000e+00	7.799817e-04	
518	-5.95000e+00	7.804560e-04	

Index   v-sweep         i(vds)          
--------------------------------------------------------------------------------
519	-6.00000e+00	7.809349e-04	
520	-6.05000e+00	7.814193e-04	
521	-6.10000e+00	7.819107e-04	
522	-6.15000e+00	7.824103e-04	
523	-6.20000e+00	7.829196e-04	
524	-6.25000e+00	7.834403e-04	
525	-6.30000e+00	7.839741e-04	
526	-6.35000e+00	7.845230e-04	
527	-6.40000e+00	7.850891e-04	
528	-6.45000e+00	7.856747e-04	
529	-6.50000e+00	7.862821e-04	
530	-6.55000e+00	7.869141e-04	
531	-6.60000e+00	7.875735e-04	
532	0.000000e+00	-1.19579e-29	
533	-5.00000e-02	3.698526e-05	
534	-1.00000e-01	7.331231e-05	
535	-1.50000e-01	1.089831e-04	
536	-2.00000e-01	1.439997e-04	
537	-2.50000e-01	1.783640e-04	
538	-3.00000e-01	2.120781e-04	
539	-3.50000e-01	2.451438e-04	
540	-4.00000e-01	2.775631e-04	
541	-4.50000e-01	3.093381e-04	
542	-5.00000e-01	3.404706e-04	
543	-5.50000e-01	3.709627e-04	
544	-6.00000e-01	4.008163e-04	
545	-6.50000e-01	4.300332e-04	
546	-7.00000e-01	4.586156e-04	
547	-7.50000e-01	4.865652e-04	
548	-8.00000e-01	5.138840e-04	
549	-8.50000e-01	5.405741e-04	
550	-9.00000e-01	5.666372e-04	
551	-9.50000e-01	5.920754e-04	
552	-1.00000e+00	6.168904e-04	
553	-1.05000e+00	6.410844e-04	
554	-1.10000e+00	6.646591e-04	
555	-1.15000e+00	6.876165e-04	
556	-1.20000e+00	7.099585e-04	
557	-1.25000e+00	7.316870e-04	
558	-1.30000e+00	7.528039e-04	
559	-1.35000e+00	7.733112e-04	
560	-1.40000e+00	7.932106e-04	
561	-1.45000e+00	8.125042e-04	
562	-1.50000e+00	8.311939e-04	
563	-1.55000e+00	8.492815e-04	
564	-1.60000e+00	8.667690e-04	
565	-1.65000e+00	8.836583e-04	
566	-1.70000e+00	8.999513e-04	
567	-1.75000e+00	9.156501e-04	
568	-1.80000e+00	9.307565e-04	
569	-1.85000e+00	9.452725e-04	
570	-1.90000e+00	9.592003e-04	
571	-1.95000e+00	9.725418e-04	
572	-2.00000e+00	9.852992e-04	
573	-2.05000e+00	9.974747e-04	
574	-2.10000e+00	1.009071e-03	
575	-2.15000e+00	1.020089e-03	
576	-2.20000e+00	1.030533e-03	

Index   v-sweep         i(vds)          
--------------------------------------------------------------------------------
577	-2.25000e+00	1.040406e-03	
578	-2.30000e+00	1.049710e-03	
579	-2.35000e+00	1.058449e-03	
580	-2.40000e+00	1.066628e-03	
581	-2.45000e+00	1.074252e-03	
582	-2.50000e+00	1.081329e-03	
583	-2.55000e+00	1.087868e-03	
584	-2.60000e+00	1.093882e-03	
585	-2.65000e+00	1.099387e-03	
586	-2.70000e+00	1.104408e-03	
587	-2.75000e+00	1.108974e-03	
588	-2.80000e+00	1.113121e-03	
589	-2.85000e+00	1.116893e-03	
590	-2.90000e+00	1.120333e-03	
591	-2.95000e+00	1.123485e-03	
592	-3.00000e+00	1.126389e-03	
593	-3.05000e+00	1.129079e-03	
594	-3.10000e+00	1.131585e-03	
595	-3.15000e+00	1.133931e-03	
596	-3.20000e+00	1.136139e-03	
597	-3.25000e+00	1.138225e-03	
598	-3.30000e+00	1.140204e-03	
599	-3.35000e+00	1.142087e-03	
600	-3.40000e+00	1.143884e-03	
601	-3.45000e+00	1.145605e-03	
602	-3.50000e+00	1.147257e-03	
603	-3.55000e+00	1.148845e-03	
604	-3.60000e+00	1.150376e-03	
605	-3.65000e+00	1.151855e-03	
606	-3.70000e+00	1.153286e-03	
607	-3.75000e+00	1.154672e-03	
608	-3.80000e+00	1.156017e-03	
609	-3.85000e+00	1.157325e-03	
610	-3.90000e+00	1.158596e-03	
611	-3.95000e+00	1.159835e-03	
612	-4.00000e+00	1.161044e-03	
613	-4.05000e+00	1.162223e-03	
614	-4.10000e+00	1.163375e-03	
615	-4.15000e+00	1.164502e-03	
616	-4.20000e+00	1.165605e-03	
617	-4.25000e+00	1.166685e-03	
618	-4.30000e+00	1.167745e-03	
619	-4.35000e+00	1.168784e-03	
620	-4.40000e+00	1.169803e-03	
621	-4.45000e+00	1.170805e-03	
622	-4.50000e+00	1.171790e-03	
623	-4.55000e+00	1.172758e-03	
624	-4.60000e+00	1.173710e-03	
625	-4.65000e+00	1.174648e-03	
626	-4.70000e+00	1.175571e-03	
627	-4.75000e+00	1.176481e-03	
628	-4.80000e+00	1.177377e-03	
629	-4.85000e+00	1.178262e-03	
630	-4.90000e+00	1.179134e-03	
631	-4.95000e+00	1.179995e-03	
632	-5.00000e+00	1.180845e-03	
633	-5.05000e+00	1.181684e-03	
634	-5.10000e+00	1.182514e-03	

Index   v-sweep         i(vds)          
--------------------------------------------------------------------------------
635	-5.15000e+00	1.183333e-03	
636	-5.20000e+00	1.184143e-03	
637	-5.25000e+00	1.184945e-03	
638	-5.30000e+00	1.185737e-03	
639	-5.35000e+00	1.186521e-03	
640	-5.40000e+00	1.187297e-03	
641	-5.45000e+00	1.188065e-03	
642	-5.50000e+00	1.188826e-03	
643	-5.55000e+00	1.189579e-03	
644	-5.60000e+00	1.190326e-03	
645	-5.65000e+00	1.191066e-03	
646	-5.70000e+00	1.191799e-03	
647	-5.75000e+00	1.192527e-03	
648	-5.80000e+00	1.193249e-03	
649	-5.85000e+00	1.193965e-03	
650	-5.90000e+00	1.194677e-03	
651	-5.95000e+00	1.195383e-03	
652	-6.00000e+00	1.196086e-03	
653	-6.05000e+00	1.196785e-03	
654	-6.10000e+00	1.197480e-03	
655	-6.15000e+00	1.198173e-03	
656	-6.20000e+00	1.198863e-03	
657	-6.25000e+00	1.199553e-03	
658	-6.30000e+00	1.200241e-03	
659	-6.35000e+00	1.200930e-03	
660	-6.40000e+00	1.201620e-03	
661	-6.45000e+00	1.202312e-03	
662	-6.50000e+00	1.203007e-03	
663	-6.55000e+00	1.203708e-03	
664	-6.60000e+00	1.204414e-03	
665	0.000000e+00	-2.07907e-29	
666	-5.00000e-02	4.192494e-05	
667	-1.00000e-01	8.324089e-05	
668	-1.50000e-01	1.239495e-04	
669	-2.00000e-01	1.640526e-04	
670	-2.50000e-01	2.035517e-04	
671	-3.00000e-01	2.424486e-04	
672	-3.50000e-01	2.807450e-04	
673	-4.00000e-01	3.184426e-04	
674	-4.50000e-01	3.555430e-04	
675	-5.00000e-01	3.920479e-04	
676	-5.50000e-01	4.279590e-04	
677	-6.00000e-01	4.632780e-04	
678	-6.50000e-01	4.980065e-04	
679	-7.00000e-01	5.321463e-04	
680	-7.50000e-01	5.656988e-04	
681	-8.00000e-01	5.986659e-04	
682	-8.50000e-01	6.310491e-04	
683	-9.00000e-01	6.628502e-04	
684	-9.50000e-01	6.940707e-04	
685	-1.00000e+00	7.247123e-04	
686	-1.05000e+00	7.547767e-04	
687	-1.10000e+00	7.842654e-04	
688	-1.15000e+00	8.131802e-04	
689	-1.20000e+00	8.415226e-04	
690	-1.25000e+00	8.692942e-04	
691	-1.30000e+00	8.964968e-04	
692	-1.35000e+00	9.231319e-04	

Index   v-sweep         i(vds)          
--------------------------------------------------------------------------------
693	-1.40000e+00	9.492011e-04	
694	-1.45000e+00	9.747060e-04	
695	-1.50000e+00	9.996483e-04	
696	-1.55000e+00	1.024030e-03	
697	-1.60000e+00	1.047852e-03	
698	-1.65000e+00	1.071116e-03	
699	-1.70000e+00	1.093823e-03	
700	-1.75000e+00	1.115977e-03	
701	-1.80000e+00	1.137577e-03	
702	-1.85000e+00	1.158626e-03	
703	-1.90000e+00	1.179125e-03	
704	-1.95000e+00	1.199076e-03	
705	-2.00000e+00	1.218480e-03	
706	-2.05000e+00	1.237340e-03	
707	-2.10000e+00	1.255656e-03	
708	-2.15000e+00	1.273430e-03	
709	-2.20000e+00	1.290664e-03	
710	-2.25000e+00	1.307360e-03	
711	-2.30000e+00	1.323519e-03	
712	-2.35000e+00	1.339143e-03	
713	-2.40000e+00	1.354233e-03	
714	-2.45000e+00	1.368791e-03	
715	-2.50000e+00	1.382820e-03	
716	-2.55000e+00	1.396320e-03	
717	-2.60000e+00	1.409294e-03	
718	-2.65000e+00	1.421743e-03	
719	-2.70000e+00	1.433670e-03	
720	-2.75000e+00	1.445076e-03	
721	-2.80000e+00	1.455964e-03	
722	-2.85000e+00	1.466336e-03	
723	-2.90000e+00	1.476196e-03	
724	-2.95000e+00	1.485545e-03	
725	-3.00000e+00	1.494388e-03	
726	-3.05000e+00	1.502729e-03	
727	-3.10000e+00	1.510574e-03	
728	-3.15000e+00	1.517928e-03	
729	-3.20000e+00	1.524802e-03	
730	-3.25000e+00	1.531207e-03	
731	-3.30000e+00	1.537156e-03	
732	-3.35000e+00	1.542671e-03	
733	-3.40000e+00	1.547773e-03	
734	-3.45000e+00	1.552493e-03	
735	-3.50000e+00	1.556860e-03	
736	-3.55000e+00	1.560910e-03	
737	-3.60000e+00	1.564676e-03	
738	-3.65000e+00	1.568189e-03	
739	-3.70000e+00	1.571479e-03	
740	-3.75000e+00	1.574571e-03	
741	-3.80000e+00	1.577488e-03	
742	-3.85000e+00	1.580250e-03	
743	-3.90000e+00	1.582873e-03	
744	-3.95000e+00	1.585373e-03	
745	-4.00000e+00	1.587761e-03	
746	-4.05000e+00	1.590049e-03	
747	-4.10000e+00	1.592247e-03	
748	-4.15000e+00	1.594361e-03	
749	-4.20000e+00	1.596400e-03	
750	-4.25000e+00	1.598370e-03	

Index   v-sweep         i(vds)          
--------------------------------------------------------------------------------
751	-4.30000e+00	1.600276e-03	
752	-4.35000e+00	1.602123e-03	
753	-4.40000e+00	1.603917e-03	
754	-4.45000e+00	1.605660e-03	
755	-4.50000e+00	1.607356e-03	
756	-4.55000e+00	1.609008e-03	
757	-4.60000e+00	1.610620e-03	
758	-4.65000e+00	1.612194e-03	
759	-4.70000e+00	1.613731e-03	
760	-4.75000e+00	1.615236e-03	
761	-4.80000e+00	1.616708e-03	
762	-4.85000e+00	1.618151e-03	
763	-4.90000e+00	1.619565e-03	
764	-4.95000e+00	1.620953e-03	
765	-5.00000e+00	1.622315e-03	
766	-5.05000e+00	1.623654e-03	
767	-5.10000e+00	1.624969e-03	
768	-5.15000e+00	1.626263e-03	
769	-5.20000e+00	1.627536e-03	
770	-5.25000e+00	1.628790e-03	
771	-5.30000e+00	1.630025e-03	
772	-5.35000e+00	1.631242e-03	
773	-5.40000e+00	1.632441e-03	
774	-5.45000e+00	1.633624e-03	
775	-5.50000e+00	1.634792e-03	
776	-5.55000e+00	1.635944e-03	
777	-5.60000e+00	1.637082e-03	
778	-5.65000e+00	1.638205e-03	
779	-5.70000e+00	1.639316e-03	
780	-5.75000e+00	1.640413e-03	
781	-5.80000e+00	1.641498e-03	
782	-5.85000e+00	1.642572e-03	
783	-5.90000e+00	1.643633e-03	
784	-5.95000e+00	1.644684e-03	
785	-6.00000e+00	1.645724e-03	
786	-6.05000e+00	1.646753e-03	
787	-6.10000e+00	1.647773e-03	
788	-6.15000e+00	1.648783e-03	
789	-6.20000e+00	1.649784e-03	
790	-6.25000e+00	1.650777e-03	
791	-6.30000e+00	1.651761e-03	
792	-6.35000e+00	1.652736e-03	
793	-6.40000e+00	1.653705e-03	
794	-6.45000e+00	1.654666e-03	
795	-6.50000e+00	1.655620e-03	
796	-6.55000e+00	1.656569e-03	
797	-6.60000e+00	1.657511e-03	
Note: No ".plot", ".print", or ".fourier" lines; no simulations run
