
Note: Compatibility modes selected: hs

Warning: m=xx on .subckt line will override multiplier m hierarchy!


Circuit: ***************************

Doing analysis at TEMP = 25.000000 and TNOM = 25.000000


No. of Data Rows : 798
                          ***************************
                          DC transfer characteristic  Mon Jan  9 13:58:50  2023
--------------------------------------------------------------------------------
Index   v-sweep         i(vds)          
--------------------------------------------------------------------------------
0	0.000000e+00	-6.98504e-25	
1	-5.00000e-02	1.109189e-08	
2	-1.00000e-01	1.642420e-08	
3	-1.50000e-01	1.797809e-08	
4	-2.00000e-01	1.832617e-08	
5	-2.50000e-01	1.843248e-08	
6	-3.00000e-01	1.848021e-08	
7	-3.50000e-01	1.850840e-08	
8	-4.00000e-01	1.852830e-08	
9	-4.50000e-01	1.854404e-08	
10	-5.00000e-01	1.855742e-08	
11	-5.50000e-01	1.856931e-08	
12	-6.00000e-01	1.858019e-08	
13	-6.50000e-01	1.859035e-08	
14	-7.00000e-01	1.859998e-08	
15	-7.50000e-01	1.860917e-08	
16	-8.00000e-01	1.861803e-08	
17	-8.50000e-01	1.862661e-08	
18	-9.00000e-01	1.863495e-08	
19	-9.50000e-01	1.864308e-08	
20	-1.00000e+00	1.865104e-08	
21	-1.05000e+00	1.865884e-08	
22	-1.10000e+00	1.866650e-08	
23	-1.15000e+00	1.867404e-08	
24	-1.20000e+00	1.868147e-08	
25	-1.25000e+00	1.868879e-08	
26	-1.30000e+00	1.869602e-08	
27	-1.35000e+00	1.870317e-08	
28	-1.40000e+00	1.871023e-08	
29	-1.45000e+00	1.871723e-08	
30	-1.50000e+00	1.872415e-08	
31	-1.55000e+00	1.873101e-08	
32	-1.60000e+00	1.873781e-08	
33	-1.65000e+00	1.874456e-08	
34	-1.70000e+00	1.875125e-08	
35	-1.75000e+00	1.875789e-08	
36	-1.80000e+00	1.876449e-08	
37	-1.85000e+00	1.877104e-08	
38	-1.90000e+00	1.877755e-08	
39	-1.95000e+00	1.878403e-08	
40	-2.00000e+00	1.879046e-08	
41	-2.05000e+00	1.879686e-08	
42	-2.10000e+00	1.880322e-08	
43	-2.15000e+00	1.880955e-08	
44	-2.20000e+00	1.881585e-08	
45	-2.25000e+00	1.882212e-08	
46	-2.30000e+00	1.882837e-08	
47	-2.35000e+00	1.883458e-08	
48	-2.40000e+00	1.884077e-08	
49	-2.45000e+00	1.884694e-08	
50	-2.50000e+00	1.885308e-08	
51	-2.55000e+00	1.885919e-08	
52	-2.60000e+00	1.886529e-08	
53	-2.65000e+00	1.887136e-08	
54	-2.70000e+00	1.887742e-08	

Index   v-sweep         i(vds)          
--------------------------------------------------------------------------------
55	-2.75000e+00	1.888345e-08	
56	-2.80000e+00	1.888947e-08	
57	-2.85000e+00	1.889547e-08	
58	-2.90000e+00	1.890146e-08	
59	-2.95000e+00	1.890743e-08	
60	-3.00000e+00	1.891339e-08	
61	-3.05000e+00	1.891933e-08	
62	-3.10000e+00	1.892527e-08	
63	-3.15000e+00	1.893120e-08	
64	-3.20000e+00	1.893713e-08	
65	-3.25000e+00	1.894306e-08	
66	-3.30000e+00	1.894899e-08	
67	-3.35000e+00	1.895493e-08	
68	-3.40000e+00	1.896088e-08	
69	-3.45000e+00	1.896686e-08	
70	-3.50000e+00	1.897285e-08	
71	-3.55000e+00	1.897888e-08	
72	-3.60000e+00	1.898496e-08	
73	-3.65000e+00	1.899108e-08	
74	-3.70000e+00	1.899727e-08	
75	-3.75000e+00	1.900355e-08	
76	-3.80000e+00	1.900991e-08	
77	-3.85000e+00	1.901639e-08	
78	-3.90000e+00	1.902299e-08	
79	-3.95000e+00	1.902975e-08	
80	-4.00000e+00	1.903669e-08	
81	-4.05000e+00	1.904383e-08	
82	-4.10000e+00	1.905120e-08	
83	-4.15000e+00	1.905884e-08	
84	-4.20000e+00	1.906678e-08	
85	-4.25000e+00	1.907506e-08	
86	-4.30000e+00	1.908372e-08	
87	-4.35000e+00	1.909281e-08	
88	-4.40000e+00	1.910238e-08	
89	-4.45000e+00	1.911249e-08	
90	-4.50000e+00	1.912319e-08	
91	-4.55000e+00	1.913455e-08	
92	-4.60000e+00	1.914663e-08	
93	-4.65000e+00	1.915952e-08	
94	-4.70000e+00	1.917328e-08	
95	-4.75000e+00	1.918801e-08	
96	-4.80000e+00	1.920379e-08	
97	-4.85000e+00	1.922072e-08	
98	-4.90000e+00	1.923889e-08	
99	-4.95000e+00	1.925842e-08	
100	-5.00000e+00	1.927942e-08	
101	-5.05000e+00	1.930201e-08	
102	-5.10000e+00	1.932631e-08	
103	-5.15000e+00	1.935246e-08	
104	-5.20000e+00	1.938059e-08	
105	-5.25000e+00	1.941085e-08	
106	-5.30000e+00	1.944339e-08	
107	-5.35000e+00	1.947838e-08	
108	-5.40000e+00	1.951598e-08	
109	-5.45000e+00	1.955636e-08	
110	-5.50000e+00	1.959970e-08	
111	-5.55000e+00	1.964620e-08	
112	-5.60000e+00	1.969604e-08	

Index   v-sweep         i(vds)          
--------------------------------------------------------------------------------
113	-5.65000e+00	1.974944e-08	
114	-5.70000e+00	1.980659e-08	
115	-5.75000e+00	1.986772e-08	
116	-5.80000e+00	1.993305e-08	
117	-5.85000e+00	2.000282e-08	
118	-5.90000e+00	2.007726e-08	
119	-5.95000e+00	2.015662e-08	
120	-6.00000e+00	2.024116e-08	
121	-6.05000e+00	2.033113e-08	
122	-6.10000e+00	2.042681e-08	
123	-6.15000e+00	2.052847e-08	
124	-6.20000e+00	2.063640e-08	
125	-6.25000e+00	2.075088e-08	
126	-6.30000e+00	2.087221e-08	
127	-6.35000e+00	2.100069e-08	
128	-6.40000e+00	2.113665e-08	
129	-6.45000e+00	2.128039e-08	
130	-6.50000e+00	2.143224e-08	
131	-6.55000e+00	2.159254e-08	
132	-6.60000e+00	2.176161e-08	
133	0.000000e+00	1.078933e-22	
134	-5.00000e-02	1.221874e-07	
135	-1.00000e-01	2.364980e-07	
136	-1.50000e-01	3.429359e-07	
137	-2.00000e-01	4.415056e-07	
138	-2.50000e-01	5.322124e-07	
139	-3.00000e-01	6.150630e-07	
140	-3.50000e-01	6.900663e-07	
141	-4.00000e-01	7.572346e-07	
142	-4.50000e-01	8.165865e-07	
143	-5.00000e-01	8.681513e-07	
144	-5.50000e-01	9.119794e-07	
145	-6.00000e-01	9.481613e-07	
146	-6.50000e-01	9.768702e-07	
147	-7.00000e-01	9.984462e-07	
148	-7.50000e-01	1.013541e-06	
149	-8.00000e-01	1.023265e-06	
150	-8.50000e-01	1.029123e-06	
151	-9.00000e-01	1.032599e-06	
152	-9.50000e-01	1.034762e-06	
153	-1.00000e+00	1.036230e-06	
154	-1.05000e+00	1.037322e-06	
155	-1.10000e+00	1.038198e-06	
156	-1.15000e+00	1.038944e-06	
157	-1.20000e+00	1.039606e-06	
158	-1.25000e+00	1.040209e-06	
159	-1.30000e+00	1.040770e-06	
160	-1.35000e+00	1.041300e-06	
161	-1.40000e+00	1.041805e-06	
162	-1.45000e+00	1.042290e-06	
163	-1.50000e+00	1.042760e-06	
164	-1.55000e+00	1.043215e-06	
165	-1.60000e+00	1.043660e-06	
166	-1.65000e+00	1.044094e-06	
167	-1.70000e+00	1.044519e-06	
168	-1.75000e+00	1.044936e-06	
169	-1.80000e+00	1.045346e-06	
170	-1.85000e+00	1.045750e-06	

Index   v-sweep         i(vds)          
--------------------------------------------------------------------------------
171	-1.90000e+00	1.046149e-06	
172	-1.95000e+00	1.046542e-06	
173	-2.00000e+00	1.046930e-06	
174	-2.05000e+00	1.047314e-06	
175	-2.10000e+00	1.047693e-06	
176	-2.15000e+00	1.048069e-06	
177	-2.20000e+00	1.048442e-06	
178	-2.25000e+00	1.048810e-06	
179	-2.30000e+00	1.049176e-06	
180	-2.35000e+00	1.049539e-06	
181	-2.40000e+00	1.049899e-06	
182	-2.45000e+00	1.050257e-06	
183	-2.50000e+00	1.050612e-06	
184	-2.55000e+00	1.050965e-06	
185	-2.60000e+00	1.051315e-06	
186	-2.65000e+00	1.051664e-06	
187	-2.70000e+00	1.052010e-06	
188	-2.75000e+00	1.052355e-06	
189	-2.80000e+00	1.052698e-06	
190	-2.85000e+00	1.053039e-06	
191	-2.90000e+00	1.053378e-06	
192	-2.95000e+00	1.053716e-06	
193	-3.00000e+00	1.054052e-06	
194	-3.05000e+00	1.054387e-06	
195	-3.10000e+00	1.054721e-06	
196	-3.15000e+00	1.055053e-06	
197	-3.20000e+00	1.055384e-06	
198	-3.25000e+00	1.055713e-06	
199	-3.30000e+00	1.056042e-06	
200	-3.35000e+00	1.056369e-06	
201	-3.40000e+00	1.056695e-06	
202	-3.45000e+00	1.057021e-06	
203	-3.50000e+00	1.057345e-06	
204	-3.55000e+00	1.057668e-06	
205	-3.60000e+00	1.057991e-06	
206	-3.65000e+00	1.058313e-06	
207	-3.70000e+00	1.058634e-06	
208	-3.75000e+00	1.058955e-06	
209	-3.80000e+00	1.059275e-06	
210	-3.85000e+00	1.059595e-06	
211	-3.90000e+00	1.059915e-06	
212	-3.95000e+00	1.060235e-06	
213	-4.00000e+00	1.060555e-06	
214	-4.05000e+00	1.060875e-06	
215	-4.10000e+00	1.061197e-06	
216	-4.15000e+00	1.061519e-06	
217	-4.20000e+00	1.061844e-06	
218	-4.25000e+00	1.062170e-06	
219	-4.30000e+00	1.062499e-06	
220	-4.35000e+00	1.062831e-06	
221	-4.40000e+00	1.063166e-06	
222	-4.45000e+00	1.063507e-06	
223	-4.50000e+00	1.063853e-06	
224	-4.55000e+00	1.064205e-06	
225	-4.60000e+00	1.064566e-06	
226	-4.65000e+00	1.064935e-06	
227	-4.70000e+00	1.065314e-06	
228	-4.75000e+00	1.065705e-06	

Index   v-sweep         i(vds)          
--------------------------------------------------------------------------------
229	-4.80000e+00	1.066110e-06	
230	-4.85000e+00	1.066530e-06	
231	-4.90000e+00	1.066967e-06	
232	-4.95000e+00	1.067424e-06	
233	-5.00000e+00	1.067903e-06	
234	-5.05000e+00	1.068407e-06	
235	-5.10000e+00	1.068939e-06	
236	-5.15000e+00	1.069501e-06	
237	-5.20000e+00	1.070097e-06	
238	-5.25000e+00	1.070732e-06	
239	-5.30000e+00	1.071408e-06	
240	-5.35000e+00	1.072130e-06	
241	-5.40000e+00	1.072902e-06	
242	-5.45000e+00	1.073729e-06	
243	-5.50000e+00	1.074617e-06	
244	-5.55000e+00	1.075570e-06	
245	-5.60000e+00	1.076595e-06	
246	-5.65000e+00	1.077697e-06	
247	-5.70000e+00	1.078882e-06	
248	-5.75000e+00	1.080159e-06	
249	-5.80000e+00	1.081533e-06	
250	-5.85000e+00	1.083013e-06	
251	-5.90000e+00	1.084605e-06	
252	-5.95000e+00	1.086319e-06	
253	-6.00000e+00	1.088163e-06	
254	-6.05000e+00	1.090146e-06	
255	-6.10000e+00	1.092277e-06	
256	-6.15000e+00	1.094566e-06	
257	-6.20000e+00	1.097024e-06	
258	-6.25000e+00	1.099661e-06	
259	-6.30000e+00	1.102489e-06	
260	-6.35000e+00	1.105517e-06	
261	-6.40000e+00	1.108759e-06	
262	-6.45000e+00	1.112227e-06	
263	-6.50000e+00	1.115933e-06	
264	-6.55000e+00	1.119890e-06	
265	-6.60000e+00	1.124113e-06	
266	0.000000e+00	-7.38575e-22	
267	-5.00000e-02	2.182730e-07	
268	-1.00000e-01	4.292100e-07	
269	-1.50000e-01	6.328136e-07	
270	-2.00000e-01	8.290860e-07	
271	-2.50000e-01	1.018030e-06	
272	-3.00000e-01	1.199647e-06	
273	-3.50000e-01	1.373941e-06	
274	-4.00000e-01	1.540913e-06	
275	-4.50000e-01	1.700567e-06	
276	-5.00000e-01	1.852905e-06	
277	-5.50000e-01	1.997930e-06	
278	-6.00000e-01	2.135646e-06	
279	-6.50000e-01	2.266056e-06	
280	-7.00000e-01	2.389164e-06	
281	-7.50000e-01	2.504975e-06	
282	-8.00000e-01	2.613493e-06	
283	-8.50000e-01	2.714724e-06	
284	-9.00000e-01	2.808678e-06	
285	-9.50000e-01	2.895362e-06	
286	-1.00000e+00	2.974791e-06	

Index   v-sweep         i(vds)          
--------------------------------------------------------------------------------
287	-1.05000e+00	3.046983e-06	
288	-1.10000e+00	3.111962e-06	
289	-1.15000e+00	3.169767e-06	
290	-1.20000e+00	3.220455e-06	
291	-1.25000e+00	3.264118e-06	
292	-1.30000e+00	3.300900e-06	
293	-1.35000e+00	3.331040e-06	
294	-1.40000e+00	3.354922e-06	
295	-1.45000e+00	3.373143e-06	
296	-1.50000e+00	3.386541e-06	
297	-1.55000e+00	3.396145e-06	
298	-1.60000e+00	3.403011e-06	
299	-1.65000e+00	3.408037e-06	
300	-1.70000e+00	3.411880e-06	
301	-1.75000e+00	3.414971e-06	
302	-1.80000e+00	3.417576e-06	
303	-1.85000e+00	3.419859e-06	
304	-1.90000e+00	3.421919e-06	
305	-1.95000e+00	3.423820e-06	
306	-2.00000e+00	3.425603e-06	
307	-2.05000e+00	3.427294e-06	
308	-2.10000e+00	3.428914e-06	
309	-2.15000e+00	3.430474e-06	
310	-2.20000e+00	3.431986e-06	
311	-2.25000e+00	3.433457e-06	
312	-2.30000e+00	3.434893e-06	
313	-2.35000e+00	3.436298e-06	
314	-2.40000e+00	3.437676e-06	
315	-2.45000e+00	3.439029e-06	
316	-2.50000e+00	3.440361e-06	
317	-2.55000e+00	3.441673e-06	
318	-2.60000e+00	3.442968e-06	
319	-2.65000e+00	3.444246e-06	
320	-2.70000e+00	3.445509e-06	
321	-2.75000e+00	3.446758e-06	
322	-2.80000e+00	3.447994e-06	
323	-2.85000e+00	3.449218e-06	
324	-2.90000e+00	3.450432e-06	
325	-2.95000e+00	3.451634e-06	
326	-3.00000e+00	3.452827e-06	
327	-3.05000e+00	3.454011e-06	
328	-3.10000e+00	3.455186e-06	
329	-3.15000e+00	3.456353e-06	
330	-3.20000e+00	3.457512e-06	
331	-3.25000e+00	3.458664e-06	
332	-3.30000e+00	3.459809e-06	
333	-3.35000e+00	3.460947e-06	
334	-3.40000e+00	3.462079e-06	
335	-3.45000e+00	3.463204e-06	
336	-3.50000e+00	3.464324e-06	
337	-3.55000e+00	3.465439e-06	
338	-3.60000e+00	3.466548e-06	
339	-3.65000e+00	3.467653e-06	
340	-3.70000e+00	3.468752e-06	
341	-3.75000e+00	3.469847e-06	
342	-3.80000e+00	3.470938e-06	
343	-3.85000e+00	3.472024e-06	
344	-3.90000e+00	3.473106e-06	

Index   v-sweep         i(vds)          
--------------------------------------------------------------------------------
345	-3.95000e+00	3.474184e-06	
346	-4.00000e+00	3.475259e-06	
347	-4.05000e+00	3.476330e-06	
348	-4.10000e+00	3.477397e-06	
349	-4.15000e+00	3.478462e-06	
350	-4.20000e+00	3.479523e-06	
351	-4.25000e+00	3.480581e-06	
352	-4.30000e+00	3.481637e-06	
353	-4.35000e+00	3.482690e-06	
354	-4.40000e+00	3.483742e-06	
355	-4.45000e+00	3.484791e-06	
356	-4.50000e+00	3.485839e-06	
357	-4.55000e+00	3.486887e-06	
358	-4.60000e+00	3.487933e-06	
359	-4.65000e+00	3.488980e-06	
360	-4.70000e+00	3.490028e-06	
361	-4.75000e+00	3.491077e-06	
362	-4.80000e+00	3.492129e-06	
363	-4.85000e+00	3.493185e-06	
364	-4.90000e+00	3.494246e-06	
365	-4.95000e+00	3.495313e-06	
366	-5.00000e+00	3.496388e-06	
367	-5.05000e+00	3.497474e-06	
368	-5.10000e+00	3.498572e-06	
369	-5.15000e+00	3.499685e-06	
370	-5.20000e+00	3.500815e-06	
371	-5.25000e+00	3.501967e-06	
372	-5.30000e+00	3.503143e-06	
373	-5.35000e+00	3.504348e-06	
374	-5.40000e+00	3.505585e-06	
375	-5.45000e+00	3.506861e-06	
376	-5.50000e+00	3.508180e-06	
377	-5.55000e+00	3.509549e-06	
378	-5.60000e+00	3.510974e-06	
379	-5.65000e+00	3.512462e-06	
380	-5.70000e+00	3.514022e-06	
381	-5.75000e+00	3.515662e-06	
382	-5.80000e+00	3.517391e-06	
383	-5.85000e+00	3.519219e-06	
384	-5.90000e+00	3.521158e-06	
385	-5.95000e+00	3.523220e-06	
386	-6.00000e+00	3.525416e-06	
387	-6.05000e+00	3.527761e-06	
388	-6.10000e+00	3.530269e-06	
389	-6.15000e+00	3.532956e-06	
390	-6.20000e+00	3.535838e-06	
391	-6.25000e+00	3.538932e-06	
392	-6.30000e+00	3.542259e-06	
393	-6.35000e+00	3.545836e-06	
394	-6.40000e+00	3.549686e-06	
395	-6.45000e+00	3.553830e-06	
396	-6.50000e+00	3.558291e-06	
397	-6.55000e+00	3.563094e-06	
398	-6.60000e+00	3.568265e-06	
399	0.000000e+00	5.657319e-22	
400	-5.00000e-02	3.002460e-07	
401	-1.00000e-01	5.937169e-07	
402	-1.50000e-01	8.804145e-07	

Index   v-sweep         i(vds)          
--------------------------------------------------------------------------------
403	-2.00000e-01	1.160341e-06	
404	-2.50000e-01	1.433498e-06	
405	-3.00000e-01	1.699887e-06	
406	-3.50000e-01	1.959511e-06	
407	-4.00000e-01	2.212372e-06	
408	-4.50000e-01	2.458471e-06	
409	-5.00000e-01	2.697811e-06	
410	-5.50000e-01	2.930394e-06	
411	-6.00000e-01	3.156220e-06	
412	-6.50000e-01	3.375294e-06	
413	-7.00000e-01	3.587617e-06	
414	-7.50000e-01	3.793190e-06	
415	-8.00000e-01	3.992016e-06	
416	-8.50000e-01	4.184098e-06	
417	-9.00000e-01	4.369437e-06	
418	-9.50000e-01	4.548036e-06	
419	-1.00000e+00	4.719898e-06	
420	-1.05000e+00	4.885025e-06	
421	-1.10000e+00	5.043419e-06	
422	-1.15000e+00	5.195084e-06	
423	-1.20000e+00	5.340023e-06	
424	-1.25000e+00	5.478239e-06	
425	-1.30000e+00	5.609736e-06	
426	-1.35000e+00	5.734518e-06	
427	-1.40000e+00	5.852590e-06	
428	-1.45000e+00	5.963959e-06	
429	-1.50000e+00	6.068630e-06	
430	-1.55000e+00	6.166613e-06	
431	-1.60000e+00	6.257918e-06	
432	-1.65000e+00	6.342559e-06	
433	-1.70000e+00	6.420554e-06	
434	-1.75000e+00	6.491927e-06	
435	-1.80000e+00	6.556712e-06	
436	-1.85000e+00	6.614956e-06	
437	-1.90000e+00	6.666729e-06	
438	-1.95000e+00	6.712131e-06	
439	-2.00000e+00	6.751311e-06	
440	-2.05000e+00	6.784492e-06	
441	-2.10000e+00	6.812002e-06	
442	-2.15000e+00	6.834302e-06	
443	-2.20000e+00	6.852009e-06	
444	-2.25000e+00	6.865873e-06	
445	-2.30000e+00	6.876701e-06	
446	-2.35000e+00	6.885258e-06	
447	-2.40000e+00	6.892190e-06	
448	-2.45000e+00	6.897985e-06	
449	-2.50000e+00	6.902988e-06	
450	-2.55000e+00	6.907436e-06	
451	-2.60000e+00	6.911484e-06	
452	-2.65000e+00	6.915239e-06	
453	-2.70000e+00	6.918772e-06	
454	-2.75000e+00	6.922132e-06	
455	-2.80000e+00	6.925354e-06	
456	-2.85000e+00	6.928463e-06	
457	-2.90000e+00	6.931479e-06	
458	-2.95000e+00	6.934415e-06	
459	-3.00000e+00	6.937283e-06	
460	-3.05000e+00	6.940091e-06	

Index   v-sweep         i(vds)          
--------------------------------------------------------------------------------
461	-3.10000e+00	6.942846e-06	
462	-3.15000e+00	6.945555e-06	
463	-3.20000e+00	6.948221e-06	
464	-3.25000e+00	6.950849e-06	
465	-3.30000e+00	6.953442e-06	
466	-3.35000e+00	6.956004e-06	
467	-3.40000e+00	6.958536e-06	
468	-3.45000e+00	6.961041e-06	
469	-3.50000e+00	6.963521e-06	
470	-3.55000e+00	6.965977e-06	
471	-3.60000e+00	6.968412e-06	
472	-3.65000e+00	6.970827e-06	
473	-3.70000e+00	6.973222e-06	
474	-3.75000e+00	6.975599e-06	
475	-3.80000e+00	6.977959e-06	
476	-3.85000e+00	6.980303e-06	
477	-3.90000e+00	6.982632e-06	
478	-3.95000e+00	6.984946e-06	
479	-4.00000e+00	6.987247e-06	
480	-4.05000e+00	6.989534e-06	
481	-4.10000e+00	6.991810e-06	
482	-4.15000e+00	6.994073e-06	
483	-4.20000e+00	6.996325e-06	
484	-4.25000e+00	6.998566e-06	
485	-4.30000e+00	7.000797e-06	
486	-4.35000e+00	7.003018e-06	
487	-4.40000e+00	7.005230e-06	
488	-4.45000e+00	7.007432e-06	
489	-4.50000e+00	7.009626e-06	
490	-4.55000e+00	7.011811e-06	
491	-4.60000e+00	7.013988e-06	
492	-4.65000e+00	7.016158e-06	
493	-4.70000e+00	7.018320e-06	
494	-4.75000e+00	7.020475e-06	
495	-4.80000e+00	7.022623e-06	
496	-4.85000e+00	7.024765e-06	
497	-4.90000e+00	7.026901e-06	
498	-4.95000e+00	7.029031e-06	
499	-5.00000e+00	7.031156e-06	
500	-5.05000e+00	7.033276e-06	
501	-5.10000e+00	7.035391e-06	
502	-5.15000e+00	7.037503e-06	
503	-5.20000e+00	7.039612e-06	
504	-5.25000e+00	7.041719e-06	
505	-5.30000e+00	7.043824e-06	
506	-5.35000e+00	7.045930e-06	
507	-5.40000e+00	7.048036e-06	
508	-5.45000e+00	7.050145e-06	
509	-5.50000e+00	7.052259e-06	
510	-5.55000e+00	7.054379e-06	
511	-5.60000e+00	7.056509e-06	
512	-5.65000e+00	7.058650e-06	
513	-5.70000e+00	7.060806e-06	
514	-5.75000e+00	7.062981e-06	
515	-5.80000e+00	7.065179e-06	
516	-5.85000e+00	7.067405e-06	
517	-5.90000e+00	7.069663e-06	
518	-5.95000e+00	7.071961e-06	

Index   v-sweep         i(vds)          
--------------------------------------------------------------------------------
519	-6.00000e+00	7.074306e-06	
520	-6.05000e+00	7.076704e-06	
521	-6.10000e+00	7.079164e-06	
522	-6.15000e+00	7.081697e-06	
523	-6.20000e+00	7.084312e-06	
524	-6.25000e+00	7.087021e-06	
525	-6.30000e+00	7.089837e-06	
526	-6.35000e+00	7.092774e-06	
527	-6.40000e+00	7.095848e-06	
528	-6.45000e+00	7.099075e-06	
529	-6.50000e+00	7.102473e-06	
530	-6.55000e+00	7.106062e-06	
531	-6.60000e+00	7.109864e-06	
532	0.000000e+00	1.749654e-21	
533	-5.00000e-02	3.708823e-07	
534	-1.00000e-01	7.355009e-07	
535	-1.50000e-01	1.093858e-06	
536	-2.00000e-01	1.445954e-06	
537	-2.50000e-01	1.791792e-06	
538	-3.00000e-01	2.131374e-06	
539	-3.50000e-01	2.464700e-06	
540	-4.00000e-01	2.791773e-06	
541	-4.50000e-01	3.112594e-06	
542	-5.00000e-01	3.427165e-06	
543	-5.50000e-01	3.735489e-06	
544	-6.00000e-01	4.037565e-06	
545	-6.50000e-01	4.333397e-06	
546	-7.00000e-01	4.622985e-06	
547	-7.50000e-01	4.906332e-06	
548	-8.00000e-01	5.183440e-06	
549	-8.50000e-01	5.454310e-06	
550	-9.00000e-01	5.718943e-06	
551	-9.50000e-01	5.977343e-06	
552	-1.00000e+00	6.229509e-06	
553	-1.05000e+00	6.475445e-06	
554	-1.10000e+00	6.715152e-06	
555	-1.15000e+00	6.948632e-06	
556	-1.20000e+00	7.175886e-06	
557	-1.25000e+00	7.396918e-06	
558	-1.30000e+00	7.611727e-06	
559	-1.35000e+00	7.820318e-06	
560	-1.40000e+00	8.022690e-06	
561	-1.45000e+00	8.218848e-06	
562	-1.50000e+00	8.408792e-06	
563	-1.55000e+00	8.592525e-06	
564	-1.60000e+00	8.770049e-06	
565	-1.65000e+00	8.941366e-06	
566	-1.70000e+00	9.106480e-06	
567	-1.75000e+00	9.265393e-06	
568	-1.80000e+00	9.418107e-06	
569	-1.85000e+00	9.564626e-06	
570	-1.90000e+00	9.704953e-06	
571	-1.95000e+00	9.839093e-06	
572	-2.00000e+00	9.967048e-06	
573	-2.05000e+00	1.008883e-05	
574	-2.10000e+00	1.020443e-05	
575	-2.15000e+00	1.031387e-05	
576	-2.20000e+00	1.041715e-05	

Index   v-sweep         i(vds)          
--------------------------------------------------------------------------------
577	-2.25000e+00	1.051428e-05	
578	-2.30000e+00	1.060527e-05	
579	-2.35000e+00	1.069015e-05	
580	-2.40000e+00	1.076892e-05	
581	-2.45000e+00	1.084162e-05	
582	-2.50000e+00	1.090828e-05	
583	-2.55000e+00	1.096895e-05	
584	-2.60000e+00	1.102369e-05	
585	-2.65000e+00	1.107260e-05	
586	-2.70000e+00	1.111580e-05	
587	-2.75000e+00	1.115346e-05	
588	-2.80000e+00	1.118584e-05	
589	-2.85000e+00	1.121328e-05	
590	-2.90000e+00	1.123621e-05	
591	-2.95000e+00	1.125519e-05	
592	-3.00000e+00	1.127082e-05	
593	-3.05000e+00	1.128375e-05	
594	-3.10000e+00	1.129459e-05	
595	-3.15000e+00	1.130386e-05	
596	-3.20000e+00	1.131196e-05	
597	-3.25000e+00	1.131920e-05	
598	-3.30000e+00	1.132581e-05	
599	-3.35000e+00	1.133194e-05	
600	-3.40000e+00	1.133771e-05	
601	-3.45000e+00	1.134319e-05	
602	-3.50000e+00	1.134845e-05	
603	-3.55000e+00	1.135353e-05	
604	-3.60000e+00	1.135845e-05	
605	-3.65000e+00	1.136324e-05	
606	-3.70000e+00	1.136791e-05	
607	-3.75000e+00	1.137249e-05	
608	-3.80000e+00	1.137699e-05	
609	-3.85000e+00	1.138141e-05	
610	-3.90000e+00	1.138576e-05	
611	-3.95000e+00	1.139005e-05	
612	-4.00000e+00	1.139428e-05	
613	-4.05000e+00	1.139846e-05	
614	-4.10000e+00	1.140260e-05	
615	-4.15000e+00	1.140669e-05	
616	-4.20000e+00	1.141073e-05	
617	-4.25000e+00	1.141475e-05	
618	-4.30000e+00	1.141872e-05	
619	-4.35000e+00	1.142267e-05	
620	-4.40000e+00	1.142658e-05	
621	-4.45000e+00	1.143046e-05	
622	-4.50000e+00	1.143432e-05	
623	-4.55000e+00	1.143815e-05	
624	-4.60000e+00	1.144195e-05	
625	-4.65000e+00	1.144574e-05	
626	-4.70000e+00	1.144950e-05	
627	-4.75000e+00	1.145323e-05	
628	-4.80000e+00	1.145695e-05	
629	-4.85000e+00	1.146065e-05	
630	-4.90000e+00	1.146433e-05	
631	-4.95000e+00	1.146800e-05	
632	-5.00000e+00	1.147164e-05	
633	-5.05000e+00	1.147528e-05	
634	-5.10000e+00	1.147889e-05	

Index   v-sweep         i(vds)          
--------------------------------------------------------------------------------
635	-5.15000e+00	1.148249e-05	
636	-5.20000e+00	1.148608e-05	
637	-5.25000e+00	1.148965e-05	
638	-5.30000e+00	1.149321e-05	
639	-5.35000e+00	1.149676e-05	
640	-5.40000e+00	1.150029e-05	
641	-5.45000e+00	1.150382e-05	
642	-5.50000e+00	1.150733e-05	
643	-5.55000e+00	1.151083e-05	
644	-5.60000e+00	1.151433e-05	
645	-5.65000e+00	1.151781e-05	
646	-5.70000e+00	1.152128e-05	
647	-5.75000e+00	1.152475e-05	
648	-5.80000e+00	1.152821e-05	
649	-5.85000e+00	1.153166e-05	
650	-5.90000e+00	1.153511e-05	
651	-5.95000e+00	1.153855e-05	
652	-6.00000e+00	1.154199e-05	
653	-6.05000e+00	1.154543e-05	
654	-6.10000e+00	1.154886e-05	
655	-6.15000e+00	1.155230e-05	
656	-6.20000e+00	1.155575e-05	
657	-6.25000e+00	1.155920e-05	
658	-6.30000e+00	1.156267e-05	
659	-6.35000e+00	1.156615e-05	
660	-6.40000e+00	1.156966e-05	
661	-6.45000e+00	1.157318e-05	
662	-6.50000e+00	1.157674e-05	
663	-6.55000e+00	1.158034e-05	
664	-6.60000e+00	1.158399e-05	
665	0.000000e+00	3.261334e-21	
666	-5.00000e-02	4.323036e-07	
667	-1.00000e-01	8.588016e-07	
668	-1.50000e-01	1.279496e-06	
669	-2.00000e-01	1.694387e-06	
670	-2.50000e-01	2.103478e-06	
671	-3.00000e-01	2.506769e-06	
672	-3.50000e-01	2.904263e-06	
673	-4.00000e-01	3.295959e-06	
674	-4.50000e-01	3.681861e-06	
675	-5.00000e-01	4.061970e-06	
676	-5.50000e-01	4.436286e-06	
677	-6.00000e-01	4.804813e-06	
678	-6.50000e-01	5.167550e-06	
679	-7.00000e-01	5.524500e-06	
680	-7.50000e-01	5.875664e-06	
681	-8.00000e-01	6.221044e-06	
682	-8.50000e-01	6.560640e-06	
683	-9.00000e-01	6.894456e-06	
684	-9.50000e-01	7.222492e-06	
685	-1.00000e+00	7.544749e-06	
686	-1.05000e+00	7.861230e-06	
687	-1.10000e+00	8.171935e-06	
688	-1.15000e+00	8.476867e-06	
689	-1.20000e+00	8.776027e-06	
690	-1.25000e+00	9.069416e-06	
691	-1.30000e+00	9.357036e-06	
692	-1.35000e+00	9.638888e-06	

Index   v-sweep         i(vds)          
--------------------------------------------------------------------------------
693	-1.40000e+00	9.914975e-06	
694	-1.45000e+00	1.018530e-05	
695	-1.50000e+00	1.044986e-05	
696	-1.55000e+00	1.070865e-05	
697	-1.60000e+00	1.096169e-05	
698	-1.65000e+00	1.120897e-05	
699	-1.70000e+00	1.145050e-05	
700	-1.75000e+00	1.168627e-05	
701	-1.80000e+00	1.191629e-05	
702	-1.85000e+00	1.214055e-05	
703	-1.90000e+00	1.235907e-05	
704	-1.95000e+00	1.257184e-05	
705	-2.00000e+00	1.277886e-05	
706	-2.05000e+00	1.298014e-05	
707	-2.10000e+00	1.317568e-05	
708	-2.15000e+00	1.336547e-05	
709	-2.20000e+00	1.354953e-05	
710	-2.25000e+00	1.372786e-05	
711	-2.30000e+00	1.390045e-05	
712	-2.35000e+00	1.406731e-05	
713	-2.40000e+00	1.422844e-05	
714	-2.45000e+00	1.438384e-05	
715	-2.50000e+00	1.453353e-05	
716	-2.55000e+00	1.467749e-05	
717	-2.60000e+00	1.481574e-05	
718	-2.65000e+00	1.494827e-05	
719	-2.70000e+00	1.507510e-05	
720	-2.75000e+00	1.519623e-05	
721	-2.80000e+00	1.531166e-05	
722	-2.85000e+00	1.542140e-05	
723	-2.90000e+00	1.552546e-05	
724	-2.95000e+00	1.562386e-05	
725	-3.00000e+00	1.571659e-05	
726	-3.05000e+00	1.580368e-05	
727	-3.10000e+00	1.588515e-05	
728	-3.15000e+00	1.596101e-05	
729	-3.20000e+00	1.603131e-05	
730	-3.25000e+00	1.609608e-05	
731	-3.30000e+00	1.615538e-05	
732	-3.35000e+00	1.620928e-05	
733	-3.40000e+00	1.625788e-05	
734	-3.45000e+00	1.630130e-05	
735	-3.50000e+00	1.633973e-05	
736	-3.55000e+00	1.637339e-05	
737	-3.60000e+00	1.640259e-05	
738	-3.65000e+00	1.642772e-05	
739	-3.70000e+00	1.644922e-05	
740	-3.75000e+00	1.646759e-05	
741	-3.80000e+00	1.648338e-05	
742	-3.85000e+00	1.649707e-05	
743	-3.90000e+00	1.650914e-05	
744	-3.95000e+00	1.651994e-05	
745	-4.00000e+00	1.652978e-05	
746	-4.05000e+00	1.653889e-05	
747	-4.10000e+00	1.654742e-05	
748	-4.15000e+00	1.655551e-05	
749	-4.20000e+00	1.656325e-05	
750	-4.25000e+00	1.657070e-05	

Index   v-sweep         i(vds)          
--------------------------------------------------------------------------------
751	-4.30000e+00	1.657791e-05	
752	-4.35000e+00	1.658492e-05	
753	-4.40000e+00	1.659177e-05	
754	-4.45000e+00	1.659846e-05	
755	-4.50000e+00	1.660503e-05	
756	-4.55000e+00	1.661148e-05	
757	-4.60000e+00	1.661784e-05	
758	-4.65000e+00	1.662410e-05	
759	-4.70000e+00	1.663027e-05	
760	-4.75000e+00	1.663637e-05	
761	-4.80000e+00	1.664241e-05	
762	-4.85000e+00	1.664837e-05	
763	-4.90000e+00	1.665428e-05	
764	-4.95000e+00	1.666014e-05	
765	-5.00000e+00	1.666594e-05	
766	-5.05000e+00	1.667169e-05	
767	-5.10000e+00	1.667740e-05	
768	-5.15000e+00	1.668306e-05	
769	-5.20000e+00	1.668869e-05	
770	-5.25000e+00	1.669427e-05	
771	-5.30000e+00	1.669982e-05	
772	-5.35000e+00	1.670534e-05	
773	-5.40000e+00	1.671082e-05	
774	-5.45000e+00	1.671628e-05	
775	-5.50000e+00	1.672170e-05	
776	-5.55000e+00	1.672710e-05	
777	-5.60000e+00	1.673247e-05	
778	-5.65000e+00	1.673781e-05	
779	-5.70000e+00	1.674313e-05	
780	-5.75000e+00	1.674843e-05	
781	-5.80000e+00	1.675370e-05	
782	-5.85000e+00	1.675895e-05	
783	-5.90000e+00	1.676419e-05	
784	-5.95000e+00	1.676940e-05	
785	-6.00000e+00	1.677459e-05	
786	-6.05000e+00	1.677977e-05	
787	-6.10000e+00	1.678492e-05	
788	-6.15000e+00	1.679006e-05	
789	-6.20000e+00	1.679519e-05	
790	-6.25000e+00	1.680029e-05	
791	-6.30000e+00	1.680539e-05	
792	-6.35000e+00	1.681047e-05	
793	-6.40000e+00	1.681553e-05	
794	-6.45000e+00	1.682059e-05	
795	-6.50000e+00	1.682563e-05	
796	-6.55000e+00	1.683066e-05	
797	-6.60000e+00	1.683568e-05	
Note: No ".plot", ".print", or ".fourier" lines; no simulations run
