
Note: Compatibility modes selected: hs

Warning: m=xx on .subckt line will override multiplier m hierarchy!


Circuit: ***************************

Doing analysis at TEMP = 125.000000 and TNOM = 125.000000


No. of Data Rows : 798
                          ***************************
                          DC transfer characteristic  Mon Jan  9 13:58:51  2023
--------------------------------------------------------------------------------
Index   v-sweep         i(vds)          
--------------------------------------------------------------------------------
0	0.000000e+00	-3.67056e-26	
1	-5.00000e-02	5.097272e-06	
2	-1.00000e-01	9.132783e-06	
3	-1.50000e-01	1.218956e-05	
4	-2.00000e-01	1.431590e-05	
5	-2.50000e-01	1.560298e-05	
6	-3.00000e-01	1.626339e-05	
7	-3.50000e-01	1.659587e-05	
8	-4.00000e-01	1.680325e-05	
9	-4.50000e-01	1.696440e-05	
10	-5.00000e-01	1.710499e-05	
11	-5.50000e-01	1.723420e-05	
12	-6.00000e-01	1.735590e-05	
13	-6.50000e-01	1.747203e-05	
14	-7.00000e-01	1.758372e-05	
15	-7.50000e-01	1.769170e-05	
16	-8.00000e-01	1.779649e-05	
17	-8.50000e-01	1.789849e-05	
18	-9.00000e-01	1.799801e-05	
19	-9.50000e-01	1.809529e-05	
20	-1.00000e+00	1.819056e-05	
21	-1.05000e+00	1.828400e-05	
22	-1.10000e+00	1.837576e-05	
23	-1.15000e+00	1.846598e-05	
24	-1.20000e+00	1.855477e-05	
25	-1.25000e+00	1.864226e-05	
26	-1.30000e+00	1.872853e-05	
27	-1.35000e+00	1.881367e-05	
28	-1.40000e+00	1.889776e-05	
29	-1.45000e+00	1.898086e-05	
30	-1.50000e+00	1.906305e-05	
31	-1.55000e+00	1.914437e-05	
32	-1.60000e+00	1.922489e-05	
33	-1.65000e+00	1.930465e-05	
34	-1.70000e+00	1.938369e-05	
35	-1.75000e+00	1.946206e-05	
36	-1.80000e+00	1.953979e-05	
37	-1.85000e+00	1.961693e-05	
38	-1.90000e+00	1.969350e-05	
39	-1.95000e+00	1.976953e-05	
40	-2.00000e+00	1.984505e-05	
41	-2.05000e+00	1.992009e-05	
42	-2.10000e+00	1.999468e-05	
43	-2.15000e+00	2.006883e-05	
44	-2.20000e+00	2.014257e-05	
45	-2.25000e+00	2.021592e-05	
46	-2.30000e+00	2.028890e-05	
47	-2.35000e+00	2.036152e-05	
48	-2.40000e+00	2.043380e-05	
49	-2.45000e+00	2.050576e-05	
50	-2.50000e+00	2.057742e-05	
51	-2.55000e+00	2.064878e-05	
52	-2.60000e+00	2.071986e-05	
53	-2.65000e+00	2.079068e-05	
54	-2.70000e+00	2.086124e-05	

Index   v-sweep         i(vds)          
--------------------------------------------------------------------------------
55	-2.75000e+00	2.093156e-05	
56	-2.80000e+00	2.100165e-05	
57	-2.85000e+00	2.107152e-05	
58	-2.90000e+00	2.114117e-05	
59	-2.95000e+00	2.121063e-05	
60	-3.00000e+00	2.127989e-05	
61	-3.05000e+00	2.134898e-05	
62	-3.10000e+00	2.141788e-05	
63	-3.15000e+00	2.148663e-05	
64	-3.20000e+00	2.155521e-05	
65	-3.25000e+00	2.162365e-05	
66	-3.30000e+00	2.169196e-05	
67	-3.35000e+00	2.176013e-05	
68	-3.40000e+00	2.182819e-05	
69	-3.45000e+00	2.189613e-05	
70	-3.50000e+00	2.196398e-05	
71	-3.55000e+00	2.203173e-05	
72	-3.60000e+00	2.209942e-05	
73	-3.65000e+00	2.216703e-05	
74	-3.70000e+00	2.223461e-05	
75	-3.75000e+00	2.230214e-05	
76	-3.80000e+00	2.236966e-05	
77	-3.85000e+00	2.243719e-05	
78	-3.90000e+00	2.250473e-05	
79	-3.95000e+00	2.257233e-05	
80	-4.00000e+00	2.263999e-05	
81	-4.05000e+00	2.270775e-05	
82	-4.10000e+00	2.277564e-05	
83	-4.15000e+00	2.284370e-05	
84	-4.20000e+00	2.291196e-05	
85	-4.25000e+00	2.298046e-05	
86	-4.30000e+00	2.304924e-05	
87	-4.35000e+00	2.311837e-05	
88	-4.40000e+00	2.318788e-05	
89	-4.45000e+00	2.325784e-05	
90	-4.50000e+00	2.332831e-05	
91	-4.55000e+00	2.339937e-05	
92	-4.60000e+00	2.347109e-05	
93	-4.65000e+00	2.354354e-05	
94	-4.70000e+00	2.361683e-05	
95	-4.75000e+00	2.369103e-05	
96	-4.80000e+00	2.376626e-05	
97	-4.85000e+00	2.384262e-05	
98	-4.90000e+00	2.392024e-05	
99	-4.95000e+00	2.399923e-05	
100	-5.00000e+00	2.407973e-05	
101	-5.05000e+00	2.416188e-05	
102	-5.10000e+00	2.424584e-05	
103	-5.15000e+00	2.433175e-05	
104	-5.20000e+00	2.441981e-05	
105	-5.25000e+00	2.451017e-05	
106	-5.30000e+00	2.460304e-05	
107	-5.35000e+00	2.469861e-05	
108	-5.40000e+00	2.479710e-05	
109	-5.45000e+00	2.489872e-05	
110	-5.50000e+00	2.500371e-05	
111	-5.55000e+00	2.511231e-05	
112	-5.60000e+00	2.522478e-05	

Index   v-sweep         i(vds)          
--------------------------------------------------------------------------------
113	-5.65000e+00	2.534139e-05	
114	-5.70000e+00	2.546241e-05	
115	-5.75000e+00	2.558814e-05	
116	-5.80000e+00	2.571888e-05	
117	-5.85000e+00	2.585494e-05	
118	-5.90000e+00	2.599666e-05	
119	-5.95000e+00	2.614437e-05	
120	-6.00000e+00	2.629843e-05	
121	-6.05000e+00	2.645921e-05	
122	-6.10000e+00	2.662708e-05	
123	-6.15000e+00	2.680245e-05	
124	-6.20000e+00	2.698570e-05	
125	-6.25000e+00	2.717728e-05	
126	-6.30000e+00	2.737759e-05	
127	-6.35000e+00	2.758711e-05	
128	-6.40000e+00	2.780627e-05	
129	-6.45000e+00	2.803556e-05	
130	-6.50000e+00	2.827546e-05	
131	-6.55000e+00	2.852647e-05	
132	-6.60000e+00	2.878911e-05	
133	0.000000e+00	-4.66497e-25	
134	-5.00000e-02	2.101499e-05	
135	-1.00000e-01	4.093023e-05	
136	-1.50000e-01	5.981471e-05	
137	-2.00000e-01	7.768799e-05	
138	-2.50000e-01	9.455768e-05	
139	-3.00000e-01	1.104285e-04	
140	-3.50000e-01	1.253047e-04	
141	-4.00000e-01	1.391901e-04	
142	-4.50000e-01	1.520890e-04	
143	-5.00000e-01	1.640056e-04	
144	-5.50000e-01	1.749446e-04	
145	-6.00000e-01	1.849110e-04	
146	-6.50000e-01	1.939109e-04	
147	-7.00000e-01	2.019514e-04	
148	-7.50000e-01	2.090423e-04	
149	-8.00000e-01	2.151978e-04	
150	-8.50000e-01	2.204402e-04	
151	-9.00000e-01	2.248072e-04	
152	-9.50000e-01	2.283627e-04	
153	-1.00000e+00	2.312096e-04	
154	-1.05000e+00	2.334897e-04	
155	-1.10000e+00	2.353589e-04	
156	-1.15000e+00	2.369501e-04	
157	-1.20000e+00	2.383552e-04	
158	-1.25000e+00	2.396310e-04	
159	-1.30000e+00	2.408112e-04	
160	-1.35000e+00	2.419167e-04	
161	-1.40000e+00	2.429610e-04	
162	-1.45000e+00	2.439537e-04	
163	-1.50000e+00	2.449017e-04	
164	-1.55000e+00	2.458105e-04	
165	-1.60000e+00	2.466844e-04	
166	-1.65000e+00	2.475269e-04	
167	-1.70000e+00	2.483410e-04	
168	-1.75000e+00	2.491293e-04	
169	-1.80000e+00	2.498940e-04	
170	-1.85000e+00	2.506368e-04	

Index   v-sweep         i(vds)          
--------------------------------------------------------------------------------
171	-1.90000e+00	2.513597e-04	
172	-1.95000e+00	2.520639e-04	
173	-2.00000e+00	2.527509e-04	
174	-2.05000e+00	2.534218e-04	
175	-2.10000e+00	2.540776e-04	
176	-2.15000e+00	2.547195e-04	
177	-2.20000e+00	2.553481e-04	
178	-2.25000e+00	2.559644e-04	
179	-2.30000e+00	2.565690e-04	
180	-2.35000e+00	2.571626e-04	
181	-2.40000e+00	2.577458e-04	
182	-2.45000e+00	2.583192e-04	
183	-2.50000e+00	2.588832e-04	
184	-2.55000e+00	2.594385e-04	
185	-2.60000e+00	2.599853e-04	
186	-2.65000e+00	2.605241e-04	
187	-2.70000e+00	2.610553e-04	
188	-2.75000e+00	2.615793e-04	
189	-2.80000e+00	2.620963e-04	
190	-2.85000e+00	2.626067e-04	
191	-2.90000e+00	2.631108e-04	
192	-2.95000e+00	2.636089e-04	
193	-3.00000e+00	2.641011e-04	
194	-3.05000e+00	2.645878e-04	
195	-3.10000e+00	2.650691e-04	
196	-3.15000e+00	2.655454e-04	
197	-3.20000e+00	2.660167e-04	
198	-3.25000e+00	2.664832e-04	
199	-3.30000e+00	2.669452e-04	
200	-3.35000e+00	2.674028e-04	
201	-3.40000e+00	2.678562e-04	
202	-3.45000e+00	2.683055e-04	
203	-3.50000e+00	2.687509e-04	
204	-3.55000e+00	2.691925e-04	
205	-3.60000e+00	2.696305e-04	
206	-3.65000e+00	2.700649e-04	
207	-3.70000e+00	2.704959e-04	
208	-3.75000e+00	2.709236e-04	
209	-3.80000e+00	2.713481e-04	
210	-3.85000e+00	2.717696e-04	
211	-3.90000e+00	2.721881e-04	
212	-3.95000e+00	2.726038e-04	
213	-4.00000e+00	2.730168e-04	
214	-4.05000e+00	2.734272e-04	
215	-4.10000e+00	2.738351e-04	
216	-4.15000e+00	2.742405e-04	
217	-4.20000e+00	2.746438e-04	
218	-4.25000e+00	2.750449e-04	
219	-4.30000e+00	2.754441e-04	
220	-4.35000e+00	2.758414e-04	
221	-4.40000e+00	2.762371e-04	
222	-4.45000e+00	2.766313e-04	
223	-4.50000e+00	2.770242e-04	
224	-4.55000e+00	2.774160e-04	
225	-4.60000e+00	2.778069e-04	
226	-4.65000e+00	2.781973e-04	
227	-4.70000e+00	2.785874e-04	
228	-4.75000e+00	2.789775e-04	

Index   v-sweep         i(vds)          
--------------------------------------------------------------------------------
229	-4.80000e+00	2.793679e-04	
230	-4.85000e+00	2.797590e-04	
231	-4.90000e+00	2.801513e-04	
232	-4.95000e+00	2.805451e-04	
233	-5.00000e+00	2.809410e-04	
234	-5.05000e+00	2.813396e-04	
235	-5.10000e+00	2.817413e-04	
236	-5.15000e+00	2.821469e-04	
237	-5.20000e+00	2.825571e-04	
238	-5.25000e+00	2.829726e-04	
239	-5.30000e+00	2.833943e-04	
240	-5.35000e+00	2.838230e-04	
241	-5.40000e+00	2.842597e-04	
242	-5.45000e+00	2.847054e-04	
243	-5.50000e+00	2.851613e-04	
244	-5.55000e+00	2.856285e-04	
245	-5.60000e+00	2.861083e-04	
246	-5.65000e+00	2.866021e-04	
247	-5.70000e+00	2.871113e-04	
248	-5.75000e+00	2.876375e-04	
249	-5.80000e+00	2.881822e-04	
250	-5.85000e+00	2.887473e-04	
251	-5.90000e+00	2.893345e-04	
252	-5.95000e+00	2.899459e-04	
253	-6.00000e+00	2.905833e-04	
254	-6.05000e+00	2.912490e-04	
255	-6.10000e+00	2.919452e-04	
256	-6.15000e+00	2.926744e-04	
257	-6.20000e+00	2.934389e-04	
258	-6.25000e+00	2.942414e-04	
259	-6.30000e+00	2.950845e-04	
260	-6.35000e+00	2.959712e-04	
261	-6.40000e+00	2.969044e-04	
262	-6.45000e+00	2.978871e-04	
263	-6.50000e+00	2.989225e-04	
264	-6.55000e+00	3.000139e-04	
265	-6.60000e+00	3.011649e-04	
266	0.000000e+00	-5.31754e-21	
267	-5.00000e-02	3.296239e-05	
268	-1.00000e-01	6.490817e-05	
269	-1.50000e-01	9.590319e-05	
270	-2.00000e-01	1.259658e-04	
271	-2.50000e-01	1.551028e-04	
272	-3.00000e-01	1.833178e-04	
273	-3.50000e-01	2.106139e-04	
274	-4.00000e-01	2.369940e-04	
275	-4.50000e-01	2.624610e-04	
276	-5.00000e-01	2.870178e-04	
277	-5.50000e-01	3.106670e-04	
278	-6.00000e-01	3.334117e-04	
279	-6.50000e-01	3.552547e-04	
280	-7.00000e-01	3.761990e-04	
281	-7.50000e-01	3.962473e-04	
282	-8.00000e-01	4.154027e-04	
283	-8.50000e-01	4.336682e-04	
284	-9.00000e-01	4.510468e-04	
285	-9.50000e-01	4.675416e-04	
286	-1.00000e+00	4.831558e-04	

Index   v-sweep         i(vds)          
--------------------------------------------------------------------------------
287	-1.05000e+00	4.978929e-04	
288	-1.10000e+00	5.117564e-04	
289	-1.15000e+00	5.247500e-04	
290	-1.20000e+00	5.368781e-04	
291	-1.25000e+00	5.481456e-04	
292	-1.30000e+00	5.585581e-04	
293	-1.35000e+00	5.681231e-04	
294	-1.40000e+00	5.768501e-04	
295	-1.45000e+00	5.847524e-04	
296	-1.50000e+00	5.918493e-04	
297	-1.55000e+00	5.981698e-04	
298	-1.60000e+00	6.037569e-04	
299	-1.65000e+00	6.086721e-04	
300	-1.70000e+00	6.129970e-04	
301	-1.75000e+00	6.168264e-04	
302	-1.80000e+00	6.202559e-04	
303	-1.85000e+00	6.233687e-04	
304	-1.90000e+00	6.262304e-04	
305	-1.95000e+00	6.288891e-04	
306	-2.00000e+00	6.313803e-04	
307	-2.05000e+00	6.337299e-04	
308	-2.10000e+00	6.359577e-04	
309	-2.15000e+00	6.380789e-04	
310	-2.20000e+00	6.401061e-04	
311	-2.25000e+00	6.420492e-04	
312	-2.30000e+00	6.439167e-04	
313	-2.35000e+00	6.457157e-04	
314	-2.40000e+00	6.474525e-04	
315	-2.45000e+00	6.491322e-04	
316	-2.50000e+00	6.507595e-04	
317	-2.55000e+00	6.523386e-04	
318	-2.60000e+00	6.538730e-04	
319	-2.65000e+00	6.553659e-04	
320	-2.70000e+00	6.568203e-04	
321	-2.75000e+00	6.582387e-04	
322	-2.80000e+00	6.596234e-04	
323	-2.85000e+00	6.609766e-04	
324	-2.90000e+00	6.623002e-04	
325	-2.95000e+00	6.635959e-04	
326	-3.00000e+00	6.648654e-04	
327	-3.05000e+00	6.661101e-04	
328	-3.10000e+00	6.673313e-04	
329	-3.15000e+00	6.685303e-04	
330	-3.20000e+00	6.697083e-04	
331	-3.25000e+00	6.708663e-04	
332	-3.30000e+00	6.720053e-04	
333	-3.35000e+00	6.731262e-04	
334	-3.40000e+00	6.742299e-04	
335	-3.45000e+00	6.753171e-04	
336	-3.50000e+00	6.763886e-04	
337	-3.55000e+00	6.774450e-04	
338	-3.60000e+00	6.784871e-04	
339	-3.65000e+00	6.795154e-04	
340	-3.70000e+00	6.805306e-04	
341	-3.75000e+00	6.815330e-04	
342	-3.80000e+00	6.825233e-04	
343	-3.85000e+00	6.835019e-04	
344	-3.90000e+00	6.844693e-04	

Index   v-sweep         i(vds)          
--------------------------------------------------------------------------------
345	-3.95000e+00	6.854259e-04	
346	-4.00000e+00	6.863720e-04	
347	-4.05000e+00	6.873081e-04	
348	-4.10000e+00	6.882346e-04	
349	-4.15000e+00	6.891517e-04	
350	-4.20000e+00	6.900598e-04	
351	-4.25000e+00	6.909593e-04	
352	-4.30000e+00	6.918503e-04	
353	-4.35000e+00	6.927333e-04	
354	-4.40000e+00	6.936084e-04	
355	-4.45000e+00	6.944760e-04	
356	-4.50000e+00	6.953364e-04	
357	-4.55000e+00	6.961897e-04	
358	-4.60000e+00	6.970362e-04	
359	-4.65000e+00	6.978763e-04	
360	-4.70000e+00	6.987101e-04	
361	-4.75000e+00	6.995380e-04	
362	-4.80000e+00	7.003602e-04	
363	-4.85000e+00	7.011770e-04	
364	-4.90000e+00	7.019887e-04	
365	-4.95000e+00	7.027956e-04	
366	-5.00000e+00	7.035982e-04	
367	-5.05000e+00	7.043967e-04	
368	-5.10000e+00	7.051916e-04	
369	-5.15000e+00	7.059834e-04	
370	-5.20000e+00	7.067725e-04	
371	-5.25000e+00	7.075595e-04	
372	-5.30000e+00	7.083450e-04	
373	-5.35000e+00	7.091296e-04	
374	-5.40000e+00	7.099141e-04	
375	-5.45000e+00	7.106993e-04	
376	-5.50000e+00	7.114860e-04	
377	-5.55000e+00	7.122753e-04	
378	-5.60000e+00	7.130682e-04	
379	-5.65000e+00	7.138659e-04	
380	-5.70000e+00	7.146697e-04	
381	-5.75000e+00	7.154810e-04	
382	-5.80000e+00	7.163014e-04	
383	-5.85000e+00	7.171324e-04	
384	-5.90000e+00	7.179761e-04	
385	-5.95000e+00	7.188342e-04	
386	-6.00000e+00	7.197090e-04	
387	-6.05000e+00	7.206027e-04	
388	-6.10000e+00	7.215179e-04	
389	-6.15000e+00	7.224572e-04	
390	-6.20000e+00	7.234235e-04	
391	-6.25000e+00	7.244198e-04	
392	-6.30000e+00	7.254495e-04	
393	-6.35000e+00	7.265159e-04	
394	-6.40000e+00	7.276228e-04	
395	-6.45000e+00	7.287742e-04	
396	-6.50000e+00	7.299743e-04	
397	-6.55000e+00	7.312273e-04	
398	-6.60000e+00	7.325381e-04	
399	0.000000e+00	3.691668e-19	
400	-5.00000e-02	4.257090e-05	
401	-1.00000e-01	8.419830e-05	
402	-1.50000e-01	1.249458e-04	

Index   v-sweep         i(vds)          
--------------------------------------------------------------------------------
403	-2.00000e-01	1.648310e-04	
404	-2.50000e-01	2.038601e-04	
405	-3.00000e-01	2.420364e-04	
406	-3.50000e-01	2.793624e-04	
407	-4.00000e-01	3.158405e-04	
408	-4.50000e-01	3.514730e-04	
409	-5.00000e-01	3.862622e-04	
410	-5.50000e-01	4.202104e-04	
411	-6.00000e-01	4.533199e-04	
412	-6.50000e-01	4.855931e-04	
413	-7.00000e-01	5.170321e-04	
414	-7.50000e-01	5.476394e-04	
415	-8.00000e-01	5.774172e-04	
416	-8.50000e-01	6.063679e-04	
417	-9.00000e-01	6.344937e-04	
418	-9.50000e-01	6.617971e-04	
419	-1.00000e+00	6.882802e-04	
420	-1.05000e+00	7.139456e-04	
421	-1.10000e+00	7.387955e-04	
422	-1.15000e+00	7.628322e-04	
423	-1.20000e+00	7.860582e-04	
424	-1.25000e+00	8.084759e-04	
425	-1.30000e+00	8.300876e-04	
426	-1.35000e+00	8.508958e-04	
427	-1.40000e+00	8.709029e-04	
428	-1.45000e+00	8.901116e-04	
429	-1.50000e+00	9.085243e-04	
430	-1.55000e+00	9.261438e-04	
431	-1.60000e+00	9.429727e-04	
432	-1.65000e+00	9.590140e-04	
433	-1.70000e+00	9.742708e-04	
434	-1.75000e+00	9.887464e-04	
435	-1.80000e+00	1.002445e-03	
436	-1.85000e+00	1.015369e-03	
437	-1.90000e+00	1.027526e-03	
438	-1.95000e+00	1.038919e-03	
439	-2.00000e+00	1.049558e-03	
440	-2.05000e+00	1.059452e-03	
441	-2.10000e+00	1.068614e-03	
442	-2.15000e+00	1.077062e-03	
443	-2.20000e+00	1.084822e-03	
444	-2.25000e+00	1.091928e-03	
445	-2.30000e+00	1.098426e-03	
446	-2.35000e+00	1.104373e-03	
447	-2.40000e+00	1.109830e-03	
448	-2.45000e+00	1.114863e-03	
449	-2.50000e+00	1.119531e-03	
450	-2.55000e+00	1.123887e-03	
451	-2.60000e+00	1.127973e-03	
452	-2.65000e+00	1.131825e-03	
453	-2.70000e+00	1.135473e-03	
454	-2.75000e+00	1.138940e-03	
455	-2.80000e+00	1.142247e-03	
456	-2.85000e+00	1.145411e-03	
457	-2.90000e+00	1.148444e-03	
458	-2.95000e+00	1.151361e-03	
459	-3.00000e+00	1.154170e-03	
460	-3.05000e+00	1.156882e-03	

Index   v-sweep         i(vds)          
--------------------------------------------------------------------------------
461	-3.10000e+00	1.159505e-03	
462	-3.15000e+00	1.162045e-03	
463	-3.20000e+00	1.164509e-03	
464	-3.25000e+00	1.166903e-03	
465	-3.30000e+00	1.169231e-03	
466	-3.35000e+00	1.171497e-03	
467	-3.40000e+00	1.173707e-03	
468	-3.45000e+00	1.175864e-03	
469	-3.50000e+00	1.177970e-03	
470	-3.55000e+00	1.180029e-03	
471	-3.60000e+00	1.182045e-03	
472	-3.65000e+00	1.184018e-03	
473	-3.70000e+00	1.185952e-03	
474	-3.75000e+00	1.187849e-03	
475	-3.80000e+00	1.189710e-03	
476	-3.85000e+00	1.191538e-03	
477	-3.90000e+00	1.193334e-03	
478	-3.95000e+00	1.195100e-03	
479	-4.00000e+00	1.196837e-03	
480	-4.05000e+00	1.198546e-03	
481	-4.10000e+00	1.200230e-03	
482	-4.15000e+00	1.201888e-03	
483	-4.20000e+00	1.203522e-03	
484	-4.25000e+00	1.205133e-03	
485	-4.30000e+00	1.206723e-03	
486	-4.35000e+00	1.208291e-03	
487	-4.40000e+00	1.209839e-03	
488	-4.45000e+00	1.211368e-03	
489	-4.50000e+00	1.212878e-03	
490	-4.55000e+00	1.214370e-03	
491	-4.60000e+00	1.215844e-03	
492	-4.65000e+00	1.217303e-03	
493	-4.70000e+00	1.218745e-03	
494	-4.75000e+00	1.220171e-03	
495	-4.80000e+00	1.221583e-03	
496	-4.85000e+00	1.222980e-03	
497	-4.90000e+00	1.224364e-03	
498	-4.95000e+00	1.225734e-03	
499	-5.00000e+00	1.227091e-03	
500	-5.05000e+00	1.228436e-03	
501	-5.10000e+00	1.229768e-03	
502	-5.15000e+00	1.231089e-03	
503	-5.20000e+00	1.232399e-03	
504	-5.25000e+00	1.233698e-03	
505	-5.30000e+00	1.234986e-03	
506	-5.35000e+00	1.236265e-03	
507	-5.40000e+00	1.237534e-03	
508	-5.45000e+00	1.238795e-03	
509	-5.50000e+00	1.240046e-03	
510	-5.55000e+00	1.241290e-03	
511	-5.60000e+00	1.242526e-03	
512	-5.65000e+00	1.243756e-03	
513	-5.70000e+00	1.244979e-03	
514	-5.75000e+00	1.246197e-03	
515	-5.80000e+00	1.247410e-03	
516	-5.85000e+00	1.248619e-03	
517	-5.90000e+00	1.249826e-03	
518	-5.95000e+00	1.251030e-03	

Index   v-sweep         i(vds)          
--------------------------------------------------------------------------------
519	-6.00000e+00	1.252234e-03	
520	-6.05000e+00	1.253439e-03	
521	-6.10000e+00	1.254645e-03	
522	-6.15000e+00	1.255856e-03	
523	-6.20000e+00	1.257071e-03	
524	-6.25000e+00	1.258294e-03	
525	-6.30000e+00	1.259526e-03	
526	-6.35000e+00	1.260770e-03	
527	-6.40000e+00	1.262028e-03	
528	-6.45000e+00	1.263302e-03	
529	-6.50000e+00	1.264597e-03	
530	-6.55000e+00	1.265914e-03	
531	-6.60000e+00	1.267258e-03	
532	0.000000e+00	-3.41306e-24	
533	-5.00000e-02	5.063796e-05	
534	-1.00000e-01	1.003923e-04	
535	-1.50000e-01	1.493247e-04	
536	-2.00000e-01	1.974524e-04	
537	-2.50000e-01	2.447813e-04	
538	-3.00000e-01	2.913143e-04	
539	-3.50000e-01	3.370535e-04	
540	-4.00000e-01	3.820010e-04	
541	-4.50000e-01	4.261589e-04	
542	-5.00000e-01	4.695290e-04	
543	-5.50000e-01	5.121132e-04	
544	-6.00000e-01	5.539137e-04	
545	-6.50000e-01	5.949322e-04	
546	-7.00000e-01	6.351709e-04	
547	-7.50000e-01	6.746315e-04	
548	-8.00000e-01	7.133162e-04	
549	-8.50000e-01	7.512268e-04	
550	-9.00000e-01	7.883653e-04	
551	-9.50000e-01	8.247336e-04	
552	-1.00000e+00	8.603338e-04	
553	-1.05000e+00	8.951678e-04	
554	-1.10000e+00	9.292375e-04	
555	-1.15000e+00	9.625449e-04	
556	-1.20000e+00	9.950920e-04	
557	-1.25000e+00	1.026881e-03	
558	-1.30000e+00	1.057913e-03	
559	-1.35000e+00	1.088191e-03	
560	-1.40000e+00	1.117716e-03	
561	-1.45000e+00	1.146491e-03	
562	-1.50000e+00	1.174518e-03	
563	-1.55000e+00	1.201798e-03	
564	-1.60000e+00	1.228333e-03	
565	-1.65000e+00	1.254126e-03	
566	-1.70000e+00	1.279179e-03	
567	-1.75000e+00	1.303493e-03	
568	-1.80000e+00	1.327070e-03	
569	-1.85000e+00	1.349913e-03	
570	-1.90000e+00	1.372025e-03	
571	-1.95000e+00	1.393405e-03	
572	-2.00000e+00	1.414058e-03	
573	-2.05000e+00	1.433986e-03	
574	-2.10000e+00	1.453189e-03	
575	-2.15000e+00	1.471672e-03	
576	-2.20000e+00	1.489436e-03	

Index   v-sweep         i(vds)          
--------------------------------------------------------------------------------
577	-2.25000e+00	1.506484e-03	
578	-2.30000e+00	1.522818e-03	
579	-2.35000e+00	1.538442e-03	
580	-2.40000e+00	1.553359e-03	
581	-2.45000e+00	1.567572e-03	
582	-2.50000e+00	1.581087e-03	
583	-2.55000e+00	1.593907e-03	
584	-2.60000e+00	1.606040e-03	
585	-2.65000e+00	1.617492e-03	
586	-2.70000e+00	1.628274e-03	
587	-2.75000e+00	1.638399e-03	
588	-2.80000e+00	1.647884e-03	
589	-2.85000e+00	1.656752e-03	
590	-2.90000e+00	1.665030e-03	
591	-2.95000e+00	1.672755e-03	
592	-3.00000e+00	1.679966e-03	
593	-3.05000e+00	1.686708e-03	
594	-3.10000e+00	1.693026e-03	
595	-3.15000e+00	1.698964e-03	
596	-3.20000e+00	1.704562e-03	
597	-3.25000e+00	1.709856e-03	
598	-3.30000e+00	1.714879e-03	
599	-3.35000e+00	1.719659e-03	
600	-3.40000e+00	1.724220e-03	
601	-3.45000e+00	1.728583e-03	
602	-3.50000e+00	1.732767e-03	
603	-3.55000e+00	1.736789e-03	
604	-3.60000e+00	1.740662e-03	
605	-3.65000e+00	1.744398e-03	
606	-3.70000e+00	1.748010e-03	
607	-3.75000e+00	1.751507e-03	
608	-3.80000e+00	1.754897e-03	
609	-3.85000e+00	1.758189e-03	
610	-3.90000e+00	1.761388e-03	
611	-3.95000e+00	1.764503e-03	
612	-4.00000e+00	1.767537e-03	
613	-4.05000e+00	1.770497e-03	
614	-4.10000e+00	1.773386e-03	
615	-4.15000e+00	1.776210e-03	
616	-4.20000e+00	1.778973e-03	
617	-4.25000e+00	1.781676e-03	
618	-4.30000e+00	1.784325e-03	
619	-4.35000e+00	1.786921e-03	
620	-4.40000e+00	1.789469e-03	
621	-4.45000e+00	1.791969e-03	
622	-4.50000e+00	1.794425e-03	
623	-4.55000e+00	1.796839e-03	
624	-4.60000e+00	1.799212e-03	
625	-4.65000e+00	1.801547e-03	
626	-4.70000e+00	1.803846e-03	
627	-4.75000e+00	1.806109e-03	
628	-4.80000e+00	1.808339e-03	
629	-4.85000e+00	1.810538e-03	
630	-4.90000e+00	1.812705e-03	
631	-4.95000e+00	1.814844e-03	
632	-5.00000e+00	1.816954e-03	
633	-5.05000e+00	1.819037e-03	
634	-5.10000e+00	1.821094e-03	

Index   v-sweep         i(vds)          
--------------------------------------------------------------------------------
635	-5.15000e+00	1.823126e-03	
636	-5.20000e+00	1.825134e-03	
637	-5.25000e+00	1.827119e-03	
638	-5.30000e+00	1.829082e-03	
639	-5.35000e+00	1.831023e-03	
640	-5.40000e+00	1.832943e-03	
641	-5.45000e+00	1.834843e-03	
642	-5.50000e+00	1.836724e-03	
643	-5.55000e+00	1.838587e-03	
644	-5.60000e+00	1.840431e-03	
645	-5.65000e+00	1.842258e-03	
646	-5.70000e+00	1.844068e-03	
647	-5.75000e+00	1.845863e-03	
648	-5.80000e+00	1.847641e-03	
649	-5.85000e+00	1.849405e-03	
650	-5.90000e+00	1.851154e-03	
651	-5.95000e+00	1.852889e-03	
652	-6.00000e+00	1.854611e-03	
653	-6.05000e+00	1.856321e-03	
654	-6.10000e+00	1.858019e-03	
655	-6.15000e+00	1.859706e-03	
656	-6.20000e+00	1.861382e-03	
657	-6.25000e+00	1.863049e-03	
658	-6.30000e+00	1.864708e-03	
659	-6.35000e+00	1.866358e-03	
660	-6.40000e+00	1.868003e-03	
661	-6.45000e+00	1.869642e-03	
662	-6.50000e+00	1.871278e-03	
663	-6.55000e+00	1.872911e-03	
664	-6.60000e+00	1.874543e-03	
665	0.000000e+00	5.036794e-19	
666	-5.00000e-02	5.764257e-05	
667	-1.00000e-01	1.144504e-04	
668	-1.50000e-01	1.704837e-04	
669	-2.00000e-01	2.257593e-04	
670	-2.50000e-01	2.802828e-04	
671	-3.00000e-01	3.340569e-04	
672	-3.50000e-01	3.870836e-04	
673	-4.00000e-01	4.393647e-04	
674	-4.50000e-01	4.909020e-04	
675	-5.00000e-01	5.416971e-04	
676	-5.50000e-01	5.917517e-04	
677	-6.00000e-01	6.410677e-04	
678	-6.50000e-01	6.896466e-04	
679	-7.00000e-01	7.374902e-04	
680	-7.50000e-01	7.846003e-04	
681	-8.00000e-01	8.309785e-04	
682	-8.50000e-01	8.766265e-04	
683	-9.00000e-01	9.215461e-04	
684	-9.50000e-01	9.657390e-04	
685	-1.00000e+00	1.009207e-03	
686	-1.05000e+00	1.051951e-03	
687	-1.10000e+00	1.093974e-03	
688	-1.15000e+00	1.135277e-03	
689	-1.20000e+00	1.175862e-03	
690	-1.25000e+00	1.215731e-03	
691	-1.30000e+00	1.254885e-03	
692	-1.35000e+00	1.293325e-03	

Index   v-sweep         i(vds)          
--------------------------------------------------------------------------------
693	-1.40000e+00	1.331055e-03	
694	-1.45000e+00	1.368074e-03	
695	-1.50000e+00	1.404386e-03	
696	-1.55000e+00	1.439992e-03	
697	-1.60000e+00	1.474893e-03	
698	-1.65000e+00	1.509091e-03	
699	-1.70000e+00	1.542589e-03	
700	-1.75000e+00	1.575387e-03	
701	-1.80000e+00	1.607487e-03	
702	-1.85000e+00	1.638891e-03	
703	-1.90000e+00	1.669602e-03	
704	-1.95000e+00	1.699620e-03	
705	-2.00000e+00	1.728947e-03	
706	-2.05000e+00	1.757585e-03	
707	-2.10000e+00	1.785536e-03	
708	-2.15000e+00	1.812801e-03	
709	-2.20000e+00	1.839383e-03	
710	-2.25000e+00	1.865283e-03	
711	-2.30000e+00	1.890503e-03	
712	-2.35000e+00	1.915044e-03	
713	-2.40000e+00	1.938909e-03	
714	-2.45000e+00	1.962099e-03	
715	-2.50000e+00	1.984616e-03	
716	-2.55000e+00	2.006462e-03	
717	-2.60000e+00	2.027639e-03	
718	-2.65000e+00	2.048150e-03	
719	-2.70000e+00	2.067995e-03	
720	-2.75000e+00	2.087177e-03	
721	-2.80000e+00	2.105699e-03	
722	-2.85000e+00	2.123563e-03	
723	-2.90000e+00	2.140770e-03	
724	-2.95000e+00	2.157325e-03	
725	-3.00000e+00	2.173229e-03	
726	-3.05000e+00	2.188486e-03	
727	-3.10000e+00	2.203100e-03	
728	-3.15000e+00	2.217075e-03	
729	-3.20000e+00	2.230416e-03	
730	-3.25000e+00	2.243130e-03	
731	-3.30000e+00	2.255222e-03	
732	-3.35000e+00	2.266704e-03	
733	-3.40000e+00	2.277586e-03	
734	-3.45000e+00	2.287882e-03	
735	-3.50000e+00	2.297612e-03	
736	-3.55000e+00	2.306797e-03	
737	-3.60000e+00	2.315465e-03	
738	-3.65000e+00	2.323646e-03	
739	-3.70000e+00	2.331373e-03	
740	-3.75000e+00	2.338681e-03	
741	-3.80000e+00	2.345606e-03	
742	-3.85000e+00	2.352181e-03	
743	-3.90000e+00	2.358438e-03	
744	-3.95000e+00	2.364406e-03	
745	-4.00000e+00	2.370111e-03	
746	-4.05000e+00	2.375576e-03	
747	-4.10000e+00	2.380823e-03	
748	-4.15000e+00	2.385871e-03	
749	-4.20000e+00	2.390735e-03	
750	-4.25000e+00	2.395431e-03	

Index   v-sweep         i(vds)          
--------------------------------------------------------------------------------
751	-4.30000e+00	2.399973e-03	
752	-4.35000e+00	2.404371e-03	
753	-4.40000e+00	2.408636e-03	
754	-4.45000e+00	2.412779e-03	
755	-4.50000e+00	2.416807e-03	
756	-4.55000e+00	2.420728e-03	
757	-4.60000e+00	2.424549e-03	
758	-4.65000e+00	2.428277e-03	
759	-4.70000e+00	2.431917e-03	
760	-4.75000e+00	2.435475e-03	
761	-4.80000e+00	2.438954e-03	
762	-4.85000e+00	2.442361e-03	
763	-4.90000e+00	2.445699e-03	
764	-4.95000e+00	2.448971e-03	
765	-5.00000e+00	2.452181e-03	
766	-5.05000e+00	2.455332e-03	
767	-5.10000e+00	2.458427e-03	
768	-5.15000e+00	2.461469e-03	
769	-5.20000e+00	2.464461e-03	
770	-5.25000e+00	2.467404e-03	
771	-5.30000e+00	2.470301e-03	
772	-5.35000e+00	2.473154e-03	
773	-5.40000e+00	2.475965e-03	
774	-5.45000e+00	2.478736e-03	
775	-5.50000e+00	2.481469e-03	
776	-5.55000e+00	2.484164e-03	
777	-5.60000e+00	2.486824e-03	
778	-5.65000e+00	2.489450e-03	
779	-5.70000e+00	2.492043e-03	
780	-5.75000e+00	2.494605e-03	
781	-5.80000e+00	2.497136e-03	
782	-5.85000e+00	2.499638e-03	
783	-5.90000e+00	2.502112e-03	
784	-5.95000e+00	2.504559e-03	
785	-6.00000e+00	2.506980e-03	
786	-6.05000e+00	2.509375e-03	
787	-6.10000e+00	2.511746e-03	
788	-6.15000e+00	2.514094e-03	
789	-6.20000e+00	2.516419e-03	
790	-6.25000e+00	2.518722e-03	
791	-6.30000e+00	2.521004e-03	
792	-6.35000e+00	2.523266e-03	
793	-6.40000e+00	2.525508e-03	
794	-6.45000e+00	2.527731e-03	
795	-6.50000e+00	2.529936e-03	
796	-6.55000e+00	2.532124e-03	
797	-6.60000e+00	2.534295e-03	
Note: No ".plot", ".print", or ".fourier" lines; no simulations run
