
Note: Compatibility modes selected: hs

Warning: m=xx on .subckt line will override multiplier m hierarchy!


Circuit: ***************************

Doing analysis at TEMP = 125.000000 and TNOM = 125.000000


No. of Data Rows : 798
                          ***************************
                          DC transfer characteristic  Mon Jan  9 13:58:51  2023
--------------------------------------------------------------------------------
Index   v-sweep         i(vds)          
--------------------------------------------------------------------------------
0	0.000000e+00	-3.32465e-23	
1	-5.00000e-02	2.389855e-07	
2	-1.00000e-01	3.826726e-07	
3	-1.50000e-01	4.675864e-07	
4	-2.00000e-01	5.085251e-07	
5	-2.50000e-01	5.231839e-07	
6	-3.00000e-01	5.279895e-07	
7	-3.50000e-01	5.299396e-07	
8	-4.00000e-01	5.309830e-07	
9	-4.50000e-01	5.316747e-07	
10	-5.00000e-01	5.322028e-07	
11	-5.50000e-01	5.326428e-07	
12	-6.00000e-01	5.330297e-07	
13	-6.50000e-01	5.333815e-07	
14	-7.00000e-01	5.337085e-07	
15	-7.50000e-01	5.340167e-07	
16	-8.00000e-01	5.343103e-07	
17	-8.50000e-01	5.345920e-07	
18	-9.00000e-01	5.348637e-07	
19	-9.50000e-01	5.351269e-07	
20	-1.00000e+00	5.353827e-07	
21	-1.05000e+00	5.356320e-07	
22	-1.10000e+00	5.358755e-07	
23	-1.15000e+00	5.361138e-07	
24	-1.20000e+00	5.363473e-07	
25	-1.25000e+00	5.365765e-07	
26	-1.30000e+00	5.368017e-07	
27	-1.35000e+00	5.370233e-07	
28	-1.40000e+00	5.372414e-07	
29	-1.45000e+00	5.374563e-07	
30	-1.50000e+00	5.376683e-07	
31	-1.55000e+00	5.378776e-07	
32	-1.60000e+00	5.380842e-07	
33	-1.65000e+00	5.382884e-07	
34	-1.70000e+00	5.384902e-07	
35	-1.75000e+00	5.386899e-07	
36	-1.80000e+00	5.388875e-07	
37	-1.85000e+00	5.390832e-07	
38	-1.90000e+00	5.392769e-07	
39	-1.95000e+00	5.394690e-07	
40	-2.00000e+00	5.396593e-07	
41	-2.05000e+00	5.398480e-07	
42	-2.10000e+00	5.400352e-07	
43	-2.15000e+00	5.402209e-07	
44	-2.20000e+00	5.404052e-07	
45	-2.25000e+00	5.405882e-07	
46	-2.30000e+00	5.407698e-07	
47	-2.35000e+00	5.409503e-07	
48	-2.40000e+00	5.411295e-07	
49	-2.45000e+00	5.413076e-07	
50	-2.50000e+00	5.414846e-07	
51	-2.55000e+00	5.416605e-07	
52	-2.60000e+00	5.418354e-07	
53	-2.65000e+00	5.420093e-07	
54	-2.70000e+00	5.421823e-07	

Index   v-sweep         i(vds)          
--------------------------------------------------------------------------------
55	-2.75000e+00	5.423544e-07	
56	-2.80000e+00	5.425256e-07	
57	-2.85000e+00	5.426960e-07	
58	-2.90000e+00	5.428655e-07	
59	-2.95000e+00	5.430344e-07	
60	-3.00000e+00	5.432025e-07	
61	-3.05000e+00	5.433699e-07	
62	-3.10000e+00	5.435368e-07	
63	-3.15000e+00	5.437030e-07	
64	-3.20000e+00	5.438688e-07	
65	-3.25000e+00	5.440341e-07	
66	-3.30000e+00	5.441991e-07	
67	-3.35000e+00	5.443639e-07	
68	-3.40000e+00	5.445285e-07	
69	-3.45000e+00	5.446930e-07	
70	-3.50000e+00	5.448578e-07	
71	-3.55000e+00	5.450228e-07	
72	-3.60000e+00	5.451882e-07	
73	-3.65000e+00	5.453544e-07	
74	-3.70000e+00	5.455215e-07	
75	-3.75000e+00	5.456899e-07	
76	-3.80000e+00	5.458598e-07	
77	-3.85000e+00	5.460316e-07	
78	-3.90000e+00	5.462058e-07	
79	-3.95000e+00	5.463828e-07	
80	-4.00000e+00	5.465630e-07	
81	-4.05000e+00	5.467471e-07	
82	-4.10000e+00	5.469358e-07	
83	-4.15000e+00	5.471296e-07	
84	-4.20000e+00	5.473295e-07	
85	-4.25000e+00	5.475362e-07	
86	-4.30000e+00	5.477507e-07	
87	-4.35000e+00	5.479740e-07	
88	-4.40000e+00	5.482073e-07	
89	-4.45000e+00	5.484518e-07	
90	-4.50000e+00	5.487087e-07	
91	-4.55000e+00	5.489795e-07	
92	-4.60000e+00	5.492658e-07	
93	-4.65000e+00	5.495692e-07	
94	-4.70000e+00	5.498915e-07	
95	-4.75000e+00	5.502347e-07	
96	-4.80000e+00	5.506006e-07	
97	-4.85000e+00	5.509916e-07	
98	-4.90000e+00	5.514099e-07	
99	-4.95000e+00	5.518580e-07	
100	-5.00000e+00	5.523386e-07	
101	-5.05000e+00	5.528543e-07	
102	-5.10000e+00	5.534081e-07	
103	-5.15000e+00	5.540030e-07	
104	-5.20000e+00	5.546424e-07	
105	-5.25000e+00	5.553296e-07	
106	-5.30000e+00	5.560681e-07	
107	-5.35000e+00	5.568618e-07	
108	-5.40000e+00	5.577146e-07	
109	-5.45000e+00	5.586304e-07	
110	-5.50000e+00	5.596137e-07	
111	-5.55000e+00	5.606689e-07	
112	-5.60000e+00	5.618005e-07	

Index   v-sweep         i(vds)          
--------------------------------------------------------------------------------
113	-5.65000e+00	5.630135e-07	
114	-5.70000e+00	5.643128e-07	
115	-5.75000e+00	5.657036e-07	
116	-5.80000e+00	5.671912e-07	
117	-5.85000e+00	5.687813e-07	
118	-5.90000e+00	5.704795e-07	
119	-5.95000e+00	5.722918e-07	
120	-6.00000e+00	5.742243e-07	
121	-6.05000e+00	5.762832e-07	
122	-6.10000e+00	5.784751e-07	
123	-6.15000e+00	5.808066e-07	
124	-6.20000e+00	5.832846e-07	
125	-6.25000e+00	5.859161e-07	
126	-6.30000e+00	5.887082e-07	
127	-6.35000e+00	5.916684e-07	
128	-6.40000e+00	5.948042e-07	
129	-6.45000e+00	5.981234e-07	
130	-6.50000e+00	6.016338e-07	
131	-6.55000e+00	6.053435e-07	
132	-6.60000e+00	6.092608e-07	
133	0.000000e+00	1.859353e-26	
134	-5.00000e-02	1.052233e-06	
135	-1.00000e-01	2.003487e-06	
136	-1.50000e-01	2.888260e-06	
137	-2.00000e-01	3.714639e-06	
138	-2.50000e-01	4.484534e-06	
139	-3.00000e-01	5.198419e-06	
140	-3.50000e-01	5.856434e-06	
141	-4.00000e-01	6.458655e-06	
142	-4.50000e-01	7.005153e-06	
143	-5.00000e-01	7.496026e-06	
144	-5.50000e-01	7.931414e-06	
145	-6.00000e-01	8.311545e-06	
146	-6.50000e-01	8.636793e-06	
147	-7.00000e-01	8.907823e-06	
148	-7.50000e-01	9.125856e-06	
149	-8.00000e-01	9.293198e-06	
150	-8.50000e-01	9.414099e-06	
151	-9.00000e-01	9.495677e-06	
152	-9.50000e-01	9.547723e-06	
153	-1.00000e+00	9.580471e-06	
154	-1.05000e+00	9.601943e-06	
155	-1.10000e+00	9.617152e-06	
156	-1.15000e+00	9.628854e-06	
157	-1.20000e+00	9.638503e-06	
158	-1.25000e+00	9.646877e-06	
159	-1.30000e+00	9.654406e-06	
160	-1.35000e+00	9.661343e-06	
161	-1.40000e+00	9.667844e-06	
162	-1.45000e+00	9.674007e-06	
163	-1.50000e+00	9.679902e-06	
164	-1.55000e+00	9.685574e-06	
165	-1.60000e+00	9.691060e-06	
166	-1.65000e+00	9.696384e-06	
167	-1.70000e+00	9.701568e-06	
168	-1.75000e+00	9.706627e-06	
169	-1.80000e+00	9.711574e-06	
170	-1.85000e+00	9.716421e-06	

Index   v-sweep         i(vds)          
--------------------------------------------------------------------------------
171	-1.90000e+00	9.721175e-06	
172	-1.95000e+00	9.725846e-06	
173	-2.00000e+00	9.730440e-06	
174	-2.05000e+00	9.734962e-06	
175	-2.10000e+00	9.739417e-06	
176	-2.15000e+00	9.743810e-06	
177	-2.20000e+00	9.748146e-06	
178	-2.25000e+00	9.752427e-06	
179	-2.30000e+00	9.756657e-06	
180	-2.35000e+00	9.760839e-06	
181	-2.40000e+00	9.764975e-06	
182	-2.45000e+00	9.769069e-06	
183	-2.50000e+00	9.773121e-06	
184	-2.55000e+00	9.777135e-06	
185	-2.60000e+00	9.781112e-06	
186	-2.65000e+00	9.785054e-06	
187	-2.70000e+00	9.788962e-06	
188	-2.75000e+00	9.792839e-06	
189	-2.80000e+00	9.796684e-06	
190	-2.85000e+00	9.800501e-06	
191	-2.90000e+00	9.804290e-06	
192	-2.95000e+00	9.808052e-06	
193	-3.00000e+00	9.811788e-06	
194	-3.05000e+00	9.815499e-06	
195	-3.10000e+00	9.819187e-06	
196	-3.15000e+00	9.822852e-06	
197	-3.20000e+00	9.826495e-06	
198	-3.25000e+00	9.830117e-06	
199	-3.30000e+00	9.833718e-06	
200	-3.35000e+00	9.837300e-06	
201	-3.40000e+00	9.840862e-06	
202	-3.45000e+00	9.844407e-06	
203	-3.50000e+00	9.847934e-06	
204	-3.55000e+00	9.851445e-06	
205	-3.60000e+00	9.854939e-06	
206	-3.65000e+00	9.858419e-06	
207	-3.70000e+00	9.861884e-06	
208	-3.75000e+00	9.865336e-06	
209	-3.80000e+00	9.868775e-06	
210	-3.85000e+00	9.872204e-06	
211	-3.90000e+00	9.875622e-06	
212	-3.95000e+00	9.879032e-06	
213	-4.00000e+00	9.882435e-06	
214	-4.05000e+00	9.885832e-06	
215	-4.10000e+00	9.889228e-06	
216	-4.15000e+00	9.892623e-06	
217	-4.20000e+00	9.896021e-06	
218	-4.25000e+00	9.899425e-06	
219	-4.30000e+00	9.902839e-06	
220	-4.35000e+00	9.906267e-06	
221	-4.40000e+00	9.909716e-06	
222	-4.45000e+00	9.913190e-06	
223	-4.50000e+00	9.916696e-06	
224	-4.55000e+00	9.920242e-06	
225	-4.60000e+00	9.923836e-06	
226	-4.65000e+00	9.927487e-06	
227	-4.70000e+00	9.931207e-06	
228	-4.75000e+00	9.935007e-06	

Index   v-sweep         i(vds)          
--------------------------------------------------------------------------------
229	-4.80000e+00	9.938900e-06	
230	-4.85000e+00	9.942902e-06	
231	-4.90000e+00	9.947027e-06	
232	-4.95000e+00	9.951294e-06	
233	-5.00000e+00	9.955723e-06	
234	-5.05000e+00	9.960334e-06	
235	-5.10000e+00	9.965151e-06	
236	-5.15000e+00	9.970199e-06	
237	-5.20000e+00	9.975505e-06	
238	-5.25000e+00	9.981100e-06	
239	-5.30000e+00	9.987015e-06	
240	-5.35000e+00	9.993285e-06	
241	-5.40000e+00	9.999946e-06	
242	-5.45000e+00	1.000704e-05	
243	-5.50000e+00	1.001461e-05	
244	-5.55000e+00	1.002269e-05	
245	-5.60000e+00	1.003134e-05	
246	-5.65000e+00	1.004062e-05	
247	-5.70000e+00	1.005056e-05	
248	-5.75000e+00	1.006123e-05	
249	-5.80000e+00	1.007270e-05	
250	-5.85000e+00	1.008502e-05	
251	-5.90000e+00	1.009826e-05	
252	-5.95000e+00	1.011250e-05	
253	-6.00000e+00	1.012780e-05	
254	-6.05000e+00	1.014425e-05	
255	-6.10000e+00	1.016193e-05	
256	-6.15000e+00	1.018092e-05	
257	-6.20000e+00	1.020131e-05	
258	-6.25000e+00	1.022319e-05	
259	-6.30000e+00	1.024667e-05	
260	-6.35000e+00	1.027184e-05	
261	-6.40000e+00	1.029880e-05	
262	-6.45000e+00	1.032767e-05	
263	-6.50000e+00	1.035856e-05	
264	-6.55000e+00	1.039157e-05	
265	-6.60000e+00	1.042684e-05	
266	0.000000e+00	-1.02883e-25	
267	-5.00000e-02	1.735364e-06	
268	-1.00000e-01	3.373804e-06	
269	-1.50000e-01	4.949681e-06	
270	-2.00000e-01	6.471059e-06	
271	-2.50000e-01	7.939840e-06	
272	-3.00000e-01	9.356480e-06	
273	-3.50000e-01	1.072110e-05	
274	-4.00000e-01	1.203373e-05	
275	-4.50000e-01	1.329441e-05	
276	-5.00000e-01	1.450314e-05	
277	-5.50000e-01	1.565995e-05	
278	-6.00000e-01	1.676485e-05	
279	-6.50000e-01	1.781786e-05	
280	-7.00000e-01	1.881901e-05	
281	-7.50000e-01	1.976832e-05	
282	-8.00000e-01	2.066582e-05	
283	-8.50000e-01	2.151153e-05	
284	-9.00000e-01	2.230549e-05	
285	-9.50000e-01	2.304775e-05	
286	-1.00000e+00	2.373835e-05	

Index   v-sweep         i(vds)          
--------------------------------------------------------------------------------
287	-1.05000e+00	2.437738e-05	
288	-1.10000e+00	2.496491e-05	
289	-1.15000e+00	2.550108e-05	
290	-1.20000e+00	2.598606e-05	
291	-1.25000e+00	2.642011e-05	
292	-1.30000e+00	2.680361e-05	
293	-1.35000e+00	2.713716e-05	
294	-1.40000e+00	2.742170e-05	
295	-1.45000e+00	2.765874e-05	
296	-1.50000e+00	2.785068e-05	
297	-1.55000e+00	2.800121e-05	
298	-1.60000e+00	2.811565e-05	
299	-1.65000e+00	2.820073e-05	
300	-1.70000e+00	2.826373e-05	
301	-1.75000e+00	2.831132e-05	
302	-1.80000e+00	2.834865e-05	
303	-1.85000e+00	2.837929e-05	
304	-1.90000e+00	2.840555e-05	
305	-1.95000e+00	2.842883e-05	
306	-2.00000e+00	2.845005e-05	
307	-2.05000e+00	2.846975e-05	
308	-2.10000e+00	2.848831e-05	
309	-2.15000e+00	2.850597e-05	
310	-2.20000e+00	2.852290e-05	
311	-2.25000e+00	2.853924e-05	
312	-2.30000e+00	2.855506e-05	
313	-2.35000e+00	2.857044e-05	
314	-2.40000e+00	2.858544e-05	
315	-2.45000e+00	2.860008e-05	
316	-2.50000e+00	2.861443e-05	
317	-2.55000e+00	2.862849e-05	
318	-2.60000e+00	2.864229e-05	
319	-2.65000e+00	2.865587e-05	
320	-2.70000e+00	2.866922e-05	
321	-2.75000e+00	2.868238e-05	
322	-2.80000e+00	2.869535e-05	
323	-2.85000e+00	2.870815e-05	
324	-2.90000e+00	2.872079e-05	
325	-2.95000e+00	2.873327e-05	
326	-3.00000e+00	2.874561e-05	
327	-3.05000e+00	2.875782e-05	
328	-3.10000e+00	2.876989e-05	
329	-3.15000e+00	2.878185e-05	
330	-3.20000e+00	2.879369e-05	
331	-3.25000e+00	2.880542e-05	
332	-3.30000e+00	2.881704e-05	
333	-3.35000e+00	2.882857e-05	
334	-3.40000e+00	2.884000e-05	
335	-3.45000e+00	2.885135e-05	
336	-3.50000e+00	2.886260e-05	
337	-3.55000e+00	2.887378e-05	
338	-3.60000e+00	2.888487e-05	
339	-3.65000e+00	2.889589e-05	
340	-3.70000e+00	2.890683e-05	
341	-3.75000e+00	2.891770e-05	
342	-3.80000e+00	2.892851e-05	
343	-3.85000e+00	2.893925e-05	
344	-3.90000e+00	2.894993e-05	

Index   v-sweep         i(vds)          
--------------------------------------------------------------------------------
345	-3.95000e+00	2.896055e-05	
346	-4.00000e+00	2.897111e-05	
347	-4.05000e+00	2.898161e-05	
348	-4.10000e+00	2.899207e-05	
349	-4.15000e+00	2.900246e-05	
350	-4.20000e+00	2.901281e-05	
351	-4.25000e+00	2.902311e-05	
352	-4.30000e+00	2.903337e-05	
353	-4.35000e+00	2.904358e-05	
354	-4.40000e+00	2.905375e-05	
355	-4.45000e+00	2.906389e-05	
356	-4.50000e+00	2.907398e-05	
357	-4.55000e+00	2.908405e-05	
358	-4.60000e+00	2.909409e-05	
359	-4.65000e+00	2.910410e-05	
360	-4.70000e+00	2.911409e-05	
361	-4.75000e+00	2.912406e-05	
362	-4.80000e+00	2.913403e-05	
363	-4.85000e+00	2.914400e-05	
364	-4.90000e+00	2.915397e-05	
365	-4.95000e+00	2.916396e-05	
366	-5.00000e+00	2.917397e-05	
367	-5.05000e+00	2.918403e-05	
368	-5.10000e+00	2.919414e-05	
369	-5.15000e+00	2.920432e-05	
370	-5.20000e+00	2.921460e-05	
371	-5.25000e+00	2.922498e-05	
372	-5.30000e+00	2.923550e-05	
373	-5.35000e+00	2.924618e-05	
374	-5.40000e+00	2.925706e-05	
375	-5.45000e+00	2.926816e-05	
376	-5.50000e+00	2.927953e-05	
377	-5.55000e+00	2.929120e-05	
378	-5.60000e+00	2.930323e-05	
379	-5.65000e+00	2.931566e-05	
380	-5.70000e+00	2.932855e-05	
381	-5.75000e+00	2.934196e-05	
382	-5.80000e+00	2.935595e-05	
383	-5.85000e+00	2.937061e-05	
384	-5.90000e+00	2.938601e-05	
385	-5.95000e+00	2.940224e-05	
386	-6.00000e+00	2.941938e-05	
387	-6.05000e+00	2.943754e-05	
388	-6.10000e+00	2.945682e-05	
389	-6.15000e+00	2.947735e-05	
390	-6.20000e+00	2.949923e-05	
391	-6.25000e+00	2.952261e-05	
392	-6.30000e+00	2.954763e-05	
393	-6.35000e+00	2.957442e-05	
394	-6.40000e+00	2.960316e-05	
395	-6.45000e+00	2.963400e-05	
396	-6.50000e+00	2.966712e-05	
397	-6.55000e+00	2.970272e-05	
398	-6.60000e+00	2.974098e-05	
399	0.000000e+00	-3.89919e-25	
400	-5.00000e-02	2.325830e-06	
401	-1.00000e-01	4.558633e-06	
402	-1.50000e-01	6.732657e-06	

Index   v-sweep         i(vds)          
--------------------------------------------------------------------------------
403	-2.00000e-01	8.855953e-06	
404	-2.50000e-01	1.093042e-05	
405	-3.00000e-01	1.295652e-05	
406	-3.50000e-01	1.493436e-05	
407	-4.00000e-01	1.686399e-05	
408	-4.50000e-01	1.874541e-05	
409	-5.00000e-01	2.057865e-05	
410	-5.50000e-01	2.236372e-05	
411	-6.00000e-01	2.410064e-05	
412	-6.50000e-01	2.578941e-05	
413	-7.00000e-01	2.743005e-05	
414	-7.50000e-01	2.902257e-05	
415	-8.00000e-01	3.056699e-05	
416	-8.50000e-01	3.206332e-05	
417	-9.00000e-01	3.351158e-05	
418	-9.50000e-01	3.491178e-05	
419	-1.00000e+00	3.626393e-05	
420	-1.05000e+00	3.756806e-05	
421	-1.10000e+00	3.882417e-05	
422	-1.15000e+00	4.003230e-05	
423	-1.20000e+00	4.119244e-05	
424	-1.25000e+00	4.230463e-05	
425	-1.30000e+00	4.336889e-05	
426	-1.35000e+00	4.438524e-05	
427	-1.40000e+00	4.535370e-05	
428	-1.45000e+00	4.627431e-05	
429	-1.50000e+00	4.714710e-05	
430	-1.55000e+00	4.797211e-05	
431	-1.60000e+00	4.874939e-05	
432	-1.65000e+00	4.947899e-05	
433	-1.70000e+00	5.016099e-05	
434	-1.75000e+00	5.079549e-05	
435	-1.80000e+00	5.138260e-05	
436	-1.85000e+00	5.192248e-05	
437	-1.90000e+00	5.241537e-05	
438	-1.95000e+00	5.286156e-05	
439	-2.00000e+00	5.326150e-05	
440	-2.05000e+00	5.361584e-05	
441	-2.10000e+00	5.392549e-05	
442	-2.15000e+00	5.419185e-05	
443	-2.20000e+00	5.441691e-05	
444	-2.25000e+00	5.460355e-05	
445	-2.30000e+00	5.475564e-05	
446	-2.35000e+00	5.487803e-05	
447	-2.40000e+00	5.497623e-05	
448	-2.45000e+00	5.505574e-05	
449	-2.50000e+00	5.512146e-05	
450	-2.55000e+00	5.517729e-05	
451	-2.60000e+00	5.522611e-05	
452	-2.65000e+00	5.526992e-05	
453	-2.70000e+00	5.531008e-05	
454	-2.75000e+00	5.534752e-05	
455	-2.80000e+00	5.538287e-05	
456	-2.85000e+00	5.541656e-05	
457	-2.90000e+00	5.544891e-05	
458	-2.95000e+00	5.548014e-05	
459	-3.00000e+00	5.551041e-05	
460	-3.05000e+00	5.553987e-05	

Index   v-sweep         i(vds)          
--------------------------------------------------------------------------------
461	-3.10000e+00	5.556860e-05	
462	-3.15000e+00	5.559669e-05	
463	-3.20000e+00	5.562420e-05	
464	-3.25000e+00	5.565120e-05	
465	-3.30000e+00	5.567771e-05	
466	-3.35000e+00	5.570379e-05	
467	-3.40000e+00	5.572947e-05	
468	-3.45000e+00	5.575477e-05	
469	-3.50000e+00	5.577973e-05	
470	-3.55000e+00	5.580436e-05	
471	-3.60000e+00	5.582868e-05	
472	-3.65000e+00	5.585272e-05	
473	-3.70000e+00	5.587649e-05	
474	-3.75000e+00	5.590001e-05	
475	-3.80000e+00	5.592328e-05	
476	-3.85000e+00	5.594633e-05	
477	-3.90000e+00	5.596916e-05	
478	-3.95000e+00	5.599178e-05	
479	-4.00000e+00	5.601421e-05	
480	-4.05000e+00	5.603645e-05	
481	-4.10000e+00	5.605851e-05	
482	-4.15000e+00	5.608040e-05	
483	-4.20000e+00	5.610213e-05	
484	-4.25000e+00	5.612370e-05	
485	-4.30000e+00	5.614513e-05	
486	-4.35000e+00	5.616641e-05	
487	-4.40000e+00	5.618755e-05	
488	-4.45000e+00	5.620855e-05	
489	-4.50000e+00	5.622943e-05	
490	-4.55000e+00	5.625019e-05	
491	-4.60000e+00	5.627083e-05	
492	-4.65000e+00	5.629135e-05	
493	-4.70000e+00	5.631176e-05	
494	-4.75000e+00	5.633207e-05	
495	-4.80000e+00	5.635228e-05	
496	-4.85000e+00	5.637238e-05	
497	-4.90000e+00	5.639239e-05	
498	-4.95000e+00	5.641232e-05	
499	-5.00000e+00	5.643215e-05	
500	-5.05000e+00	5.645190e-05	
501	-5.10000e+00	5.647157e-05	
502	-5.15000e+00	5.649117e-05	
503	-5.20000e+00	5.651070e-05	
504	-5.25000e+00	5.653017e-05	
505	-5.30000e+00	5.654957e-05	
506	-5.35000e+00	5.656893e-05	
507	-5.40000e+00	5.658825e-05	
508	-5.45000e+00	5.660753e-05	
509	-5.50000e+00	5.662680e-05	
510	-5.55000e+00	5.664605e-05	
511	-5.60000e+00	5.666531e-05	
512	-5.65000e+00	5.668460e-05	
513	-5.70000e+00	5.670393e-05	
514	-5.75000e+00	5.672332e-05	
515	-5.80000e+00	5.674281e-05	
516	-5.85000e+00	5.676241e-05	
517	-5.90000e+00	5.678218e-05	
518	-5.95000e+00	5.680214e-05	

Index   v-sweep         i(vds)          
--------------------------------------------------------------------------------
519	-6.00000e+00	5.682233e-05	
520	-6.05000e+00	5.684282e-05	
521	-6.10000e+00	5.686364e-05	
522	-6.15000e+00	5.688487e-05	
523	-6.20000e+00	5.690658e-05	
524	-6.25000e+00	5.692883e-05	
525	-6.30000e+00	5.695172e-05	
526	-6.35000e+00	5.697534e-05	
527	-6.40000e+00	5.699979e-05	
528	-6.45000e+00	5.702519e-05	
529	-6.50000e+00	5.705165e-05	
530	-6.55000e+00	5.707932e-05	
531	-6.60000e+00	5.710834e-05	
532	0.000000e+00	-1.77704e-21	
533	-5.00000e-02	2.850332e-06	
534	-1.00000e-01	5.610998e-06	
535	-1.50000e-01	8.316146e-06	
536	-2.00000e-01	1.097382e-05	
537	-2.50000e-01	1.358591e-05	
538	-3.00000e-01	1.615289e-05	
539	-3.50000e-01	1.867486e-05	
540	-4.00000e-01	2.115186e-05	
541	-4.50000e-01	2.358392e-05	
542	-5.00000e-01	2.597104e-05	
543	-5.50000e-01	2.831323e-05	
544	-6.00000e-01	3.061052e-05	
545	-6.50000e-01	3.286290e-05	
546	-7.00000e-01	3.507040e-05	
547	-7.50000e-01	3.723302e-05	
548	-8.00000e-01	3.935077e-05	
549	-8.50000e-01	4.142368e-05	
550	-9.00000e-01	4.345175e-05	
551	-9.50000e-01	4.543499e-05	
552	-1.00000e+00	4.737341e-05	
553	-1.05000e+00	4.926703e-05	
554	-1.10000e+00	5.111587e-05	
555	-1.15000e+00	5.291993e-05	
556	-1.20000e+00	5.467922e-05	
557	-1.25000e+00	5.639376e-05	
558	-1.30000e+00	5.806357e-05	
559	-1.35000e+00	5.968865e-05	
560	-1.40000e+00	6.126901e-05	
561	-1.45000e+00	6.280468e-05	
562	-1.50000e+00	6.429567e-05	
563	-1.55000e+00	6.574199e-05	
564	-1.60000e+00	6.714366e-05	
565	-1.65000e+00	6.850069e-05	
566	-1.70000e+00	6.981309e-05	
567	-1.75000e+00	7.108089e-05	
568	-1.80000e+00	7.230411e-05	
569	-1.85000e+00	7.348275e-05	
570	-1.90000e+00	7.461685e-05	
571	-1.95000e+00	7.570643e-05	
572	-2.00000e+00	7.675150e-05	
573	-2.05000e+00	7.775210e-05	
574	-2.10000e+00	7.870825e-05	
575	-2.15000e+00	7.962000e-05	
576	-2.20000e+00	8.048738e-05	

Index   v-sweep         i(vds)          
--------------------------------------------------------------------------------
577	-2.25000e+00	8.131044e-05	
578	-2.30000e+00	8.208923e-05	
579	-2.35000e+00	8.282382e-05	
580	-2.40000e+00	8.351429e-05	
581	-2.45000e+00	8.416076e-05	
582	-2.50000e+00	8.476335e-05	
583	-2.55000e+00	8.532224e-05	
584	-2.60000e+00	8.583766e-05	
585	-2.65000e+00	8.630992e-05	
586	-2.70000e+00	8.673942e-05	
587	-2.75000e+00	8.712676e-05	
588	-2.80000e+00	8.747272e-05	
589	-2.85000e+00	8.777843e-05	
590	-2.90000e+00	8.804543e-05	
591	-2.95000e+00	8.827581e-05	
592	-3.00000e+00	8.847238e-05	
593	-3.05000e+00	8.863864e-05	
594	-3.10000e+00	8.877872e-05	
595	-3.15000e+00	8.889708e-05	
596	-3.20000e+00	8.899814e-05	
597	-3.25000e+00	8.908583e-05	
598	-3.30000e+00	8.916344e-05	
599	-3.35000e+00	8.923350e-05	
600	-3.40000e+00	8.929787e-05	
601	-3.45000e+00	8.935792e-05	
602	-3.50000e+00	8.941461e-05	
603	-3.55000e+00	8.946862e-05	
604	-3.60000e+00	8.952046e-05	
605	-3.65000e+00	8.957050e-05	
606	-3.70000e+00	8.961901e-05	
607	-3.75000e+00	8.966620e-05	
608	-3.80000e+00	8.971224e-05	
609	-3.85000e+00	8.975726e-05	
610	-3.90000e+00	8.980135e-05	
611	-3.95000e+00	8.984462e-05	
612	-4.00000e+00	8.988714e-05	
613	-4.05000e+00	8.992896e-05	
614	-4.10000e+00	8.997014e-05	
615	-4.15000e+00	9.001072e-05	
616	-4.20000e+00	9.005076e-05	
617	-4.25000e+00	9.009028e-05	
618	-4.30000e+00	9.012932e-05	
619	-4.35000e+00	9.016790e-05	
620	-4.40000e+00	9.020606e-05	
621	-4.45000e+00	9.024382e-05	
622	-4.50000e+00	9.028119e-05	
623	-4.55000e+00	9.031820e-05	
624	-4.60000e+00	9.035487e-05	
625	-4.65000e+00	9.039121e-05	
626	-4.70000e+00	9.042724e-05	
627	-4.75000e+00	9.046297e-05	
628	-4.80000e+00	9.049842e-05	
629	-4.85000e+00	9.053360e-05	
630	-4.90000e+00	9.056852e-05	
631	-4.95000e+00	9.060319e-05	
632	-5.00000e+00	9.063762e-05	
633	-5.05000e+00	9.067182e-05	
634	-5.10000e+00	9.070581e-05	

Index   v-sweep         i(vds)          
--------------------------------------------------------------------------------
635	-5.15000e+00	9.073958e-05	
636	-5.20000e+00	9.077315e-05	
637	-5.25000e+00	9.080652e-05	
638	-5.30000e+00	9.083971e-05	
639	-5.35000e+00	9.087271e-05	
640	-5.40000e+00	9.090554e-05	
641	-5.45000e+00	9.093820e-05	
642	-5.50000e+00	9.097069e-05	
643	-5.55000e+00	9.100303e-05	
644	-5.60000e+00	9.103522e-05	
645	-5.65000e+00	9.106726e-05	
646	-5.70000e+00	9.109917e-05	
647	-5.75000e+00	9.113093e-05	
648	-5.80000e+00	9.116258e-05	
649	-5.85000e+00	9.119410e-05	
650	-5.90000e+00	9.122550e-05	
651	-5.95000e+00	9.125681e-05	
652	-6.00000e+00	9.128801e-05	
653	-6.05000e+00	9.131913e-05	
654	-6.10000e+00	9.135018e-05	
655	-6.15000e+00	9.138116e-05	
656	-6.20000e+00	9.141210e-05	
657	-6.25000e+00	9.144301e-05	
658	-6.30000e+00	9.147391e-05	
659	-6.35000e+00	9.150484e-05	
660	-6.40000e+00	9.153581e-05	
661	-6.45000e+00	9.156685e-05	
662	-6.50000e+00	9.159802e-05	
663	-6.55000e+00	9.162934e-05	
664	-6.60000e+00	9.166087e-05	
665	0.000000e+00	-6.93857e-25	
666	-5.00000e-02	3.327246e-06	
667	-1.00000e-01	6.567690e-06	
668	-1.50000e-01	9.755387e-06	
669	-2.00000e-01	1.289837e-05	
670	-2.50000e-01	1.599854e-05	
671	-3.00000e-01	1.905635e-05	
672	-3.50000e-01	2.207193e-05	
673	-4.00000e-01	2.504530e-05	
674	-4.50000e-01	2.797648e-05	
675	-5.00000e-01	3.086549e-05	
676	-5.50000e-01	3.371234e-05	
677	-6.00000e-01	3.651703e-05	
678	-6.50000e-01	3.927959e-05	
679	-7.00000e-01	4.200002e-05	
680	-7.50000e-01	4.467833e-05	
681	-8.00000e-01	4.731453e-05	
682	-8.50000e-01	4.990864e-05	
683	-9.00000e-01	5.246067e-05	
684	-9.50000e-01	5.497062e-05	
685	-1.00000e+00	5.743852e-05	
686	-1.05000e+00	5.986436e-05	
687	-1.10000e+00	6.224817e-05	
688	-1.15000e+00	6.458995e-05	
689	-1.20000e+00	6.688972e-05	
690	-1.25000e+00	6.914749e-05	
691	-1.30000e+00	7.136326e-05	
692	-1.35000e+00	7.353705e-05	

Index   v-sweep         i(vds)          
--------------------------------------------------------------------------------
693	-1.40000e+00	7.566888e-05	
694	-1.45000e+00	7.775875e-05	
695	-1.50000e+00	7.980667e-05	
696	-1.55000e+00	8.181266e-05	
697	-1.60000e+00	8.377674e-05	
698	-1.65000e+00	8.569890e-05	
699	-1.70000e+00	8.757916e-05	
700	-1.75000e+00	8.941754e-05	
701	-1.80000e+00	9.121405e-05	
702	-1.85000e+00	9.296870e-05	
703	-1.90000e+00	9.468150e-05	
704	-1.95000e+00	9.635246e-05	
705	-2.00000e+00	9.798161e-05	
706	-2.05000e+00	9.956895e-05	
707	-2.10000e+00	1.011145e-04	
708	-2.15000e+00	1.026183e-04	
709	-2.20000e+00	1.040803e-04	
710	-2.25000e+00	1.055005e-04	
711	-2.30000e+00	1.068790e-04	
712	-2.35000e+00	1.082158e-04	
713	-2.40000e+00	1.095109e-04	
714	-2.45000e+00	1.107643e-04	
715	-2.50000e+00	1.119761e-04	
716	-2.55000e+00	1.131462e-04	
717	-2.60000e+00	1.142746e-04	
718	-2.65000e+00	1.153615e-04	
719	-2.70000e+00	1.164068e-04	
720	-2.75000e+00	1.174106e-04	
721	-2.80000e+00	1.183728e-04	
722	-2.85000e+00	1.192936e-04	
723	-2.90000e+00	1.201730e-04	
724	-2.95000e+00	1.210109e-04	
725	-3.00000e+00	1.218076e-04	
726	-3.05000e+00	1.225630e-04	
727	-3.10000e+00	1.232772e-04	
728	-3.15000e+00	1.239504e-04	
729	-3.20000e+00	1.245827e-04	
730	-3.25000e+00	1.251742e-04	
731	-3.30000e+00	1.257251e-04	
732	-3.35000e+00	1.262358e-04	
733	-3.40000e+00	1.267065e-04	
734	-3.45000e+00	1.271378e-04	
735	-3.50000e+00	1.275303e-04	
736	-3.55000e+00	1.278848e-04	
737	-3.60000e+00	1.282024e-04	
738	-3.65000e+00	1.284847e-04	
739	-3.70000e+00	1.287336e-04	
740	-3.75000e+00	1.289515e-04	
741	-3.80000e+00	1.291415e-04	
742	-3.85000e+00	1.293071e-04	
743	-3.90000e+00	1.294518e-04	
744	-3.95000e+00	1.295794e-04	
745	-4.00000e+00	1.296934e-04	
746	-4.05000e+00	1.297966e-04	
747	-4.10000e+00	1.298913e-04	
748	-4.15000e+00	1.299796e-04	
749	-4.20000e+00	1.300627e-04	
750	-4.25000e+00	1.301417e-04	

Index   v-sweep         i(vds)          
--------------------------------------------------------------------------------
751	-4.30000e+00	1.302175e-04	
752	-4.35000e+00	1.302904e-04	
753	-4.40000e+00	1.303611e-04	
754	-4.45000e+00	1.304298e-04	
755	-4.50000e+00	1.304967e-04	
756	-4.55000e+00	1.305621e-04	
757	-4.60000e+00	1.306262e-04	
758	-4.65000e+00	1.306891e-04	
759	-4.70000e+00	1.307508e-04	
760	-4.75000e+00	1.308116e-04	
761	-4.80000e+00	1.308714e-04	
762	-4.85000e+00	1.309303e-04	
763	-4.90000e+00	1.309885e-04	
764	-4.95000e+00	1.310458e-04	
765	-5.00000e+00	1.311025e-04	
766	-5.05000e+00	1.311586e-04	
767	-5.10000e+00	1.312140e-04	
768	-5.15000e+00	1.312688e-04	
769	-5.20000e+00	1.313230e-04	
770	-5.25000e+00	1.313768e-04	
771	-5.30000e+00	1.314300e-04	
772	-5.35000e+00	1.314828e-04	
773	-5.40000e+00	1.315351e-04	
774	-5.45000e+00	1.315870e-04	
775	-5.50000e+00	1.316384e-04	
776	-5.55000e+00	1.316895e-04	
777	-5.60000e+00	1.317402e-04	
778	-5.65000e+00	1.317906e-04	
779	-5.70000e+00	1.318405e-04	
780	-5.75000e+00	1.318902e-04	
781	-5.80000e+00	1.319396e-04	
782	-5.85000e+00	1.319886e-04	
783	-5.90000e+00	1.320373e-04	
784	-5.95000e+00	1.320858e-04	
785	-6.00000e+00	1.321340e-04	
786	-6.05000e+00	1.321819e-04	
787	-6.10000e+00	1.322296e-04	
788	-6.15000e+00	1.322770e-04	
789	-6.20000e+00	1.323242e-04	
790	-6.25000e+00	1.323711e-04	
791	-6.30000e+00	1.324179e-04	
792	-6.35000e+00	1.324644e-04	
793	-6.40000e+00	1.325107e-04	
794	-6.45000e+00	1.325568e-04	
795	-6.50000e+00	1.326028e-04	
796	-6.55000e+00	1.326485e-04	
797	-6.60000e+00	1.326941e-04	
Note: No ".plot", ".print", or ".fourier" lines; no simulations run
