
Note: Compatibility modes selected: hs

Warning: m=xx on .subckt line will override multiplier m hierarchy!


Circuit: ***************************

Doing analysis at TEMP = 25.000000 and TNOM = 25.000000


No. of Data Rows : 798
                          ***************************
                          DC transfer characteristic  Mon Jan  9 13:58:50  2023
--------------------------------------------------------------------------------
Index   v-sweep         i(vds)          
--------------------------------------------------------------------------------
0	0.000000e+00	-4.88518e-33	
1	-5.00000e-02	2.118855e-06	
2	-1.00000e-01	3.498633e-06	
3	-1.50000e-01	4.222460e-06	
4	-2.00000e-01	4.516206e-06	
5	-2.50000e-01	4.648060e-06	
6	-3.00000e-01	4.735963e-06	
7	-3.50000e-01	4.809443e-06	
8	-4.00000e-01	4.876248e-06	
9	-4.50000e-01	4.939045e-06	
10	-5.00000e-01	4.999030e-06	
11	-5.50000e-01	5.056858e-06	
12	-6.00000e-01	5.112945e-06	
13	-6.50000e-01	5.167581e-06	
14	-7.00000e-01	5.220983e-06	
15	-7.50000e-01	5.273319e-06	
16	-8.00000e-01	5.324728e-06	
17	-8.50000e-01	5.375321e-06	
18	-9.00000e-01	5.425191e-06	
19	-9.50000e-01	5.474420e-06	
20	-1.00000e+00	5.523076e-06	
21	-1.05000e+00	5.571219e-06	
22	-1.10000e+00	5.618900e-06	
23	-1.15000e+00	5.666165e-06	
24	-1.20000e+00	5.713055e-06	
25	-1.25000e+00	5.759606e-06	
26	-1.30000e+00	5.805849e-06	
27	-1.35000e+00	5.851814e-06	
28	-1.40000e+00	5.897527e-06	
29	-1.45000e+00	5.943010e-06	
30	-1.50000e+00	5.988286e-06	
31	-1.55000e+00	6.033374e-06	
32	-1.60000e+00	6.078290e-06	
33	-1.65000e+00	6.123052e-06	
34	-1.70000e+00	6.167674e-06	
35	-1.75000e+00	6.212170e-06	
36	-1.80000e+00	6.256552e-06	
37	-1.85000e+00	6.300833e-06	
38	-1.90000e+00	6.345021e-06	
39	-1.95000e+00	6.389129e-06	
40	-2.00000e+00	6.433164e-06	
41	-2.05000e+00	6.477135e-06	
42	-2.10000e+00	6.521051e-06	
43	-2.15000e+00	6.564918e-06	
44	-2.20000e+00	6.608745e-06	
45	-2.25000e+00	6.652536e-06	
46	-2.30000e+00	6.696299e-06	
47	-2.35000e+00	6.740039e-06	
48	-2.40000e+00	6.783761e-06	
49	-2.45000e+00	6.827471e-06	
50	-2.50000e+00	6.871174e-06	
51	-2.55000e+00	6.914873e-06	
52	-2.60000e+00	6.958574e-06	
53	-2.65000e+00	7.002279e-06	
54	-2.70000e+00	7.045994e-06	

Index   v-sweep         i(vds)          
--------------------------------------------------------------------------------
55	-2.75000e+00	7.089722e-06	
56	-2.80000e+00	7.133466e-06	
57	-2.85000e+00	7.177230e-06	
58	-2.90000e+00	7.221016e-06	
59	-2.95000e+00	7.264829e-06	
60	-3.00000e+00	7.308671e-06	
61	-3.05000e+00	7.352545e-06	
62	-3.10000e+00	7.396454e-06	
63	-3.15000e+00	7.440402e-06	
64	-3.20000e+00	7.484391e-06	
65	-3.25000e+00	7.528425e-06	
66	-3.30000e+00	7.572507e-06	
67	-3.35000e+00	7.616640e-06	
68	-3.40000e+00	7.660828e-06	
69	-3.45000e+00	7.705076e-06	
70	-3.50000e+00	7.749386e-06	
71	-3.55000e+00	7.793765e-06	
72	-3.60000e+00	7.838216e-06	
73	-3.65000e+00	7.882747e-06	
74	-3.70000e+00	7.927362e-06	
75	-3.75000e+00	7.972069e-06	
76	-3.80000e+00	8.016875e-06	
77	-3.85000e+00	8.061789e-06	
78	-3.90000e+00	8.106821e-06	
79	-3.95000e+00	8.151980e-06	
80	-4.00000e+00	8.197278e-06	
81	-4.05000e+00	8.242729e-06	
82	-4.10000e+00	8.288346e-06	
83	-4.15000e+00	8.334145e-06	
84	-4.20000e+00	8.380144e-06	
85	-4.25000e+00	8.426361e-06	
86	-4.30000e+00	8.472818e-06	
87	-4.35000e+00	8.519537e-06	
88	-4.40000e+00	8.566543e-06	
89	-4.45000e+00	8.613865e-06	
90	-4.50000e+00	8.661530e-06	
91	-4.55000e+00	8.709572e-06	
92	-4.60000e+00	8.758026e-06	
93	-4.65000e+00	8.806929e-06	
94	-4.70000e+00	8.856323e-06	
95	-4.75000e+00	8.906251e-06	
96	-4.80000e+00	8.956761e-06	
97	-4.85000e+00	9.007903e-06	
98	-4.90000e+00	9.059731e-06	
99	-4.95000e+00	9.112305e-06	
100	-5.00000e+00	9.165685e-06	
101	-5.05000e+00	9.219938e-06	
102	-5.10000e+00	9.275134e-06	
103	-5.15000e+00	9.331347e-06	
104	-5.20000e+00	9.388657e-06	
105	-5.25000e+00	9.447147e-06	
106	-5.30000e+00	9.506906e-06	
107	-5.35000e+00	9.568027e-06	
108	-5.40000e+00	9.630608e-06	
109	-5.45000e+00	9.694753e-06	
110	-5.50000e+00	9.760571e-06	
111	-5.55000e+00	9.828176e-06	
112	-5.60000e+00	9.897688e-06	

Index   v-sweep         i(vds)          
--------------------------------------------------------------------------------
113	-5.65000e+00	9.969233e-06	
114	-5.70000e+00	1.004294e-05	
115	-5.75000e+00	1.011895e-05	
116	-5.80000e+00	1.019740e-05	
117	-5.85000e+00	1.027845e-05	
118	-5.90000e+00	1.036224e-05	
119	-5.95000e+00	1.044895e-05	
120	-6.00000e+00	1.053873e-05	
121	-6.05000e+00	1.063177e-05	
122	-6.10000e+00	1.072824e-05	
123	-6.15000e+00	1.082834e-05	
124	-6.20000e+00	1.093225e-05	
125	-6.25000e+00	1.104018e-05	
126	-6.30000e+00	1.115233e-05	
127	-6.35000e+00	1.126893e-05	
128	-6.40000e+00	1.139019e-05	
129	-6.45000e+00	1.151635e-05	
130	-6.50000e+00	1.164763e-05	
131	-6.55000e+00	1.178429e-05	
132	-6.60000e+00	1.192656e-05	
133	0.000000e+00	-1.58847e-21	
134	-5.00000e-02	1.498558e-05	
135	-1.00000e-01	2.910632e-05	
136	-1.50000e-01	4.237048e-05	
137	-2.00000e-01	5.478631e-05	
138	-2.50000e-01	6.636206e-05	
139	-3.00000e-01	7.710598e-05	
140	-3.50000e-01	8.702638e-05	
141	-4.00000e-01	9.613169e-05	
142	-4.50000e-01	1.044306e-04	
143	-5.00000e-01	1.119320e-04	
144	-5.50000e-01	1.186459e-04	
145	-6.00000e-01	1.245833e-04	
146	-6.50000e-01	1.297580e-04	
147	-7.00000e-01	1.341888e-04	
148	-7.50000e-01	1.379046e-04	
149	-8.00000e-01	1.409529e-04	
150	-8.50000e-01	1.434113e-04	
151	-9.00000e-01	1.453906e-04	
152	-9.50000e-01	1.470164e-04	
153	-1.00000e+00	1.483968e-04	
154	-1.05000e+00	1.496073e-04	
155	-1.10000e+00	1.506952e-04	
156	-1.15000e+00	1.516902e-04	
157	-1.20000e+00	1.526114e-04	
158	-1.25000e+00	1.534723e-04	
159	-1.30000e+00	1.542825e-04	
160	-1.35000e+00	1.550494e-04	
161	-1.40000e+00	1.557789e-04	
162	-1.45000e+00	1.564754e-04	
163	-1.50000e+00	1.571428e-04	
164	-1.55000e+00	1.577844e-04	
165	-1.60000e+00	1.584026e-04	
166	-1.65000e+00	1.589999e-04	
167	-1.70000e+00	1.595782e-04	
168	-1.75000e+00	1.601390e-04	
169	-1.80000e+00	1.606841e-04	
170	-1.85000e+00	1.612145e-04	

Index   v-sweep         i(vds)          
--------------------------------------------------------------------------------
171	-1.90000e+00	1.617315e-04	
172	-1.95000e+00	1.622360e-04	
173	-2.00000e+00	1.627291e-04	
174	-2.05000e+00	1.632114e-04	
175	-2.10000e+00	1.636837e-04	
176	-2.15000e+00	1.641467e-04	
177	-2.20000e+00	1.646010e-04	
178	-2.25000e+00	1.650471e-04	
179	-2.30000e+00	1.654855e-04	
180	-2.35000e+00	1.659166e-04	
181	-2.40000e+00	1.663409e-04	
182	-2.45000e+00	1.667588e-04	
183	-2.50000e+00	1.671705e-04	
184	-2.55000e+00	1.675765e-04	
185	-2.60000e+00	1.679770e-04	
186	-2.65000e+00	1.683723e-04	
187	-2.70000e+00	1.687626e-04	
188	-2.75000e+00	1.691482e-04	
189	-2.80000e+00	1.695294e-04	
190	-2.85000e+00	1.699062e-04	
191	-2.90000e+00	1.702790e-04	
192	-2.95000e+00	1.706478e-04	
193	-3.00000e+00	1.710130e-04	
194	-3.05000e+00	1.713745e-04	
195	-3.10000e+00	1.717326e-04	
196	-3.15000e+00	1.720874e-04	
197	-3.20000e+00	1.724391e-04	
198	-3.25000e+00	1.727877e-04	
199	-3.30000e+00	1.731335e-04	
200	-3.35000e+00	1.734764e-04	
201	-3.40000e+00	1.738167e-04	
202	-3.45000e+00	1.741543e-04	
203	-3.50000e+00	1.744895e-04	
204	-3.55000e+00	1.748223e-04	
205	-3.60000e+00	1.751528e-04	
206	-3.65000e+00	1.754810e-04	
207	-3.70000e+00	1.758072e-04	
208	-3.75000e+00	1.761312e-04	
209	-3.80000e+00	1.764533e-04	
210	-3.85000e+00	1.767736e-04	
211	-3.90000e+00	1.770920e-04	
212	-3.95000e+00	1.774087e-04	
213	-4.00000e+00	1.777237e-04	
214	-4.05000e+00	1.780372e-04	
215	-4.10000e+00	1.783492e-04	
216	-4.15000e+00	1.786599e-04	
217	-4.20000e+00	1.789693e-04	
218	-4.25000e+00	1.792776e-04	
219	-4.30000e+00	1.795848e-04	
220	-4.35000e+00	1.798911e-04	
221	-4.40000e+00	1.801967e-04	
222	-4.45000e+00	1.805016e-04	
223	-4.50000e+00	1.808061e-04	
224	-4.55000e+00	1.811104e-04	
225	-4.60000e+00	1.814145e-04	
226	-4.65000e+00	1.817189e-04	
227	-4.70000e+00	1.820236e-04	
228	-4.75000e+00	1.823291e-04	

Index   v-sweep         i(vds)          
--------------------------------------------------------------------------------
229	-4.80000e+00	1.826355e-04	
230	-4.85000e+00	1.829432e-04	
231	-4.90000e+00	1.832525e-04	
232	-4.95000e+00	1.835639e-04	
233	-5.00000e+00	1.838777e-04	
234	-5.05000e+00	1.841944e-04	
235	-5.10000e+00	1.845144e-04	
236	-5.15000e+00	1.848385e-04	
237	-5.20000e+00	1.851670e-04	
238	-5.25000e+00	1.855006e-04	
239	-5.30000e+00	1.858401e-04	
240	-5.35000e+00	1.861860e-04	
241	-5.40000e+00	1.865393e-04	
242	-5.45000e+00	1.869006e-04	
243	-5.50000e+00	1.872710e-04	
244	-5.55000e+00	1.876512e-04	
245	-5.60000e+00	1.880425e-04	
246	-5.65000e+00	1.884457e-04	
247	-5.70000e+00	1.888620e-04	
248	-5.75000e+00	1.892927e-04	
249	-5.80000e+00	1.897390e-04	
250	-5.85000e+00	1.902021e-04	
251	-5.90000e+00	1.906836e-04	
252	-5.95000e+00	1.911849e-04	
253	-6.00000e+00	1.917075e-04	
254	-6.05000e+00	1.922531e-04	
255	-6.10000e+00	1.928233e-04	
256	-6.15000e+00	1.934200e-04	
257	-6.20000e+00	1.940449e-04	
258	-6.25000e+00	1.947001e-04	
259	-6.30000e+00	1.953876e-04	
260	-6.35000e+00	1.961093e-04	
261	-6.40000e+00	1.968676e-04	
262	-6.45000e+00	1.976647e-04	
263	-6.50000e+00	1.985029e-04	
264	-6.55000e+00	1.993846e-04	
265	-6.60000e+00	2.003125e-04	
266	0.000000e+00	-1.48648e-21	
267	-5.00000e-02	2.387450e-05	
268	-1.00000e-01	4.695880e-05	
269	-1.50000e-01	6.925887e-05	
270	-2.00000e-01	9.078062e-05	
271	-2.50000e-01	1.115300e-04	
272	-3.00000e-01	1.315128e-04	
273	-3.50000e-01	1.507349e-04	
274	-4.00000e-01	1.692022e-04	
275	-4.50000e-01	1.869205e-04	
276	-5.00000e-01	2.038955e-04	
277	-5.50000e-01	2.201331e-04	
278	-6.00000e-01	2.356389e-04	
279	-6.50000e-01	2.504188e-04	
280	-7.00000e-01	2.644784e-04	
281	-7.50000e-01	2.778236e-04	
282	-8.00000e-01	2.904600e-04	
283	-8.50000e-01	3.023936e-04	
284	-9.00000e-01	3.136301e-04	
285	-9.50000e-01	3.241756e-04	
286	-1.00000e+00	3.340361e-04	

Index   v-sweep         i(vds)          
--------------------------------------------------------------------------------
287	-1.05000e+00	3.432182e-04	
288	-1.10000e+00	3.517287e-04	
289	-1.15000e+00	3.595751e-04	
290	-1.20000e+00	3.667661e-04	
291	-1.25000e+00	3.733125e-04	
292	-1.30000e+00	3.792281e-04	
293	-1.35000e+00	3.845322e-04	
294	-1.40000e+00	3.892527e-04	
295	-1.45000e+00	3.934294e-04	
296	-1.50000e+00	3.971163e-04	
297	-1.55000e+00	4.003786e-04	
298	-1.60000e+00	4.032847e-04	
299	-1.65000e+00	4.058977e-04	
300	-1.70000e+00	4.082707e-04	
301	-1.75000e+00	4.104459e-04	
302	-1.80000e+00	4.124565e-04	
303	-1.85000e+00	4.143283e-04	
304	-1.90000e+00	4.160816e-04	
305	-1.95000e+00	4.177329e-04	
306	-2.00000e+00	4.192954e-04	
307	-2.05000e+00	4.207799e-04	
308	-2.10000e+00	4.221953e-04	
309	-2.15000e+00	4.235493e-04	
310	-2.20000e+00	4.248481e-04	
311	-2.25000e+00	4.260973e-04	
312	-2.30000e+00	4.273014e-04	
313	-2.35000e+00	4.284647e-04	
314	-2.40000e+00	4.295905e-04	
315	-2.45000e+00	4.306820e-04	
316	-2.50000e+00	4.317420e-04	
317	-2.55000e+00	4.327727e-04	
318	-2.60000e+00	4.337765e-04	
319	-2.65000e+00	4.347553e-04	
320	-2.70000e+00	4.357107e-04	
321	-2.75000e+00	4.366443e-04	
322	-2.80000e+00	4.375575e-04	
323	-2.85000e+00	4.384516e-04	
324	-2.90000e+00	4.393278e-04	
325	-2.95000e+00	4.401872e-04	
326	-3.00000e+00	4.410306e-04	
327	-3.05000e+00	4.418591e-04	
328	-3.10000e+00	4.426733e-04	
329	-3.15000e+00	4.434741e-04	
330	-3.20000e+00	4.442622e-04	
331	-3.25000e+00	4.450382e-04	
332	-3.30000e+00	4.458026e-04	
333	-3.35000e+00	4.465562e-04	
334	-3.40000e+00	4.472993e-04	
335	-3.45000e+00	4.480325e-04	
336	-3.50000e+00	4.487562e-04	
337	-3.55000e+00	4.494708e-04	
338	-3.60000e+00	4.501767e-04	
339	-3.65000e+00	4.508743e-04	
340	-3.70000e+00	4.515640e-04	
341	-3.75000e+00	4.522460e-04	
342	-3.80000e+00	4.529206e-04	
343	-3.85000e+00	4.535883e-04	
344	-3.90000e+00	4.542492e-04	

Index   v-sweep         i(vds)          
--------------------------------------------------------------------------------
345	-3.95000e+00	4.549035e-04	
346	-4.00000e+00	4.555516e-04	
347	-4.05000e+00	4.561937e-04	
348	-4.10000e+00	4.568300e-04	
349	-4.15000e+00	4.574607e-04	
350	-4.20000e+00	4.580860e-04	
351	-4.25000e+00	4.587061e-04	
352	-4.30000e+00	4.593212e-04	
353	-4.35000e+00	4.599316e-04	
354	-4.40000e+00	4.605373e-04	
355	-4.45000e+00	4.611386e-04	
356	-4.50000e+00	4.617357e-04	
357	-4.55000e+00	4.623287e-04	
358	-4.60000e+00	4.629179e-04	
359	-4.65000e+00	4.635035e-04	
360	-4.70000e+00	4.640856e-04	
361	-4.75000e+00	4.646645e-04	
362	-4.80000e+00	4.652405e-04	
363	-4.85000e+00	4.658138e-04	
364	-4.90000e+00	4.663847e-04	
365	-4.95000e+00	4.669534e-04	
366	-5.00000e+00	4.675204e-04	
367	-5.05000e+00	4.680860e-04	
368	-5.10000e+00	4.686506e-04	
369	-5.15000e+00	4.692147e-04	
370	-5.20000e+00	4.697786e-04	
371	-5.25000e+00	4.703431e-04	
372	-5.30000e+00	4.709086e-04	
373	-5.35000e+00	4.714759e-04	
374	-5.40000e+00	4.720456e-04	
375	-5.45000e+00	4.726186e-04	
376	-5.50000e+00	4.731956e-04	
377	-5.55000e+00	4.737777e-04	
378	-5.60000e+00	4.743658e-04	
379	-5.65000e+00	4.749611e-04	
380	-5.70000e+00	4.755648e-04	
381	-5.75000e+00	4.761782e-04	
382	-5.80000e+00	4.768027e-04	
383	-5.85000e+00	4.774399e-04	
384	-5.90000e+00	4.780914e-04	
385	-5.95000e+00	4.787589e-04	
386	-6.00000e+00	4.794445e-04	
387	-6.05000e+00	4.801500e-04	
388	-6.10000e+00	4.808778e-04	
389	-6.15000e+00	4.816301e-04	
390	-6.20000e+00	4.824094e-04	
391	-6.25000e+00	4.832182e-04	
392	-6.30000e+00	4.840595e-04	
393	-6.35000e+00	4.849360e-04	
394	-6.40000e+00	4.858510e-04	
395	-6.45000e+00	4.868076e-04	
396	-6.50000e+00	4.878094e-04	
397	-6.55000e+00	4.888599e-04	
398	-6.60000e+00	4.899630e-04	
399	0.000000e+00	-2.75462e-21	
400	-5.00000e-02	3.044476e-05	
401	-1.00000e-01	6.016979e-05	
402	-1.50000e-01	8.917964e-05	

Index   v-sweep         i(vds)          
--------------------------------------------------------------------------------
403	-2.00000e-01	1.174789e-04	
404	-2.50000e-01	1.450720e-04	
405	-3.00000e-01	1.719635e-04	
406	-3.50000e-01	1.981579e-04	
407	-4.00000e-01	2.236597e-04	
408	-4.50000e-01	2.484734e-04	
409	-5.00000e-01	2.726033e-04	
410	-5.50000e-01	2.960539e-04	
411	-6.00000e-01	3.188297e-04	
412	-6.50000e-01	3.409350e-04	
413	-7.00000e-01	3.623743e-04	
414	-7.50000e-01	3.831518e-04	
415	-8.00000e-01	4.032719e-04	
416	-8.50000e-01	4.227390e-04	
417	-9.00000e-01	4.415573e-04	
418	-9.50000e-01	4.597313e-04	
419	-1.00000e+00	4.772651e-04	
420	-1.05000e+00	4.941631e-04	
421	-1.10000e+00	5.104296e-04	
422	-1.15000e+00	5.260688e-04	
423	-1.20000e+00	5.410849e-04	
424	-1.25000e+00	5.554824e-04	
425	-1.30000e+00	5.692653e-04	
426	-1.35000e+00	5.824382e-04	
427	-1.40000e+00	5.950052e-04	
428	-1.45000e+00	6.069707e-04	
429	-1.50000e+00	6.183392e-04	
430	-1.55000e+00	6.291153e-04	
431	-1.60000e+00	6.393035e-04	
432	-1.65000e+00	6.489088e-04	
433	-1.70000e+00	6.579364e-04	
434	-1.75000e+00	6.663919e-04	
435	-1.80000e+00	6.742818e-04	
436	-1.85000e+00	6.816137e-04	
437	-1.90000e+00	6.883971e-04	
438	-1.95000e+00	6.946444e-04	
439	-2.00000e+00	7.003730e-04	
440	-2.05000e+00	7.056066e-04	
441	-2.10000e+00	7.103773e-04	
442	-2.15000e+00	7.147251e-04	
443	-2.20000e+00	7.186949e-04	
444	-2.25000e+00	7.223332e-04	
445	-2.30000e+00	7.256838e-04	
446	-2.35000e+00	7.287859e-04	
447	-2.40000e+00	7.316735e-04	
448	-2.45000e+00	7.343753e-04	
449	-2.50000e+00	7.369152e-04	
450	-2.55000e+00	7.393134e-04	
451	-2.60000e+00	7.415867e-04	
452	-2.65000e+00	7.437493e-04	
453	-2.70000e+00	7.458133e-04	
454	-2.75000e+00	7.477889e-04	
455	-2.80000e+00	7.496848e-04	
456	-2.85000e+00	7.515086e-04	
457	-2.90000e+00	7.532669e-04	
458	-2.95000e+00	7.549654e-04	
459	-3.00000e+00	7.566091e-04	
460	-3.05000e+00	7.582025e-04	

Index   v-sweep         i(vds)          
--------------------------------------------------------------------------------
461	-3.10000e+00	7.597494e-04	
462	-3.15000e+00	7.612533e-04	
463	-3.20000e+00	7.627174e-04	
464	-3.25000e+00	7.641445e-04	
465	-3.30000e+00	7.655370e-04	
466	-3.35000e+00	7.668972e-04	
467	-3.40000e+00	7.682272e-04	
468	-3.45000e+00	7.695288e-04	
469	-3.50000e+00	7.708038e-04	
470	-3.55000e+00	7.720537e-04	
471	-3.60000e+00	7.732799e-04	
472	-3.65000e+00	7.744837e-04	
473	-3.70000e+00	7.756664e-04	
474	-3.75000e+00	7.768290e-04	
475	-3.80000e+00	7.779726e-04	
476	-3.85000e+00	7.790981e-04	
477	-3.90000e+00	7.802064e-04	
478	-3.95000e+00	7.812984e-04	
479	-4.00000e+00	7.823747e-04	
480	-4.05000e+00	7.834361e-04	
481	-4.10000e+00	7.844833e-04	
482	-4.15000e+00	7.855169e-04	
483	-4.20000e+00	7.865375e-04	
484	-4.25000e+00	7.875455e-04	
485	-4.30000e+00	7.885416e-04	
486	-4.35000e+00	7.895263e-04	
487	-4.40000e+00	7.904998e-04	
488	-4.45000e+00	7.914628e-04	
489	-4.50000e+00	7.924156e-04	
490	-4.55000e+00	7.933587e-04	
491	-4.60000e+00	7.942922e-04	
492	-4.65000e+00	7.952167e-04	
493	-4.70000e+00	7.961325e-04	
494	-4.75000e+00	7.970398e-04	
495	-4.80000e+00	7.979390e-04	
496	-4.85000e+00	7.988305e-04	
497	-4.90000e+00	7.997144e-04	
498	-4.95000e+00	8.005911e-04	
499	-5.00000e+00	8.014609e-04	
500	-5.05000e+00	8.023240e-04	
501	-5.10000e+00	8.031809e-04	
502	-5.15000e+00	8.040317e-04	
503	-5.20000e+00	8.048769e-04	
504	-5.25000e+00	8.057167e-04	
505	-5.30000e+00	8.065515e-04	
506	-5.35000e+00	8.073817e-04	
507	-5.40000e+00	8.082077e-04	
508	-5.45000e+00	8.090300e-04	
509	-5.50000e+00	8.098490e-04	
510	-5.55000e+00	8.106653e-04	
511	-5.60000e+00	8.114794e-04	
512	-5.65000e+00	8.122921e-04	
513	-5.70000e+00	8.131041e-04	
514	-5.75000e+00	8.139161e-04	
515	-5.80000e+00	8.147290e-04	
516	-5.85000e+00	8.155438e-04	
517	-5.90000e+00	8.163615e-04	
518	-5.95000e+00	8.171833e-04	

Index   v-sweep         i(vds)          
--------------------------------------------------------------------------------
519	-6.00000e+00	8.180106e-04	
520	-6.05000e+00	8.188446e-04	
521	-6.10000e+00	8.196871e-04	
522	-6.15000e+00	8.205395e-04	
523	-6.20000e+00	8.214039e-04	
524	-6.25000e+00	8.222821e-04	
525	-6.30000e+00	8.231763e-04	
526	-6.35000e+00	8.240890e-04	
527	-6.40000e+00	8.250226e-04	
528	-6.45000e+00	8.259798e-04	
529	-6.50000e+00	8.269636e-04	
530	-6.55000e+00	8.279771e-04	
531	-6.60000e+00	8.290237e-04	
532	0.000000e+00	-1.24555e-29	
533	-5.00000e-02	3.553197e-05	
534	-1.00000e-01	7.040442e-05	
535	-1.50000e-01	1.046210e-04	
536	-2.00000e-01	1.381853e-04	
537	-2.50000e-01	1.711010e-04	
538	-3.00000e-01	2.033716e-04	
539	-3.50000e-01	2.350008e-04	
540	-4.00000e-01	2.659922e-04	
541	-4.50000e-01	2.963492e-04	
542	-5.00000e-01	3.260755e-04	
543	-5.50000e-01	3.551747e-04	
544	-6.00000e-01	3.836502e-04	
545	-6.50000e-01	4.115055e-04	
546	-7.00000e-01	4.387443e-04	
547	-7.50000e-01	4.653699e-04	
548	-8.00000e-01	4.913860e-04	
549	-8.50000e-01	5.167959e-04	
550	-9.00000e-01	5.416031e-04	
551	-9.50000e-01	5.658111e-04	
552	-1.00000e+00	5.894233e-04	
553	-1.05000e+00	6.124431e-04	
554	-1.10000e+00	6.348741e-04	
555	-1.15000e+00	6.567195e-04	
556	-1.20000e+00	6.779827e-04	
557	-1.25000e+00	6.986673e-04	
558	-1.30000e+00	7.187764e-04	
559	-1.35000e+00	7.383136e-04	
560	-1.40000e+00	7.572821e-04	
561	-1.45000e+00	7.756853e-04	
562	-1.50000e+00	7.935265e-04	
563	-1.55000e+00	8.108091e-04	
564	-1.60000e+00	8.275363e-04	
565	-1.65000e+00	8.437116e-04	
566	-1.70000e+00	8.593381e-04	
567	-1.75000e+00	8.744193e-04	
568	-1.80000e+00	8.889583e-04	
569	-1.85000e+00	9.029586e-04	
570	-1.90000e+00	9.164233e-04	
571	-1.95000e+00	9.293558e-04	
572	-2.00000e+00	9.417594e-04	
573	-2.05000e+00	9.536374e-04	
574	-2.10000e+00	9.649929e-04	
575	-2.15000e+00	9.758293e-04	
576	-2.20000e+00	9.861498e-04	

Index   v-sweep         i(vds)          
--------------------------------------------------------------------------------
577	-2.25000e+00	9.959573e-04	
578	-2.30000e+00	1.005255e-03	
579	-2.35000e+00	1.014046e-03	
580	-2.40000e+00	1.022332e-03	
581	-2.45000e+00	1.030117e-03	
582	-2.50000e+00	1.037404e-03	
583	-2.55000e+00	1.044198e-03	
584	-2.60000e+00	1.050510e-03	
585	-2.65000e+00	1.056354e-03	
586	-2.70000e+00	1.061756e-03	
587	-2.75000e+00	1.066747e-03	
588	-2.80000e+00	1.071366e-03	
589	-2.85000e+00	1.075649e-03	
590	-2.90000e+00	1.079637e-03	
591	-2.95000e+00	1.083363e-03	
592	-3.00000e+00	1.086860e-03	
593	-3.05000e+00	1.090154e-03	
594	-3.10000e+00	1.093268e-03	
595	-3.15000e+00	1.096223e-03	
596	-3.20000e+00	1.099036e-03	
597	-3.25000e+00	1.101723e-03	
598	-3.30000e+00	1.104294e-03	
599	-3.35000e+00	1.106763e-03	
600	-3.40000e+00	1.109138e-03	
601	-3.45000e+00	1.111427e-03	
602	-3.50000e+00	1.113638e-03	
603	-3.55000e+00	1.115778e-03	
604	-3.60000e+00	1.117852e-03	
605	-3.65000e+00	1.119866e-03	
606	-3.70000e+00	1.121822e-03	
607	-3.75000e+00	1.123727e-03	
608	-3.80000e+00	1.125583e-03	
609	-3.85000e+00	1.127394e-03	
610	-3.90000e+00	1.129163e-03	
611	-3.95000e+00	1.130891e-03	
612	-4.00000e+00	1.132583e-03	
613	-4.05000e+00	1.134239e-03	
614	-4.10000e+00	1.135863e-03	
615	-4.15000e+00	1.137455e-03	
616	-4.20000e+00	1.139018e-03	
617	-4.25000e+00	1.140553e-03	
618	-4.30000e+00	1.142061e-03	
619	-4.35000e+00	1.143545e-03	
620	-4.40000e+00	1.145005e-03	
621	-4.45000e+00	1.146442e-03	
622	-4.50000e+00	1.147858e-03	
623	-4.55000e+00	1.149253e-03	
624	-4.60000e+00	1.150628e-03	
625	-4.65000e+00	1.151985e-03	
626	-4.70000e+00	1.153324e-03	
627	-4.75000e+00	1.154645e-03	
628	-4.80000e+00	1.155950e-03	
629	-4.85000e+00	1.157240e-03	
630	-4.90000e+00	1.158514e-03	
631	-4.95000e+00	1.159774e-03	
632	-5.00000e+00	1.161019e-03	
633	-5.05000e+00	1.162252e-03	
634	-5.10000e+00	1.163471e-03	

Index   v-sweep         i(vds)          
--------------------------------------------------------------------------------
635	-5.15000e+00	1.164678e-03	
636	-5.20000e+00	1.165873e-03	
637	-5.25000e+00	1.167056e-03	
638	-5.30000e+00	1.168228e-03	
639	-5.35000e+00	1.169390e-03	
640	-5.40000e+00	1.170541e-03	
641	-5.45000e+00	1.171683e-03	
642	-5.50000e+00	1.172815e-03	
643	-5.55000e+00	1.173938e-03	
644	-5.60000e+00	1.175052e-03	
645	-5.65000e+00	1.176158e-03	
646	-5.70000e+00	1.177256e-03	
647	-5.75000e+00	1.178346e-03	
648	-5.80000e+00	1.179430e-03	
649	-5.85000e+00	1.180507e-03	
650	-5.90000e+00	1.181579e-03	
651	-5.95000e+00	1.182645e-03	
652	-6.00000e+00	1.183706e-03	
653	-6.05000e+00	1.184763e-03	
654	-6.10000e+00	1.185818e-03	
655	-6.15000e+00	1.186869e-03	
656	-6.20000e+00	1.187920e-03	
657	-6.25000e+00	1.188970e-03	
658	-6.30000e+00	1.190020e-03	
659	-6.35000e+00	1.191073e-03	
660	-6.40000e+00	1.192129e-03	
661	-6.45000e+00	1.193190e-03	
662	-6.50000e+00	1.194258e-03	
663	-6.55000e+00	1.195334e-03	
664	-6.60000e+00	1.196421e-03	
665	0.000000e+00	3.533081e-19	
666	-5.00000e-02	3.960766e-05	
667	-1.00000e-01	7.860676e-05	
668	-1.50000e-01	1.170003e-04	
669	-2.00000e-01	1.547913e-04	
670	-2.50000e-01	1.919826e-04	
671	-3.00000e-01	2.285774e-04	
672	-3.50000e-01	2.645784e-04	
673	-4.00000e-01	2.999887e-04	
674	-4.50000e-01	3.348112e-04	
675	-5.00000e-01	3.690489e-04	
676	-5.50000e-01	4.027046e-04	
677	-6.00000e-01	4.357813e-04	
678	-6.50000e-01	4.682819e-04	
679	-7.00000e-01	5.002093e-04	
680	-7.50000e-01	5.315663e-04	
681	-8.00000e-01	5.623560e-04	
682	-8.50000e-01	5.925810e-04	
683	-9.00000e-01	6.222444e-04	
684	-9.50000e-01	6.513490e-04	
685	-1.00000e+00	6.798975e-04	
686	-1.05000e+00	7.078929e-04	
687	-1.10000e+00	7.353380e-04	
688	-1.15000e+00	7.622356e-04	
689	-1.20000e+00	7.885885e-04	
690	-1.25000e+00	8.143995e-04	
691	-1.30000e+00	8.396714e-04	
692	-1.35000e+00	8.644069e-04	

Index   v-sweep         i(vds)          
--------------------------------------------------------------------------------
693	-1.40000e+00	8.886090e-04	
694	-1.45000e+00	9.122802e-04	
695	-1.50000e+00	9.354234e-04	
696	-1.55000e+00	9.580414e-04	
697	-1.60000e+00	9.801368e-04	
698	-1.65000e+00	1.001712e-03	
699	-1.70000e+00	1.022771e-03	
700	-1.75000e+00	1.043315e-03	
701	-1.80000e+00	1.063348e-03	
702	-1.85000e+00	1.082871e-03	
703	-1.90000e+00	1.101889e-03	
704	-1.95000e+00	1.120402e-03	
705	-2.00000e+00	1.138415e-03	
706	-2.05000e+00	1.155930e-03	
707	-2.10000e+00	1.172949e-03	
708	-2.15000e+00	1.189475e-03	
709	-2.20000e+00	1.205510e-03	
710	-2.25000e+00	1.221058e-03	
711	-2.30000e+00	1.236121e-03	
712	-2.35000e+00	1.250702e-03	
713	-2.40000e+00	1.264802e-03	
714	-2.45000e+00	1.278425e-03	
715	-2.50000e+00	1.291573e-03	
716	-2.55000e+00	1.304248e-03	
717	-2.60000e+00	1.316453e-03	
718	-2.65000e+00	1.328189e-03	
719	-2.70000e+00	1.339459e-03	
720	-2.75000e+00	1.350263e-03	
721	-2.80000e+00	1.360603e-03	
722	-2.85000e+00	1.370478e-03	
723	-2.90000e+00	1.379888e-03	
724	-2.95000e+00	1.388831e-03	
725	-3.00000e+00	1.397303e-03	
726	-3.05000e+00	1.405302e-03	
727	-3.10000e+00	1.412825e-03	
728	-3.15000e+00	1.419874e-03	
729	-3.20000e+00	1.426460e-03	
730	-3.25000e+00	1.432600e-03	
731	-3.30000e+00	1.438319e-03	
732	-3.35000e+00	1.443650e-03	
733	-3.40000e+00	1.448629e-03	
734	-3.45000e+00	1.453290e-03	
735	-3.50000e+00	1.457668e-03	
736	-3.55000e+00	1.461793e-03	
737	-3.60000e+00	1.465692e-03	
738	-3.65000e+00	1.469390e-03	
739	-3.70000e+00	1.472908e-03	
740	-3.75000e+00	1.476264e-03	
741	-3.80000e+00	1.479474e-03	
742	-3.85000e+00	1.482553e-03	
743	-3.90000e+00	1.485512e-03	
744	-3.95000e+00	1.488363e-03	
745	-4.00000e+00	1.491113e-03	
746	-4.05000e+00	1.493773e-03	
747	-4.10000e+00	1.496349e-03	
748	-4.15000e+00	1.498847e-03	
749	-4.20000e+00	1.501274e-03	
750	-4.25000e+00	1.503634e-03	

Index   v-sweep         i(vds)          
--------------------------------------------------------------------------------
751	-4.30000e+00	1.505933e-03	
752	-4.35000e+00	1.508174e-03	
753	-4.40000e+00	1.510362e-03	
754	-4.45000e+00	1.512499e-03	
755	-4.50000e+00	1.514588e-03	
756	-4.55000e+00	1.516634e-03	
757	-4.60000e+00	1.518638e-03	
758	-4.65000e+00	1.520602e-03	
759	-4.70000e+00	1.522529e-03	
760	-4.75000e+00	1.524421e-03	
761	-4.80000e+00	1.526280e-03	
762	-4.85000e+00	1.528107e-03	
763	-4.90000e+00	1.529904e-03	
764	-4.95000e+00	1.531673e-03	
765	-5.00000e+00	1.533415e-03	
766	-5.05000e+00	1.535130e-03	
767	-5.10000e+00	1.536821e-03	
768	-5.15000e+00	1.538489e-03	
769	-5.20000e+00	1.540133e-03	
770	-5.25000e+00	1.541757e-03	
771	-5.30000e+00	1.543359e-03	
772	-5.35000e+00	1.544942e-03	
773	-5.40000e+00	1.546506e-03	
774	-5.45000e+00	1.548051e-03	
775	-5.50000e+00	1.549579e-03	
776	-5.55000e+00	1.551090e-03	
777	-5.60000e+00	1.552585e-03	
778	-5.65000e+00	1.554065e-03	
779	-5.70000e+00	1.555529e-03	
780	-5.75000e+00	1.556979e-03	
781	-5.80000e+00	1.558415e-03	
782	-5.85000e+00	1.559837e-03	
783	-5.90000e+00	1.561247e-03	
784	-5.95000e+00	1.562644e-03	
785	-6.00000e+00	1.564030e-03	
786	-6.05000e+00	1.565404e-03	
787	-6.10000e+00	1.566767e-03	
788	-6.15000e+00	1.568120e-03	
789	-6.20000e+00	1.569462e-03	
790	-6.25000e+00	1.570796e-03	
791	-6.30000e+00	1.572121e-03	
792	-6.35000e+00	1.573437e-03	
793	-6.40000e+00	1.574746e-03	
794	-6.45000e+00	1.576048e-03	
795	-6.50000e+00	1.577345e-03	
796	-6.55000e+00	1.578636e-03	
797	-6.60000e+00	1.579923e-03	
Note: No ".plot", ".print", or ".fourier" lines; no simulations run
