
Note: Compatibility modes selected: hs

Warning: m=xx on .subckt line will override multiplier m hierarchy!


Circuit: ***************************

Doing analysis at TEMP = 25.000000 and TNOM = 25.000000


No. of Data Rows : 798
                          ***************************
                          DC transfer characteristic  Mon Jan  9 13:58:50  2023
--------------------------------------------------------------------------------
Index   v-sweep         i(vds)          
--------------------------------------------------------------------------------
0	0.000000e+00	-1.20866e-24	
1	-5.00000e-02	2.234506e-08	
2	-1.00000e-01	3.314918e-08	
3	-1.50000e-01	3.633577e-08	
4	-2.00000e-01	3.706441e-08	
5	-2.50000e-01	3.729665e-08	
6	-3.00000e-01	3.740775e-08	
7	-3.50000e-01	3.747778e-08	
8	-4.00000e-01	3.752990e-08	
9	-4.50000e-01	3.757268e-08	
10	-5.00000e-01	3.760987e-08	
11	-5.50000e-01	3.764337e-08	
12	-6.00000e-01	3.767426e-08	
13	-6.50000e-01	3.770316e-08	
14	-7.00000e-01	3.773050e-08	
15	-7.50000e-01	3.775658e-08	
16	-8.00000e-01	3.778159e-08	
17	-8.50000e-01	3.780570e-08	
18	-9.00000e-01	3.782901e-08	
19	-9.50000e-01	3.785164e-08	
20	-1.00000e+00	3.787365e-08	
21	-1.05000e+00	3.789511e-08	
22	-1.10000e+00	3.791607e-08	
23	-1.15000e+00	3.793658e-08	
24	-1.20000e+00	3.795668e-08	
25	-1.25000e+00	3.797639e-08	
26	-1.30000e+00	3.799575e-08	
27	-1.35000e+00	3.801479e-08	
28	-1.40000e+00	3.803352e-08	
29	-1.45000e+00	3.805197e-08	
30	-1.50000e+00	3.807016e-08	
31	-1.55000e+00	3.808810e-08	
32	-1.60000e+00	3.810581e-08	
33	-1.65000e+00	3.812330e-08	
34	-1.70000e+00	3.814058e-08	
35	-1.75000e+00	3.815767e-08	
36	-1.80000e+00	3.817457e-08	
37	-1.85000e+00	3.819129e-08	
38	-1.90000e+00	3.820786e-08	
39	-1.95000e+00	3.822426e-08	
40	-2.00000e+00	3.824051e-08	
41	-2.05000e+00	3.825662e-08	
42	-2.10000e+00	3.827259e-08	
43	-2.15000e+00	3.828843e-08	
44	-2.20000e+00	3.830415e-08	
45	-2.25000e+00	3.831974e-08	
46	-2.30000e+00	3.833522e-08	
47	-2.35000e+00	3.835059e-08	
48	-2.40000e+00	3.836585e-08	
49	-2.45000e+00	3.838102e-08	
50	-2.50000e+00	3.839608e-08	
51	-2.55000e+00	3.841105e-08	
52	-2.60000e+00	3.842594e-08	
53	-2.65000e+00	3.844073e-08	
54	-2.70000e+00	3.845544e-08	

Index   v-sweep         i(vds)          
--------------------------------------------------------------------------------
55	-2.75000e+00	3.847007e-08	
56	-2.80000e+00	3.848463e-08	
57	-2.85000e+00	3.849912e-08	
58	-2.90000e+00	3.851353e-08	
59	-2.95000e+00	3.852788e-08	
60	-3.00000e+00	3.854217e-08	
61	-3.05000e+00	3.855641e-08	
62	-3.10000e+00	3.857059e-08	
63	-3.15000e+00	3.858473e-08	
64	-3.20000e+00	3.859883e-08	
65	-3.25000e+00	3.861290e-08	
66	-3.30000e+00	3.862695e-08	
67	-3.35000e+00	3.864099e-08	
68	-3.40000e+00	3.865502e-08	
69	-3.45000e+00	3.866907e-08	
70	-3.50000e+00	3.868314e-08	
71	-3.55000e+00	3.869726e-08	
72	-3.60000e+00	3.871144e-08	
73	-3.65000e+00	3.872571e-08	
74	-3.70000e+00	3.874008e-08	
75	-3.75000e+00	3.875459e-08	
76	-3.80000e+00	3.876927e-08	
77	-3.85000e+00	3.878416e-08	
78	-3.90000e+00	3.879929e-08	
79	-3.95000e+00	3.881471e-08	
80	-4.00000e+00	3.883047e-08	
81	-4.05000e+00	3.884663e-08	
82	-4.10000e+00	3.886324e-08	
83	-4.15000e+00	3.888037e-08	
84	-4.20000e+00	3.889810e-08	
85	-4.25000e+00	3.891650e-08	
86	-4.30000e+00	3.893566e-08	
87	-4.35000e+00	3.895569e-08	
88	-4.40000e+00	3.897667e-08	
89	-4.45000e+00	3.899873e-08	
90	-4.50000e+00	3.902198e-08	
91	-4.55000e+00	3.904656e-08	
92	-4.60000e+00	3.907261e-08	
93	-4.65000e+00	3.910027e-08	
94	-4.70000e+00	3.912971e-08	
95	-4.75000e+00	3.916110e-08	
96	-4.80000e+00	3.919462e-08	
97	-4.85000e+00	3.923047e-08	
98	-4.90000e+00	3.926885e-08	
99	-4.95000e+00	3.930998e-08	
100	-5.00000e+00	3.935409e-08	
101	-5.05000e+00	3.940143e-08	
102	-5.10000e+00	3.945226e-08	
103	-5.15000e+00	3.950684e-08	
104	-5.20000e+00	3.956546e-08	
105	-5.25000e+00	3.962841e-08	
106	-5.30000e+00	3.969602e-08	
107	-5.35000e+00	3.976860e-08	
108	-5.40000e+00	3.984650e-08	
109	-5.45000e+00	3.993006e-08	
110	-5.50000e+00	4.001967e-08	
111	-5.55000e+00	4.011571e-08	
112	-5.60000e+00	4.021857e-08	

Index   v-sweep         i(vds)          
--------------------------------------------------------------------------------
113	-5.65000e+00	4.032867e-08	
114	-5.70000e+00	4.044645e-08	
115	-5.75000e+00	4.057233e-08	
116	-5.80000e+00	4.070680e-08	
117	-5.85000e+00	4.085031e-08	
118	-5.90000e+00	4.100336e-08	
119	-5.95000e+00	4.116646e-08	
120	-6.00000e+00	4.134013e-08	
121	-6.05000e+00	4.152489e-08	
122	-6.10000e+00	4.172131e-08	
123	-6.15000e+00	4.192995e-08	
124	-6.20000e+00	4.215138e-08	
125	-6.25000e+00	4.238620e-08	
126	-6.30000e+00	4.263502e-08	
127	-6.35000e+00	4.289847e-08	
128	-6.40000e+00	4.317718e-08	
129	-6.45000e+00	4.347180e-08	
130	-6.50000e+00	4.378300e-08	
131	-6.55000e+00	4.411145e-08	
132	-6.60000e+00	4.445785e-08	
133	0.000000e+00	-2.00416e-22	
134	-5.00000e-02	2.460006e-07	
135	-1.00000e-01	4.762348e-07	
136	-1.50000e-01	6.907156e-07	
137	-2.00000e-01	8.894573e-07	
138	-2.50000e-01	1.072476e-06	
139	-3.00000e-01	1.239789e-06	
140	-3.50000e-01	1.391421e-06	
141	-4.00000e-01	1.527399e-06	
142	-4.50000e-01	1.647766e-06	
143	-5.00000e-01	1.752583e-06	
144	-5.50000e-01	1.841953e-06	
145	-6.00000e-01	1.916052e-06	
146	-6.50000e-01	1.975217e-06	
147	-7.00000e-01	2.020099e-06	
148	-7.50000e-01	2.051943e-06	
149	-8.00000e-01	2.072892e-06	
150	-8.50000e-01	2.085893e-06	
151	-9.00000e-01	2.093917e-06	
152	-9.50000e-01	2.099152e-06	
153	-1.00000e+00	2.102882e-06	
154	-1.05000e+00	2.105775e-06	
155	-1.10000e+00	2.108174e-06	
156	-1.15000e+00	2.110260e-06	
157	-1.20000e+00	2.112134e-06	
158	-1.25000e+00	2.113856e-06	
159	-1.30000e+00	2.115463e-06	
160	-1.35000e+00	2.116979e-06	
161	-1.40000e+00	2.118421e-06	
162	-1.45000e+00	2.119803e-06	
163	-1.50000e+00	2.121132e-06	
164	-1.55000e+00	2.122417e-06	
165	-1.60000e+00	2.123662e-06	
166	-1.65000e+00	2.124873e-06	
167	-1.70000e+00	2.126052e-06	
168	-1.75000e+00	2.127203e-06	
169	-1.80000e+00	2.128328e-06	
170	-1.85000e+00	2.129431e-06	

Index   v-sweep         i(vds)          
--------------------------------------------------------------------------------
171	-1.90000e+00	2.130511e-06	
172	-1.95000e+00	2.131572e-06	
173	-2.00000e+00	2.132615e-06	
174	-2.05000e+00	2.133641e-06	
175	-2.10000e+00	2.134651e-06	
176	-2.15000e+00	2.135647e-06	
177	-2.20000e+00	2.136628e-06	
178	-2.25000e+00	2.137597e-06	
179	-2.30000e+00	2.138554e-06	
180	-2.35000e+00	2.139498e-06	
181	-2.40000e+00	2.140433e-06	
182	-2.45000e+00	2.141356e-06	
183	-2.50000e+00	2.142271e-06	
184	-2.55000e+00	2.143175e-06	
185	-2.60000e+00	2.144071e-06	
186	-2.65000e+00	2.144959e-06	
187	-2.70000e+00	2.145839e-06	
188	-2.75000e+00	2.146711e-06	
189	-2.80000e+00	2.147576e-06	
190	-2.85000e+00	2.148434e-06	
191	-2.90000e+00	2.149285e-06	
192	-2.95000e+00	2.150130e-06	
193	-3.00000e+00	2.150969e-06	
194	-3.05000e+00	2.151802e-06	
195	-3.10000e+00	2.152629e-06	
196	-3.15000e+00	2.153451e-06	
197	-3.20000e+00	2.154268e-06	
198	-3.25000e+00	2.155080e-06	
199	-3.30000e+00	2.155887e-06	
200	-3.35000e+00	2.156689e-06	
201	-3.40000e+00	2.157487e-06	
202	-3.45000e+00	2.158281e-06	
203	-3.50000e+00	2.159071e-06	
204	-3.55000e+00	2.159856e-06	
205	-3.60000e+00	2.160639e-06	
206	-3.65000e+00	2.161418e-06	
207	-3.70000e+00	2.162193e-06	
208	-3.75000e+00	2.162966e-06	
209	-3.80000e+00	2.163736e-06	
210	-3.85000e+00	2.164504e-06	
211	-3.90000e+00	2.165270e-06	
212	-3.95000e+00	2.166034e-06	
213	-4.00000e+00	2.166797e-06	
214	-4.05000e+00	2.167560e-06	
215	-4.10000e+00	2.168324e-06	
216	-4.15000e+00	2.169088e-06	
217	-4.20000e+00	2.169854e-06	
218	-4.25000e+00	2.170622e-06	
219	-4.30000e+00	2.171395e-06	
220	-4.35000e+00	2.172172e-06	
221	-4.40000e+00	2.172956e-06	
222	-4.45000e+00	2.173749e-06	
223	-4.50000e+00	2.174551e-06	
224	-4.55000e+00	2.175366e-06	
225	-4.60000e+00	2.176194e-06	
226	-4.65000e+00	2.177040e-06	
227	-4.70000e+00	2.177905e-06	
228	-4.75000e+00	2.178794e-06	

Index   v-sweep         i(vds)          
--------------------------------------------------------------------------------
229	-4.80000e+00	2.179708e-06	
230	-4.85000e+00	2.180653e-06	
231	-4.90000e+00	2.181632e-06	
232	-4.95000e+00	2.182650e-06	
233	-5.00000e+00	2.183712e-06	
234	-5.05000e+00	2.184823e-06	
235	-5.10000e+00	2.185990e-06	
236	-5.15000e+00	2.187218e-06	
237	-5.20000e+00	2.188515e-06	
238	-5.25000e+00	2.189887e-06	
239	-5.30000e+00	2.191344e-06	
240	-5.35000e+00	2.192893e-06	
241	-5.40000e+00	2.194543e-06	
242	-5.45000e+00	2.196305e-06	
243	-5.50000e+00	2.198189e-06	
244	-5.55000e+00	2.200206e-06	
245	-5.60000e+00	2.202367e-06	
246	-5.65000e+00	2.204685e-06	
247	-5.70000e+00	2.207173e-06	
248	-5.75000e+00	2.209844e-06	
249	-5.80000e+00	2.212714e-06	
250	-5.85000e+00	2.215798e-06	
251	-5.90000e+00	2.219112e-06	
252	-5.95000e+00	2.222672e-06	
253	-6.00000e+00	2.226497e-06	
254	-6.05000e+00	2.230604e-06	
255	-6.10000e+00	2.235013e-06	
256	-6.15000e+00	2.239744e-06	
257	-6.20000e+00	2.244818e-06	
258	-6.25000e+00	2.250257e-06	
259	-6.30000e+00	2.256083e-06	
260	-6.35000e+00	2.262319e-06	
261	-6.40000e+00	2.268990e-06	
262	-6.45000e+00	2.276122e-06	
263	-6.50000e+00	2.283739e-06	
264	-6.55000e+00	2.291868e-06	
265	-6.60000e+00	2.300538e-06	
266	0.000000e+00	-1.75993e-22	
267	-5.00000e-02	4.375464e-07	
268	-1.00000e-01	8.604179e-07	
269	-1.50000e-01	1.268623e-06	
270	-2.00000e-01	1.662172e-06	
271	-2.50000e-01	2.041074e-06	
272	-3.00000e-01	2.405337e-06	
273	-3.50000e-01	2.754971e-06	
274	-4.00000e-01	3.089986e-06	
275	-4.50000e-01	3.410392e-06	
276	-5.00000e-01	3.716198e-06	
277	-5.50000e-01	4.007415e-06	
278	-6.00000e-01	4.284054e-06	
279	-6.50000e-01	4.546125e-06	
280	-7.00000e-01	4.793642e-06	
281	-7.50000e-01	5.026618e-06	
282	-8.00000e-01	5.245066e-06	
283	-8.50000e-01	5.449003e-06	
284	-9.00000e-01	5.638450e-06	
285	-9.50000e-01	5.813429e-06	
286	-1.00000e+00	5.973971e-06	

Index   v-sweep         i(vds)          
--------------------------------------------------------------------------------
287	-1.05000e+00	6.120116e-06	
288	-1.10000e+00	6.251917e-06	
289	-1.15000e+00	6.369454e-06	
290	-1.20000e+00	6.472842e-06	
291	-1.25000e+00	6.562265e-06	
292	-1.30000e+00	6.638011e-06	
293	-1.35000e+00	6.700552e-06	
294	-1.40000e+00	6.750645e-06	
295	-1.45000e+00	6.789461e-06	
296	-1.50000e+00	6.818647e-06	
297	-1.55000e+00	6.840222e-06	
298	-1.60000e+00	6.856254e-06	
299	-1.65000e+00	6.868509e-06	
300	-1.70000e+00	6.878281e-06	
301	-1.75000e+00	6.886426e-06	
302	-1.80000e+00	6.893481e-06	
303	-1.85000e+00	6.899778e-06	
304	-1.90000e+00	6.905529e-06	
305	-1.95000e+00	6.910867e-06	
306	-2.00000e+00	6.915884e-06	
307	-2.05000e+00	6.920643e-06	
308	-2.10000e+00	6.925188e-06	
309	-2.15000e+00	6.929553e-06	
310	-2.20000e+00	6.933764e-06	
311	-2.25000e+00	6.937840e-06	
312	-2.30000e+00	6.941798e-06	
313	-2.35000e+00	6.945650e-06	
314	-2.40000e+00	6.949408e-06	
315	-2.45000e+00	6.953080e-06	
316	-2.50000e+00	6.956673e-06	
317	-2.55000e+00	6.960195e-06	
318	-2.60000e+00	6.963652e-06	
319	-2.65000e+00	6.967048e-06	
320	-2.70000e+00	6.970387e-06	
321	-2.75000e+00	6.973675e-06	
322	-2.80000e+00	6.976913e-06	
323	-2.85000e+00	6.980106e-06	
324	-2.90000e+00	6.983256e-06	
325	-2.95000e+00	6.986366e-06	
326	-3.00000e+00	6.989438e-06	
327	-3.05000e+00	6.992475e-06	
328	-3.10000e+00	6.995477e-06	
329	-3.15000e+00	6.998448e-06	
330	-3.20000e+00	7.001388e-06	
331	-3.25000e+00	7.004300e-06	
332	-3.30000e+00	7.007184e-06	
333	-3.35000e+00	7.010042e-06	
334	-3.40000e+00	7.012875e-06	
335	-3.45000e+00	7.015685e-06	
336	-3.50000e+00	7.018471e-06	
337	-3.55000e+00	7.021236e-06	
338	-3.60000e+00	7.023980e-06	
339	-3.65000e+00	7.026705e-06	
340	-3.70000e+00	7.029410e-06	
341	-3.75000e+00	7.032097e-06	
342	-3.80000e+00	7.034766e-06	
343	-3.85000e+00	7.037418e-06	
344	-3.90000e+00	7.040054e-06	

Index   v-sweep         i(vds)          
--------------------------------------------------------------------------------
345	-3.95000e+00	7.042674e-06	
346	-4.00000e+00	7.045279e-06	
347	-4.05000e+00	7.047870e-06	
348	-4.10000e+00	7.050447e-06	
349	-4.15000e+00	7.053011e-06	
350	-4.20000e+00	7.055562e-06	
351	-4.25000e+00	7.058101e-06	
352	-4.30000e+00	7.060628e-06	
353	-4.35000e+00	7.063145e-06	
354	-4.40000e+00	7.065652e-06	
355	-4.45000e+00	7.068150e-06	
356	-4.50000e+00	7.070639e-06	
357	-4.55000e+00	7.073122e-06	
358	-4.60000e+00	7.075598e-06	
359	-4.65000e+00	7.078070e-06	
360	-4.70000e+00	7.080539e-06	
361	-4.75000e+00	7.083006e-06	
362	-4.80000e+00	7.085474e-06	
363	-4.85000e+00	7.087946e-06	
364	-4.90000e+00	7.090423e-06	
365	-4.95000e+00	7.092910e-06	
366	-5.00000e+00	7.095409e-06	
367	-5.05000e+00	7.097925e-06	
368	-5.10000e+00	7.100462e-06	
369	-5.15000e+00	7.103026e-06	
370	-5.20000e+00	7.105622e-06	
371	-5.25000e+00	7.108257e-06	
372	-5.30000e+00	7.110938e-06	
373	-5.35000e+00	7.113674e-06	
374	-5.40000e+00	7.116474e-06	
375	-5.45000e+00	7.119348e-06	
376	-5.50000e+00	7.122307e-06	
377	-5.55000e+00	7.125364e-06	
378	-5.60000e+00	7.128532e-06	
379	-5.65000e+00	7.131825e-06	
380	-5.70000e+00	7.135261e-06	
381	-5.75000e+00	7.138856e-06	
382	-5.80000e+00	7.142631e-06	
383	-5.85000e+00	7.146604e-06	
384	-5.90000e+00	7.150800e-06	
385	-5.95000e+00	7.155242e-06	
386	-6.00000e+00	7.159955e-06	
387	-6.05000e+00	7.164968e-06	
388	-6.10000e+00	7.170310e-06	
389	-6.15000e+00	7.176013e-06	
390	-6.20000e+00	7.182110e-06	
391	-6.25000e+00	7.188638e-06	
392	-6.30000e+00	7.195634e-06	
393	-6.35000e+00	7.203138e-06	
394	-6.40000e+00	7.211194e-06	
395	-6.45000e+00	7.219845e-06	
396	-6.50000e+00	7.229140e-06	
397	-6.55000e+00	7.239128e-06	
398	-6.60000e+00	7.249861e-06	
399	0.000000e+00	3.776544e-21	
400	-5.00000e-02	5.997945e-07	
401	-1.00000e-01	1.186035e-06	
402	-1.50000e-01	1.758728e-06	

Index   v-sweep         i(vds)          
--------------------------------------------------------------------------------
403	-2.00000e-01	2.317883e-06	
404	-2.50000e-01	2.863507e-06	
405	-3.00000e-01	3.395607e-06	
406	-3.50000e-01	3.914191e-06	
407	-4.00000e-01	4.419267e-06	
408	-4.50000e-01	4.910843e-06	
409	-5.00000e-01	5.388927e-06	
410	-5.50000e-01	5.853526e-06	
411	-6.00000e-01	6.304648e-06	
412	-6.50000e-01	6.742302e-06	
413	-7.00000e-01	7.166494e-06	
414	-7.50000e-01	7.577234e-06	
415	-8.00000e-01	7.974529e-06	
416	-8.50000e-01	8.358387e-06	
417	-9.00000e-01	8.728817e-06	
418	-9.50000e-01	9.085827e-06	
419	-1.00000e+00	9.429426e-06	
420	-1.05000e+00	9.759622e-06	
421	-1.10000e+00	1.007643e-05	
422	-1.15000e+00	1.037985e-05	
423	-1.20000e+00	1.066989e-05	
424	-1.25000e+00	1.094658e-05	
425	-1.30000e+00	1.120991e-05	
426	-1.35000e+00	1.145990e-05	
427	-1.40000e+00	1.169657e-05	
428	-1.45000e+00	1.191992e-05	
429	-1.50000e+00	1.212998e-05	
430	-1.55000e+00	1.232677e-05	
431	-1.60000e+00	1.251032e-05	
432	-1.65000e+00	1.268065e-05	
433	-1.70000e+00	1.283780e-05	
434	-1.75000e+00	1.298183e-05	
435	-1.80000e+00	1.311281e-05	
436	-1.85000e+00	1.323084e-05	
437	-1.90000e+00	1.333607e-05	
438	-1.95000e+00	1.342870e-05	
439	-2.00000e+00	1.350906e-05	
440	-2.05000e+00	1.357759e-05	
441	-2.10000e+00	1.363499e-05	
442	-2.15000e+00	1.368218e-05	
443	-2.20000e+00	1.372043e-05	
444	-2.25000e+00	1.375121e-05	
445	-2.30000e+00	1.377609e-05	
446	-2.35000e+00	1.379653e-05	
447	-2.40000e+00	1.381374e-05	
448	-2.45000e+00	1.382862e-05	
449	-2.50000e+00	1.384183e-05	
450	-2.55000e+00	1.385379e-05	
451	-2.60000e+00	1.386483e-05	
452	-2.65000e+00	1.387515e-05	
453	-2.70000e+00	1.388489e-05	
454	-2.75000e+00	1.389416e-05	
455	-2.80000e+00	1.390303e-05	
456	-2.85000e+00	1.391157e-05	
457	-2.90000e+00	1.391983e-05	
458	-2.95000e+00	1.392783e-05	
459	-3.00000e+00	1.393561e-05	
460	-3.05000e+00	1.394319e-05	

Index   v-sweep         i(vds)          
--------------------------------------------------------------------------------
461	-3.10000e+00	1.395059e-05	
462	-3.15000e+00	1.395782e-05	
463	-3.20000e+00	1.396491e-05	
464	-3.25000e+00	1.397186e-05	
465	-3.30000e+00	1.397868e-05	
466	-3.35000e+00	1.398539e-05	
467	-3.40000e+00	1.399199e-05	
468	-3.45000e+00	1.399849e-05	
469	-3.50000e+00	1.400490e-05	
470	-3.55000e+00	1.401122e-05	
471	-3.60000e+00	1.401746e-05	
472	-3.65000e+00	1.402362e-05	
473	-3.70000e+00	1.402970e-05	
474	-3.75000e+00	1.403572e-05	
475	-3.80000e+00	1.404167e-05	
476	-3.85000e+00	1.404756e-05	
477	-3.90000e+00	1.405340e-05	
478	-3.95000e+00	1.405917e-05	
479	-4.00000e+00	1.406490e-05	
480	-4.05000e+00	1.407057e-05	
481	-4.10000e+00	1.407619e-05	
482	-4.15000e+00	1.408177e-05	
483	-4.20000e+00	1.408731e-05	
484	-4.25000e+00	1.409280e-05	
485	-4.30000e+00	1.409825e-05	
486	-4.35000e+00	1.410366e-05	
487	-4.40000e+00	1.410904e-05	
488	-4.45000e+00	1.411438e-05	
489	-4.50000e+00	1.411969e-05	
490	-4.55000e+00	1.412496e-05	
491	-4.60000e+00	1.413020e-05	
492	-4.65000e+00	1.413542e-05	
493	-4.70000e+00	1.414060e-05	
494	-4.75000e+00	1.414575e-05	
495	-4.80000e+00	1.415088e-05	
496	-4.85000e+00	1.415598e-05	
497	-4.90000e+00	1.416106e-05	
498	-4.95000e+00	1.416611e-05	
499	-5.00000e+00	1.417114e-05	
500	-5.05000e+00	1.417615e-05	
501	-5.10000e+00	1.418114e-05	
502	-5.15000e+00	1.418611e-05	
503	-5.20000e+00	1.419107e-05	
504	-5.25000e+00	1.419601e-05	
505	-5.30000e+00	1.420094e-05	
506	-5.35000e+00	1.420586e-05	
507	-5.40000e+00	1.421078e-05	
508	-5.45000e+00	1.421569e-05	
509	-5.50000e+00	1.422060e-05	
510	-5.55000e+00	1.422552e-05	
511	-5.60000e+00	1.423045e-05	
512	-5.65000e+00	1.423539e-05	
513	-5.70000e+00	1.424036e-05	
514	-5.75000e+00	1.424536e-05	
515	-5.80000e+00	1.425041e-05	
516	-5.85000e+00	1.425550e-05	
517	-5.90000e+00	1.426065e-05	
518	-5.95000e+00	1.426588e-05	

Index   v-sweep         i(vds)          
--------------------------------------------------------------------------------
519	-6.00000e+00	1.427120e-05	
520	-6.05000e+00	1.427662e-05	
521	-6.10000e+00	1.428217e-05	
522	-6.15000e+00	1.428786e-05	
523	-6.20000e+00	1.429371e-05	
524	-6.25000e+00	1.429975e-05	
525	-6.30000e+00	1.430601e-05	
526	-6.35000e+00	1.431251e-05	
527	-6.40000e+00	1.431929e-05	
528	-6.45000e+00	1.432638e-05	
529	-6.50000e+00	1.433381e-05	
530	-6.55000e+00	1.434163e-05	
531	-6.60000e+00	1.434989e-05	
532	0.000000e+00	8.902184e-22	
533	-5.00000e-02	7.388477e-07	
534	-1.00000e-01	1.465157e-06	
535	-1.50000e-01	2.178935e-06	
536	-2.00000e-01	2.880189e-06	
537	-2.50000e-01	3.568924e-06	
538	-3.00000e-01	4.245148e-06	
539	-3.50000e-01	4.908868e-06	
540	-4.00000e-01	5.560090e-06	
541	-4.50000e-01	6.198820e-06	
542	-5.00000e-01	6.825067e-06	
543	-5.50000e-01	7.438835e-06	
544	-6.00000e-01	8.040133e-06	
545	-6.50000e-01	8.628967e-06	
546	-7.00000e-01	9.205343e-06	
547	-7.50000e-01	9.769269e-06	
548	-8.00000e-01	1.032075e-05	
549	-8.50000e-01	1.085980e-05	
550	-9.00000e-01	1.138641e-05	
551	-9.50000e-01	1.190060e-05	
552	-1.00000e+00	1.240237e-05	
553	-1.05000e+00	1.289174e-05	
554	-1.10000e+00	1.336870e-05	
555	-1.15000e+00	1.383327e-05	
556	-1.20000e+00	1.428544e-05	
557	-1.25000e+00	1.472524e-05	
558	-1.30000e+00	1.515266e-05	
559	-1.35000e+00	1.556771e-05	
560	-1.40000e+00	1.597040e-05	
561	-1.45000e+00	1.636074e-05	
562	-1.50000e+00	1.673873e-05	
563	-1.55000e+00	1.710438e-05	
564	-1.60000e+00	1.745771e-05	
565	-1.65000e+00	1.779871e-05	
566	-1.70000e+00	1.812740e-05	
567	-1.75000e+00	1.844378e-05	
568	-1.80000e+00	1.874787e-05	
569	-1.85000e+00	1.903967e-05	
570	-1.90000e+00	1.931919e-05	
571	-1.95000e+00	1.958645e-05	
572	-2.00000e+00	1.984146e-05	
573	-2.05000e+00	2.008422e-05	
574	-2.10000e+00	2.031476e-05	
575	-2.15000e+00	2.053310e-05	
576	-2.20000e+00	2.073924e-05	

Index   v-sweep         i(vds)          
--------------------------------------------------------------------------------
577	-2.25000e+00	2.093322e-05	
578	-2.30000e+00	2.111506e-05	
579	-2.35000e+00	2.128481e-05	
580	-2.40000e+00	2.144250e-05	
581	-2.45000e+00	2.158819e-05	
582	-2.50000e+00	2.172197e-05	
583	-2.55000e+00	2.184394e-05	
584	-2.60000e+00	2.195424e-05	
585	-2.65000e+00	2.205309e-05	
586	-2.70000e+00	2.214075e-05	
587	-2.75000e+00	2.221762e-05	
588	-2.80000e+00	2.228426e-05	
589	-2.85000e+00	2.234138e-05	
590	-2.90000e+00	2.238993e-05	
591	-2.95000e+00	2.243102e-05	
592	-3.00000e+00	2.246586e-05	
593	-3.05000e+00	2.249568e-05	
594	-3.10000e+00	2.252158e-05	
595	-3.15000e+00	2.254447e-05	
596	-3.20000e+00	2.256508e-05	
597	-3.25000e+00	2.258393e-05	
598	-3.30000e+00	2.260141e-05	
599	-3.35000e+00	2.261782e-05	
600	-3.40000e+00	2.263335e-05	
601	-3.45000e+00	2.264816e-05	
602	-3.50000e+00	2.266236e-05	
603	-3.55000e+00	2.267605e-05	
604	-3.60000e+00	2.268929e-05	
605	-3.65000e+00	2.270213e-05	
606	-3.70000e+00	2.271463e-05	
607	-3.75000e+00	2.272681e-05	
608	-3.80000e+00	2.273871e-05	
609	-3.85000e+00	2.275035e-05	
610	-3.90000e+00	2.276176e-05	
611	-3.95000e+00	2.277295e-05	
612	-4.00000e+00	2.278395e-05	
613	-4.05000e+00	2.279476e-05	
614	-4.10000e+00	2.280541e-05	
615	-4.15000e+00	2.281589e-05	
616	-4.20000e+00	2.282623e-05	
617	-4.25000e+00	2.283643e-05	
618	-4.30000e+00	2.284649e-05	
619	-4.35000e+00	2.285644e-05	
620	-4.40000e+00	2.286627e-05	
621	-4.45000e+00	2.287599e-05	
622	-4.50000e+00	2.288560e-05	
623	-4.55000e+00	2.289512e-05	
624	-4.60000e+00	2.290454e-05	
625	-4.65000e+00	2.291388e-05	
626	-4.70000e+00	2.292313e-05	
627	-4.75000e+00	2.293231e-05	
628	-4.80000e+00	2.294140e-05	
629	-4.85000e+00	2.295042e-05	
630	-4.90000e+00	2.295938e-05	
631	-4.95000e+00	2.296826e-05	
632	-5.00000e+00	2.297708e-05	
633	-5.05000e+00	2.298584e-05	
634	-5.10000e+00	2.299454e-05	

Index   v-sweep         i(vds)          
--------------------------------------------------------------------------------
635	-5.15000e+00	2.300318e-05	
636	-5.20000e+00	2.301177e-05	
637	-5.25000e+00	2.302031e-05	
638	-5.30000e+00	2.302880e-05	
639	-5.35000e+00	2.303723e-05	
640	-5.40000e+00	2.304563e-05	
641	-5.45000e+00	2.305397e-05	
642	-5.50000e+00	2.306227e-05	
643	-5.55000e+00	2.307054e-05	
644	-5.60000e+00	2.307876e-05	
645	-5.65000e+00	2.308694e-05	
646	-5.70000e+00	2.309509e-05	
647	-5.75000e+00	2.310321e-05	
648	-5.80000e+00	2.311129e-05	
649	-5.85000e+00	2.311934e-05	
650	-5.90000e+00	2.312737e-05	
651	-5.95000e+00	2.313537e-05	
652	-6.00000e+00	2.314335e-05	
653	-6.05000e+00	2.315132e-05	
654	-6.10000e+00	2.315927e-05	
655	-6.15000e+00	2.316722e-05	
656	-6.20000e+00	2.317517e-05	
657	-6.25000e+00	2.318312e-05	
658	-6.30000e+00	2.319109e-05	
659	-6.35000e+00	2.319908e-05	
660	-6.40000e+00	2.320711e-05	
661	-6.45000e+00	2.321518e-05	
662	-6.50000e+00	2.322330e-05	
663	-6.55000e+00	2.323151e-05	
664	-6.60000e+00	2.323980e-05	
665	0.000000e+00	-6.72291e-31	
666	-5.00000e-02	8.592667e-07	
667	-1.00000e-01	1.706901e-06	
668	-1.50000e-01	2.542908e-06	
669	-2.00000e-01	3.367294e-06	
670	-2.50000e-01	4.180066e-06	
671	-3.00000e-01	4.981228e-06	
672	-3.50000e-01	5.770788e-06	
673	-4.00000e-01	6.548750e-06	
674	-4.50000e-01	7.315122e-06	
675	-5.00000e-01	8.069908e-06	
676	-5.50000e-01	8.813115e-06	
677	-6.00000e-01	9.544749e-06	
678	-6.50000e-01	1.026482e-05	
679	-7.00000e-01	1.097332e-05	
680	-7.50000e-01	1.167027e-05	
681	-8.00000e-01	1.235567e-05	
682	-8.50000e-01	1.302953e-05	
683	-9.00000e-01	1.369185e-05	
684	-9.50000e-01	1.434263e-05	
685	-1.00000e+00	1.498189e-05	
686	-1.05000e+00	1.560964e-05	
687	-1.10000e+00	1.622586e-05	
688	-1.15000e+00	1.683058e-05	
689	-1.20000e+00	1.742380e-05	
690	-1.25000e+00	1.800552e-05	
691	-1.30000e+00	1.857575e-05	
692	-1.35000e+00	1.913450e-05	

Index   v-sweep         i(vds)          
--------------------------------------------------------------------------------
693	-1.40000e+00	1.968177e-05	
694	-1.45000e+00	2.021757e-05	
695	-1.50000e+00	2.074190e-05	
696	-1.55000e+00	2.125477e-05	
697	-1.60000e+00	2.175619e-05	
698	-1.65000e+00	2.224616e-05	
699	-1.70000e+00	2.272469e-05	
700	-1.75000e+00	2.319178e-05	
701	-1.80000e+00	2.364745e-05	
702	-1.85000e+00	2.409169e-05	
703	-1.90000e+00	2.452451e-05	
704	-1.95000e+00	2.494593e-05	
705	-2.00000e+00	2.535594e-05	
706	-2.05000e+00	2.575455e-05	
707	-2.10000e+00	2.614178e-05	
708	-2.15000e+00	2.651762e-05	
709	-2.20000e+00	2.688208e-05	
710	-2.25000e+00	2.723518e-05	
711	-2.30000e+00	2.757691e-05	
712	-2.35000e+00	2.790729e-05	
713	-2.40000e+00	2.822632e-05	
714	-2.45000e+00	2.853402e-05	
715	-2.50000e+00	2.883039e-05	
716	-2.55000e+00	2.911544e-05	
717	-2.60000e+00	2.938918e-05	
718	-2.65000e+00	2.965163e-05	
719	-2.70000e+00	2.990279e-05	
720	-2.75000e+00	3.014268e-05	
721	-2.80000e+00	3.037131e-05	
722	-2.85000e+00	3.058871e-05	
723	-2.90000e+00	3.079489e-05	
724	-2.95000e+00	3.098988e-05	
725	-3.00000e+00	3.117370e-05	
726	-3.05000e+00	3.134641e-05	
727	-3.10000e+00	3.150803e-05	
728	-3.15000e+00	3.165863e-05	
729	-3.20000e+00	3.179829e-05	
730	-3.25000e+00	3.192710e-05	
731	-3.30000e+00	3.204519e-05	
732	-3.35000e+00	3.215274e-05	
733	-3.40000e+00	3.224997e-05	
734	-3.45000e+00	3.233721e-05	
735	-3.50000e+00	3.241486e-05	
736	-3.55000e+00	3.248346e-05	
737	-3.60000e+00	3.254371e-05	
738	-3.65000e+00	3.259644e-05	
739	-3.70000e+00	3.264258e-05	
740	-3.75000e+00	3.268314e-05	
741	-3.80000e+00	3.271909e-05	
742	-3.85000e+00	3.275133e-05	
743	-3.90000e+00	3.278061e-05	
744	-3.95000e+00	3.280754e-05	
745	-4.00000e+00	3.283261e-05	
746	-4.05000e+00	3.285617e-05	
747	-4.10000e+00	3.287850e-05	
748	-4.15000e+00	3.289981e-05	
749	-4.20000e+00	3.292025e-05	
750	-4.25000e+00	3.293996e-05	

Index   v-sweep         i(vds)          
--------------------------------------------------------------------------------
751	-4.30000e+00	3.295903e-05	
752	-4.35000e+00	3.297754e-05	
753	-4.40000e+00	3.299555e-05	
754	-4.45000e+00	3.301311e-05	
755	-4.50000e+00	3.303027e-05	
756	-4.55000e+00	3.304706e-05	
757	-4.60000e+00	3.306352e-05	
758	-4.65000e+00	3.307967e-05	
759	-4.70000e+00	3.309554e-05	
760	-4.75000e+00	3.311115e-05	
761	-4.80000e+00	3.312651e-05	
762	-4.85000e+00	3.314165e-05	
763	-4.90000e+00	3.315657e-05	
764	-4.95000e+00	3.317129e-05	
765	-5.00000e+00	3.318583e-05	
766	-5.05000e+00	3.320020e-05	
767	-5.10000e+00	3.321439e-05	
768	-5.15000e+00	3.322844e-05	
769	-5.20000e+00	3.324233e-05	
770	-5.25000e+00	3.325608e-05	
771	-5.30000e+00	3.326970e-05	
772	-5.35000e+00	3.328319e-05	
773	-5.40000e+00	3.329656e-05	
774	-5.45000e+00	3.330982e-05	
775	-5.50000e+00	3.332297e-05	
776	-5.55000e+00	3.333601e-05	
777	-5.60000e+00	3.334895e-05	
778	-5.65000e+00	3.336180e-05	
779	-5.70000e+00	3.337455e-05	
780	-5.75000e+00	3.338721e-05	
781	-5.80000e+00	3.339980e-05	
782	-5.85000e+00	3.341229e-05	
783	-5.90000e+00	3.342472e-05	
784	-5.95000e+00	3.343706e-05	
785	-6.00000e+00	3.344933e-05	
786	-6.05000e+00	3.346154e-05	
787	-6.10000e+00	3.347367e-05	
788	-6.15000e+00	3.348575e-05	
789	-6.20000e+00	3.349775e-05	
790	-6.25000e+00	3.350970e-05	
791	-6.30000e+00	3.352160e-05	
792	-6.35000e+00	3.353344e-05	
793	-6.40000e+00	3.354522e-05	
794	-6.45000e+00	3.355696e-05	
795	-6.50000e+00	3.356865e-05	
796	-6.55000e+00	3.358029e-05	
797	-6.60000e+00	3.359190e-05	
Note: No ".plot", ".print", or ".fourier" lines; no simulations run
