
Note: Compatibility modes selected: hs

Warning: m=xx on .subckt line will override multiplier m hierarchy!


Circuit: ***************************

Doing analysis at TEMP = 125.000000 and TNOM = 125.000000


No. of Data Rows : 798
                          ***************************
                          DC transfer characteristic  Mon Jan  9 13:58:51  2023
--------------------------------------------------------------------------------
Index   v-sweep         i(vds)          
--------------------------------------------------------------------------------
0	0.000000e+00	3.291762e-24	
1	-5.00000e-02	1.486187e-08	
2	-1.00000e-01	2.402529e-08	
3	-1.50000e-01	2.965777e-08	
4	-2.00000e-01	3.256353e-08	
5	-2.50000e-01	3.368743e-08	
6	-3.00000e-01	3.406289e-08	
7	-3.50000e-01	3.421065e-08	
8	-4.00000e-01	3.428706e-08	
9	-4.50000e-01	3.433655e-08	
10	-5.00000e-01	3.437381e-08	
11	-5.50000e-01	3.440463e-08	
12	-6.00000e-01	3.443161e-08	
13	-6.50000e-01	3.445608e-08	
14	-7.00000e-01	3.447879e-08	
15	-7.50000e-01	3.450017e-08	
16	-8.00000e-01	3.452052e-08	
17	-8.50000e-01	3.454003e-08	
18	-9.00000e-01	3.455884e-08	
19	-9.50000e-01	3.457705e-08	
20	-1.00000e+00	3.459474e-08	
21	-1.05000e+00	3.461196e-08	
22	-1.10000e+00	3.462878e-08	
23	-1.15000e+00	3.464523e-08	
24	-1.20000e+00	3.466134e-08	
25	-1.25000e+00	3.467714e-08	
26	-1.30000e+00	3.469266e-08	
27	-1.35000e+00	3.470792e-08	
28	-1.40000e+00	3.472293e-08	
29	-1.45000e+00	3.473772e-08	
30	-1.50000e+00	3.475230e-08	
31	-1.55000e+00	3.476669e-08	
32	-1.60000e+00	3.478088e-08	
33	-1.65000e+00	3.479490e-08	
34	-1.70000e+00	3.480876e-08	
35	-1.75000e+00	3.482246e-08	
36	-1.80000e+00	3.483601e-08	
37	-1.85000e+00	3.484943e-08	
38	-1.90000e+00	3.486270e-08	
39	-1.95000e+00	3.487586e-08	
40	-2.00000e+00	3.488889e-08	
41	-2.05000e+00	3.490180e-08	
42	-2.10000e+00	3.491461e-08	
43	-2.15000e+00	3.492731e-08	
44	-2.20000e+00	3.493991e-08	
45	-2.25000e+00	3.495241e-08	
46	-2.30000e+00	3.496482e-08	
47	-2.35000e+00	3.497715e-08	
48	-2.40000e+00	3.498938e-08	
49	-2.45000e+00	3.500153e-08	
50	-2.50000e+00	3.501361e-08	
51	-2.55000e+00	3.502561e-08	
52	-2.60000e+00	3.503753e-08	
53	-2.65000e+00	3.504939e-08	
54	-2.70000e+00	3.506117e-08	

Index   v-sweep         i(vds)          
--------------------------------------------------------------------------------
55	-2.75000e+00	3.507289e-08	
56	-2.80000e+00	3.508455e-08	
57	-2.85000e+00	3.509615e-08	
58	-2.90000e+00	3.510769e-08	
59	-2.95000e+00	3.511917e-08	
60	-3.00000e+00	3.513060e-08	
61	-3.05000e+00	3.514198e-08	
62	-3.10000e+00	3.515331e-08	
63	-3.15000e+00	3.516460e-08	
64	-3.20000e+00	3.517585e-08	
65	-3.25000e+00	3.518707e-08	
66	-3.30000e+00	3.519825e-08	
67	-3.35000e+00	3.520940e-08	
68	-3.40000e+00	3.522054e-08	
69	-3.45000e+00	3.523166e-08	
70	-3.50000e+00	3.524277e-08	
71	-3.55000e+00	3.525389e-08	
72	-3.60000e+00	3.526502e-08	
73	-3.65000e+00	3.527617e-08	
74	-3.70000e+00	3.528737e-08	
75	-3.75000e+00	3.529862e-08	
76	-3.80000e+00	3.530993e-08	
77	-3.85000e+00	3.532134e-08	
78	-3.90000e+00	3.533287e-08	
79	-3.95000e+00	3.534453e-08	
80	-4.00000e+00	3.535635e-08	
81	-4.05000e+00	3.536838e-08	
82	-4.10000e+00	3.538064e-08	
83	-4.15000e+00	3.539317e-08	
84	-4.20000e+00	3.540601e-08	
85	-4.25000e+00	3.541922e-08	
86	-4.30000e+00	3.543284e-08	
87	-4.35000e+00	3.544693e-08	
88	-4.40000e+00	3.546156e-08	
89	-4.45000e+00	3.547679e-08	
90	-4.50000e+00	3.549270e-08	
91	-4.55000e+00	3.550937e-08	
92	-4.60000e+00	3.552688e-08	
93	-4.65000e+00	3.554533e-08	
94	-4.70000e+00	3.556481e-08	
95	-4.75000e+00	3.558545e-08	
96	-4.80000e+00	3.560735e-08	
97	-4.85000e+00	3.563065e-08	
98	-4.90000e+00	3.565546e-08	
99	-4.95000e+00	3.568194e-08	
100	-5.00000e+00	3.571023e-08	
101	-5.05000e+00	3.574049e-08	
102	-5.10000e+00	3.577290e-08	
103	-5.15000e+00	3.580763e-08	
104	-5.20000e+00	3.584486e-08	
105	-5.25000e+00	3.588480e-08	
106	-5.30000e+00	3.592766e-08	
107	-5.35000e+00	3.597365e-08	
108	-5.40000e+00	3.602300e-08	
109	-5.45000e+00	3.607596e-08	
110	-5.50000e+00	3.613277e-08	
111	-5.55000e+00	3.619370e-08	
112	-5.60000e+00	3.625902e-08	

Index   v-sweep         i(vds)          
--------------------------------------------------------------------------------
113	-5.65000e+00	3.632901e-08	
114	-5.70000e+00	3.640397e-08	
115	-5.75000e+00	3.648421e-08	
116	-5.80000e+00	3.657005e-08	
117	-5.85000e+00	3.666181e-08	
118	-5.90000e+00	3.675983e-08	
119	-5.95000e+00	3.686448e-08	
120	-6.00000e+00	3.697612e-08	
121	-6.05000e+00	3.709511e-08	
122	-6.10000e+00	3.722186e-08	
123	-6.15000e+00	3.735676e-08	
124	-6.20000e+00	3.750021e-08	
125	-6.25000e+00	3.765265e-08	
126	-6.30000e+00	3.781451e-08	
127	-6.35000e+00	3.798624e-08	
128	-6.40000e+00	3.816828e-08	
129	-6.45000e+00	3.836111e-08	
130	-6.50000e+00	3.856520e-08	
131	-6.55000e+00	3.878105e-08	
132	-6.60000e+00	3.900916e-08	
133	0.000000e+00	-9.49122e-23	
134	-5.00000e-02	6.424038e-08	
135	-1.00000e-01	1.223713e-07	
136	-1.50000e-01	1.764587e-07	
137	-2.00000e-01	2.269862e-07	
138	-2.50000e-01	2.740672e-07	
139	-3.00000e-01	3.177288e-07	
140	-3.50000e-01	3.579784e-07	
141	-4.00000e-01	3.948192e-07	
142	-4.50000e-01	4.282544e-07	
143	-5.00000e-01	4.582885e-07	
144	-5.50000e-01	4.849291e-07	
145	-6.00000e-01	5.081888e-07	
146	-6.50000e-01	5.280895e-07	
147	-7.00000e-01	5.446711e-07	
148	-7.50000e-01	5.580080e-07	
149	-8.00000e-01	5.682418e-07	
150	-8.50000e-01	5.756348e-07	
151	-9.00000e-01	5.806259e-07	
152	-9.50000e-01	5.838171e-07	
153	-1.00000e+00	5.858348e-07	
154	-1.05000e+00	5.871674e-07	
155	-1.10000e+00	5.881193e-07	
156	-1.15000e+00	5.888573e-07	
157	-1.20000e+00	5.894697e-07	
158	-1.25000e+00	5.900034e-07	
159	-1.30000e+00	5.904849e-07	
160	-1.35000e+00	5.909294e-07	
161	-1.40000e+00	5.913465e-07	
162	-1.45000e+00	5.917422e-07	
163	-1.50000e+00	5.921208e-07	
164	-1.55000e+00	5.924852e-07	
165	-1.60000e+00	5.928375e-07	
166	-1.65000e+00	5.931794e-07	
167	-1.70000e+00	5.935122e-07	
168	-1.75000e+00	5.938368e-07	
169	-1.80000e+00	5.941542e-07	
170	-1.85000e+00	5.944649e-07	

Index   v-sweep         i(vds)          
--------------------------------------------------------------------------------
171	-1.90000e+00	5.947696e-07	
172	-1.95000e+00	5.950688e-07	
173	-2.00000e+00	5.953629e-07	
174	-2.05000e+00	5.956522e-07	
175	-2.10000e+00	5.959371e-07	
176	-2.15000e+00	5.962180e-07	
177	-2.20000e+00	5.964950e-07	
178	-2.25000e+00	5.967683e-07	
179	-2.30000e+00	5.970383e-07	
180	-2.35000e+00	5.973051e-07	
181	-2.40000e+00	5.975688e-07	
182	-2.45000e+00	5.978297e-07	
183	-2.50000e+00	5.980879e-07	
184	-2.55000e+00	5.983434e-07	
185	-2.60000e+00	5.985966e-07	
186	-2.65000e+00	5.988473e-07	
187	-2.70000e+00	5.990959e-07	
188	-2.75000e+00	5.993422e-07	
189	-2.80000e+00	5.995866e-07	
190	-2.85000e+00	5.998290e-07	
191	-2.90000e+00	6.000695e-07	
192	-2.95000e+00	6.003083e-07	
193	-3.00000e+00	6.005453e-07	
194	-3.05000e+00	6.007806e-07	
195	-3.10000e+00	6.010144e-07	
196	-3.15000e+00	6.012466e-07	
197	-3.20000e+00	6.014774e-07	
198	-3.25000e+00	6.017067e-07	
199	-3.30000e+00	6.019346e-07	
200	-3.35000e+00	6.021613e-07	
201	-3.40000e+00	6.023866e-07	
202	-3.45000e+00	6.026108e-07	
203	-3.50000e+00	6.028338e-07	
204	-3.55000e+00	6.030556e-07	
205	-3.60000e+00	6.032763e-07	
206	-3.65000e+00	6.034960e-07	
207	-3.70000e+00	6.037148e-07	
208	-3.75000e+00	6.039326e-07	
209	-3.80000e+00	6.041495e-07	
210	-3.85000e+00	6.043656e-07	
211	-3.90000e+00	6.045809e-07	
212	-3.95000e+00	6.047956e-07	
213	-4.00000e+00	6.050097e-07	
214	-4.05000e+00	6.052234e-07	
215	-4.10000e+00	6.054367e-07	
216	-4.15000e+00	6.056497e-07	
217	-4.20000e+00	6.058627e-07	
218	-4.25000e+00	6.060758e-07	
219	-4.30000e+00	6.062892e-07	
220	-4.35000e+00	6.065032e-07	
221	-4.40000e+00	6.067179e-07	
222	-4.45000e+00	6.069338e-07	
223	-4.50000e+00	6.071511e-07	
224	-4.55000e+00	6.073703e-07	
225	-4.60000e+00	6.075918e-07	
226	-4.65000e+00	6.078160e-07	
227	-4.70000e+00	6.080436e-07	
228	-4.75000e+00	6.082752e-07	

Index   v-sweep         i(vds)          
--------------------------------------------------------------------------------
229	-4.80000e+00	6.085115e-07	
230	-4.85000e+00	6.087531e-07	
231	-4.90000e+00	6.090011e-07	
232	-4.95000e+00	6.092563e-07	
233	-5.00000e+00	6.095197e-07	
234	-5.05000e+00	6.097925e-07	
235	-5.10000e+00	6.100760e-07	
236	-5.15000e+00	6.103714e-07	
237	-5.20000e+00	6.106803e-07	
238	-5.25000e+00	6.110042e-07	
239	-5.30000e+00	6.113449e-07	
240	-5.35000e+00	6.117042e-07	
241	-5.40000e+00	6.120841e-07	
242	-5.45000e+00	6.124867e-07	
243	-5.50000e+00	6.129145e-07	
244	-5.55000e+00	6.133697e-07	
245	-5.60000e+00	6.138550e-07	
246	-5.65000e+00	6.143733e-07	
247	-5.70000e+00	6.149274e-07	
248	-5.75000e+00	6.155206e-07	
249	-5.80000e+00	6.161561e-07	
250	-5.85000e+00	6.168375e-07	
251	-5.90000e+00	6.175685e-07	
252	-5.95000e+00	6.183529e-07	
253	-6.00000e+00	6.191949e-07	
254	-6.05000e+00	6.200988e-07	
255	-6.10000e+00	6.210691e-07	
256	-6.15000e+00	6.221105e-07	
257	-6.20000e+00	6.232280e-07	
258	-6.25000e+00	6.244268e-07	
259	-6.30000e+00	6.257121e-07	
260	-6.35000e+00	6.270897e-07	
261	-6.40000e+00	6.285652e-07	
262	-6.45000e+00	6.301449e-07	
263	-6.50000e+00	6.318348e-07	
264	-6.55000e+00	6.336416e-07	
265	-6.60000e+00	6.355719e-07	
266	0.000000e+00	-1.50787e-22	
267	-5.00000e-02	1.093866e-07	
268	-1.00000e-01	2.127960e-07	
269	-1.50000e-01	3.122833e-07	
270	-2.00000e-01	4.083305e-07	
271	-2.50000e-01	5.010506e-07	
272	-3.00000e-01	5.904699e-07	
273	-3.50000e-01	6.765943e-07	
274	-4.00000e-01	7.594249e-07	
275	-4.50000e-01	8.389619e-07	
276	-5.00000e-01	9.152051e-07	
277	-5.50000e-01	9.881544e-07	
278	-6.00000e-01	1.057810e-06	
279	-6.50000e-01	1.124171e-06	
280	-7.00000e-01	1.187239e-06	
281	-7.50000e-01	1.247013e-06	
282	-8.00000e-01	1.303493e-06	
283	-8.50000e-01	1.356682e-06	
284	-9.00000e-01	1.406578e-06	
285	-9.50000e-01	1.453186e-06	
286	-1.00000e+00	1.496505e-06	

Index   v-sweep         i(vds)          
--------------------------------------------------------------------------------
287	-1.05000e+00	1.536541e-06	
288	-1.10000e+00	1.573297e-06	
289	-1.15000e+00	1.606782e-06	
290	-1.20000e+00	1.637006e-06	
291	-1.25000e+00	1.663986e-06	
292	-1.30000e+00	1.687747e-06	
293	-1.35000e+00	1.708331e-06	
294	-1.40000e+00	1.725804e-06	
295	-1.45000e+00	1.740272e-06	
296	-1.50000e+00	1.751907e-06	
297	-1.55000e+00	1.760968e-06	
298	-1.60000e+00	1.767821e-06	
299	-1.65000e+00	1.772913e-06	
300	-1.70000e+00	1.776707e-06	
301	-1.75000e+00	1.779608e-06	
302	-1.80000e+00	1.781921e-06	
303	-1.85000e+00	1.783850e-06	
304	-1.90000e+00	1.785524e-06	
305	-1.95000e+00	1.787023e-06	
306	-2.00000e+00	1.788399e-06	
307	-2.05000e+00	1.789683e-06	
308	-2.10000e+00	1.790897e-06	
309	-2.15000e+00	1.792054e-06	
310	-2.20000e+00	1.793166e-06	
311	-2.25000e+00	1.794239e-06	
312	-2.30000e+00	1.795279e-06	
313	-2.35000e+00	1.796291e-06	
314	-2.40000e+00	1.797277e-06	
315	-2.45000e+00	1.798240e-06	
316	-2.50000e+00	1.799183e-06	
317	-2.55000e+00	1.800107e-06	
318	-2.60000e+00	1.801014e-06	
319	-2.65000e+00	1.801905e-06	
320	-2.70000e+00	1.802782e-06	
321	-2.75000e+00	1.803645e-06	
322	-2.80000e+00	1.804496e-06	
323	-2.85000e+00	1.805335e-06	
324	-2.90000e+00	1.806163e-06	
325	-2.95000e+00	1.806981e-06	
326	-3.00000e+00	1.807789e-06	
327	-3.05000e+00	1.808587e-06	
328	-3.10000e+00	1.809377e-06	
329	-3.15000e+00	1.810159e-06	
330	-3.20000e+00	1.810933e-06	
331	-3.25000e+00	1.811699e-06	
332	-3.30000e+00	1.812458e-06	
333	-3.35000e+00	1.813211e-06	
334	-3.40000e+00	1.813956e-06	
335	-3.45000e+00	1.814696e-06	
336	-3.50000e+00	1.815430e-06	
337	-3.55000e+00	1.816158e-06	
338	-3.60000e+00	1.816881e-06	
339	-3.65000e+00	1.817598e-06	
340	-3.70000e+00	1.818311e-06	
341	-3.75000e+00	1.819018e-06	
342	-3.80000e+00	1.819721e-06	
343	-3.85000e+00	1.820420e-06	
344	-3.90000e+00	1.821114e-06	

Index   v-sweep         i(vds)          
--------------------------------------------------------------------------------
345	-3.95000e+00	1.821804e-06	
346	-4.00000e+00	1.822490e-06	
347	-4.05000e+00	1.823172e-06	
348	-4.10000e+00	1.823851e-06	
349	-4.15000e+00	1.824526e-06	
350	-4.20000e+00	1.825197e-06	
351	-4.25000e+00	1.825865e-06	
352	-4.30000e+00	1.826530e-06	
353	-4.35000e+00	1.827192e-06	
354	-4.40000e+00	1.827851e-06	
355	-4.45000e+00	1.828508e-06	
356	-4.50000e+00	1.829161e-06	
357	-4.55000e+00	1.829813e-06	
358	-4.60000e+00	1.830462e-06	
359	-4.65000e+00	1.831109e-06	
360	-4.70000e+00	1.831755e-06	
361	-4.75000e+00	1.832399e-06	
362	-4.80000e+00	1.833042e-06	
363	-4.85000e+00	1.833685e-06	
364	-4.90000e+00	1.834327e-06	
365	-4.95000e+00	1.834970e-06	
366	-5.00000e+00	1.835614e-06	
367	-5.05000e+00	1.836259e-06	
368	-5.10000e+00	1.836907e-06	
369	-5.15000e+00	1.837558e-06	
370	-5.20000e+00	1.838214e-06	
371	-5.25000e+00	1.838875e-06	
372	-5.30000e+00	1.839544e-06	
373	-5.35000e+00	1.840220e-06	
374	-5.40000e+00	1.840907e-06	
375	-5.45000e+00	1.841606e-06	
376	-5.50000e+00	1.842319e-06	
377	-5.55000e+00	1.843048e-06	
378	-5.60000e+00	1.843796e-06	
379	-5.65000e+00	1.844566e-06	
380	-5.70000e+00	1.845361e-06	
381	-5.75000e+00	1.846185e-06	
382	-5.80000e+00	1.847040e-06	
383	-5.85000e+00	1.847932e-06	
384	-5.90000e+00	1.848864e-06	
385	-5.95000e+00	1.849841e-06	
386	-6.00000e+00	1.850869e-06	
387	-6.05000e+00	1.851954e-06	
388	-6.10000e+00	1.853100e-06	
389	-6.15000e+00	1.854316e-06	
390	-6.20000e+00	1.855607e-06	
391	-6.25000e+00	1.856981e-06	
392	-6.30000e+00	1.858446e-06	
393	-6.35000e+00	1.860010e-06	
394	-6.40000e+00	1.861683e-06	
395	-6.45000e+00	1.863474e-06	
396	-6.50000e+00	1.865393e-06	
397	-6.55000e+00	1.867451e-06	
398	-6.60000e+00	1.869658e-06	
399	0.000000e+00	-4.61179e-26	
400	-5.00000e-02	1.515918e-07	
401	-1.00000e-01	2.973519e-07	
402	-1.50000e-01	4.393255e-07	

Index   v-sweep         i(vds)          
--------------------------------------------------------------------------------
403	-2.00000e-01	5.779938e-07	
404	-2.50000e-01	7.134699e-07	
405	-3.00000e-01	8.457800e-07	
406	-3.50000e-01	9.749300e-07	
407	-4.00000e-01	1.100921e-06	
408	-4.50000e-01	1.223753e-06	
409	-5.00000e-01	1.343426e-06	
410	-5.50000e-01	1.459939e-06	
411	-6.00000e-01	1.573292e-06	
412	-6.50000e-01	1.683485e-06	
413	-7.00000e-01	1.790517e-06	
414	-7.50000e-01	1.894388e-06	
415	-8.00000e-01	1.995097e-06	
416	-8.50000e-01	2.092645e-06	
417	-9.00000e-01	2.187031e-06	
418	-9.50000e-01	2.278256e-06	
419	-1.00000e+00	2.366317e-06	
420	-1.05000e+00	2.451216e-06	
421	-1.10000e+00	2.532953e-06	
422	-1.15000e+00	2.611527e-06	
423	-1.20000e+00	2.686938e-06	
424	-1.25000e+00	2.759186e-06	
425	-1.30000e+00	2.828272e-06	
426	-1.35000e+00	2.894196e-06	
427	-1.40000e+00	2.956958e-06	
428	-1.45000e+00	3.016560e-06	
429	-1.50000e+00	3.073003e-06	
430	-1.55000e+00	3.126287e-06	
431	-1.60000e+00	3.176416e-06	
432	-1.65000e+00	3.223392e-06	
433	-1.70000e+00	3.267219e-06	
434	-1.75000e+00	3.307903e-06	
435	-1.80000e+00	3.345453e-06	
436	-1.85000e+00	3.379878e-06	
437	-1.90000e+00	3.411196e-06	
438	-1.95000e+00	3.439429e-06	
439	-2.00000e+00	3.464610e-06	
440	-2.05000e+00	3.486789e-06	
441	-2.10000e+00	3.506040e-06	
442	-2.15000e+00	3.522472e-06	
443	-2.20000e+00	3.536243e-06	
444	-2.25000e+00	3.547576e-06	
445	-2.30000e+00	3.556762e-06	
446	-2.35000e+00	3.564151e-06	
447	-2.40000e+00	3.570115e-06	
448	-2.45000e+00	3.575005e-06	
449	-2.50000e+00	3.579114e-06	
450	-2.55000e+00	3.582668e-06	
451	-2.60000e+00	3.585825e-06	
452	-2.65000e+00	3.588695e-06	
453	-2.70000e+00	3.591353e-06	
454	-2.75000e+00	3.593850e-06	
455	-2.80000e+00	3.596219e-06	
456	-2.85000e+00	3.598485e-06	
457	-2.90000e+00	3.600667e-06	
458	-2.95000e+00	3.602776e-06	
459	-3.00000e+00	3.604824e-06	
460	-3.05000e+00	3.606817e-06	

Index   v-sweep         i(vds)          
--------------------------------------------------------------------------------
461	-3.10000e+00	3.608763e-06	
462	-3.15000e+00	3.610665e-06	
463	-3.20000e+00	3.612528e-06	
464	-3.25000e+00	3.614356e-06	
465	-3.30000e+00	3.616151e-06	
466	-3.35000e+00	3.617916e-06	
467	-3.40000e+00	3.619653e-06	
468	-3.45000e+00	3.621365e-06	
469	-3.50000e+00	3.623052e-06	
470	-3.55000e+00	3.624717e-06	
471	-3.60000e+00	3.626360e-06	
472	-3.65000e+00	3.627984e-06	
473	-3.70000e+00	3.629589e-06	
474	-3.75000e+00	3.631175e-06	
475	-3.80000e+00	3.632745e-06	
476	-3.85000e+00	3.634299e-06	
477	-3.90000e+00	3.635838e-06	
478	-3.95000e+00	3.637363e-06	
479	-4.00000e+00	3.638873e-06	
480	-4.05000e+00	3.640370e-06	
481	-4.10000e+00	3.641855e-06	
482	-4.15000e+00	3.643328e-06	
483	-4.20000e+00	3.644789e-06	
484	-4.25000e+00	3.646239e-06	
485	-4.30000e+00	3.647679e-06	
486	-4.35000e+00	3.649108e-06	
487	-4.40000e+00	3.650528e-06	
488	-4.45000e+00	3.651938e-06	
489	-4.50000e+00	3.653339e-06	
490	-4.55000e+00	3.654732e-06	
491	-4.60000e+00	3.656116e-06	
492	-4.65000e+00	3.657492e-06	
493	-4.70000e+00	3.658860e-06	
494	-4.75000e+00	3.660221e-06	
495	-4.80000e+00	3.661574e-06	
496	-4.85000e+00	3.662921e-06	
497	-4.90000e+00	3.664260e-06	
498	-4.95000e+00	3.665593e-06	
499	-5.00000e+00	3.666920e-06	
500	-5.05000e+00	3.668241e-06	
501	-5.10000e+00	3.669557e-06	
502	-5.15000e+00	3.670867e-06	
503	-5.20000e+00	3.672172e-06	
504	-5.25000e+00	3.673472e-06	
505	-5.30000e+00	3.674768e-06	
506	-5.35000e+00	3.676060e-06	
507	-5.40000e+00	3.677348e-06	
508	-5.45000e+00	3.678634e-06	
509	-5.50000e+00	3.679918e-06	
510	-5.55000e+00	3.681201e-06	
511	-5.60000e+00	3.682483e-06	
512	-5.65000e+00	3.683765e-06	
513	-5.70000e+00	3.685049e-06	
514	-5.75000e+00	3.686337e-06	
515	-5.80000e+00	3.687628e-06	
516	-5.85000e+00	3.688927e-06	
517	-5.90000e+00	3.690233e-06	
518	-5.95000e+00	3.691550e-06	

Index   v-sweep         i(vds)          
--------------------------------------------------------------------------------
519	-6.00000e+00	3.692880e-06	
520	-6.05000e+00	3.694227e-06	
521	-6.10000e+00	3.695592e-06	
522	-6.15000e+00	3.696981e-06	
523	-6.20000e+00	3.698397e-06	
524	-6.25000e+00	3.699844e-06	
525	-6.30000e+00	3.701327e-06	
526	-6.35000e+00	3.702853e-06	
527	-6.40000e+00	3.704426e-06	
528	-6.45000e+00	3.706055e-06	
529	-6.50000e+00	3.707745e-06	
530	-6.55000e+00	3.709506e-06	
531	-6.60000e+00	3.711345e-06	
532	0.000000e+00	1.823996e-22	
533	-5.00000e-02	1.918312e-07	
534	-1.00000e-01	3.779619e-07	
535	-1.50000e-01	5.604281e-07	
536	-2.00000e-01	7.397101e-07	
537	-2.50000e-01	9.159210e-07	
538	-3.00000e-01	1.089087e-06	
539	-3.50000e-01	1.259215e-06	
540	-4.00000e-01	1.426305e-06	
541	-4.50000e-01	1.590358e-06	
542	-5.00000e-01	1.751372e-06	
543	-5.50000e-01	1.909349e-06	
544	-6.00000e-01	2.064287e-06	
545	-6.50000e-01	2.216186e-06	
546	-7.00000e-01	2.365045e-06	
547	-7.50000e-01	2.510865e-06	
548	-8.00000e-01	2.653645e-06	
549	-8.50000e-01	2.793385e-06	
550	-9.00000e-01	2.930084e-06	
551	-9.50000e-01	3.063741e-06	
552	-1.00000e+00	3.194357e-06	
553	-1.05000e+00	3.321932e-06	
554	-1.10000e+00	3.446464e-06	
555	-1.15000e+00	3.567954e-06	
556	-1.20000e+00	3.686400e-06	
557	-1.25000e+00	3.801804e-06	
558	-1.30000e+00	3.914164e-06	
559	-1.35000e+00	4.023481e-06	
560	-1.40000e+00	4.129753e-06	
561	-1.45000e+00	4.232982e-06	
562	-1.50000e+00	4.333166e-06	
563	-1.55000e+00	4.430305e-06	
564	-1.60000e+00	4.524399e-06	
565	-1.65000e+00	4.615448e-06	
566	-1.70000e+00	4.703453e-06	
567	-1.75000e+00	4.788412e-06	
568	-1.80000e+00	4.870326e-06	
569	-1.85000e+00	4.949195e-06	
570	-1.90000e+00	5.025020e-06	
571	-1.95000e+00	5.097801e-06	
572	-2.00000e+00	5.167538e-06	
573	-2.05000e+00	5.234232e-06	
574	-2.10000e+00	5.297884e-06	
575	-2.15000e+00	5.358496e-06	
576	-2.20000e+00	5.416069e-06	

Index   v-sweep         i(vds)          
--------------------------------------------------------------------------------
577	-2.25000e+00	5.470605e-06	
578	-2.30000e+00	5.522109e-06	
579	-2.35000e+00	5.570584e-06	
580	-2.40000e+00	5.616035e-06	
581	-2.45000e+00	5.658470e-06	
582	-2.50000e+00	5.697898e-06	
583	-2.55000e+00	5.734333e-06	
584	-2.60000e+00	5.767794e-06	
585	-2.65000e+00	5.798304e-06	
586	-2.70000e+00	5.825900e-06	
587	-2.75000e+00	5.850629e-06	
588	-2.80000e+00	5.872562e-06	
589	-2.85000e+00	5.891796e-06	
590	-2.90000e+00	5.908462e-06	
591	-2.95000e+00	5.922742e-06	
592	-3.00000e+00	5.934863e-06	
593	-3.05000e+00	5.945103e-06	
594	-3.10000e+00	5.953766e-06	
595	-3.15000e+00	5.961159e-06	
596	-3.20000e+00	5.967565e-06	
597	-3.25000e+00	5.973221e-06	
598	-3.30000e+00	5.978313e-06	
599	-3.35000e+00	5.982980e-06	
600	-3.40000e+00	5.987322e-06	
601	-3.45000e+00	5.991412e-06	
602	-3.50000e+00	5.995300e-06	
603	-3.55000e+00	5.999025e-06	
604	-3.60000e+00	6.002614e-06	
605	-3.65000e+00	6.006087e-06	
606	-3.70000e+00	6.009460e-06	
607	-3.75000e+00	6.012745e-06	
608	-3.80000e+00	6.015953e-06	
609	-3.85000e+00	6.019091e-06	
610	-3.90000e+00	6.022166e-06	
611	-3.95000e+00	6.025184e-06	
612	-4.00000e+00	6.028149e-06	
613	-4.05000e+00	6.031066e-06	
614	-4.10000e+00	6.033937e-06	
615	-4.15000e+00	6.036766e-06	
616	-4.20000e+00	6.039556e-06	
617	-4.25000e+00	6.042310e-06	
618	-4.30000e+00	6.045028e-06	
619	-4.35000e+00	6.047715e-06	
620	-4.40000e+00	6.050370e-06	
621	-4.45000e+00	6.052997e-06	
622	-4.50000e+00	6.055596e-06	
623	-4.55000e+00	6.058169e-06	
624	-4.60000e+00	6.060718e-06	
625	-4.65000e+00	6.063242e-06	
626	-4.70000e+00	6.065745e-06	
627	-4.75000e+00	6.068225e-06	
628	-4.80000e+00	6.070686e-06	
629	-4.85000e+00	6.073126e-06	
630	-4.90000e+00	6.075548e-06	
631	-4.95000e+00	6.077951e-06	
632	-5.00000e+00	6.080338e-06	
633	-5.05000e+00	6.082707e-06	
634	-5.10000e+00	6.085061e-06	

Index   v-sweep         i(vds)          
--------------------------------------------------------------------------------
635	-5.15000e+00	6.087399e-06	
636	-5.20000e+00	6.089723e-06	
637	-5.25000e+00	6.092032e-06	
638	-5.30000e+00	6.094328e-06	
639	-5.35000e+00	6.096610e-06	
640	-5.40000e+00	6.098879e-06	
641	-5.45000e+00	6.101137e-06	
642	-5.50000e+00	6.103382e-06	
643	-5.55000e+00	6.105616e-06	
644	-5.60000e+00	6.107838e-06	
645	-5.65000e+00	6.110050e-06	
646	-5.70000e+00	6.112252e-06	
647	-5.75000e+00	6.114444e-06	
648	-5.80000e+00	6.116627e-06	
649	-5.85000e+00	6.118800e-06	
650	-5.90000e+00	6.120966e-06	
651	-5.95000e+00	6.123123e-06	
652	-6.00000e+00	6.125273e-06	
653	-6.05000e+00	6.127417e-06	
654	-6.10000e+00	6.129554e-06	
655	-6.15000e+00	6.131687e-06	
656	-6.20000e+00	6.133816e-06	
657	-6.25000e+00	6.135942e-06	
658	-6.30000e+00	6.138067e-06	
659	-6.35000e+00	6.140191e-06	
660	-6.40000e+00	6.142318e-06	
661	-6.45000e+00	6.144449e-06	
662	-6.50000e+00	6.146586e-06	
663	-6.55000e+00	6.148731e-06	
664	-6.60000e+00	6.150889e-06	
665	0.000000e+00	-4.17091e-26	
666	-5.00000e-02	2.308050e-07	
667	-1.00000e-01	4.560244e-07	
668	-1.50000e-01	6.776850e-07	
669	-2.00000e-01	8.962665e-07	
670	-2.50000e-01	1.111882e-06	
671	-3.00000e-01	1.324558e-06	
672	-3.50000e-01	1.534301e-06	
673	-4.00000e-01	1.741112e-06	
674	-4.50000e-01	1.944991e-06	
675	-5.00000e-01	2.145938e-06	
676	-5.50000e-01	2.343951e-06	
677	-6.00000e-01	2.539032e-06	
678	-6.50000e-01	2.731179e-06	
679	-7.00000e-01	2.920392e-06	
680	-7.50000e-01	3.106672e-06	
681	-8.00000e-01	3.290017e-06	
682	-8.50000e-01	3.470427e-06	
683	-9.00000e-01	3.647902e-06	
684	-9.50000e-01	3.822441e-06	
685	-1.00000e+00	3.994044e-06	
686	-1.05000e+00	4.162712e-06	
687	-1.10000e+00	4.328442e-06	
688	-1.15000e+00	4.491236e-06	
689	-1.20000e+00	4.651092e-06	
690	-1.25000e+00	4.808011e-06	
691	-1.30000e+00	4.961992e-06	
692	-1.35000e+00	5.113035e-06	

Index   v-sweep         i(vds)          
--------------------------------------------------------------------------------
693	-1.40000e+00	5.261139e-06	
694	-1.45000e+00	5.406304e-06	
695	-1.50000e+00	5.548529e-06	
696	-1.55000e+00	5.687815e-06	
697	-1.60000e+00	5.824161e-06	
698	-1.65000e+00	5.957567e-06	
699	-1.70000e+00	6.088032e-06	
700	-1.75000e+00	6.215556e-06	
701	-1.80000e+00	6.340139e-06	
702	-1.85000e+00	6.461781e-06	
703	-1.90000e+00	6.580481e-06	
704	-1.95000e+00	6.696238e-06	
705	-2.00000e+00	6.809054e-06	
706	-2.05000e+00	6.918927e-06	
707	-2.10000e+00	7.025858e-06	
708	-2.15000e+00	7.129845e-06	
709	-2.20000e+00	7.230890e-06	
710	-2.25000e+00	7.328992e-06	
711	-2.30000e+00	7.424151e-06	
712	-2.35000e+00	7.516366e-06	
713	-2.40000e+00	7.605639e-06	
714	-2.45000e+00	7.691969e-06	
715	-2.50000e+00	7.775356e-06	
716	-2.55000e+00	7.855801e-06	
717	-2.60000e+00	7.933304e-06	
718	-2.65000e+00	8.007866e-06	
719	-2.70000e+00	8.079488e-06	
720	-2.75000e+00	8.148171e-06	
721	-2.80000e+00	8.213916e-06	
722	-2.85000e+00	8.276725e-06	
723	-2.90000e+00	8.336601e-06	
724	-2.95000e+00	8.393546e-06	
725	-3.00000e+00	8.447564e-06	
726	-3.05000e+00	8.498659e-06	
727	-3.10000e+00	8.546839e-06	
728	-3.15000e+00	8.592111e-06	
729	-3.20000e+00	8.634485e-06	
730	-3.25000e+00	8.673976e-06	
731	-3.30000e+00	8.710600e-06	
732	-3.35000e+00	8.744382e-06	
733	-3.40000e+00	8.775355e-06	
734	-3.45000e+00	8.803562e-06	
735	-3.50000e+00	8.829062e-06	
736	-3.55000e+00	8.851934e-06	
737	-3.60000e+00	8.872283e-06	
738	-3.65000e+00	8.890249e-06	
739	-3.70000e+00	8.906007e-06	
740	-3.75000e+00	8.919773e-06	
741	-3.80000e+00	8.931792e-06	
742	-3.85000e+00	8.942328e-06	
743	-3.90000e+00	8.951645e-06	
744	-3.95000e+00	8.959982e-06	
745	-4.00000e+00	8.967548e-06	
746	-4.05000e+00	8.974511e-06	
747	-4.10000e+00	8.981001e-06	
748	-4.15000e+00	8.987117e-06	
749	-4.20000e+00	8.992932e-06	
750	-4.25000e+00	8.998501e-06	

Index   v-sweep         i(vds)          
--------------------------------------------------------------------------------
751	-4.30000e+00	9.003866e-06	
752	-4.35000e+00	9.009056e-06	
753	-4.40000e+00	9.014097e-06	
754	-4.45000e+00	9.019006e-06	
755	-4.50000e+00	9.023799e-06	
756	-4.55000e+00	9.028488e-06	
757	-4.60000e+00	9.033083e-06	
758	-4.65000e+00	9.037592e-06	
759	-4.70000e+00	9.042022e-06	
760	-4.75000e+00	9.046380e-06	
761	-4.80000e+00	9.050671e-06	
762	-4.85000e+00	9.054900e-06	
763	-4.90000e+00	9.059069e-06	
764	-4.95000e+00	9.063185e-06	
765	-5.00000e+00	9.067249e-06	
766	-5.05000e+00	9.071264e-06	
767	-5.10000e+00	9.075234e-06	
768	-5.15000e+00	9.079161e-06	
769	-5.20000e+00	9.083047e-06	
770	-5.25000e+00	9.086894e-06	
771	-5.30000e+00	9.090704e-06	
772	-5.35000e+00	9.094478e-06	
773	-5.40000e+00	9.098220e-06	
774	-5.45000e+00	9.101929e-06	
775	-5.50000e+00	9.105607e-06	
776	-5.55000e+00	9.109257e-06	
777	-5.60000e+00	9.112878e-06	
778	-5.65000e+00	9.116472e-06	
779	-5.70000e+00	9.120041e-06	
780	-5.75000e+00	9.123585e-06	
781	-5.80000e+00	9.127105e-06	
782	-5.85000e+00	9.130602e-06	
783	-5.90000e+00	9.134077e-06	
784	-5.95000e+00	9.137531e-06	
785	-6.00000e+00	9.140964e-06	
786	-6.05000e+00	9.144378e-06	
787	-6.10000e+00	9.147772e-06	
788	-6.15000e+00	9.151148e-06	
789	-6.20000e+00	9.154506e-06	
790	-6.25000e+00	9.157848e-06	
791	-6.30000e+00	9.161172e-06	
792	-6.35000e+00	9.164481e-06	
793	-6.40000e+00	9.167774e-06	
794	-6.45000e+00	9.171053e-06	
795	-6.50000e+00	9.174317e-06	
796	-6.55000e+00	9.177568e-06	
797	-6.60000e+00	9.180806e-06	
Note: No ".plot", ".print", or ".fourier" lines; no simulations run
