
Note: Compatibility modes selected: hs

Warning: m=xx on .subckt line will override multiplier m hierarchy!


Circuit: ***************************

Doing analysis at TEMP = -40.000000 and TNOM = -40.000000


No. of Data Rows : 798
                          ***************************
                          DC transfer characteristic  Mon Jan  9 13:58:50  2023
--------------------------------------------------------------------------------
Index   v-sweep         i(vds)          
--------------------------------------------------------------------------------
0	0.000000e+00	1.666388e-24	
1	-5.00000e-02	8.173251e-08	
2	-1.00000e-01	1.052495e-07	
3	-1.50000e-01	1.097213e-07	
4	-2.00000e-01	1.112441e-07	
5	-2.50000e-01	1.121607e-07	
6	-3.00000e-01	1.128643e-07	
7	-3.50000e-01	1.134600e-07	
8	-4.00000e-01	1.139877e-07	
9	-4.50000e-01	1.144666e-07	
10	-5.00000e-01	1.149079e-07	
11	-5.50000e-01	1.153187e-07	
12	-6.00000e-01	1.157039e-07	
13	-6.50000e-01	1.160673e-07	
14	-7.00000e-01	1.164119e-07	
15	-7.50000e-01	1.167397e-07	
16	-8.00000e-01	1.170529e-07	
17	-8.50000e-01	1.173528e-07	
18	-9.00000e-01	1.176409e-07	
19	-9.50000e-01	1.179182e-07	
20	-1.00000e+00	1.181856e-07	
21	-1.05000e+00	1.184441e-07	
22	-1.10000e+00	1.186944e-07	
23	-1.15000e+00	1.189371e-07	
24	-1.20000e+00	1.191727e-07	
25	-1.25000e+00	1.194018e-07	
26	-1.30000e+00	1.196248e-07	
27	-1.35000e+00	1.198422e-07	
28	-1.40000e+00	1.200542e-07	
29	-1.45000e+00	1.202614e-07	
30	-1.50000e+00	1.204638e-07	
31	-1.55000e+00	1.206619e-07	
32	-1.60000e+00	1.208558e-07	
33	-1.65000e+00	1.210458e-07	
34	-1.70000e+00	1.212321e-07	
35	-1.75000e+00	1.214150e-07	
36	-1.80000e+00	1.215945e-07	
37	-1.85000e+00	1.217709e-07	
38	-1.90000e+00	1.219442e-07	
39	-1.95000e+00	1.221148e-07	
40	-2.00000e+00	1.222826e-07	
41	-2.05000e+00	1.224478e-07	
42	-2.10000e+00	1.226105e-07	
43	-2.15000e+00	1.227709e-07	
44	-2.20000e+00	1.229290e-07	
45	-2.25000e+00	1.230849e-07	
46	-2.30000e+00	1.232387e-07	
47	-2.35000e+00	1.233906e-07	
48	-2.40000e+00	1.235405e-07	
49	-2.45000e+00	1.236886e-07	
50	-2.50000e+00	1.238349e-07	
51	-2.55000e+00	1.239794e-07	
52	-2.60000e+00	1.241224e-07	
53	-2.65000e+00	1.242638e-07	
54	-2.70000e+00	1.244036e-07	

Index   v-sweep         i(vds)          
--------------------------------------------------------------------------------
55	-2.75000e+00	1.245420e-07	
56	-2.80000e+00	1.246789e-07	
57	-2.85000e+00	1.248145e-07	
58	-2.90000e+00	1.249488e-07	
59	-2.95000e+00	1.250818e-07	
60	-3.00000e+00	1.252136e-07	
61	-3.05000e+00	1.253442e-07	
62	-3.10000e+00	1.254738e-07	
63	-3.15000e+00	1.256022e-07	
64	-3.20000e+00	1.257296e-07	
65	-3.25000e+00	1.258561e-07	
66	-3.30000e+00	1.259817e-07	
67	-3.35000e+00	1.261064e-07	
68	-3.40000e+00	1.262304e-07	
69	-3.45000e+00	1.263536e-07	
70	-3.50000e+00	1.264762e-07	
71	-3.55000e+00	1.265983e-07	
72	-3.60000e+00	1.267199e-07	
73	-3.65000e+00	1.268411e-07	
74	-3.70000e+00	1.269621e-07	
75	-3.75000e+00	1.270829e-07	
76	-3.80000e+00	1.272038e-07	
77	-3.85000e+00	1.273247e-07	
78	-3.90000e+00	1.274460e-07	
79	-3.95000e+00	1.275678e-07	
80	-4.00000e+00	1.276902e-07	
81	-4.05000e+00	1.278135e-07	
82	-4.10000e+00	1.279378e-07	
83	-4.15000e+00	1.280636e-07	
84	-4.20000e+00	1.281910e-07	
85	-4.25000e+00	1.283203e-07	
86	-4.30000e+00	1.284518e-07	
87	-4.35000e+00	1.285860e-07	
88	-4.40000e+00	1.287231e-07	
89	-4.45000e+00	1.288636e-07	
90	-4.50000e+00	1.290079e-07	
91	-4.55000e+00	1.291565e-07	
92	-4.60000e+00	1.293099e-07	
93	-4.65000e+00	1.294687e-07	
94	-4.70000e+00	1.296333e-07	
95	-4.75000e+00	1.298045e-07	
96	-4.80000e+00	1.299828e-07	
97	-4.85000e+00	1.301690e-07	
98	-4.90000e+00	1.303638e-07	
99	-4.95000e+00	1.305680e-07	
100	-5.00000e+00	1.307824e-07	
101	-5.05000e+00	1.310079e-07	
102	-5.10000e+00	1.312453e-07	
103	-5.15000e+00	1.314957e-07	
104	-5.20000e+00	1.317599e-07	
105	-5.25000e+00	1.320392e-07	
106	-5.30000e+00	1.323346e-07	
107	-5.35000e+00	1.326472e-07	
108	-5.40000e+00	1.329782e-07	
109	-5.45000e+00	1.333289e-07	
110	-5.50000e+00	1.337006e-07	
111	-5.55000e+00	1.340947e-07	
112	-5.60000e+00	1.345125e-07	

Index   v-sweep         i(vds)          
--------------------------------------------------------------------------------
113	-5.65000e+00	1.349556e-07	
114	-5.70000e+00	1.354253e-07	
115	-5.75000e+00	1.359234e-07	
116	-5.80000e+00	1.364514e-07	
117	-5.85000e+00	1.370109e-07	
118	-5.90000e+00	1.376038e-07	
119	-5.95000e+00	1.382318e-07	
120	-6.00000e+00	1.388967e-07	
121	-6.05000e+00	1.396003e-07	
122	-6.10000e+00	1.403448e-07	
123	-6.15000e+00	1.411320e-07	
124	-6.20000e+00	1.419639e-07	
125	-6.25000e+00	1.428428e-07	
126	-6.30000e+00	1.437706e-07	
127	-6.35000e+00	1.447497e-07	
128	-6.40000e+00	1.457822e-07	
129	-6.45000e+00	1.468705e-07	
130	-6.50000e+00	1.480169e-07	
131	-6.55000e+00	1.492238e-07	
132	-6.60000e+00	1.504937e-07	
133	0.000000e+00	-2.20012e-37	
134	-5.00000e-02	1.676634e-06	
135	-1.00000e-01	3.239193e-06	
136	-1.50000e-01	4.688543e-06	
137	-2.00000e-01	6.025556e-06	
138	-2.50000e-01	7.251110e-06	
139	-3.00000e-01	8.366098e-06	
140	-3.50000e-01	9.371446e-06	
141	-4.00000e-01	1.026813e-05	
142	-4.50000e-01	1.105724e-05	
143	-5.00000e-01	1.174005e-05	
144	-5.50000e-01	1.231825e-05	
145	-6.00000e-01	1.279437e-05	
146	-6.50000e-01	1.317265e-05	
147	-7.00000e-01	1.346076e-05	
148	-7.50000e-01	1.367186e-05	
149	-8.00000e-01	1.382450e-05	
150	-8.50000e-01	1.393802e-05	
151	-9.00000e-01	1.402718e-05	
152	-9.50000e-01	1.410107e-05	
153	-1.00000e+00	1.416479e-05	
154	-1.05000e+00	1.422128e-05	
155	-1.10000e+00	1.427229e-05	
156	-1.15000e+00	1.431898e-05	
157	-1.20000e+00	1.436215e-05	
158	-1.25000e+00	1.440238e-05	
159	-1.30000e+00	1.444010e-05	
160	-1.35000e+00	1.447566e-05	
161	-1.40000e+00	1.450932e-05	
162	-1.45000e+00	1.454132e-05	
163	-1.50000e+00	1.457182e-05	
164	-1.55000e+00	1.460100e-05	
165	-1.60000e+00	1.462897e-05	
166	-1.65000e+00	1.465585e-05	
167	-1.70000e+00	1.468174e-05	
168	-1.75000e+00	1.470671e-05	
169	-1.80000e+00	1.473086e-05	
170	-1.85000e+00	1.475423e-05	

Index   v-sweep         i(vds)          
--------------------------------------------------------------------------------
171	-1.90000e+00	1.477689e-05	
172	-1.95000e+00	1.479889e-05	
173	-2.00000e+00	1.482028e-05	
174	-2.05000e+00	1.484109e-05	
175	-2.10000e+00	1.486136e-05	
176	-2.15000e+00	1.488114e-05	
177	-2.20000e+00	1.490044e-05	
178	-2.25000e+00	1.491929e-05	
179	-2.30000e+00	1.493773e-05	
180	-2.35000e+00	1.495577e-05	
181	-2.40000e+00	1.497344e-05	
182	-2.45000e+00	1.499076e-05	
183	-2.50000e+00	1.500774e-05	
184	-2.55000e+00	1.502440e-05	
185	-2.60000e+00	1.504075e-05	
186	-2.65000e+00	1.505682e-05	
187	-2.70000e+00	1.507262e-05	
188	-2.75000e+00	1.508815e-05	
189	-2.80000e+00	1.510343e-05	
190	-2.85000e+00	1.511847e-05	
191	-2.90000e+00	1.513328e-05	
192	-2.95000e+00	1.514787e-05	
193	-3.00000e+00	1.516225e-05	
194	-3.05000e+00	1.517642e-05	
195	-3.10000e+00	1.519041e-05	
196	-3.15000e+00	1.520420e-05	
197	-3.20000e+00	1.521782e-05	
198	-3.25000e+00	1.523126e-05	
199	-3.30000e+00	1.524454e-05	
200	-3.35000e+00	1.525765e-05	
201	-3.40000e+00	1.527062e-05	
202	-3.45000e+00	1.528343e-05	
203	-3.50000e+00	1.529610e-05	
204	-3.55000e+00	1.530863e-05	
205	-3.60000e+00	1.532103e-05	
206	-3.65000e+00	1.533330e-05	
207	-3.70000e+00	1.534545e-05	
208	-3.75000e+00	1.535748e-05	
209	-3.80000e+00	1.536940e-05	
210	-3.85000e+00	1.538122e-05	
211	-3.90000e+00	1.539293e-05	
212	-3.95000e+00	1.540455e-05	
213	-4.00000e+00	1.541609e-05	
214	-4.05000e+00	1.542754e-05	
215	-4.10000e+00	1.543892e-05	
216	-4.15000e+00	1.545023e-05	
217	-4.20000e+00	1.546148e-05	
218	-4.25000e+00	1.547269e-05	
219	-4.30000e+00	1.548387e-05	
220	-4.35000e+00	1.549502e-05	
221	-4.40000e+00	1.550616e-05	
222	-4.45000e+00	1.551730e-05	
223	-4.50000e+00	1.552846e-05	
224	-4.55000e+00	1.553966e-05	
225	-4.60000e+00	1.555092e-05	
226	-4.65000e+00	1.556226e-05	
227	-4.70000e+00	1.557370e-05	
228	-4.75000e+00	1.558527e-05	

Index   v-sweep         i(vds)          
--------------------------------------------------------------------------------
229	-4.80000e+00	1.559699e-05	
230	-4.85000e+00	1.560890e-05	
231	-4.90000e+00	1.562104e-05	
232	-4.95000e+00	1.563343e-05	
233	-5.00000e+00	1.564612e-05	
234	-5.05000e+00	1.565915e-05	
235	-5.10000e+00	1.567257e-05	
236	-5.15000e+00	1.568643e-05	
237	-5.20000e+00	1.570078e-05	
238	-5.25000e+00	1.571568e-05	
239	-5.30000e+00	1.573119e-05	
240	-5.35000e+00	1.574738e-05	
241	-5.40000e+00	1.576432e-05	
242	-5.45000e+00	1.578209e-05	
243	-5.50000e+00	1.580076e-05	
244	-5.55000e+00	1.582042e-05	
245	-5.60000e+00	1.584116e-05	
246	-5.65000e+00	1.586307e-05	
247	-5.70000e+00	1.588626e-05	
248	-5.75000e+00	1.591083e-05	
249	-5.80000e+00	1.593689e-05	
250	-5.85000e+00	1.596456e-05	
251	-5.90000e+00	1.599396e-05	
252	-5.95000e+00	1.602522e-05	
253	-6.00000e+00	1.605847e-05	
254	-6.05000e+00	1.609385e-05	
255	-6.10000e+00	1.613152e-05	
256	-6.15000e+00	1.617161e-05	
257	-6.20000e+00	1.621429e-05	
258	-6.25000e+00	1.625972e-05	
259	-6.30000e+00	1.630808e-05	
260	-6.35000e+00	1.635954e-05	
261	-6.40000e+00	1.641428e-05	
262	-6.45000e+00	1.647249e-05	
263	-6.50000e+00	1.653436e-05	
264	-6.55000e+00	1.660010e-05	
265	-6.60000e+00	1.666992e-05	
266	0.000000e+00	-1.47219e-36	
267	-5.00000e-02	2.907376e-06	
268	-1.00000e-01	5.709064e-06	
269	-1.50000e-01	8.405714e-06	
270	-2.00000e-01	1.099798e-05	
271	-2.50000e-01	1.348650e-05	
272	-3.00000e-01	1.587193e-05	
273	-3.50000e-01	1.815491e-05	
274	-4.00000e-01	2.033608e-05	
275	-4.50000e-01	2.241607e-05	
276	-5.00000e-01	2.439552e-05	
277	-5.50000e-01	2.627507e-05	
278	-6.00000e-01	2.805534e-05	
279	-6.50000e-01	2.973699e-05	
280	-7.00000e-01	3.132064e-05	
281	-7.50000e-01	3.280694e-05	
282	-8.00000e-01	3.419655e-05	
283	-8.50000e-01	3.549014e-05	
284	-9.00000e-01	3.668839e-05	
285	-9.50000e-01	3.779205e-05	
286	-1.00000e+00	3.880191e-05	

Index   v-sweep         i(vds)          
--------------------------------------------------------------------------------
287	-1.05000e+00	3.971887e-05	
288	-1.10000e+00	4.054402e-05	
289	-1.15000e+00	4.127876e-05	
290	-1.20000e+00	4.192499e-05	
291	-1.25000e+00	4.248557e-05	
292	-1.30000e+00	4.296485e-05	
293	-1.35000e+00	4.336938e-05	
294	-1.40000e+00	4.370831e-05	
295	-1.45000e+00	4.399275e-05	
296	-1.50000e+00	4.423410e-05	
297	-1.55000e+00	4.444233e-05	
298	-1.60000e+00	4.462519e-05	
299	-1.65000e+00	4.478837e-05	
300	-1.70000e+00	4.493595e-05	
301	-1.75000e+00	4.507089e-05	
302	-1.80000e+00	4.519541e-05	
303	-1.85000e+00	4.531115e-05	
304	-1.90000e+00	4.541942e-05	
305	-1.95000e+00	4.552124e-05	
306	-2.00000e+00	4.561743e-05	
307	-2.05000e+00	4.570867e-05	
308	-2.10000e+00	4.579551e-05	
309	-2.15000e+00	4.587843e-05	
310	-2.20000e+00	4.595781e-05	
311	-2.25000e+00	4.603401e-05	
312	-2.30000e+00	4.610730e-05	
313	-2.35000e+00	4.617795e-05	
314	-2.40000e+00	4.624618e-05	
315	-2.45000e+00	4.631218e-05	
316	-2.50000e+00	4.637612e-05	
317	-2.55000e+00	4.643816e-05	
318	-2.60000e+00	4.649844e-05	
319	-2.65000e+00	4.655707e-05	
320	-2.70000e+00	4.661416e-05	
321	-2.75000e+00	4.666982e-05	
322	-2.80000e+00	4.672414e-05	
323	-2.85000e+00	4.677719e-05	
324	-2.90000e+00	4.682906e-05	
325	-2.95000e+00	4.687980e-05	
326	-3.00000e+00	4.692949e-05	
327	-3.05000e+00	4.697818e-05	
328	-3.10000e+00	4.702592e-05	
329	-3.15000e+00	4.707276e-05	
330	-3.20000e+00	4.711874e-05	
331	-3.25000e+00	4.716392e-05	
332	-3.30000e+00	4.720832e-05	
333	-3.35000e+00	4.725199e-05	
334	-3.40000e+00	4.729495e-05	
335	-3.45000e+00	4.733724e-05	
336	-3.50000e+00	4.737889e-05	
337	-3.55000e+00	4.741992e-05	
338	-3.60000e+00	4.746037e-05	
339	-3.65000e+00	4.750025e-05	
340	-3.70000e+00	4.753959e-05	
341	-3.75000e+00	4.757840e-05	
342	-3.80000e+00	4.761672e-05	
343	-3.85000e+00	4.765456e-05	
344	-3.90000e+00	4.769193e-05	

Index   v-sweep         i(vds)          
--------------------------------------------------------------------------------
345	-3.95000e+00	4.772886e-05	
346	-4.00000e+00	4.776536e-05	
347	-4.05000e+00	4.780144e-05	
348	-4.10000e+00	4.783713e-05	
349	-4.15000e+00	4.787244e-05	
350	-4.20000e+00	4.790738e-05	
351	-4.25000e+00	4.794196e-05	
352	-4.30000e+00	4.797621e-05	
353	-4.35000e+00	4.801013e-05	
354	-4.40000e+00	4.804374e-05	
355	-4.45000e+00	4.807706e-05	
356	-4.50000e+00	4.811010e-05	
357	-4.55000e+00	4.814288e-05	
358	-4.60000e+00	4.817542e-05	
359	-4.65000e+00	4.820773e-05	
360	-4.70000e+00	4.823984e-05	
361	-4.75000e+00	4.827176e-05	
362	-4.80000e+00	4.830354e-05	
363	-4.85000e+00	4.833518e-05	
364	-4.90000e+00	4.836673e-05	
365	-4.95000e+00	4.839821e-05	
366	-5.00000e+00	4.842966e-05	
367	-5.05000e+00	4.846113e-05	
368	-5.10000e+00	4.849266e-05	
369	-5.15000e+00	4.852430e-05	
370	-5.20000e+00	4.855611e-05	
371	-5.25000e+00	4.858815e-05	
372	-5.30000e+00	4.862048e-05	
373	-5.35000e+00	4.865319e-05	
374	-5.40000e+00	4.868634e-05	
375	-5.45000e+00	4.872005e-05	
376	-5.50000e+00	4.875439e-05	
377	-5.55000e+00	4.878948e-05	
378	-5.60000e+00	4.882544e-05	
379	-5.65000e+00	4.886239e-05	
380	-5.70000e+00	4.890047e-05	
381	-5.75000e+00	4.893982e-05	
382	-5.80000e+00	4.898060e-05	
383	-5.85000e+00	4.902300e-05	
384	-5.90000e+00	4.906717e-05	
385	-5.95000e+00	4.911334e-05	
386	-6.00000e+00	4.916170e-05	
387	-6.05000e+00	4.921247e-05	
388	-6.10000e+00	4.926590e-05	
389	-6.15000e+00	4.932224e-05	
390	-6.20000e+00	4.938175e-05	
391	-6.25000e+00	4.944472e-05	
392	-6.30000e+00	4.951145e-05	
393	-6.35000e+00	4.958225e-05	
394	-6.40000e+00	4.965745e-05	
395	-6.45000e+00	4.973741e-05	
396	-6.50000e+00	4.982248e-05	
397	-6.55000e+00	4.991306e-05	
398	-6.60000e+00	5.000955e-05	
399	0.000000e+00	-8.70334e-37	
400	-5.00000e-02	3.855239e-06	
401	-1.00000e-01	7.613411e-06	
402	-1.50000e-01	1.127503e-05	

Index   v-sweep         i(vds)          
--------------------------------------------------------------------------------
403	-2.00000e-01	1.484061e-05	
404	-2.50000e-01	1.831066e-05	
405	-3.00000e-01	2.168569e-05	
406	-3.50000e-01	2.496621e-05	
407	-4.00000e-01	2.815273e-05	
408	-4.50000e-01	3.124574e-05	
409	-5.00000e-01	3.424574e-05	
410	-5.50000e-01	3.715324e-05	
411	-6.00000e-01	3.996873e-05	
412	-6.50000e-01	4.269271e-05	
413	-7.00000e-01	4.532567e-05	
414	-7.50000e-01	4.786809e-05	
415	-8.00000e-01	5.032047e-05	
416	-8.50000e-01	5.268330e-05	
417	-9.00000e-01	5.495707e-05	
418	-9.50000e-01	5.714225e-05	
419	-1.00000e+00	5.923933e-05	
420	-1.05000e+00	6.124880e-05	
421	-1.10000e+00	6.317113e-05	
422	-1.15000e+00	6.500683e-05	
423	-1.20000e+00	6.675636e-05	
424	-1.25000e+00	6.842023e-05	
425	-1.30000e+00	6.999892e-05	
426	-1.35000e+00	7.149294e-05	
427	-1.40000e+00	7.290280e-05	
428	-1.45000e+00	7.422903e-05	
429	-1.50000e+00	7.547219e-05	
430	-1.55000e+00	7.663286e-05	
431	-1.60000e+00	7.771169e-05	
432	-1.65000e+00	7.870943e-05	
433	-1.70000e+00	7.962696e-05	
434	-1.75000e+00	8.046537e-05	
435	-1.80000e+00	8.122615e-05	
436	-1.85000e+00	8.191133e-05	
437	-1.90000e+00	8.252384e-05	
438	-1.95000e+00	8.306778e-05	
439	-2.00000e+00	8.354871e-05	
440	-2.05000e+00	8.397346e-05	
441	-2.10000e+00	8.434964e-05	
442	-2.15000e+00	8.468481e-05	
443	-2.20000e+00	8.498582e-05	
444	-2.25000e+00	8.525846e-05	
445	-2.30000e+00	8.550749e-05	
446	-2.35000e+00	8.573672e-05	
447	-2.40000e+00	8.594917e-05	
448	-2.45000e+00	8.614728e-05	
449	-2.50000e+00	8.633301e-05	
450	-2.55000e+00	8.650797e-05	
451	-2.60000e+00	8.667348e-05	
452	-2.65000e+00	8.683062e-05	
453	-2.70000e+00	8.698033e-05	
454	-2.75000e+00	8.712337e-05	
455	-2.80000e+00	8.726040e-05	
456	-2.85000e+00	8.739201e-05	
457	-2.90000e+00	8.751868e-05	
458	-2.95000e+00	8.764083e-05	
459	-3.00000e+00	8.775886e-05	
460	-3.05000e+00	8.787308e-05	

Index   v-sweep         i(vds)          
--------------------------------------------------------------------------------
461	-3.10000e+00	8.798379e-05	
462	-3.15000e+00	8.809126e-05	
463	-3.20000e+00	8.819571e-05	
464	-3.25000e+00	8.829735e-05	
465	-3.30000e+00	8.839638e-05	
466	-3.35000e+00	8.849295e-05	
467	-3.40000e+00	8.858724e-05	
468	-3.45000e+00	8.867936e-05	
469	-3.50000e+00	8.876947e-05	
470	-3.55000e+00	8.885766e-05	
471	-3.60000e+00	8.894404e-05	
472	-3.65000e+00	8.902873e-05	
473	-3.70000e+00	8.911179e-05	
474	-3.75000e+00	8.919333e-05	
475	-3.80000e+00	8.927341e-05	
476	-3.85000e+00	8.935210e-05	
477	-3.90000e+00	8.942949e-05	
478	-3.95000e+00	8.950561e-05	
479	-4.00000e+00	8.958054e-05	
480	-4.05000e+00	8.965432e-05	
481	-4.10000e+00	8.972702e-05	
482	-4.15000e+00	8.979866e-05	
483	-4.20000e+00	8.986930e-05	
484	-4.25000e+00	8.993899e-05	
485	-4.30000e+00	9.000774e-05	
486	-4.35000e+00	9.007562e-05	
487	-4.40000e+00	9.014264e-05	
488	-4.45000e+00	9.020885e-05	
489	-4.50000e+00	9.027427e-05	
490	-4.55000e+00	9.033893e-05	
491	-4.60000e+00	9.040286e-05	
492	-4.65000e+00	9.046609e-05	
493	-4.70000e+00	9.052865e-05	
494	-4.75000e+00	9.059056e-05	
495	-4.80000e+00	9.065184e-05	
496	-4.85000e+00	9.071252e-05	
497	-4.90000e+00	9.077263e-05	
498	-4.95000e+00	9.083220e-05	
499	-5.00000e+00	9.089124e-05	
500	-5.05000e+00	9.094978e-05	
501	-5.10000e+00	9.100786e-05	
502	-5.15000e+00	9.106550e-05	
503	-5.20000e+00	9.112273e-05	
504	-5.25000e+00	9.117959e-05	
505	-5.30000e+00	9.123611e-05	
506	-5.35000e+00	9.129235e-05	
507	-5.40000e+00	9.134833e-05	
508	-5.45000e+00	9.140412e-05	
509	-5.50000e+00	9.145977e-05	
510	-5.55000e+00	9.151533e-05	
511	-5.60000e+00	9.157088e-05	
512	-5.65000e+00	9.162650e-05	
513	-5.70000e+00	9.168226e-05	
514	-5.75000e+00	9.173827e-05	
515	-5.80000e+00	9.179462e-05	
516	-5.85000e+00	9.185142e-05	
517	-5.90000e+00	9.190882e-05	
518	-5.95000e+00	9.196694e-05	

Index   v-sweep         i(vds)          
--------------------------------------------------------------------------------
519	-6.00000e+00	9.202593e-05	
520	-6.05000e+00	9.208597e-05	
521	-6.10000e+00	9.214723e-05	
522	-6.15000e+00	9.220992e-05	
523	-6.20000e+00	9.227425e-05	
524	-6.25000e+00	9.234045e-05	
525	-6.30000e+00	9.240879e-05	
526	-6.35000e+00	9.247954e-05	
527	-6.40000e+00	9.255298e-05	
528	-6.45000e+00	9.262945e-05	
529	-6.50000e+00	9.270928e-05	
530	-6.55000e+00	9.279284e-05	
531	-6.60000e+00	9.288052e-05	
532	0.000000e+00	1.670955e-20	
533	-5.00000e-02	4.605375e-06	
534	-1.00000e-01	9.121476e-06	
535	-1.50000e-01	1.354872e-05	
536	-2.00000e-01	1.788752e-05	
537	-2.50000e-01	2.213830e-05	
538	-3.00000e-01	2.630146e-05	
539	-3.50000e-01	3.037742e-05	
540	-4.00000e-01	3.436658e-05	
541	-4.50000e-01	3.826936e-05	
542	-5.00000e-01	4.208616e-05	
543	-5.50000e-01	4.581739e-05	
544	-6.00000e-01	4.946344e-05	
545	-6.50000e-01	5.302473e-05	
546	-7.00000e-01	5.650165e-05	
547	-7.50000e-01	5.989459e-05	
548	-8.00000e-01	6.320397e-05	
549	-8.50000e-01	6.643017e-05	
550	-9.00000e-01	6.957359e-05	
551	-9.50000e-01	7.263461e-05	
552	-1.00000e+00	7.561364e-05	
553	-1.05000e+00	7.851106e-05	
554	-1.10000e+00	8.132726e-05	
555	-1.15000e+00	8.406263e-05	
556	-1.20000e+00	8.671755e-05	
557	-1.25000e+00	8.929241e-05	
558	-1.30000e+00	9.178759e-05	
559	-1.35000e+00	9.420348e-05	
560	-1.40000e+00	9.654045e-05	
561	-1.45000e+00	9.879889e-05	
562	-1.50000e+00	1.009792e-04	
563	-1.55000e+00	1.030817e-04	
564	-1.60000e+00	1.051068e-04	
565	-1.65000e+00	1.070549e-04	
566	-1.70000e+00	1.089264e-04	
567	-1.75000e+00	1.107217e-04	
568	-1.80000e+00	1.124410e-04	
569	-1.85000e+00	1.140849e-04	
570	-1.90000e+00	1.156537e-04	
571	-1.95000e+00	1.171478e-04	
572	-2.00000e+00	1.185677e-04	
573	-2.05000e+00	1.199137e-04	
574	-2.10000e+00	1.211862e-04	
575	-2.15000e+00	1.223858e-04	
576	-2.20000e+00	1.235130e-04	

Index   v-sweep         i(vds)          
--------------------------------------------------------------------------------
577	-2.25000e+00	1.245682e-04	
578	-2.30000e+00	1.255523e-04	
579	-2.35000e+00	1.264659e-04	
580	-2.40000e+00	1.273102e-04	
581	-2.45000e+00	1.280866e-04	
582	-2.50000e+00	1.287969e-04	
583	-2.55000e+00	1.294439e-04	
584	-2.60000e+00	1.300314e-04	
585	-2.65000e+00	1.305639e-04	
586	-2.70000e+00	1.310468e-04	
587	-2.75000e+00	1.314860e-04	
588	-2.80000e+00	1.318869e-04	
589	-2.85000e+00	1.322549e-04	
590	-2.90000e+00	1.325945e-04	
591	-2.95000e+00	1.329095e-04	
592	-3.00000e+00	1.332034e-04	
593	-3.05000e+00	1.334788e-04	
594	-3.10000e+00	1.337382e-04	
595	-3.15000e+00	1.339833e-04	
596	-3.20000e+00	1.342158e-04	
597	-3.25000e+00	1.344372e-04	
598	-3.30000e+00	1.346485e-04	
599	-3.35000e+00	1.348508e-04	
600	-3.40000e+00	1.350450e-04	
601	-3.45000e+00	1.352317e-04	
602	-3.50000e+00	1.354117e-04	
603	-3.55000e+00	1.355855e-04	
604	-3.60000e+00	1.357536e-04	
605	-3.65000e+00	1.359165e-04	
606	-3.70000e+00	1.360746e-04	
607	-3.75000e+00	1.362282e-04	
608	-3.80000e+00	1.363776e-04	
609	-3.85000e+00	1.365231e-04	
610	-3.90000e+00	1.366650e-04	
611	-3.95000e+00	1.368035e-04	
612	-4.00000e+00	1.369388e-04	
613	-4.05000e+00	1.370711e-04	
614	-4.10000e+00	1.372006e-04	
615	-4.15000e+00	1.373274e-04	
616	-4.20000e+00	1.374517e-04	
617	-4.25000e+00	1.375737e-04	
618	-4.30000e+00	1.376934e-04	
619	-4.35000e+00	1.378109e-04	
620	-4.40000e+00	1.379264e-04	
621	-4.45000e+00	1.380400e-04	
622	-4.50000e+00	1.381518e-04	
623	-4.55000e+00	1.382618e-04	
624	-4.60000e+00	1.383701e-04	
625	-4.65000e+00	1.384768e-04	
626	-4.70000e+00	1.385820e-04	
627	-4.75000e+00	1.386858e-04	
628	-4.80000e+00	1.387881e-04	
629	-4.85000e+00	1.388891e-04	
630	-4.90000e+00	1.389888e-04	
631	-4.95000e+00	1.390872e-04	
632	-5.00000e+00	1.391845e-04	
633	-5.05000e+00	1.392806e-04	
634	-5.10000e+00	1.393756e-04	

Index   v-sweep         i(vds)          
--------------------------------------------------------------------------------
635	-5.15000e+00	1.394695e-04	
636	-5.20000e+00	1.395625e-04	
637	-5.25000e+00	1.396544e-04	
638	-5.30000e+00	1.397454e-04	
639	-5.35000e+00	1.398355e-04	
640	-5.40000e+00	1.399247e-04	
641	-5.45000e+00	1.400131e-04	
642	-5.50000e+00	1.401007e-04	
643	-5.55000e+00	1.401875e-04	
644	-5.60000e+00	1.402736e-04	
645	-5.65000e+00	1.403590e-04	
646	-5.70000e+00	1.404438e-04	
647	-5.75000e+00	1.405279e-04	
648	-5.80000e+00	1.406115e-04	
649	-5.85000e+00	1.406947e-04	
650	-5.90000e+00	1.407773e-04	
651	-5.95000e+00	1.408596e-04	
652	-6.00000e+00	1.409416e-04	
653	-6.05000e+00	1.410233e-04	
654	-6.10000e+00	1.411049e-04	
655	-6.15000e+00	1.411865e-04	
656	-6.20000e+00	1.412681e-04	
657	-6.25000e+00	1.413499e-04	
658	-6.30000e+00	1.414319e-04	
659	-6.35000e+00	1.415145e-04	
660	-6.40000e+00	1.415976e-04	
661	-6.45000e+00	1.416816e-04	
662	-6.50000e+00	1.417665e-04	
663	-6.55000e+00	1.418526e-04	
664	-6.60000e+00	1.419402e-04	
665	0.000000e+00	3.106523e-36	
666	-5.00000e-02	5.211785e-06	
667	-1.00000e-01	1.034119e-05	
668	-1.50000e-01	1.538855e-05	
669	-2.00000e-01	2.035422e-05	
670	-2.50000e-01	2.523854e-05	
671	-3.00000e-01	3.004184e-05	
672	-3.50000e-01	3.476448e-05	
673	-4.00000e-01	3.940678e-05	
674	-4.50000e-01	4.396909e-05	
675	-5.00000e-01	4.845174e-05	
676	-5.50000e-01	5.285507e-05	
677	-6.00000e-01	5.717942e-05	
678	-6.50000e-01	6.142510e-05	
679	-7.00000e-01	6.559246e-05	
680	-7.50000e-01	6.968183e-05	
681	-8.00000e-01	7.369354e-05	
682	-8.50000e-01	7.762791e-05	
683	-9.00000e-01	8.148528e-05	
684	-9.50000e-01	8.526596e-05	
685	-1.00000e+00	8.897029e-05	
686	-1.05000e+00	9.259859e-05	
687	-1.10000e+00	9.615117e-05	
688	-1.15000e+00	9.962837e-05	
689	-1.20000e+00	1.030305e-04	
690	-1.25000e+00	1.063579e-04	
691	-1.30000e+00	1.096108e-04	
692	-1.35000e+00	1.127897e-04	

Index   v-sweep         i(vds)          
--------------------------------------------------------------------------------
693	-1.40000e+00	1.158947e-04	
694	-1.45000e+00	1.189262e-04	
695	-1.50000e+00	1.218846e-04	
696	-1.55000e+00	1.247702e-04	
697	-1.60000e+00	1.275831e-04	
698	-1.65000e+00	1.303239e-04	
699	-1.70000e+00	1.329927e-04	
700	-1.75000e+00	1.355900e-04	
701	-1.80000e+00	1.381159e-04	
702	-1.85000e+00	1.405708e-04	
703	-1.90000e+00	1.429550e-04	
704	-1.95000e+00	1.452689e-04	
705	-2.00000e+00	1.475126e-04	
706	-2.05000e+00	1.496866e-04	
707	-2.10000e+00	1.517912e-04	
708	-2.15000e+00	1.538265e-04	
709	-2.20000e+00	1.557930e-04	
710	-2.25000e+00	1.576910e-04	
711	-2.30000e+00	1.595207e-04	
712	-2.35000e+00	1.612825e-04	
713	-2.40000e+00	1.629767e-04	
714	-2.45000e+00	1.646035e-04	
715	-2.50000e+00	1.661633e-04	
716	-2.55000e+00	1.676564e-04	
717	-2.60000e+00	1.690832e-04	
718	-2.65000e+00	1.704439e-04	
719	-2.70000e+00	1.717388e-04	
720	-2.75000e+00	1.729684e-04	
721	-2.80000e+00	1.741330e-04	
722	-2.85000e+00	1.752329e-04	
723	-2.90000e+00	1.762685e-04	
724	-2.95000e+00	1.772404e-04	
725	-3.00000e+00	1.781492e-04	
726	-3.05000e+00	1.789958e-04	
727	-3.10000e+00	1.797813e-04	
728	-3.15000e+00	1.805077e-04	
729	-3.20000e+00	1.811775e-04	
730	-3.25000e+00	1.817941e-04	
731	-3.30000e+00	1.823616e-04	
732	-3.35000e+00	1.828847e-04	
733	-3.40000e+00	1.833682e-04	
734	-3.45000e+00	1.838164e-04	
735	-3.50000e+00	1.842337e-04	
736	-3.55000e+00	1.846238e-04	
737	-3.60000e+00	1.849900e-04	
738	-3.65000e+00	1.853349e-04	
739	-3.70000e+00	1.856612e-04	
740	-3.75000e+00	1.859708e-04	
741	-3.80000e+00	1.862656e-04	
742	-3.85000e+00	1.865470e-04	
743	-3.90000e+00	1.868164e-04	
744	-3.95000e+00	1.870749e-04	
745	-4.00000e+00	1.873236e-04	
746	-4.05000e+00	1.875632e-04	
747	-4.10000e+00	1.877945e-04	
748	-4.15000e+00	1.880183e-04	
749	-4.20000e+00	1.882351e-04	
750	-4.25000e+00	1.884454e-04	

Index   v-sweep         i(vds)          
--------------------------------------------------------------------------------
751	-4.30000e+00	1.886498e-04	
752	-4.35000e+00	1.888486e-04	
753	-4.40000e+00	1.890422e-04	
754	-4.45000e+00	1.892310e-04	
755	-4.50000e+00	1.894153e-04	
756	-4.55000e+00	1.895953e-04	
757	-4.60000e+00	1.897714e-04	
758	-4.65000e+00	1.899437e-04	
759	-4.70000e+00	1.901124e-04	
760	-4.75000e+00	1.902779e-04	
761	-4.80000e+00	1.904402e-04	
762	-4.85000e+00	1.905995e-04	
763	-4.90000e+00	1.907559e-04	
764	-4.95000e+00	1.909097e-04	
765	-5.00000e+00	1.910609e-04	
766	-5.05000e+00	1.912097e-04	
767	-5.10000e+00	1.913561e-04	
768	-5.15000e+00	1.915004e-04	
769	-5.20000e+00	1.916425e-04	
770	-5.25000e+00	1.917826e-04	
771	-5.30000e+00	1.919208e-04	
772	-5.35000e+00	1.920571e-04	
773	-5.40000e+00	1.921916e-04	
774	-5.45000e+00	1.923245e-04	
775	-5.50000e+00	1.924557e-04	
776	-5.55000e+00	1.925853e-04	
777	-5.60000e+00	1.927134e-04	
778	-5.65000e+00	1.928401e-04	
779	-5.70000e+00	1.929653e-04	
780	-5.75000e+00	1.930892e-04	
781	-5.80000e+00	1.932119e-04	
782	-5.85000e+00	1.933332e-04	
783	-5.90000e+00	1.934534e-04	
784	-5.95000e+00	1.935724e-04	
785	-6.00000e+00	1.936903e-04	
786	-6.05000e+00	1.938072e-04	
787	-6.10000e+00	1.939230e-04	
788	-6.15000e+00	1.940379e-04	
789	-6.20000e+00	1.941519e-04	
790	-6.25000e+00	1.942650e-04	
791	-6.30000e+00	1.943773e-04	
792	-6.35000e+00	1.944889e-04	
793	-6.40000e+00	1.945998e-04	
794	-6.45000e+00	1.947101e-04	
795	-6.50000e+00	1.948199e-04	
796	-6.55000e+00	1.949293e-04	
797	-6.60000e+00	1.950383e-04	
Note: No ".plot", ".print", or ".fourier" lines; no simulations run
