
Note: Compatibility modes selected: hs

Warning: m=xx on .subckt line will override multiplier m hierarchy!


Circuit: ***************************

Doing analysis at TEMP = -40.000000 and TNOM = -40.000000


No. of Data Rows : 798
                          ***************************
                          DC transfer characteristic  Mon Jan  9 13:58:50  2023
--------------------------------------------------------------------------------
Index   v-sweep         i(vds)          
--------------------------------------------------------------------------------
0	0.000000e+00	1.328836e-25	
1	-5.00000e-02	5.240433e-09	
2	-1.00000e-01	6.294795e-09	
3	-1.50000e-01	6.447228e-09	
4	-2.00000e-01	6.487572e-09	
5	-2.50000e-01	6.505228e-09	
6	-3.00000e-01	6.515692e-09	
7	-3.50000e-01	6.523141e-09	
8	-4.00000e-01	6.529068e-09	
9	-4.50000e-01	6.534121e-09	
10	-5.00000e-01	6.538617e-09	
11	-5.50000e-01	6.542733e-09	
12	-6.00000e-01	6.546574e-09	
13	-6.50000e-01	6.550205e-09	
14	-7.00000e-01	6.553672e-09	
15	-7.50000e-01	6.557005e-09	
16	-8.00000e-01	6.560228e-09	
17	-8.50000e-01	6.563357e-09	
18	-9.00000e-01	6.566405e-09	
19	-9.50000e-01	6.569384e-09	
20	-1.00000e+00	6.572302e-09	
21	-1.05000e+00	6.575165e-09	
22	-1.10000e+00	6.577979e-09	
23	-1.15000e+00	6.580750e-09	
24	-1.20000e+00	6.583480e-09	
25	-1.25000e+00	6.586174e-09	
26	-1.30000e+00	6.588834e-09	
27	-1.35000e+00	6.591463e-09	
28	-1.40000e+00	6.594064e-09	
29	-1.45000e+00	6.596638e-09	
30	-1.50000e+00	6.599188e-09	
31	-1.55000e+00	6.601714e-09	
32	-1.60000e+00	6.604219e-09	
33	-1.65000e+00	6.606704e-09	
34	-1.70000e+00	6.609170e-09	
35	-1.75000e+00	6.611618e-09	
36	-1.80000e+00	6.614049e-09	
37	-1.85000e+00	6.616464e-09	
38	-1.90000e+00	6.618864e-09	
39	-1.95000e+00	6.621250e-09	
40	-2.00000e+00	6.623622e-09	
41	-2.05000e+00	6.625981e-09	
42	-2.10000e+00	6.628328e-09	
43	-2.15000e+00	6.630663e-09	
44	-2.20000e+00	6.632986e-09	
45	-2.25000e+00	6.635299e-09	
46	-2.30000e+00	6.637602e-09	
47	-2.35000e+00	6.639895e-09	
48	-2.40000e+00	6.642178e-09	
49	-2.45000e+00	6.644453e-09	
50	-2.50000e+00	6.646719e-09	
51	-2.55000e+00	6.648977e-09	
52	-2.60000e+00	6.651226e-09	
53	-2.65000e+00	6.653469e-09	
54	-2.70000e+00	6.655704e-09	

Index   v-sweep         i(vds)          
--------------------------------------------------------------------------------
55	-2.75000e+00	6.657933e-09	
56	-2.80000e+00	6.660155e-09	
57	-2.85000e+00	6.662371e-09	
58	-2.90000e+00	6.664582e-09	
59	-2.95000e+00	6.666788e-09	
60	-3.00000e+00	6.668991e-09	
61	-3.05000e+00	6.671189e-09	
62	-3.10000e+00	6.673386e-09	
63	-3.15000e+00	6.675581e-09	
64	-3.20000e+00	6.677775e-09	
65	-3.25000e+00	6.679971e-09	
66	-3.30000e+00	6.682169e-09	
67	-3.35000e+00	6.684371e-09	
68	-3.40000e+00	6.686580e-09	
69	-3.45000e+00	6.688798e-09	
70	-3.50000e+00	6.691028e-09	
71	-3.55000e+00	6.693273e-09	
72	-3.60000e+00	6.695537e-09	
73	-3.65000e+00	6.697825e-09	
74	-3.70000e+00	6.700140e-09	
75	-3.75000e+00	6.702488e-09	
76	-3.80000e+00	6.704876e-09	
77	-3.85000e+00	6.707311e-09	
78	-3.90000e+00	6.709799e-09	
79	-3.95000e+00	6.712351e-09	
80	-4.00000e+00	6.714974e-09	
81	-4.05000e+00	6.717680e-09	
82	-4.10000e+00	6.720480e-09	
83	-4.15000e+00	6.723387e-09	
84	-4.20000e+00	6.726415e-09	
85	-4.25000e+00	6.729578e-09	
86	-4.30000e+00	6.732894e-09	
87	-4.35000e+00	6.736381e-09	
88	-4.40000e+00	6.740057e-09	
89	-4.45000e+00	6.743944e-09	
90	-4.50000e+00	6.748064e-09	
91	-4.55000e+00	6.752442e-09	
92	-4.60000e+00	6.757104e-09	
93	-4.65000e+00	6.762077e-09	
94	-4.70000e+00	6.767392e-09	
95	-4.75000e+00	6.773079e-09	
96	-4.80000e+00	6.779173e-09	
97	-4.85000e+00	6.785709e-09	
98	-4.90000e+00	6.792725e-09	
99	-4.95000e+00	6.800262e-09	
100	-5.00000e+00	6.808361e-09	
101	-5.05000e+00	6.817067e-09	
102	-5.10000e+00	6.826427e-09	
103	-5.15000e+00	6.836489e-09	
104	-5.20000e+00	6.847306e-09	
105	-5.25000e+00	6.858931e-09	
106	-5.30000e+00	6.871421e-09	
107	-5.35000e+00	6.884834e-09	
108	-5.40000e+00	6.899232e-09	
109	-5.45000e+00	6.914680e-09	
110	-5.50000e+00	6.931242e-09	
111	-5.55000e+00	6.948989e-09	
112	-5.60000e+00	6.967992e-09	

Index   v-sweep         i(vds)          
--------------------------------------------------------------------------------
113	-5.65000e+00	6.988325e-09	
114	-5.70000e+00	7.010066e-09	
115	-5.75000e+00	7.033292e-09	
116	-5.80000e+00	7.058088e-09	
117	-5.85000e+00	7.084536e-09	
118	-5.90000e+00	7.112724e-09	
119	-5.95000e+00	7.142743e-09	
120	-6.00000e+00	7.174684e-09	
121	-6.05000e+00	7.208642e-09	
122	-6.10000e+00	7.244715e-09	
123	-6.15000e+00	7.283003e-09	
124	-6.20000e+00	7.323608e-09	
125	-6.25000e+00	7.366636e-09	
126	-6.30000e+00	7.412193e-09	
127	-6.35000e+00	7.460390e-09	
128	-6.40000e+00	7.511340e-09	
129	-6.45000e+00	7.565155e-09	
130	-6.50000e+00	7.621955e-09	
131	-6.55000e+00	7.681857e-09	
132	-6.60000e+00	7.744984e-09	
133	0.000000e+00	-1.14964e-22	
134	-5.00000e-02	1.548136e-07	
135	-1.00000e-01	2.986760e-07	
136	-1.50000e-01	4.315963e-07	
137	-2.00000e-01	5.535851e-07	
138	-2.50000e-01	6.646548e-07	
139	-3.00000e-01	7.648208e-07	
140	-3.50000e-01	8.541037e-07	
141	-4.00000e-01	9.325331e-07	
142	-4.50000e-01	1.000155e-06	
143	-5.00000e-01	1.057050e-06	
144	-5.50000e-01	1.103363e-06	
145	-6.00000e-01	1.139380e-06	
146	-6.50000e-01	1.165677e-06	
147	-7.00000e-01	1.183364e-06	
148	-7.50000e-01	1.194259e-06	
149	-8.00000e-01	1.200603e-06	
150	-8.50000e-01	1.204338e-06	
151	-9.00000e-01	1.206704e-06	
152	-9.50000e-01	1.208356e-06	
153	-1.00000e+00	1.209617e-06	
154	-1.05000e+00	1.210650e-06	
155	-1.10000e+00	1.211541e-06	
156	-1.15000e+00	1.212335e-06	
157	-1.20000e+00	1.213063e-06	
158	-1.25000e+00	1.213741e-06	
159	-1.30000e+00	1.214381e-06	
160	-1.35000e+00	1.214991e-06	
161	-1.40000e+00	1.215576e-06	
162	-1.45000e+00	1.216141e-06	
163	-1.50000e+00	1.216689e-06	
164	-1.55000e+00	1.217221e-06	
165	-1.60000e+00	1.217741e-06	
166	-1.65000e+00	1.218250e-06	
167	-1.70000e+00	1.218748e-06	
168	-1.75000e+00	1.219238e-06	
169	-1.80000e+00	1.219719e-06	
170	-1.85000e+00	1.220193e-06	

Index   v-sweep         i(vds)          
--------------------------------------------------------------------------------
171	-1.90000e+00	1.220660e-06	
172	-1.95000e+00	1.221121e-06	
173	-2.00000e+00	1.221576e-06	
174	-2.05000e+00	1.222026e-06	
175	-2.10000e+00	1.222471e-06	
176	-2.15000e+00	1.222911e-06	
177	-2.20000e+00	1.223347e-06	
178	-2.25000e+00	1.223780e-06	
179	-2.30000e+00	1.224208e-06	
180	-2.35000e+00	1.224633e-06	
181	-2.40000e+00	1.225055e-06	
182	-2.45000e+00	1.225474e-06	
183	-2.50000e+00	1.225889e-06	
184	-2.55000e+00	1.226302e-06	
185	-2.60000e+00	1.226712e-06	
186	-2.65000e+00	1.227120e-06	
187	-2.70000e+00	1.227526e-06	
188	-2.75000e+00	1.227929e-06	
189	-2.80000e+00	1.228330e-06	
190	-2.85000e+00	1.228729e-06	
191	-2.90000e+00	1.229125e-06	
192	-2.95000e+00	1.229521e-06	
193	-3.00000e+00	1.229914e-06	
194	-3.05000e+00	1.230305e-06	
195	-3.10000e+00	1.230695e-06	
196	-3.15000e+00	1.231083e-06	
197	-3.20000e+00	1.231470e-06	
198	-3.25000e+00	1.231855e-06	
199	-3.30000e+00	1.232239e-06	
200	-3.35000e+00	1.232622e-06	
201	-3.40000e+00	1.233003e-06	
202	-3.45000e+00	1.233383e-06	
203	-3.50000e+00	1.233762e-06	
204	-3.55000e+00	1.234140e-06	
205	-3.60000e+00	1.234518e-06	
206	-3.65000e+00	1.234894e-06	
207	-3.70000e+00	1.235270e-06	
208	-3.75000e+00	1.235645e-06	
209	-3.80000e+00	1.236020e-06	
210	-3.85000e+00	1.236394e-06	
211	-3.90000e+00	1.236769e-06	
212	-3.95000e+00	1.237144e-06	
213	-4.00000e+00	1.237520e-06	
214	-4.05000e+00	1.237897e-06	
215	-4.10000e+00	1.238276e-06	
216	-4.15000e+00	1.238656e-06	
217	-4.20000e+00	1.239039e-06	
218	-4.25000e+00	1.239425e-06	
219	-4.30000e+00	1.239815e-06	
220	-4.35000e+00	1.240210e-06	
221	-4.40000e+00	1.240611e-06	
222	-4.45000e+00	1.241018e-06	
223	-4.50000e+00	1.241434e-06	
224	-4.55000e+00	1.241858e-06	
225	-4.60000e+00	1.242294e-06	
226	-4.65000e+00	1.242742e-06	
227	-4.70000e+00	1.243205e-06	
228	-4.75000e+00	1.243684e-06	

Index   v-sweep         i(vds)          
--------------------------------------------------------------------------------
229	-4.80000e+00	1.244182e-06	
230	-4.85000e+00	1.244702e-06	
231	-4.90000e+00	1.245245e-06	
232	-4.95000e+00	1.245815e-06	
233	-5.00000e+00	1.246415e-06	
234	-5.05000e+00	1.247048e-06	
235	-5.10000e+00	1.247719e-06	
236	-5.15000e+00	1.248431e-06	
237	-5.20000e+00	1.249189e-06	
238	-5.25000e+00	1.249997e-06	
239	-5.30000e+00	1.250861e-06	
240	-5.35000e+00	1.251785e-06	
241	-5.40000e+00	1.252776e-06	
242	-5.45000e+00	1.253839e-06	
243	-5.50000e+00	1.254981e-06	
244	-5.55000e+00	1.256209e-06	
245	-5.60000e+00	1.257530e-06	
246	-5.65000e+00	1.258952e-06	
247	-5.70000e+00	1.260482e-06	
248	-5.75000e+00	1.262129e-06	
249	-5.80000e+00	1.263902e-06	
250	-5.85000e+00	1.265811e-06	
251	-5.90000e+00	1.267865e-06	
252	-5.95000e+00	1.270074e-06	
253	-6.00000e+00	1.272450e-06	
254	-6.05000e+00	1.275002e-06	
255	-6.10000e+00	1.277744e-06	
256	-6.15000e+00	1.280686e-06	
257	-6.20000e+00	1.283842e-06	
258	-6.25000e+00	1.287224e-06	
259	-6.30000e+00	1.290847e-06	
260	-6.35000e+00	1.294723e-06	
261	-6.40000e+00	1.298868e-06	
262	-6.45000e+00	1.303297e-06	
263	-6.50000e+00	1.308024e-06	
264	-6.55000e+00	1.313067e-06	
265	-6.60000e+00	1.318440e-06	
266	0.000000e+00	9.355979e-23	
267	-5.00000e-02	2.857785e-07	
268	-1.00000e-01	5.614376e-07	
269	-1.50000e-01	8.269833e-07	
270	-2.00000e-01	1.082421e-06	
271	-2.50000e-01	1.327758e-06	
272	-3.00000e-01	1.563000e-06	
273	-3.50000e-01	1.788152e-06	
274	-4.00000e-01	2.003221e-06	
275	-4.50000e-01	2.208214e-06	
276	-5.00000e-01	2.403138e-06	
277	-5.50000e-01	2.587999e-06	
278	-6.00000e-01	2.762805e-06	
279	-6.50000e-01	2.927564e-06	
280	-7.00000e-01	3.082285e-06	
281	-7.50000e-01	3.226978e-06	
282	-8.00000e-01	3.361653e-06	
283	-8.50000e-01	3.486326e-06	
284	-9.00000e-01	3.601012e-06	
285	-9.50000e-01	3.705733e-06	
286	-1.00000e+00	3.800519e-06	

Index   v-sweep         i(vds)          
--------------------------------------------------------------------------------
287	-1.05000e+00	3.885410e-06	
288	-1.10000e+00	3.960469e-06	
289	-1.15000e+00	4.025787e-06	
290	-1.20000e+00	4.081514e-06	
291	-1.25000e+00	4.127890e-06	
292	-1.30000e+00	4.165315e-06	
293	-1.35000e+00	4.194429e-06	
294	-1.40000e+00	4.216204e-06	
295	-1.45000e+00	4.231947e-06	
296	-1.50000e+00	4.243146e-06	
297	-1.55000e+00	4.251195e-06	
298	-1.60000e+00	4.257189e-06	
299	-1.65000e+00	4.261874e-06	
300	-1.70000e+00	4.265720e-06	
301	-1.75000e+00	4.269015e-06	
302	-1.80000e+00	4.271934e-06	
303	-1.85000e+00	4.274587e-06	
304	-1.90000e+00	4.277043e-06	
305	-1.95000e+00	4.279349e-06	
306	-2.00000e+00	4.281537e-06	
307	-2.05000e+00	4.283631e-06	
308	-2.10000e+00	4.285646e-06	
309	-2.15000e+00	4.287596e-06	
310	-2.20000e+00	4.289490e-06	
311	-2.25000e+00	4.291335e-06	
312	-2.30000e+00	4.293137e-06	
313	-2.35000e+00	4.294902e-06	
314	-2.40000e+00	4.296633e-06	
315	-2.45000e+00	4.298335e-06	
316	-2.50000e+00	4.300009e-06	
317	-2.55000e+00	4.301658e-06	
318	-2.60000e+00	4.303284e-06	
319	-2.65000e+00	4.304890e-06	
320	-2.70000e+00	4.306477e-06	
321	-2.75000e+00	4.308046e-06	
322	-2.80000e+00	4.309598e-06	
323	-2.85000e+00	4.311135e-06	
324	-2.90000e+00	4.312658e-06	
325	-2.95000e+00	4.314167e-06	
326	-3.00000e+00	4.315664e-06	
327	-3.05000e+00	4.317148e-06	
328	-3.10000e+00	4.318622e-06	
329	-3.15000e+00	4.320085e-06	
330	-3.20000e+00	4.321538e-06	
331	-3.25000e+00	4.322981e-06	
332	-3.30000e+00	4.324416e-06	
333	-3.35000e+00	4.325842e-06	
334	-3.40000e+00	4.327260e-06	
335	-3.45000e+00	4.328670e-06	
336	-3.50000e+00	4.330073e-06	
337	-3.55000e+00	4.331469e-06	
338	-3.60000e+00	4.332858e-06	
339	-3.65000e+00	4.334240e-06	
340	-3.70000e+00	4.335616e-06	
341	-3.75000e+00	4.336987e-06	
342	-3.80000e+00	4.338352e-06	
343	-3.85000e+00	4.339711e-06	
344	-3.90000e+00	4.341065e-06	

Index   v-sweep         i(vds)          
--------------------------------------------------------------------------------
345	-3.95000e+00	4.342415e-06	
346	-4.00000e+00	4.343759e-06	
347	-4.05000e+00	4.345099e-06	
348	-4.10000e+00	4.346435e-06	
349	-4.15000e+00	4.347767e-06	
350	-4.20000e+00	4.349095e-06	
351	-4.25000e+00	4.350419e-06	
352	-4.30000e+00	4.351741e-06	
353	-4.35000e+00	4.353059e-06	
354	-4.40000e+00	4.354376e-06	
355	-4.45000e+00	4.355691e-06	
356	-4.50000e+00	4.357005e-06	
357	-4.55000e+00	4.358318e-06	
358	-4.60000e+00	4.359631e-06	
359	-4.65000e+00	4.360946e-06	
360	-4.70000e+00	4.362264e-06	
361	-4.75000e+00	4.363585e-06	
362	-4.80000e+00	4.364911e-06	
363	-4.85000e+00	4.366245e-06	
364	-4.90000e+00	4.367587e-06	
365	-4.95000e+00	4.368941e-06	
366	-5.00000e+00	4.370308e-06	
367	-5.05000e+00	4.371692e-06	
368	-5.10000e+00	4.373096e-06	
369	-5.15000e+00	4.374524e-06	
370	-5.20000e+00	4.375980e-06	
371	-5.25000e+00	4.377470e-06	
372	-5.30000e+00	4.378997e-06	
373	-5.35000e+00	4.380568e-06	
374	-5.40000e+00	4.382190e-06	
375	-5.45000e+00	4.383869e-06	
376	-5.50000e+00	4.385614e-06	
377	-5.55000e+00	4.387434e-06	
378	-5.60000e+00	4.389337e-06	
379	-5.65000e+00	4.391334e-06	
380	-5.70000e+00	4.393437e-06	
381	-5.75000e+00	4.395656e-06	
382	-5.80000e+00	4.398007e-06	
383	-5.85000e+00	4.400502e-06	
384	-5.90000e+00	4.403158e-06	
385	-5.95000e+00	4.405990e-06	
386	-6.00000e+00	4.409016e-06	
387	-6.05000e+00	4.412254e-06	
388	-6.10000e+00	4.415726e-06	
389	-6.15000e+00	4.419451e-06	
390	-6.20000e+00	4.423454e-06	
391	-6.25000e+00	4.427757e-06	
392	-6.30000e+00	4.432386e-06	
393	-6.35000e+00	4.437367e-06	
394	-6.40000e+00	4.442730e-06	
395	-6.45000e+00	4.448504e-06	
396	-6.50000e+00	4.454720e-06	
397	-6.55000e+00	4.461410e-06	
398	-6.60000e+00	4.468610e-06	
399	0.000000e+00	1.216319e-21	
400	-5.00000e-02	3.942744e-07	
401	-1.00000e-01	7.792967e-07	
402	-1.50000e-01	1.155072e-06	

Index   v-sweep         i(vds)          
--------------------------------------------------------------------------------
403	-2.00000e-01	1.521605e-06	
404	-2.50000e-01	1.878900e-06	
405	-3.00000e-01	2.226962e-06	
406	-3.50000e-01	2.565797e-06	
407	-4.00000e-01	2.895409e-06	
408	-4.50000e-01	3.215803e-06	
409	-5.00000e-01	3.526984e-06	
410	-5.50000e-01	3.828957e-06	
411	-6.00000e-01	4.121728e-06	
412	-6.50000e-01	4.405300e-06	
413	-7.00000e-01	4.679679e-06	
414	-7.50000e-01	4.944870e-06	
415	-8.00000e-01	5.200879e-06	
416	-8.50000e-01	5.447711e-06	
417	-9.00000e-01	5.685371e-06	
418	-9.50000e-01	5.913865e-06	
419	-1.00000e+00	6.133198e-06	
420	-1.05000e+00	6.343376e-06	
421	-1.10000e+00	6.544406e-06	
422	-1.15000e+00	6.736294e-06	
423	-1.20000e+00	6.919046e-06	
424	-1.25000e+00	7.092671e-06	
425	-1.30000e+00	7.257176e-06	
426	-1.35000e+00	7.412571e-06	
427	-1.40000e+00	7.558866e-06	
428	-1.45000e+00	7.696073e-06	
429	-1.50000e+00	7.824206e-06	
430	-1.55000e+00	7.943284e-06	
431	-1.60000e+00	8.053328e-06	
432	-1.65000e+00	8.154369e-06	
433	-1.70000e+00	8.246445e-06	
434	-1.75000e+00	8.329612e-06	
435	-1.80000e+00	8.403946e-06	
436	-1.85000e+00	8.469561e-06	
437	-1.90000e+00	8.526623e-06	
438	-1.95000e+00	8.575381e-06	
439	-2.00000e+00	8.616206e-06	
440	-2.05000e+00	8.649638e-06	
441	-2.10000e+00	8.676423e-06	
442	-2.15000e+00	8.697512e-06	
443	-2.20000e+00	8.713989e-06	
444	-2.25000e+00	8.726941e-06	
445	-2.30000e+00	8.737324e-06	
446	-2.35000e+00	8.745888e-06	
447	-2.40000e+00	8.753179e-06	
448	-2.45000e+00	8.759571e-06	
449	-2.50000e+00	8.765317e-06	
450	-2.55000e+00	8.770587e-06	
451	-2.60000e+00	8.775497e-06	
452	-2.65000e+00	8.780127e-06	
453	-2.70000e+00	8.784534e-06	
454	-2.75000e+00	8.788758e-06	
455	-2.80000e+00	8.792832e-06	
456	-2.85000e+00	8.796778e-06	
457	-2.90000e+00	8.800615e-06	
458	-2.95000e+00	8.804356e-06	
459	-3.00000e+00	8.808015e-06	
460	-3.05000e+00	8.811599e-06	

Index   v-sweep         i(vds)          
--------------------------------------------------------------------------------
461	-3.10000e+00	8.815117e-06	
462	-3.15000e+00	8.818575e-06	
463	-3.20000e+00	8.821980e-06	
464	-3.25000e+00	8.825335e-06	
465	-3.30000e+00	8.828646e-06	
466	-3.35000e+00	8.831915e-06	
467	-3.40000e+00	8.835146e-06	
468	-3.45000e+00	8.838342e-06	
469	-3.50000e+00	8.841505e-06	
470	-3.55000e+00	8.844638e-06	
471	-3.60000e+00	8.847741e-06	
472	-3.65000e+00	8.850818e-06	
473	-3.70000e+00	8.853870e-06	
474	-3.75000e+00	8.856898e-06	
475	-3.80000e+00	8.859904e-06	
476	-3.85000e+00	8.862888e-06	
477	-3.90000e+00	8.865853e-06	
478	-3.95000e+00	8.868799e-06	
479	-4.00000e+00	8.871727e-06	
480	-4.05000e+00	8.874637e-06	
481	-4.10000e+00	8.877532e-06	
482	-4.15000e+00	8.880410e-06	
483	-4.20000e+00	8.883275e-06	
484	-4.25000e+00	8.886125e-06	
485	-4.30000e+00	8.888961e-06	
486	-4.35000e+00	8.891784e-06	
487	-4.40000e+00	8.894596e-06	
488	-4.45000e+00	8.897395e-06	
489	-4.50000e+00	8.900183e-06	
490	-4.55000e+00	8.902960e-06	
491	-4.60000e+00	8.905726e-06	
492	-4.65000e+00	8.908483e-06	
493	-4.70000e+00	8.911230e-06	
494	-4.75000e+00	8.913968e-06	
495	-4.80000e+00	8.916697e-06	
496	-4.85000e+00	8.919419e-06	
497	-4.90000e+00	8.922132e-06	
498	-4.95000e+00	8.924839e-06	
499	-5.00000e+00	8.927540e-06	
500	-5.05000e+00	8.930235e-06	
501	-5.10000e+00	8.932925e-06	
502	-5.15000e+00	8.935611e-06	
503	-5.20000e+00	8.938295e-06	
504	-5.25000e+00	8.940978e-06	
505	-5.30000e+00	8.943662e-06	
506	-5.35000e+00	8.946347e-06	
507	-5.40000e+00	8.949037e-06	
508	-5.45000e+00	8.951734e-06	
509	-5.50000e+00	8.954441e-06	
510	-5.55000e+00	8.957160e-06	
511	-5.60000e+00	8.959898e-06	
512	-5.65000e+00	8.962656e-06	
513	-5.70000e+00	8.965441e-06	
514	-5.75000e+00	8.968259e-06	
515	-5.80000e+00	8.971116e-06	
516	-5.85000e+00	8.974019e-06	
517	-5.90000e+00	8.976977e-06	
518	-5.95000e+00	8.980000e-06	

Index   v-sweep         i(vds)          
--------------------------------------------------------------------------------
519	-6.00000e+00	8.983097e-06	
520	-6.05000e+00	8.986280e-06	
521	-6.10000e+00	8.989562e-06	
522	-6.15000e+00	8.992958e-06	
523	-6.20000e+00	8.996483e-06	
524	-6.25000e+00	9.000155e-06	
525	-6.30000e+00	9.003991e-06	
526	-6.35000e+00	9.008014e-06	
527	-6.40000e+00	9.012244e-06	
528	-6.45000e+00	9.016707e-06	
529	-6.50000e+00	9.021429e-06	
530	-6.55000e+00	9.026438e-06	
531	-6.60000e+00	9.031765e-06	
532	0.000000e+00	-3.00303e-23	
533	-5.00000e-02	4.841734e-07	
534	-1.00000e-01	9.598948e-07	
535	-1.50000e-01	1.427168e-06	
536	-2.00000e-01	1.885998e-06	
537	-2.50000e-01	2.336389e-06	
538	-3.00000e-01	2.778344e-06	
539	-3.50000e-01	3.211867e-06	
540	-4.00000e-01	3.636963e-06	
541	-4.50000e-01	4.053636e-06	
542	-5.00000e-01	4.461891e-06	
543	-5.50000e-01	4.861730e-06	
544	-6.00000e-01	5.253158e-06	
545	-6.50000e-01	5.636180e-06	
546	-7.00000e-01	6.010800e-06	
547	-7.50000e-01	6.377021e-06	
548	-8.00000e-01	6.734848e-06	
549	-8.50000e-01	7.084285e-06	
550	-9.00000e-01	7.425336e-06	
551	-9.50000e-01	7.758006e-06	
552	-1.00000e+00	8.082298e-06	
553	-1.05000e+00	8.398217e-06	
554	-1.10000e+00	8.705767e-06	
555	-1.15000e+00	9.004953e-06	
556	-1.20000e+00	9.295778e-06	
557	-1.25000e+00	9.578248e-06	
558	-1.30000e+00	9.852366e-06	
559	-1.35000e+00	1.011814e-05	
560	-1.40000e+00	1.037557e-05	
561	-1.45000e+00	1.062466e-05	
562	-1.50000e+00	1.086542e-05	
563	-1.55000e+00	1.109785e-05	
564	-1.60000e+00	1.132195e-05	
565	-1.65000e+00	1.153774e-05	
566	-1.70000e+00	1.174522e-05	
567	-1.75000e+00	1.194439e-05	
568	-1.80000e+00	1.213526e-05	
569	-1.85000e+00	1.231784e-05	
570	-1.90000e+00	1.249213e-05	
571	-1.95000e+00	1.265814e-05	
572	-2.00000e+00	1.281588e-05	
573	-2.05000e+00	1.296536e-05	
574	-2.10000e+00	1.310659e-05	
575	-2.15000e+00	1.323958e-05	
576	-2.20000e+00	1.336436e-05	

Index   v-sweep         i(vds)          
--------------------------------------------------------------------------------
577	-2.25000e+00	1.348094e-05	
578	-2.30000e+00	1.358934e-05	
579	-2.35000e+00	1.368960e-05	
580	-2.40000e+00	1.378176e-05	
581	-2.45000e+00	1.386588e-05	
582	-2.50000e+00	1.394204e-05	
583	-2.55000e+00	1.401034e-05	
584	-2.60000e+00	1.407093e-05	
585	-2.65000e+00	1.412402e-05	
586	-2.70000e+00	1.416992e-05	
587	-2.75000e+00	1.420903e-05	
588	-2.80000e+00	1.424190e-05	
589	-2.85000e+00	1.426921e-05	
590	-2.90000e+00	1.429178e-05	
591	-2.95000e+00	1.431045e-05	
592	-3.00000e+00	1.432607e-05	
593	-3.05000e+00	1.433934e-05	
594	-3.10000e+00	1.435088e-05	
595	-3.15000e+00	1.436111e-05	
596	-3.20000e+00	1.437038e-05	
597	-3.25000e+00	1.437892e-05	
598	-3.30000e+00	1.438689e-05	
599	-3.35000e+00	1.439442e-05	
600	-3.40000e+00	1.440159e-05	
601	-3.45000e+00	1.440847e-05	
602	-3.50000e+00	1.441510e-05	
603	-3.55000e+00	1.442153e-05	
604	-3.60000e+00	1.442779e-05	
605	-3.65000e+00	1.443389e-05	
606	-3.70000e+00	1.443985e-05	
607	-3.75000e+00	1.444570e-05	
608	-3.80000e+00	1.445144e-05	
609	-3.85000e+00	1.445708e-05	
610	-3.90000e+00	1.446264e-05	
611	-3.95000e+00	1.446811e-05	
612	-4.00000e+00	1.447352e-05	
613	-4.05000e+00	1.447885e-05	
614	-4.10000e+00	1.448413e-05	
615	-4.15000e+00	1.448935e-05	
616	-4.20000e+00	1.449451e-05	
617	-4.25000e+00	1.449963e-05	
618	-4.30000e+00	1.450470e-05	
619	-4.35000e+00	1.450973e-05	
620	-4.40000e+00	1.451471e-05	
621	-4.45000e+00	1.451966e-05	
622	-4.50000e+00	1.452457e-05	
623	-4.55000e+00	1.452945e-05	
624	-4.60000e+00	1.453429e-05	
625	-4.65000e+00	1.453911e-05	
626	-4.70000e+00	1.454389e-05	
627	-4.75000e+00	1.454865e-05	
628	-4.80000e+00	1.455338e-05	
629	-4.85000e+00	1.455809e-05	
630	-4.90000e+00	1.456277e-05	
631	-4.95000e+00	1.456743e-05	
632	-5.00000e+00	1.457207e-05	
633	-5.05000e+00	1.457668e-05	
634	-5.10000e+00	1.458128e-05	

Index   v-sweep         i(vds)          
--------------------------------------------------------------------------------
635	-5.15000e+00	1.458586e-05	
636	-5.20000e+00	1.459042e-05	
637	-5.25000e+00	1.459496e-05	
638	-5.30000e+00	1.459948e-05	
639	-5.35000e+00	1.460399e-05	
640	-5.40000e+00	1.460848e-05	
641	-5.45000e+00	1.461296e-05	
642	-5.50000e+00	1.461742e-05	
643	-5.55000e+00	1.462187e-05	
644	-5.60000e+00	1.462631e-05	
645	-5.65000e+00	1.463074e-05	
646	-5.70000e+00	1.463515e-05	
647	-5.75000e+00	1.463956e-05	
648	-5.80000e+00	1.464396e-05	
649	-5.85000e+00	1.464835e-05	
650	-5.90000e+00	1.465273e-05	
651	-5.95000e+00	1.465712e-05	
652	-6.00000e+00	1.466150e-05	
653	-6.05000e+00	1.466588e-05	
654	-6.10000e+00	1.467027e-05	
655	-6.15000e+00	1.467467e-05	
656	-6.20000e+00	1.467908e-05	
657	-6.25000e+00	1.468351e-05	
658	-6.30000e+00	1.468797e-05	
659	-6.35000e+00	1.469245e-05	
660	-6.40000e+00	1.469698e-05	
661	-6.45000e+00	1.470155e-05	
662	-6.50000e+00	1.470617e-05	
663	-6.55000e+00	1.471087e-05	
664	-6.60000e+00	1.471565e-05	
665	0.000000e+00	3.444683e-22	
666	-5.00000e-02	5.587389e-07	
667	-1.00000e-01	1.109748e-06	
668	-1.50000e-01	1.653030e-06	
669	-2.00000e-01	2.188590e-06	
670	-2.50000e-01	2.716431e-06	
671	-3.00000e-01	3.236555e-06	
672	-3.50000e-01	3.748967e-06	
673	-4.00000e-01	4.253671e-06	
674	-4.50000e-01	4.750669e-06	
675	-5.00000e-01	5.239965e-06	
676	-5.50000e-01	5.721564e-06	
677	-6.00000e-01	6.195467e-06	
678	-6.50000e-01	6.661679e-06	
679	-7.00000e-01	7.120204e-06	
680	-7.50000e-01	7.571044e-06	
681	-8.00000e-01	8.014204e-06	
682	-8.50000e-01	8.449686e-06	
683	-9.00000e-01	8.877495e-06	
684	-9.50000e-01	9.297634e-06	
685	-1.00000e+00	9.710106e-06	
686	-1.05000e+00	1.011492e-05	
687	-1.10000e+00	1.051207e-05	
688	-1.15000e+00	1.090156e-05	
689	-1.20000e+00	1.128340e-05	
690	-1.25000e+00	1.165759e-05	
691	-1.30000e+00	1.202414e-05	
692	-1.35000e+00	1.238304e-05	

Index   v-sweep         i(vds)          
--------------------------------------------------------------------------------
693	-1.40000e+00	1.273431e-05	
694	-1.45000e+00	1.307794e-05	
695	-1.50000e+00	1.341395e-05	
696	-1.55000e+00	1.374232e-05	
697	-1.60000e+00	1.406307e-05	
698	-1.65000e+00	1.437620e-05	
699	-1.70000e+00	1.468172e-05	
700	-1.75000e+00	1.497962e-05	
701	-1.80000e+00	1.526991e-05	
702	-1.85000e+00	1.555260e-05	
703	-1.90000e+00	1.582769e-05	
704	-1.95000e+00	1.609518e-05	
705	-2.00000e+00	1.635507e-05	
706	-2.05000e+00	1.660738e-05	
707	-2.10000e+00	1.685210e-05	
708	-2.15000e+00	1.708924e-05	
709	-2.20000e+00	1.731881e-05	
710	-2.25000e+00	1.754080e-05	
711	-2.30000e+00	1.775523e-05	
712	-2.35000e+00	1.796209e-05	
713	-2.40000e+00	1.816140e-05	
714	-2.45000e+00	1.835316e-05	
715	-2.50000e+00	1.853737e-05	
716	-2.55000e+00	1.871404e-05	
717	-2.60000e+00	1.888318e-05	
718	-2.65000e+00	1.904480e-05	
719	-2.70000e+00	1.919890e-05	
720	-2.75000e+00	1.934550e-05	
721	-2.80000e+00	1.948461e-05	
722	-2.85000e+00	1.961623e-05	
723	-2.90000e+00	1.974039e-05	
724	-2.95000e+00	1.985711e-05	
725	-3.00000e+00	1.996641e-05	
726	-3.05000e+00	2.006832e-05	
727	-3.10000e+00	2.016289e-05	
728	-3.15000e+00	2.025016e-05	
729	-3.20000e+00	2.033019e-05	
730	-3.25000e+00	2.040309e-05	
731	-3.30000e+00	2.046896e-05	
732	-3.35000e+00	2.052798e-05	
733	-3.40000e+00	2.058036e-05	
734	-3.45000e+00	2.062639e-05	
735	-3.50000e+00	2.066645e-05	
736	-3.55000e+00	2.070103e-05	
737	-3.60000e+00	2.073070e-05	
738	-3.65000e+00	2.075613e-05	
739	-3.70000e+00	2.077800e-05	
740	-3.75000e+00	2.079699e-05	
741	-3.80000e+00	2.081369e-05	
742	-3.85000e+00	2.082861e-05	
743	-3.90000e+00	2.084215e-05	
744	-3.95000e+00	2.085463e-05	
745	-4.00000e+00	2.086627e-05	
746	-4.05000e+00	2.087725e-05	
747	-4.10000e+00	2.088770e-05	
748	-4.15000e+00	2.089771e-05	
749	-4.20000e+00	2.090736e-05	
750	-4.25000e+00	2.091671e-05	

Index   v-sweep         i(vds)          
--------------------------------------------------------------------------------
751	-4.30000e+00	2.092579e-05	
752	-4.35000e+00	2.093465e-05	
753	-4.40000e+00	2.094331e-05	
754	-4.45000e+00	2.095179e-05	
755	-4.50000e+00	2.096011e-05	
756	-4.55000e+00	2.096830e-05	
757	-4.60000e+00	2.097635e-05	
758	-4.65000e+00	2.098430e-05	
759	-4.70000e+00	2.099213e-05	
760	-4.75000e+00	2.099987e-05	
761	-4.80000e+00	2.100752e-05	
762	-4.85000e+00	2.101508e-05	
763	-4.90000e+00	2.102257e-05	
764	-4.95000e+00	2.102998e-05	
765	-5.00000e+00	2.103733e-05	
766	-5.05000e+00	2.104462e-05	
767	-5.10000e+00	2.105184e-05	
768	-5.15000e+00	2.105901e-05	
769	-5.20000e+00	2.106613e-05	
770	-5.25000e+00	2.107320e-05	
771	-5.30000e+00	2.108022e-05	
772	-5.35000e+00	2.108720e-05	
773	-5.40000e+00	2.109413e-05	
774	-5.45000e+00	2.110102e-05	
775	-5.50000e+00	2.110788e-05	
776	-5.55000e+00	2.111470e-05	
777	-5.60000e+00	2.112148e-05	
778	-5.65000e+00	2.112824e-05	
779	-5.70000e+00	2.113496e-05	
780	-5.75000e+00	2.114165e-05	
781	-5.80000e+00	2.114831e-05	
782	-5.85000e+00	2.115494e-05	
783	-5.90000e+00	2.116154e-05	
784	-5.95000e+00	2.116812e-05	
785	-6.00000e+00	2.117468e-05	
786	-6.05000e+00	2.118121e-05	
787	-6.10000e+00	2.118772e-05	
788	-6.15000e+00	2.119421e-05	
789	-6.20000e+00	2.120067e-05	
790	-6.25000e+00	2.120712e-05	
791	-6.30000e+00	2.121355e-05	
792	-6.35000e+00	2.121996e-05	
793	-6.40000e+00	2.122636e-05	
794	-6.45000e+00	2.123274e-05	
795	-6.50000e+00	2.123910e-05	
796	-6.55000e+00	2.124546e-05	
797	-6.60000e+00	2.125181e-05	
Note: No ".plot", ".print", or ".fourier" lines; no simulations run
