
Note: Compatibility modes selected: hs

Warning: m=xx on .subckt line will override multiplier m hierarchy!


Circuit: ***************************

Doing analysis at TEMP = 25.000000 and TNOM = 25.000000


No. of Data Rows : 798
                          ***************************
                          DC transfer characteristic  Mon Jan  9 13:58:50  2023
--------------------------------------------------------------------------------
Index   v-sweep         i(vds)          
--------------------------------------------------------------------------------
0	0.000000e+00	3.526131e-23	
1	-5.00000e-02	6.926160e-07	
2	-1.00000e-01	1.062380e-06	
3	-1.50000e-01	1.193669e-06	
4	-2.00000e-01	1.229444e-06	
5	-2.50000e-01	1.243249e-06	
6	-3.00000e-01	1.251540e-06	
7	-3.50000e-01	1.257835e-06	
8	-4.00000e-01	1.263145e-06	
9	-4.50000e-01	1.267853e-06	
10	-5.00000e-01	1.272140e-06	
11	-5.50000e-01	1.276106e-06	
12	-6.00000e-01	1.279813e-06	
13	-6.50000e-01	1.283304e-06	
14	-7.00000e-01	1.286610e-06	
15	-7.50000e-01	1.289756e-06	
16	-8.00000e-01	1.292760e-06	
17	-8.50000e-01	1.295638e-06	
18	-9.00000e-01	1.298403e-06	
19	-9.50000e-01	1.301065e-06	
20	-1.00000e+00	1.303634e-06	
21	-1.05000e+00	1.306118e-06	
22	-1.10000e+00	1.308523e-06	
23	-1.15000e+00	1.310856e-06	
24	-1.20000e+00	1.313122e-06	
25	-1.25000e+00	1.315327e-06	
26	-1.30000e+00	1.317473e-06	
27	-1.35000e+00	1.319566e-06	
28	-1.40000e+00	1.321609e-06	
29	-1.45000e+00	1.323604e-06	
30	-1.50000e+00	1.325555e-06	
31	-1.55000e+00	1.327464e-06	
32	-1.60000e+00	1.329333e-06	
33	-1.65000e+00	1.331166e-06	
34	-1.70000e+00	1.332963e-06	
35	-1.75000e+00	1.334726e-06	
36	-1.80000e+00	1.336459e-06	
37	-1.85000e+00	1.338161e-06	
38	-1.90000e+00	1.339834e-06	
39	-1.95000e+00	1.341480e-06	
40	-2.00000e+00	1.343100e-06	
41	-2.05000e+00	1.344695e-06	
42	-2.10000e+00	1.346267e-06	
43	-2.15000e+00	1.347816e-06	
44	-2.20000e+00	1.349343e-06	
45	-2.25000e+00	1.350849e-06	
46	-2.30000e+00	1.352335e-06	
47	-2.35000e+00	1.353802e-06	
48	-2.40000e+00	1.355251e-06	
49	-2.45000e+00	1.356682e-06	
50	-2.50000e+00	1.358096e-06	
51	-2.55000e+00	1.359493e-06	
52	-2.60000e+00	1.360875e-06	
53	-2.65000e+00	1.362241e-06	
54	-2.70000e+00	1.363593e-06	

Index   v-sweep         i(vds)          
--------------------------------------------------------------------------------
55	-2.75000e+00	1.364931e-06	
56	-2.80000e+00	1.366255e-06	
57	-2.85000e+00	1.367566e-06	
58	-2.90000e+00	1.368864e-06	
59	-2.95000e+00	1.370150e-06	
60	-3.00000e+00	1.371424e-06	
61	-3.05000e+00	1.372687e-06	
62	-3.10000e+00	1.373939e-06	
63	-3.15000e+00	1.375181e-06	
64	-3.20000e+00	1.376413e-06	
65	-3.25000e+00	1.377636e-06	
66	-3.30000e+00	1.378850e-06	
67	-3.35000e+00	1.380056e-06	
68	-3.40000e+00	1.381255e-06	
69	-3.45000e+00	1.382447e-06	
70	-3.50000e+00	1.383632e-06	
71	-3.55000e+00	1.384813e-06	
72	-3.60000e+00	1.385989e-06	
73	-3.65000e+00	1.387161e-06	
74	-3.70000e+00	1.388332e-06	
75	-3.75000e+00	1.389501e-06	
76	-3.80000e+00	1.390671e-06	
77	-3.85000e+00	1.391842e-06	
78	-3.90000e+00	1.393017e-06	
79	-3.95000e+00	1.394197e-06	
80	-4.00000e+00	1.395385e-06	
81	-4.05000e+00	1.396581e-06	
82	-4.10000e+00	1.397790e-06	
83	-4.15000e+00	1.399013e-06	
84	-4.20000e+00	1.400253e-06	
85	-4.25000e+00	1.401513e-06	
86	-4.30000e+00	1.402797e-06	
87	-4.35000e+00	1.404109e-06	
88	-4.40000e+00	1.405452e-06	
89	-4.45000e+00	1.406831e-06	
90	-4.50000e+00	1.408251e-06	
91	-4.55000e+00	1.409716e-06	
92	-4.60000e+00	1.411231e-06	
93	-4.65000e+00	1.412804e-06	
94	-4.70000e+00	1.414439e-06	
95	-4.75000e+00	1.416143e-06	
96	-4.80000e+00	1.417924e-06	
97	-4.85000e+00	1.419788e-06	
98	-4.90000e+00	1.421744e-06	
99	-4.95000e+00	1.423800e-06	
100	-5.00000e+00	1.425965e-06	
101	-5.05000e+00	1.428247e-06	
102	-5.10000e+00	1.430658e-06	
103	-5.15000e+00	1.433207e-06	
104	-5.20000e+00	1.435905e-06	
105	-5.25000e+00	1.438763e-06	
106	-5.30000e+00	1.441794e-06	
107	-5.35000e+00	1.445010e-06	
108	-5.40000e+00	1.448423e-06	
109	-5.45000e+00	1.452048e-06	
110	-5.50000e+00	1.455899e-06	
111	-5.55000e+00	1.459990e-06	
112	-5.60000e+00	1.464336e-06	

Index   v-sweep         i(vds)          
--------------------------------------------------------------------------------
113	-5.65000e+00	1.468954e-06	
114	-5.70000e+00	1.473859e-06	
115	-5.75000e+00	1.479070e-06	
116	-5.80000e+00	1.484603e-06	
117	-5.85000e+00	1.490476e-06	
118	-5.90000e+00	1.496710e-06	
119	-5.95000e+00	1.503322e-06	
120	-6.00000e+00	1.510332e-06	
121	-6.05000e+00	1.517762e-06	
122	-6.10000e+00	1.525633e-06	
123	-6.15000e+00	1.533966e-06	
124	-6.20000e+00	1.542783e-06	
125	-6.25000e+00	1.552107e-06	
126	-6.30000e+00	1.561963e-06	
127	-6.35000e+00	1.572372e-06	
128	-6.40000e+00	1.583361e-06	
129	-6.45000e+00	1.594954e-06	
130	-6.50000e+00	1.607178e-06	
131	-6.55000e+00	1.620057e-06	
132	-6.60000e+00	1.633619e-06	
133	0.000000e+00	-8.54370e-31	
134	-5.00000e-02	6.853283e-06	
135	-1.00000e-01	1.328687e-05	
136	-1.50000e-01	1.930262e-05	
137	-2.00000e-01	2.490240e-05	
138	-2.50000e-01	3.008809e-05	
139	-3.00000e-01	3.486165e-05	
140	-3.50000e-01	3.922508e-05	
141	-4.00000e-01	4.318051e-05	
142	-4.50000e-01	4.673027e-05	
143	-5.00000e-01	4.987707e-05	
144	-5.50000e-01	5.262426e-05	
145	-6.00000e-01	5.497644e-05	
146	-6.50000e-01	5.694069e-05	
147	-7.00000e-01	5.852903e-05	
148	-7.50000e-01	5.976327e-05	
149	-8.00000e-01	6.068210e-05	
150	-8.50000e-01	6.134580e-05	
151	-9.00000e-01	6.182760e-05	
152	-9.50000e-01	6.219324e-05	
153	-1.00000e+00	6.248785e-05	
154	-1.05000e+00	6.273776e-05	
155	-1.10000e+00	6.295760e-05	
156	-1.15000e+00	6.315577e-05	
157	-1.20000e+00	6.333734e-05	
158	-1.25000e+00	6.350563e-05	
159	-1.30000e+00	6.366294e-05	
160	-1.35000e+00	6.381096e-05	
161	-1.40000e+00	6.395097e-05	
162	-1.45000e+00	6.408397e-05	
163	-1.50000e+00	6.421077e-05	
164	-1.55000e+00	6.433205e-05	
165	-1.60000e+00	6.444836e-05	
166	-1.65000e+00	6.456017e-05	
167	-1.70000e+00	6.466790e-05	
168	-1.75000e+00	6.477188e-05	
169	-1.80000e+00	6.487244e-05	
170	-1.85000e+00	6.496984e-05	

Index   v-sweep         i(vds)          
--------------------------------------------------------------------------------
171	-1.90000e+00	6.506431e-05	
172	-1.95000e+00	6.515608e-05	
173	-2.00000e+00	6.524532e-05	
174	-2.05000e+00	6.533220e-05	
175	-2.10000e+00	6.541689e-05	
176	-2.15000e+00	6.549952e-05	
177	-2.20000e+00	6.558021e-05	
178	-2.25000e+00	6.565908e-05	
179	-2.30000e+00	6.573623e-05	
180	-2.35000e+00	6.581177e-05	
181	-2.40000e+00	6.588576e-05	
182	-2.45000e+00	6.595831e-05	
183	-2.50000e+00	6.602948e-05	
184	-2.55000e+00	6.609934e-05	
185	-2.60000e+00	6.616795e-05	
186	-2.65000e+00	6.623538e-05	
187	-2.70000e+00	6.630168e-05	
188	-2.75000e+00	6.636690e-05	
189	-2.80000e+00	6.643109e-05	
190	-2.85000e+00	6.649430e-05	
191	-2.90000e+00	6.655656e-05	
192	-2.95000e+00	6.661791e-05	
193	-3.00000e+00	6.667840e-05	
194	-3.05000e+00	6.673806e-05	
195	-3.10000e+00	6.679691e-05	
196	-3.15000e+00	6.685500e-05	
197	-3.20000e+00	6.691234e-05	
198	-3.25000e+00	6.696898e-05	
199	-3.30000e+00	6.702493e-05	
200	-3.35000e+00	6.708022e-05	
201	-3.40000e+00	6.713487e-05	
202	-3.45000e+00	6.718891e-05	
203	-3.50000e+00	6.724236e-05	
204	-3.55000e+00	6.729524e-05	
205	-3.60000e+00	6.734757e-05	
206	-3.65000e+00	6.739937e-05	
207	-3.70000e+00	6.745066e-05	
208	-3.75000e+00	6.750147e-05	
209	-3.80000e+00	6.755181e-05	
210	-3.85000e+00	6.760171e-05	
211	-3.90000e+00	6.765119e-05	
212	-3.95000e+00	6.770027e-05	
213	-4.00000e+00	6.774897e-05	
214	-4.05000e+00	6.779733e-05	
215	-4.10000e+00	6.784537e-05	
216	-4.15000e+00	6.789313e-05	
217	-4.20000e+00	6.794063e-05	
218	-4.25000e+00	6.798792e-05	
219	-4.30000e+00	6.803504e-05	
220	-4.35000e+00	6.808204e-05	
221	-4.40000e+00	6.812896e-05	
222	-4.45000e+00	6.817586e-05	
223	-4.50000e+00	6.822281e-05	
224	-4.55000e+00	6.826988e-05	
225	-4.60000e+00	6.831714e-05	
226	-4.65000e+00	6.836468e-05	
227	-4.70000e+00	6.841259e-05	
228	-4.75000e+00	6.846098e-05	

Index   v-sweep         i(vds)          
--------------------------------------------------------------------------------
229	-4.80000e+00	6.850997e-05	
230	-4.85000e+00	6.855967e-05	
231	-4.90000e+00	6.861023e-05	
232	-4.95000e+00	6.866179e-05	
233	-5.00000e+00	6.871451e-05	
234	-5.05000e+00	6.876858e-05	
235	-5.10000e+00	6.882419e-05	
236	-5.15000e+00	6.888153e-05	
237	-5.20000e+00	6.894084e-05	
238	-5.25000e+00	6.900236e-05	
239	-5.30000e+00	6.906634e-05	
240	-5.35000e+00	6.913305e-05	
241	-5.40000e+00	6.920280e-05	
242	-5.45000e+00	6.927590e-05	
243	-5.50000e+00	6.935269e-05	
244	-5.55000e+00	6.943352e-05	
245	-5.60000e+00	6.951877e-05	
246	-5.65000e+00	6.960884e-05	
247	-5.70000e+00	6.970416e-05	
248	-5.75000e+00	6.980517e-05	
249	-5.80000e+00	6.991236e-05	
250	-5.85000e+00	7.002620e-05	
251	-5.90000e+00	7.014723e-05	
252	-5.95000e+00	7.027599e-05	
253	-6.00000e+00	7.041305e-05	
254	-6.05000e+00	7.055902e-05	
255	-6.10000e+00	7.071451e-05	
256	-6.15000e+00	7.088019e-05	
257	-6.20000e+00	7.105672e-05	
258	-6.25000e+00	7.124482e-05	
259	-6.30000e+00	7.144522e-05	
260	-6.35000e+00	7.165867e-05	
261	-6.40000e+00	7.188598e-05	
262	-6.45000e+00	7.212796e-05	
263	-6.50000e+00	7.238544e-05	
264	-6.55000e+00	7.265931e-05	
265	-6.60000e+00	7.295047e-05	
266	0.000000e+00	-1.01724e-29	
267	-5.00000e-02	1.161441e-05	
268	-1.00000e-01	2.284210e-05	
269	-1.50000e-01	3.368452e-05	
270	-2.00000e-01	4.414306e-05	
271	-2.50000e-01	5.421916e-05	
272	-3.00000e-01	6.391424e-05	
273	-3.50000e-01	7.322970e-05	
274	-4.00000e-01	8.216696e-05	
275	-4.50000e-01	9.072745e-05	
276	-5.00000e-01	9.891258e-05	
277	-5.50000e-01	1.067238e-04	
278	-6.00000e-01	1.141624e-04	
279	-6.50000e-01	1.212300e-04	
280	-7.00000e-01	1.279280e-04	
281	-7.50000e-01	1.342578e-04	
282	-8.00000e-01	1.402210e-04	
283	-8.50000e-01	1.458190e-04	
284	-9.00000e-01	1.510534e-04	
285	-9.50000e-01	1.559260e-04	
286	-1.00000e+00	1.604385e-04	

Index   v-sweep         i(vds)          
--------------------------------------------------------------------------------
287	-1.05000e+00	1.645929e-04	
288	-1.10000e+00	1.683915e-04	
289	-1.15000e+00	1.718371e-04	
290	-1.20000e+00	1.749332e-04	
291	-1.25000e+00	1.776848e-04	
292	-1.30000e+00	1.800990e-04	
293	-1.35000e+00	1.821867e-04	
294	-1.40000e+00	1.839646e-04	
295	-1.45000e+00	1.854581e-04	
296	-1.50000e+00	1.867027e-04	
297	-1.55000e+00	1.877418e-04	
298	-1.60000e+00	1.886202e-04	
299	-1.65000e+00	1.893775e-04	
300	-1.70000e+00	1.900441e-04	
301	-1.75000e+00	1.906418e-04	
302	-1.80000e+00	1.911858e-04	
303	-1.85000e+00	1.916866e-04	
304	-1.90000e+00	1.921520e-04	
305	-1.95000e+00	1.925874e-04	
306	-2.00000e+00	1.929974e-04	
307	-2.05000e+00	1.933851e-04	
308	-2.10000e+00	1.937535e-04	
309	-2.15000e+00	1.941046e-04	
310	-2.20000e+00	1.944403e-04	
311	-2.25000e+00	1.947622e-04	
312	-2.30000e+00	1.950716e-04	
313	-2.35000e+00	1.953696e-04	
314	-2.40000e+00	1.956573e-04	
315	-2.45000e+00	1.959354e-04	
316	-2.50000e+00	1.962047e-04	
317	-2.55000e+00	1.964659e-04	
318	-2.60000e+00	1.967196e-04	
319	-2.65000e+00	1.969663e-04	
320	-2.70000e+00	1.972065e-04	
321	-2.75000e+00	1.974407e-04	
322	-2.80000e+00	1.976691e-04	
323	-2.85000e+00	1.978922e-04	
324	-2.90000e+00	1.981103e-04	
325	-2.95000e+00	1.983236e-04	
326	-3.00000e+00	1.985324e-04	
327	-3.05000e+00	1.987371e-04	
328	-3.10000e+00	1.989377e-04	
329	-3.15000e+00	1.991346e-04	
330	-3.20000e+00	1.993278e-04	
331	-3.25000e+00	1.995176e-04	
332	-3.30000e+00	1.997042e-04	
333	-3.35000e+00	1.998877e-04	
334	-3.40000e+00	2.000682e-04	
335	-3.45000e+00	2.002459e-04	
336	-3.50000e+00	2.004209e-04	
337	-3.55000e+00	2.005933e-04	
338	-3.60000e+00	2.007632e-04	
339	-3.65000e+00	2.009307e-04	
340	-3.70000e+00	2.010960e-04	
341	-3.75000e+00	2.012591e-04	
342	-3.80000e+00	2.014201e-04	
343	-3.85000e+00	2.015790e-04	
344	-3.90000e+00	2.017360e-04	

Index   v-sweep         i(vds)          
--------------------------------------------------------------------------------
345	-3.95000e+00	2.018912e-04	
346	-4.00000e+00	2.020445e-04	
347	-4.05000e+00	2.021961e-04	
348	-4.10000e+00	2.023460e-04	
349	-4.15000e+00	2.024943e-04	
350	-4.20000e+00	2.026411e-04	
351	-4.25000e+00	2.027863e-04	
352	-4.30000e+00	2.029301e-04	
353	-4.35000e+00	2.030726e-04	
354	-4.40000e+00	2.032137e-04	
355	-4.45000e+00	2.033535e-04	
356	-4.50000e+00	2.034921e-04	
357	-4.55000e+00	2.036296e-04	
358	-4.60000e+00	2.037660e-04	
359	-4.65000e+00	2.039014e-04	
360	-4.70000e+00	2.040358e-04	
361	-4.75000e+00	2.041694e-04	
362	-4.80000e+00	2.043022e-04	
363	-4.85000e+00	2.044343e-04	
364	-4.90000e+00	2.045659e-04	
365	-4.95000e+00	2.046970e-04	
366	-5.00000e+00	2.048278e-04	
367	-5.05000e+00	2.049584e-04	
368	-5.10000e+00	2.050890e-04	
369	-5.15000e+00	2.052197e-04	
370	-5.20000e+00	2.053508e-04	
371	-5.25000e+00	2.054825e-04	
372	-5.30000e+00	2.056151e-04	
373	-5.35000e+00	2.057487e-04	
374	-5.40000e+00	2.058837e-04	
375	-5.45000e+00	2.060204e-04	
376	-5.50000e+00	2.061592e-04	
377	-5.55000e+00	2.063004e-04	
378	-5.60000e+00	2.064446e-04	
379	-5.65000e+00	2.065921e-04	
380	-5.70000e+00	2.067435e-04	
381	-5.75000e+00	2.068994e-04	
382	-5.80000e+00	2.070602e-04	
383	-5.85000e+00	2.072268e-04	
384	-5.90000e+00	2.073997e-04	
385	-5.95000e+00	2.075797e-04	
386	-6.00000e+00	2.077676e-04	
387	-6.05000e+00	2.079644e-04	
388	-6.10000e+00	2.081708e-04	
389	-6.15000e+00	2.083879e-04	
390	-6.20000e+00	2.086167e-04	
391	-6.25000e+00	2.088583e-04	
392	-6.30000e+00	2.091139e-04	
393	-6.35000e+00	2.093848e-04	
394	-6.40000e+00	2.096722e-04	
395	-6.45000e+00	2.099774e-04	
396	-6.50000e+00	2.103021e-04	
397	-6.55000e+00	2.106476e-04	
398	-6.60000e+00	2.110157e-04	
399	0.000000e+00	5.313975e-31	
400	-5.00000e-02	1.535475e-05	
401	-1.00000e-01	3.035474e-05	
402	-1.50000e-01	4.500111e-05	

Index   v-sweep         i(vds)          
--------------------------------------------------------------------------------
403	-2.00000e-01	5.929505e-05	
404	-2.50000e-01	7.323770e-05	
405	-3.00000e-01	8.683022e-05	
406	-3.50000e-01	1.000738e-04	
407	-4.00000e-01	1.129695e-04	
408	-4.50000e-01	1.255185e-04	
409	-5.00000e-01	1.377220e-04	
410	-5.50000e-01	1.495812e-04	
411	-6.00000e-01	1.610970e-04	
412	-6.50000e-01	1.722708e-04	
413	-7.00000e-01	1.831037e-04	
414	-7.50000e-01	1.935967e-04	
415	-8.00000e-01	2.037510e-04	
416	-8.50000e-01	2.135678e-04	
417	-9.00000e-01	2.230481e-04	
418	-9.50000e-01	2.321932e-04	
419	-1.00000e+00	2.410042e-04	
420	-1.05000e+00	2.494822e-04	
421	-1.10000e+00	2.576283e-04	
422	-1.15000e+00	2.654438e-04	
423	-1.20000e+00	2.729297e-04	
424	-1.25000e+00	2.800873e-04	
425	-1.30000e+00	2.869177e-04	
426	-1.35000e+00	2.934222e-04	
427	-1.40000e+00	2.996019e-04	
428	-1.45000e+00	3.054582e-04	
429	-1.50000e+00	3.109924e-04	
430	-1.55000e+00	3.162059e-04	
431	-1.60000e+00	3.211002e-04	
432	-1.65000e+00	3.256771e-04	
433	-1.70000e+00	3.299383e-04	
434	-1.75000e+00	3.338863e-04	
435	-1.80000e+00	3.375239e-04	
436	-1.85000e+00	3.408546e-04	
437	-1.90000e+00	3.438834e-04	
438	-1.95000e+00	3.466172e-04	
439	-2.00000e+00	3.490658e-04	
440	-2.05000e+00	3.512432e-04	
441	-2.10000e+00	3.531686e-04	
442	-2.15000e+00	3.548668e-04	
443	-2.20000e+00	3.563671e-04	
444	-2.25000e+00	3.577002e-04	
445	-2.30000e+00	3.588951e-04	
446	-2.35000e+00	3.599767e-04	
447	-2.40000e+00	3.609653e-04	
448	-2.45000e+00	3.618768e-04	
449	-2.50000e+00	3.627235e-04	
450	-2.55000e+00	3.635153e-04	
451	-2.60000e+00	3.642597e-04	
452	-2.65000e+00	3.649629e-04	
453	-2.70000e+00	3.656300e-04	
454	-2.75000e+00	3.662650e-04	
455	-2.80000e+00	3.668715e-04	
456	-2.85000e+00	3.674523e-04	
457	-2.90000e+00	3.680099e-04	
458	-2.95000e+00	3.685466e-04	
459	-3.00000e+00	3.690641e-04	
460	-3.05000e+00	3.695640e-04	

Index   v-sweep         i(vds)          
--------------------------------------------------------------------------------
461	-3.10000e+00	3.700478e-04	
462	-3.15000e+00	3.705167e-04	
463	-3.20000e+00	3.709719e-04	
464	-3.25000e+00	3.714143e-04	
465	-3.30000e+00	3.718448e-04	
466	-3.35000e+00	3.722642e-04	
467	-3.40000e+00	3.726733e-04	
468	-3.45000e+00	3.730726e-04	
469	-3.50000e+00	3.734629e-04	
470	-3.55000e+00	3.738445e-04	
471	-3.60000e+00	3.742181e-04	
472	-3.65000e+00	3.745841e-04	
473	-3.70000e+00	3.749428e-04	
474	-3.75000e+00	3.752947e-04	
475	-3.80000e+00	3.756401e-04	
476	-3.85000e+00	3.759794e-04	
477	-3.90000e+00	3.763128e-04	
478	-3.95000e+00	3.766407e-04	
479	-4.00000e+00	3.769632e-04	
480	-4.05000e+00	3.772807e-04	
481	-4.10000e+00	3.775933e-04	
482	-4.15000e+00	3.779013e-04	
483	-4.20000e+00	3.782048e-04	
484	-4.25000e+00	3.785042e-04	
485	-4.30000e+00	3.787994e-04	
486	-4.35000e+00	3.790908e-04	
487	-4.40000e+00	3.793784e-04	
488	-4.45000e+00	3.796624e-04	
489	-4.50000e+00	3.799429e-04	
490	-4.55000e+00	3.802201e-04	
491	-4.60000e+00	3.804941e-04	
492	-4.65000e+00	3.807649e-04	
493	-4.70000e+00	3.810328e-04	
494	-4.75000e+00	3.812979e-04	
495	-4.80000e+00	3.815602e-04	
496	-4.85000e+00	3.818198e-04	
497	-4.90000e+00	3.820768e-04	
498	-4.95000e+00	3.823314e-04	
499	-5.00000e+00	3.825836e-04	
500	-5.05000e+00	3.828336e-04	
501	-5.10000e+00	3.830813e-04	
502	-5.15000e+00	3.833271e-04	
503	-5.20000e+00	3.835708e-04	
504	-5.25000e+00	3.838128e-04	
505	-5.30000e+00	3.840530e-04	
506	-5.35000e+00	3.842916e-04	
507	-5.40000e+00	3.845289e-04	
508	-5.45000e+00	3.847648e-04	
509	-5.50000e+00	3.849997e-04	
510	-5.55000e+00	3.852336e-04	
511	-5.60000e+00	3.854669e-04	
512	-5.65000e+00	3.856998e-04	
513	-5.70000e+00	3.859324e-04	
514	-5.75000e+00	3.861652e-04	
515	-5.80000e+00	3.863985e-04	
516	-5.85000e+00	3.866326e-04	
517	-5.90000e+00	3.868680e-04	
518	-5.95000e+00	3.871050e-04	

Index   v-sweep         i(vds)          
--------------------------------------------------------------------------------
519	-6.00000e+00	3.873443e-04	
520	-6.05000e+00	3.875863e-04	
521	-6.10000e+00	3.878317e-04	
522	-6.15000e+00	3.880812e-04	
523	-6.20000e+00	3.883354e-04	
524	-6.25000e+00	3.885953e-04	
525	-6.30000e+00	3.888616e-04	
526	-6.35000e+00	3.891354e-04	
527	-6.40000e+00	3.894177e-04	
528	-6.45000e+00	3.897095e-04	
529	-6.50000e+00	3.900122e-04	
530	-6.55000e+00	3.903269e-04	
531	-6.60000e+00	3.906553e-04	
532	0.000000e+00	7.647507e-20	
533	-5.00000e-02	1.836853e-05	
534	-1.00000e-01	3.641026e-05	
535	-1.50000e-01	5.412615e-05	
536	-2.00000e-01	7.151720e-05	
537	-2.50000e-01	8.858436e-05	
538	-3.00000e-01	1.053286e-04	
539	-3.50000e-01	1.217509e-04	
540	-4.00000e-01	1.378523e-04	
541	-4.50000e-01	1.536336e-04	
542	-5.00000e-01	1.690959e-04	
543	-5.50000e-01	1.842400e-04	
544	-6.00000e-01	1.990671e-04	
545	-6.50000e-01	2.135780e-04	
546	-7.00000e-01	2.277736e-04	
547	-7.50000e-01	2.416550e-04	
548	-8.00000e-01	2.552231e-04	
549	-8.50000e-01	2.684788e-04	
550	-9.00000e-01	2.814231e-04	
551	-9.50000e-01	2.940569e-04	
552	-1.00000e+00	3.063812e-04	
553	-1.05000e+00	3.183969e-04	
554	-1.10000e+00	3.301049e-04	
555	-1.15000e+00	3.415063e-04	
556	-1.20000e+00	3.526018e-04	
557	-1.25000e+00	3.633926e-04	
558	-1.30000e+00	3.738795e-04	
559	-1.35000e+00	3.840634e-04	
560	-1.40000e+00	3.939453e-04	
561	-1.45000e+00	4.035261e-04	
562	-1.50000e+00	4.128068e-04	
563	-1.55000e+00	4.217883e-04	
564	-1.60000e+00	4.304715e-04	
565	-1.65000e+00	4.388575e-04	
566	-1.70000e+00	4.469471e-04	
567	-1.75000e+00	4.547413e-04	
568	-1.80000e+00	4.622412e-04	
569	-1.85000e+00	4.694476e-04	
570	-1.90000e+00	4.763615e-04	
571	-1.95000e+00	4.829841e-04	
572	-2.00000e+00	4.893163e-04	
573	-2.05000e+00	4.953592e-04	
574	-2.10000e+00	5.011140e-04	
575	-2.15000e+00	5.065819e-04	
576	-2.20000e+00	5.117641e-04	

Index   v-sweep         i(vds)          
--------------------------------------------------------------------------------
577	-2.25000e+00	5.166622e-04	
578	-2.30000e+00	5.212777e-04	
579	-2.35000e+00	5.256125e-04	
580	-2.40000e+00	5.296688e-04	
581	-2.45000e+00	5.334496e-04	
582	-2.50000e+00	5.369584e-04	
583	-2.55000e+00	5.402000e-04	
584	-2.60000e+00	5.431808e-04	
585	-2.65000e+00	5.459097e-04	
586	-2.70000e+00	5.483983e-04	
587	-2.75000e+00	5.506618e-04	
588	-2.80000e+00	5.527187e-04	
589	-2.85000e+00	5.545902e-04	
590	-2.90000e+00	5.562984e-04	
591	-2.95000e+00	5.578648e-04	
592	-3.00000e+00	5.593089e-04	
593	-3.05000e+00	5.606480e-04	
594	-3.10000e+00	5.618964e-04	
595	-3.15000e+00	5.630662e-04	
596	-3.20000e+00	5.641675e-04	
597	-3.25000e+00	5.652087e-04	
598	-3.30000e+00	5.661968e-04	
599	-3.35000e+00	5.671375e-04	
600	-3.40000e+00	5.680360e-04	
601	-3.45000e+00	5.688964e-04	
602	-3.50000e+00	5.697224e-04	
603	-3.55000e+00	5.705172e-04	
604	-3.60000e+00	5.712835e-04	
605	-3.65000e+00	5.720238e-04	
606	-3.70000e+00	5.727400e-04	
607	-3.75000e+00	5.734342e-04	
608	-3.80000e+00	5.741079e-04	
609	-3.85000e+00	5.747627e-04	
610	-3.90000e+00	5.753998e-04	
611	-3.95000e+00	5.760205e-04	
612	-4.00000e+00	5.766259e-04	
613	-4.05000e+00	5.772168e-04	
614	-4.10000e+00	5.777943e-04	
615	-4.15000e+00	5.783590e-04	
616	-4.20000e+00	5.789119e-04	
617	-4.25000e+00	5.794534e-04	
618	-4.30000e+00	5.799843e-04	
619	-4.35000e+00	5.805050e-04	
620	-4.40000e+00	5.810163e-04	
621	-4.45000e+00	5.815184e-04	
622	-4.50000e+00	5.820119e-04	
623	-4.55000e+00	5.824972e-04	
624	-4.60000e+00	5.829747e-04	
625	-4.65000e+00	5.834447e-04	
626	-4.70000e+00	5.839076e-04	
627	-4.75000e+00	5.843636e-04	
628	-4.80000e+00	5.848132e-04	
629	-4.85000e+00	5.852565e-04	
630	-4.90000e+00	5.856939e-04	
631	-4.95000e+00	5.861255e-04	
632	-5.00000e+00	5.865516e-04	
633	-5.05000e+00	5.869724e-04	
634	-5.10000e+00	5.873881e-04	

Index   v-sweep         i(vds)          
--------------------------------------------------------------------------------
635	-5.15000e+00	5.877989e-04	
636	-5.20000e+00	5.882050e-04	
637	-5.25000e+00	5.886066e-04	
638	-5.30000e+00	5.890038e-04	
639	-5.35000e+00	5.893968e-04	
640	-5.40000e+00	5.897857e-04	
641	-5.45000e+00	5.901707e-04	
642	-5.50000e+00	5.905520e-04	
643	-5.55000e+00	5.909296e-04	
644	-5.60000e+00	5.913038e-04	
645	-5.65000e+00	5.916746e-04	
646	-5.70000e+00	5.920423e-04	
647	-5.75000e+00	5.924069e-04	
648	-5.80000e+00	5.927686e-04	
649	-5.85000e+00	5.931276e-04	
650	-5.90000e+00	5.934841e-04	
651	-5.95000e+00	5.938382e-04	
652	-6.00000e+00	5.941902e-04	
653	-6.05000e+00	5.945403e-04	
654	-6.10000e+00	5.948887e-04	
655	-6.15000e+00	5.952357e-04	
656	-6.20000e+00	5.955816e-04	
657	-6.25000e+00	5.959268e-04	
658	-6.30000e+00	5.962716e-04	
659	-6.35000e+00	5.966165e-04	
660	-6.40000e+00	5.969619e-04	
661	-6.45000e+00	5.973084e-04	
662	-6.50000e+00	5.976566e-04	
663	-6.55000e+00	5.980070e-04	
664	-6.60000e+00	5.983605e-04	
665	0.000000e+00	-3.62884e-30	
666	-5.00000e-02	2.084576e-05	
667	-1.00000e-01	4.138896e-05	
668	-1.50000e-01	6.163042e-05	
669	-2.00000e-01	8.157099e-05	
670	-2.50000e-01	1.012115e-04	
671	-3.00000e-01	1.205528e-04	
672	-3.50000e-01	1.395956e-04	
673	-4.00000e-01	1.583409e-04	
674	-4.50000e-01	1.767895e-04	
675	-5.00000e-01	1.949421e-04	
676	-5.50000e-01	2.127996e-04	
677	-6.00000e-01	2.303628e-04	
678	-6.50000e-01	2.476325e-04	
679	-7.00000e-01	2.646096e-04	
680	-7.50000e-01	2.812949e-04	
681	-8.00000e-01	2.976891e-04	
682	-8.50000e-01	3.137932e-04	
683	-9.00000e-01	3.296078e-04	
684	-9.50000e-01	3.451338e-04	
685	-1.00000e+00	3.603721e-04	
686	-1.05000e+00	3.753234e-04	
687	-1.10000e+00	3.899885e-04	
688	-1.15000e+00	4.043682e-04	
689	-1.20000e+00	4.184634e-04	
690	-1.25000e+00	4.322748e-04	
691	-1.30000e+00	4.458032e-04	
692	-1.35000e+00	4.590494e-04	

Index   v-sweep         i(vds)          
--------------------------------------------------------------------------------
693	-1.40000e+00	4.720143e-04	
694	-1.45000e+00	4.846985e-04	
695	-1.50000e+00	4.971030e-04	
696	-1.55000e+00	5.092285e-04	
697	-1.60000e+00	5.210757e-04	
698	-1.65000e+00	5.326456e-04	
699	-1.70000e+00	5.439388e-04	
700	-1.75000e+00	5.549562e-04	
701	-1.80000e+00	5.656985e-04	
702	-1.85000e+00	5.761665e-04	
703	-1.90000e+00	5.863611e-04	
704	-1.95000e+00	5.962830e-04	
705	-2.00000e+00	6.059330e-04	
706	-2.05000e+00	6.153118e-04	
707	-2.10000e+00	6.244204e-04	
708	-2.15000e+00	6.332595e-04	
709	-2.20000e+00	6.418298e-04	
710	-2.25000e+00	6.501323e-04	
711	-2.30000e+00	6.581676e-04	
712	-2.35000e+00	6.659367e-04	
713	-2.40000e+00	6.734403e-04	
714	-2.45000e+00	6.806793e-04	
715	-2.50000e+00	6.876546e-04	
716	-2.55000e+00	6.943670e-04	
717	-2.60000e+00	7.008174e-04	
718	-2.65000e+00	7.070068e-04	
719	-2.70000e+00	7.129362e-04	
720	-2.75000e+00	7.186065e-04	
721	-2.80000e+00	7.240190e-04	
722	-2.85000e+00	7.291748e-04	
723	-2.90000e+00	7.340753e-04	
724	-2.95000e+00	7.387221e-04	
725	-3.00000e+00	7.431171e-04	
726	-3.05000e+00	7.472623e-04	
727	-3.10000e+00	7.511606e-04	
728	-3.15000e+00	7.548153e-04	
729	-3.20000e+00	7.582310e-04	
730	-3.25000e+00	7.614136e-04	
731	-3.30000e+00	7.643704e-04	
732	-3.35000e+00	7.671114e-04	
733	-3.40000e+00	7.696485e-04	
734	-3.45000e+00	7.719960e-04	
735	-3.50000e+00	7.741697e-04	
736	-3.55000e+00	7.761864e-04	
737	-3.60000e+00	7.780628e-04	
738	-3.65000e+00	7.798144e-04	
739	-3.70000e+00	7.814558e-04	
740	-3.75000e+00	7.829995e-04	
741	-3.80000e+00	7.844568e-04	
742	-3.85000e+00	7.858372e-04	
743	-3.90000e+00	7.871491e-04	
744	-3.95000e+00	7.883997e-04	
745	-4.00000e+00	7.895951e-04	
746	-4.05000e+00	7.907406e-04	
747	-4.10000e+00	7.918410e-04	
748	-4.15000e+00	7.929002e-04	
749	-4.20000e+00	7.939219e-04	
750	-4.25000e+00	7.949091e-04	

Index   v-sweep         i(vds)          
--------------------------------------------------------------------------------
751	-4.30000e+00	7.958646e-04	
752	-4.35000e+00	7.967909e-04	
753	-4.40000e+00	7.976901e-04	
754	-4.45000e+00	7.985642e-04	
755	-4.50000e+00	7.994149e-04	
756	-4.55000e+00	8.002438e-04	
757	-4.60000e+00	8.010524e-04	
758	-4.65000e+00	8.018419e-04	
759	-4.70000e+00	8.026135e-04	
760	-4.75000e+00	8.033683e-04	
761	-4.80000e+00	8.041072e-04	
762	-4.85000e+00	8.048312e-04	
763	-4.90000e+00	8.055410e-04	
764	-4.95000e+00	8.062375e-04	
765	-5.00000e+00	8.069213e-04	
766	-5.05000e+00	8.075930e-04	
767	-5.10000e+00	8.082533e-04	
768	-5.15000e+00	8.089028e-04	
769	-5.20000e+00	8.095419e-04	
770	-5.25000e+00	8.101710e-04	
771	-5.30000e+00	8.107908e-04	
772	-5.35000e+00	8.114015e-04	
773	-5.40000e+00	8.120036e-04	
774	-5.45000e+00	8.125975e-04	
775	-5.50000e+00	8.131834e-04	
776	-5.55000e+00	8.137617e-04	
777	-5.60000e+00	8.143327e-04	
778	-5.65000e+00	8.148968e-04	
779	-5.70000e+00	8.154541e-04	
780	-5.75000e+00	8.160049e-04	
781	-5.80000e+00	8.165495e-04	
782	-5.85000e+00	8.170881e-04	
783	-5.90000e+00	8.176209e-04	
784	-5.95000e+00	8.181481e-04	
785	-6.00000e+00	8.186700e-04	
786	-6.05000e+00	8.191867e-04	
787	-6.10000e+00	8.196984e-04	
788	-6.15000e+00	8.202053e-04	
789	-6.20000e+00	8.207076e-04	
790	-6.25000e+00	8.212055e-04	
791	-6.30000e+00	8.216992e-04	
792	-6.35000e+00	8.221889e-04	
793	-6.40000e+00	8.226747e-04	
794	-6.45000e+00	8.231569e-04	
795	-6.50000e+00	8.236357e-04	
796	-6.55000e+00	8.241114e-04	
797	-6.60000e+00	8.245842e-04	
Note: No ".plot", ".print", or ".fourier" lines; no simulations run
