
Note: Compatibility modes selected: hs

Warning: m=xx on .subckt line will override multiplier m hierarchy!


Circuit: ***************************

Doing analysis at TEMP = 125.000000 and TNOM = 125.000000


No. of Data Rows : 798
                          ***************************
                          DC transfer characteristic  Mon Jan  9 13:58:51  2023
--------------------------------------------------------------------------------
Index   v-sweep         i(vds)          
--------------------------------------------------------------------------------
0	0.000000e+00	-4.11824e-27	
1	-5.00000e-02	1.821957e-07	
2	-1.00000e-01	3.337741e-07	
3	-1.50000e-01	4.569539e-07	
4	-2.00000e-01	5.525594e-07	
5	-2.50000e-01	6.214959e-07	
6	-3.00000e-01	6.658737e-07	
7	-3.50000e-01	6.906928e-07	
8	-4.00000e-01	7.038028e-07	
9	-4.50000e-01	7.117755e-07	
10	-5.00000e-01	7.177589e-07	
11	-5.50000e-01	7.229025e-07	
12	-6.00000e-01	7.276232e-07	
13	-6.50000e-01	7.320893e-07	
14	-7.00000e-01	7.363783e-07	
15	-7.50000e-01	7.405303e-07	
16	-8.00000e-01	7.445689e-07	
17	-8.50000e-01	7.485093e-07	
18	-9.00000e-01	7.523621e-07	
19	-9.50000e-01	7.561353e-07	
20	-1.00000e+00	7.598352e-07	
21	-1.05000e+00	7.634670e-07	
22	-1.10000e+00	7.670353e-07	
23	-1.15000e+00	7.705438e-07	
24	-1.20000e+00	7.739961e-07	
25	-1.25000e+00	7.773952e-07	
26	-1.30000e+00	7.807439e-07	
27	-1.35000e+00	7.840447e-07	
28	-1.40000e+00	7.873000e-07	
29	-1.45000e+00	7.905120e-07	
30	-1.50000e+00	7.936827e-07	
31	-1.55000e+00	7.968138e-07	
32	-1.60000e+00	7.999073e-07	
33	-1.65000e+00	8.029646e-07	
34	-1.70000e+00	8.059873e-07	
35	-1.75000e+00	8.089769e-07	
36	-1.80000e+00	8.119346e-07	
37	-1.85000e+00	8.148618e-07	
38	-1.90000e+00	8.177596e-07	
39	-1.95000e+00	8.206292e-07	
40	-2.00000e+00	8.234716e-07	
41	-2.05000e+00	8.262879e-07	
42	-2.10000e+00	8.290789e-07	
43	-2.15000e+00	8.318457e-07	
44	-2.20000e+00	8.345890e-07	
45	-2.25000e+00	8.373096e-07	
46	-2.30000e+00	8.400085e-07	
47	-2.35000e+00	8.426862e-07	
48	-2.40000e+00	8.453436e-07	
49	-2.45000e+00	8.479812e-07	
50	-2.50000e+00	8.505998e-07	
51	-2.55000e+00	8.531998e-07	
52	-2.60000e+00	8.557821e-07	
53	-2.65000e+00	8.583470e-07	
54	-2.70000e+00	8.608951e-07	

Index   v-sweep         i(vds)          
--------------------------------------------------------------------------------
55	-2.75000e+00	8.634270e-07	
56	-2.80000e+00	8.659431e-07	
57	-2.85000e+00	8.684439e-07	
58	-2.90000e+00	8.709299e-07	
59	-2.95000e+00	8.734015e-07	
60	-3.00000e+00	8.758592e-07	
61	-3.05000e+00	8.783033e-07	
62	-3.10000e+00	8.807342e-07	
63	-3.15000e+00	8.831525e-07	
64	-3.20000e+00	8.855583e-07	
65	-3.25000e+00	8.879522e-07	
66	-3.30000e+00	8.903345e-07	
67	-3.35000e+00	8.927055e-07	
68	-3.40000e+00	8.950657e-07	
69	-3.45000e+00	8.974154e-07	
70	-3.50000e+00	8.997550e-07	
71	-3.55000e+00	9.020849e-07	
72	-3.60000e+00	9.044056e-07	
73	-3.65000e+00	9.067174e-07	
74	-3.70000e+00	9.090209e-07	
75	-3.75000e+00	9.113164e-07	
76	-3.80000e+00	9.136046e-07	
77	-3.85000e+00	9.158860e-07	
78	-3.90000e+00	9.181612e-07	
79	-3.95000e+00	9.204308e-07	
80	-4.00000e+00	9.226957e-07	
81	-4.05000e+00	9.249565e-07	
82	-4.10000e+00	9.272142e-07	
83	-4.15000e+00	9.294697e-07	
84	-4.20000e+00	9.317241e-07	
85	-4.25000e+00	9.339784e-07	
86	-4.30000e+00	9.362339e-07	
87	-4.35000e+00	9.384921e-07	
88	-4.40000e+00	9.407543e-07	
89	-4.45000e+00	9.430223e-07	
90	-4.50000e+00	9.452977e-07	
91	-4.55000e+00	9.475827e-07	
92	-4.60000e+00	9.498791e-07	
93	-4.65000e+00	9.521895e-07	
94	-4.70000e+00	9.545161e-07	
95	-4.75000e+00	9.568618e-07	
96	-4.80000e+00	9.592293e-07	
97	-4.85000e+00	9.616218e-07	
98	-4.90000e+00	9.640427e-07	
99	-4.95000e+00	9.664955e-07	
100	-5.00000e+00	9.689841e-07	
101	-5.05000e+00	9.715126e-07	
102	-5.10000e+00	9.740854e-07	
103	-5.15000e+00	9.767071e-07	
104	-5.20000e+00	9.793828e-07	
105	-5.25000e+00	9.821176e-07	
106	-5.30000e+00	9.849173e-07	
107	-5.35000e+00	9.877876e-07	
108	-5.40000e+00	9.907349e-07	
109	-5.45000e+00	9.937658e-07	
110	-5.50000e+00	9.968871e-07	
111	-5.55000e+00	1.000106e-06	
112	-5.60000e+00	1.003431e-06	

Index   v-sweep         i(vds)          
--------------------------------------------------------------------------------
113	-5.65000e+00	1.006869e-06	
114	-5.70000e+00	1.010430e-06	
115	-5.75000e+00	1.014121e-06	
116	-5.80000e+00	1.017952e-06	
117	-5.85000e+00	1.021933e-06	
118	-5.90000e+00	1.026074e-06	
119	-5.95000e+00	1.030385e-06	
120	-6.00000e+00	1.034877e-06	
121	-6.05000e+00	1.039561e-06	
122	-6.10000e+00	1.044450e-06	
123	-6.15000e+00	1.049555e-06	
124	-6.20000e+00	1.054889e-06	
125	-6.25000e+00	1.060465e-06	
126	-6.30000e+00	1.066297e-06	
127	-6.35000e+00	1.072398e-06	
128	-6.40000e+00	1.078782e-06	
129	-6.45000e+00	1.085466e-06	
130	-6.50000e+00	1.092463e-06	
131	-6.55000e+00	1.099790e-06	
132	-6.60000e+00	1.107463e-06	
133	0.000000e+00	-5.40209e-23	
134	-5.00000e-02	6.391698e-07	
135	-1.00000e-01	1.247035e-06	
136	-1.50000e-01	1.825551e-06	
137	-2.00000e-01	2.375216e-06	
138	-2.50000e-01	2.896174e-06	
139	-3.00000e-01	3.388482e-06	
140	-3.50000e-01	3.852178e-06	
141	-4.00000e-01	4.287298e-06	
142	-4.50000e-01	4.693877e-06	
143	-5.00000e-01	5.071958e-06	
144	-5.50000e-01	5.421588e-06	
145	-6.00000e-01	5.742825e-06	
146	-6.50000e-01	6.035743e-06	
147	-7.00000e-01	6.300443e-06	
148	-7.50000e-01	6.537068e-06	
149	-8.00000e-01	6.745841e-06	
150	-8.50000e-01	6.927125e-06	
151	-9.00000e-01	7.081537e-06	
152	-9.50000e-01	7.210165e-06	
153	-1.00000e+00	7.314905e-06	
154	-1.05000e+00	7.398825e-06	
155	-1.10000e+00	7.466191e-06	
156	-1.15000e+00	7.521740e-06	
157	-1.20000e+00	7.569552e-06	
158	-1.25000e+00	7.612453e-06	
159	-1.30000e+00	7.652145e-06	
160	-1.35000e+00	7.689595e-06	
161	-1.40000e+00	7.725354e-06	
162	-1.45000e+00	7.759753e-06	
163	-1.50000e+00	7.793002e-06	
164	-1.55000e+00	7.825245e-06	
165	-1.60000e+00	7.856585e-06	
166	-1.65000e+00	7.887103e-06	
167	-1.70000e+00	7.916862e-06	
168	-1.75000e+00	7.945916e-06	
169	-1.80000e+00	7.974311e-06	
170	-1.85000e+00	8.002087e-06	

Index   v-sweep         i(vds)          
--------------------------------------------------------------------------------
171	-1.90000e+00	8.029280e-06	
172	-1.95000e+00	8.055921e-06	
173	-2.00000e+00	8.082039e-06	
174	-2.05000e+00	8.107660e-06	
175	-2.10000e+00	8.132810e-06	
176	-2.15000e+00	8.157510e-06	
177	-2.20000e+00	8.181781e-06	
178	-2.25000e+00	8.205642e-06	
179	-2.30000e+00	8.229112e-06	
180	-2.35000e+00	8.252206e-06	
181	-2.40000e+00	8.274940e-06	
182	-2.45000e+00	8.297330e-06	
183	-2.50000e+00	8.319389e-06	
184	-2.55000e+00	8.341130e-06	
185	-2.60000e+00	8.362565e-06	
186	-2.65000e+00	8.383706e-06	
187	-2.70000e+00	8.404563e-06	
188	-2.75000e+00	8.425148e-06	
189	-2.80000e+00	8.445468e-06	
190	-2.85000e+00	8.465535e-06	
191	-2.90000e+00	8.485356e-06	
192	-2.95000e+00	8.504941e-06	
193	-3.00000e+00	8.524296e-06	
194	-3.05000e+00	8.543429e-06	
195	-3.10000e+00	8.562348e-06	
196	-3.15000e+00	8.581059e-06	
197	-3.20000e+00	8.599570e-06	
198	-3.25000e+00	8.617885e-06	
199	-3.30000e+00	8.636011e-06	
200	-3.35000e+00	8.653954e-06	
201	-3.40000e+00	8.671719e-06	
202	-3.45000e+00	8.689312e-06	
203	-3.50000e+00	8.706736e-06	
204	-3.55000e+00	8.723998e-06	
205	-3.60000e+00	8.741102e-06	
206	-3.65000e+00	8.758052e-06	
207	-3.70000e+00	8.774852e-06	
208	-3.75000e+00	8.791507e-06	
209	-3.80000e+00	8.808021e-06	
210	-3.85000e+00	8.824397e-06	
211	-3.90000e+00	8.840639e-06	
212	-3.95000e+00	8.856751e-06	
213	-4.00000e+00	8.872737e-06	
214	-4.05000e+00	8.888601e-06	
215	-4.10000e+00	8.904346e-06	
216	-4.15000e+00	8.919975e-06	
217	-4.20000e+00	8.935493e-06	
218	-4.25000e+00	8.950904e-06	
219	-4.30000e+00	8.966210e-06	
220	-4.35000e+00	8.981417e-06	
221	-4.40000e+00	8.996529e-06	
222	-4.45000e+00	9.011550e-06	
223	-4.50000e+00	9.026485e-06	
224	-4.55000e+00	9.041340e-06	
225	-4.60000e+00	9.056120e-06	
226	-4.65000e+00	9.070830e-06	
227	-4.70000e+00	9.085479e-06	
228	-4.75000e+00	9.100072e-06	

Index   v-sweep         i(vds)          
--------------------------------------------------------------------------------
229	-4.80000e+00	9.114619e-06	
230	-4.85000e+00	9.129126e-06	
231	-4.90000e+00	9.143605e-06	
232	-4.95000e+00	9.158065e-06	
233	-5.00000e+00	9.172517e-06	
234	-5.05000e+00	9.186974e-06	
235	-5.10000e+00	9.201450e-06	
236	-5.15000e+00	9.215959e-06	
237	-5.20000e+00	9.230517e-06	
238	-5.25000e+00	9.245142e-06	
239	-5.30000e+00	9.259853e-06	
240	-5.35000e+00	9.274671e-06	
241	-5.40000e+00	9.289617e-06	
242	-5.45000e+00	9.304717e-06	
243	-5.50000e+00	9.319996e-06	
244	-5.55000e+00	9.335482e-06	
245	-5.60000e+00	9.351205e-06	
246	-5.65000e+00	9.367199e-06	
247	-5.70000e+00	9.383498e-06	
248	-5.75000e+00	9.400138e-06	
249	-5.80000e+00	9.417159e-06	
250	-5.85000e+00	9.434604e-06	
251	-5.90000e+00	9.452517e-06	
252	-5.95000e+00	9.470946e-06	
253	-6.00000e+00	9.489941e-06	
254	-6.05000e+00	9.509556e-06	
255	-6.10000e+00	9.529846e-06	
256	-6.15000e+00	9.550871e-06	
257	-6.20000e+00	9.572694e-06	
258	-6.25000e+00	9.595380e-06	
259	-6.30000e+00	9.618998e-06	
260	-6.35000e+00	9.643620e-06	
261	-6.40000e+00	9.669323e-06	
262	-6.45000e+00	9.696184e-06	
263	-6.50000e+00	9.724287e-06	
264	-6.55000e+00	9.753718e-06	
265	-6.60000e+00	9.784567e-06	
266	0.000000e+00	-5.82121e-22	
267	-5.00000e-02	1.016506e-06	
268	-1.00000e-01	2.003805e-06	
269	-1.50000e-01	2.963751e-06	
270	-2.00000e-01	3.896815e-06	
271	-2.50000e-01	4.803125e-06	
272	-3.00000e-01	5.682717e-06	
273	-3.50000e-01	6.535610e-06	
274	-4.00000e-01	7.361815e-06	
275	-4.50000e-01	8.161344e-06	
276	-5.00000e-01	8.934209e-06	
277	-5.50000e-01	9.680420e-06	
278	-6.00000e-01	1.039999e-05	
279	-6.50000e-01	1.109293e-05	
280	-7.00000e-01	1.175926e-05	
281	-7.50000e-01	1.239898e-05	
282	-8.00000e-01	1.301212e-05	
283	-8.50000e-01	1.359869e-05	
284	-9.00000e-01	1.415871e-05	
285	-9.50000e-01	1.469219e-05	
286	-1.00000e+00	1.519917e-05	

Index   v-sweep         i(vds)          
--------------------------------------------------------------------------------
287	-1.05000e+00	1.567966e-05	
288	-1.10000e+00	1.613370e-05	
289	-1.15000e+00	1.656132e-05	
290	-1.20000e+00	1.696257e-05	
291	-1.25000e+00	1.733752e-05	
292	-1.30000e+00	1.768624e-05	
293	-1.35000e+00	1.800885e-05	
294	-1.40000e+00	1.830550e-05	
295	-1.45000e+00	1.857644e-05	
296	-1.50000e+00	1.882200e-05	
297	-1.55000e+00	1.904275e-05	
298	-1.60000e+00	1.923953e-05	
299	-1.65000e+00	1.941364e-05	
300	-1.70000e+00	1.956702e-05	
301	-1.75000e+00	1.970227e-05	
302	-1.80000e+00	1.982257e-05	
303	-1.85000e+00	1.993117e-05	
304	-1.90000e+00	2.003095e-05	
305	-1.95000e+00	2.012415e-05	
306	-2.00000e+00	2.021230e-05	
307	-2.05000e+00	2.029645e-05	
308	-2.10000e+00	2.037731e-05	
309	-2.15000e+00	2.045533e-05	
310	-2.20000e+00	2.053087e-05	
311	-2.25000e+00	2.060417e-05	
312	-2.30000e+00	2.067544e-05	
313	-2.35000e+00	2.074482e-05	
314	-2.40000e+00	2.081245e-05	
315	-2.45000e+00	2.087846e-05	
316	-2.50000e+00	2.094293e-05	
317	-2.55000e+00	2.100597e-05	
318	-2.60000e+00	2.106763e-05	
319	-2.65000e+00	2.112801e-05	
320	-2.70000e+00	2.118717e-05	
321	-2.75000e+00	2.124517e-05	
322	-2.80000e+00	2.130205e-05	
323	-2.85000e+00	2.135789e-05	
324	-2.90000e+00	2.141271e-05	
325	-2.95000e+00	2.146658e-05	
326	-3.00000e+00	2.151952e-05	
327	-3.05000e+00	2.157158e-05	
328	-3.10000e+00	2.162280e-05	
329	-3.15000e+00	2.167321e-05	
330	-3.20000e+00	2.172283e-05	
331	-3.25000e+00	2.177172e-05	
332	-3.30000e+00	2.181988e-05	
333	-3.35000e+00	2.186735e-05	
334	-3.40000e+00	2.191415e-05	
335	-3.45000e+00	2.196031e-05	
336	-3.50000e+00	2.200585e-05	
337	-3.55000e+00	2.205079e-05	
338	-3.60000e+00	2.209516e-05	
339	-3.65000e+00	2.213896e-05	
340	-3.70000e+00	2.218223e-05	
341	-3.75000e+00	2.222497e-05	
342	-3.80000e+00	2.226721e-05	
343	-3.85000e+00	2.230896e-05	
344	-3.90000e+00	2.235024e-05	

Index   v-sweep         i(vds)          
--------------------------------------------------------------------------------
345	-3.95000e+00	2.239105e-05	
346	-4.00000e+00	2.243142e-05	
347	-4.05000e+00	2.247136e-05	
348	-4.10000e+00	2.251088e-05	
349	-4.15000e+00	2.254999e-05	
350	-4.20000e+00	2.258871e-05	
351	-4.25000e+00	2.262704e-05	
352	-4.30000e+00	2.266500e-05	
353	-4.35000e+00	2.270260e-05	
354	-4.40000e+00	2.273984e-05	
355	-4.45000e+00	2.277674e-05	
356	-4.50000e+00	2.281331e-05	
357	-4.55000e+00	2.284955e-05	
358	-4.60000e+00	2.288548e-05	
359	-4.65000e+00	2.292110e-05	
360	-4.70000e+00	2.295642e-05	
361	-4.75000e+00	2.299145e-05	
362	-4.80000e+00	2.302621e-05	
363	-4.85000e+00	2.306069e-05	
364	-4.90000e+00	2.309491e-05	
365	-4.95000e+00	2.312887e-05	
366	-5.00000e+00	2.316259e-05	
367	-5.05000e+00	2.319608e-05	
368	-5.10000e+00	2.322935e-05	
369	-5.15000e+00	2.326240e-05	
370	-5.20000e+00	2.329525e-05	
371	-5.25000e+00	2.332792e-05	
372	-5.30000e+00	2.336042e-05	
373	-5.35000e+00	2.339275e-05	
374	-5.40000e+00	2.342495e-05	
375	-5.45000e+00	2.345703e-05	
376	-5.50000e+00	2.348900e-05	
377	-5.55000e+00	2.352089e-05	
378	-5.60000e+00	2.355273e-05	
379	-5.65000e+00	2.358453e-05	
380	-5.70000e+00	2.361634e-05	
381	-5.75000e+00	2.364817e-05	
382	-5.80000e+00	2.368007e-05	
383	-5.85000e+00	2.371208e-05	
384	-5.90000e+00	2.374422e-05	
385	-5.95000e+00	2.377656e-05	
386	-6.00000e+00	2.380913e-05	
387	-6.05000e+00	2.384199e-05	
388	-6.10000e+00	2.387520e-05	
389	-6.15000e+00	2.390882e-05	
390	-6.20000e+00	2.394291e-05	
391	-6.25000e+00	2.397755e-05	
392	-6.30000e+00	2.401282e-05	
393	-6.35000e+00	2.404879e-05	
394	-6.40000e+00	2.408556e-05	
395	-6.45000e+00	2.412321e-05	
396	-6.50000e+00	2.416186e-05	
397	-6.55000e+00	2.420161e-05	
398	-6.60000e+00	2.424256e-05	
399	0.000000e+00	-1.72532e-21	
400	-5.00000e-02	1.333866e-06	
401	-1.00000e-01	2.640682e-06	
402	-1.50000e-01	3.922222e-06	

Index   v-sweep         i(vds)          
--------------------------------------------------------------------------------
403	-2.00000e-01	5.178942e-06	
404	-2.50000e-01	6.410960e-06	
405	-3.00000e-01	7.618308e-06	
406	-3.50000e-01	8.800993e-06	
407	-4.00000e-01	9.959019e-06	
408	-4.50000e-01	1.109239e-05	
409	-5.00000e-01	1.220110e-05	
410	-5.50000e-01	1.328517e-05	
411	-6.00000e-01	1.434458e-05	
412	-6.50000e-01	1.537934e-05	
413	-7.00000e-01	1.638946e-05	
414	-7.50000e-01	1.737493e-05	
415	-8.00000e-01	1.833576e-05	
416	-8.50000e-01	1.927196e-05	
417	-9.00000e-01	2.018352e-05	
418	-9.50000e-01	2.107045e-05	
419	-1.00000e+00	2.193276e-05	
420	-1.05000e+00	2.277044e-05	
421	-1.10000e+00	2.358351e-05	
422	-1.15000e+00	2.437196e-05	
423	-1.20000e+00	2.513581e-05	
424	-1.25000e+00	2.587506e-05	
425	-1.30000e+00	2.658971e-05	
426	-1.35000e+00	2.727979e-05	
427	-1.40000e+00	2.794528e-05	
428	-1.45000e+00	2.858621e-05	
429	-1.50000e+00	2.920259e-05	
430	-1.55000e+00	2.979443e-05	
431	-1.60000e+00	3.036174e-05	
432	-1.65000e+00	3.090456e-05	
433	-1.70000e+00	3.142290e-05	
434	-1.75000e+00	3.191679e-05	
435	-1.80000e+00	3.238629e-05	
436	-1.85000e+00	3.283142e-05	
437	-1.90000e+00	3.325228e-05	
438	-1.95000e+00	3.364894e-05	
439	-2.00000e+00	3.402153e-05	
440	-2.05000e+00	3.437024e-05	
441	-2.10000e+00	3.469529e-05	
442	-2.15000e+00	3.499706e-05	
443	-2.20000e+00	3.527606e-05	
444	-2.25000e+00	3.553304e-05	
445	-2.30000e+00	3.576905e-05	
446	-2.35000e+00	3.598557e-05	
447	-2.40000e+00	3.618451e-05	
448	-2.45000e+00	3.636811e-05	
449	-2.50000e+00	3.653879e-05	
450	-2.55000e+00	3.669885e-05	
451	-2.60000e+00	3.685024e-05	
452	-2.65000e+00	3.699452e-05	
453	-2.70000e+00	3.713283e-05	
454	-2.75000e+00	3.726602e-05	
455	-2.80000e+00	3.739471e-05	
456	-2.85000e+00	3.751938e-05	
457	-2.90000e+00	3.764040e-05	
458	-2.95000e+00	3.775806e-05	
459	-3.00000e+00	3.787261e-05	
460	-3.05000e+00	3.798427e-05	

Index   v-sweep         i(vds)          
--------------------------------------------------------------------------------
461	-3.10000e+00	3.809321e-05	
462	-3.15000e+00	3.819960e-05	
463	-3.20000e+00	3.830358e-05	
464	-3.25000e+00	3.840529e-05	
465	-3.30000e+00	3.850485e-05	
466	-3.35000e+00	3.860236e-05	
467	-3.40000e+00	3.869793e-05	
468	-3.45000e+00	3.879164e-05	
469	-3.50000e+00	3.888359e-05	
470	-3.55000e+00	3.897386e-05	
471	-3.60000e+00	3.906251e-05	
472	-3.65000e+00	3.914963e-05	
473	-3.70000e+00	3.923527e-05	
474	-3.75000e+00	3.931950e-05	
475	-3.80000e+00	3.940237e-05	
476	-3.85000e+00	3.948394e-05	
477	-3.90000e+00	3.956425e-05	
478	-3.95000e+00	3.964337e-05	
479	-4.00000e+00	3.972132e-05	
480	-4.05000e+00	3.979816e-05	
481	-4.10000e+00	3.987392e-05	
482	-4.15000e+00	3.994865e-05	
483	-4.20000e+00	4.002237e-05	
484	-4.25000e+00	4.009513e-05	
485	-4.30000e+00	4.016696e-05	
486	-4.35000e+00	4.023788e-05	
487	-4.40000e+00	4.030793e-05	
488	-4.45000e+00	4.037713e-05	
489	-4.50000e+00	4.044552e-05	
490	-4.55000e+00	4.051311e-05	
491	-4.60000e+00	4.057994e-05	
492	-4.65000e+00	4.064602e-05	
493	-4.70000e+00	4.071138e-05	
494	-4.75000e+00	4.077603e-05	
495	-4.80000e+00	4.084001e-05	
496	-4.85000e+00	4.090332e-05	
497	-4.90000e+00	4.096599e-05	
498	-4.95000e+00	4.102804e-05	
499	-5.00000e+00	4.108948e-05	
500	-5.05000e+00	4.115033e-05	
501	-5.10000e+00	4.121061e-05	
502	-5.15000e+00	4.127032e-05	
503	-5.20000e+00	4.132950e-05	
504	-5.25000e+00	4.138815e-05	
505	-5.30000e+00	4.144628e-05	
506	-5.35000e+00	4.150392e-05	
507	-5.40000e+00	4.156107e-05	
508	-5.45000e+00	4.161776e-05	
509	-5.50000e+00	4.167399e-05	
510	-5.55000e+00	4.172978e-05	
511	-5.60000e+00	4.178514e-05	
512	-5.65000e+00	4.184010e-05	
513	-5.70000e+00	4.189467e-05	
514	-5.75000e+00	4.194886e-05	
515	-5.80000e+00	4.200270e-05	
516	-5.85000e+00	4.205621e-05	
517	-5.90000e+00	4.210940e-05	
518	-5.95000e+00	4.216230e-05	

Index   v-sweep         i(vds)          
--------------------------------------------------------------------------------
519	-6.00000e+00	4.221494e-05	
520	-6.05000e+00	4.226734e-05	
521	-6.10000e+00	4.231954e-05	
522	-6.15000e+00	4.237157e-05	
523	-6.20000e+00	4.242347e-05	
524	-6.25000e+00	4.247527e-05	
525	-6.30000e+00	4.252702e-05	
526	-6.35000e+00	4.257877e-05	
527	-6.40000e+00	4.263057e-05	
528	-6.45000e+00	4.268249e-05	
529	-6.50000e+00	4.273458e-05	
530	-6.55000e+00	4.278692e-05	
531	-6.60000e+00	4.283958e-05	
532	0.000000e+00	1.673667e-25	
533	-5.00000e-02	1.603875e-06	
534	-1.00000e-01	3.182680e-06	
535	-1.50000e-01	4.738127e-06	
536	-2.00000e-01	6.270659e-06	
537	-2.50000e-01	7.780392e-06	
538	-3.00000e-01	9.267350e-06	
539	-3.50000e-01	1.073154e-05	
540	-4.00000e-01	1.217296e-05	
541	-4.50000e-01	1.359161e-05	
542	-5.00000e-01	1.498748e-05	
543	-5.50000e-01	1.636057e-05	
544	-6.00000e-01	1.771088e-05	
545	-6.50000e-01	1.903841e-05	
546	-7.00000e-01	2.034315e-05	
547	-7.50000e-01	2.162509e-05	
548	-8.00000e-01	2.288425e-05	
549	-8.50000e-01	2.412061e-05	
550	-9.00000e-01	2.533418e-05	
551	-9.50000e-01	2.652494e-05	
552	-1.00000e+00	2.769291e-05	
553	-1.05000e+00	2.883807e-05	
554	-1.10000e+00	2.996043e-05	
555	-1.15000e+00	3.105998e-05	
556	-1.20000e+00	3.213672e-05	
557	-1.25000e+00	3.319065e-05	
558	-1.30000e+00	3.422178e-05	
559	-1.35000e+00	3.523009e-05	
560	-1.40000e+00	3.621559e-05	
561	-1.45000e+00	3.717827e-05	
562	-1.50000e+00	3.811815e-05	
563	-1.55000e+00	3.903521e-05	
564	-1.60000e+00	3.992946e-05	
565	-1.65000e+00	4.080089e-05	
566	-1.70000e+00	4.164952e-05	
567	-1.75000e+00	4.247534e-05	
568	-1.80000e+00	4.327835e-05	
569	-1.85000e+00	4.405856e-05	
570	-1.90000e+00	4.481596e-05	
571	-1.95000e+00	4.555058e-05	
572	-2.00000e+00	4.626240e-05	
573	-2.05000e+00	4.695144e-05	
574	-2.10000e+00	4.761771e-05	
575	-2.15000e+00	4.826122e-05	
576	-2.20000e+00	4.888197e-05	

Index   v-sweep         i(vds)          
--------------------------------------------------------------------------------
577	-2.25000e+00	4.948000e-05	
578	-2.30000e+00	5.005532e-05	
579	-2.35000e+00	5.060796e-05	
580	-2.40000e+00	5.113795e-05	
581	-2.45000e+00	5.164534e-05	
582	-2.50000e+00	5.213018e-05	
583	-2.55000e+00	5.259257e-05	
584	-2.60000e+00	5.303259e-05	
585	-2.65000e+00	5.345040e-05	
586	-2.70000e+00	5.384617e-05	
587	-2.75000e+00	5.422017e-05	
588	-2.80000e+00	5.457275e-05	
589	-2.85000e+00	5.490443e-05	
590	-2.90000e+00	5.521586e-05	
591	-2.95000e+00	5.550799e-05	
592	-3.00000e+00	5.578200e-05	
593	-3.05000e+00	5.603938e-05	
594	-3.10000e+00	5.628183e-05	
595	-3.15000e+00	5.651120e-05	
596	-3.20000e+00	5.672923e-05	
597	-3.25000e+00	5.693751e-05	
598	-3.30000e+00	5.713736e-05	
599	-3.35000e+00	5.732986e-05	
600	-3.40000e+00	5.751582e-05	
601	-3.45000e+00	5.769591e-05	
602	-3.50000e+00	5.787065e-05	
603	-3.55000e+00	5.804048e-05	
604	-3.60000e+00	5.820574e-05	
605	-3.65000e+00	5.836676e-05	
606	-3.70000e+00	5.852379e-05	
607	-3.75000e+00	5.867708e-05	
608	-3.80000e+00	5.882684e-05	
609	-3.85000e+00	5.897326e-05	
610	-3.90000e+00	5.911652e-05	
611	-3.95000e+00	5.925678e-05	
612	-4.00000e+00	5.939419e-05	
613	-4.05000e+00	5.952888e-05	
614	-4.10000e+00	5.966099e-05	
615	-4.15000e+00	5.979063e-05	
616	-4.20000e+00	5.991791e-05	
617	-4.25000e+00	6.004293e-05	
618	-4.30000e+00	6.016580e-05	
619	-4.35000e+00	6.028660e-05	
620	-4.40000e+00	6.040541e-05	
621	-4.45000e+00	6.052232e-05	
622	-4.50000e+00	6.063740e-05	
623	-4.55000e+00	6.075072e-05	
624	-4.60000e+00	6.086235e-05	
625	-4.65000e+00	6.097236e-05	
626	-4.70000e+00	6.108079e-05	
627	-4.75000e+00	6.118771e-05	
628	-4.80000e+00	6.129316e-05	
629	-4.85000e+00	6.139721e-05	
630	-4.90000e+00	6.149990e-05	
631	-4.95000e+00	6.160128e-05	
632	-5.00000e+00	6.170138e-05	
633	-5.05000e+00	6.180025e-05	
634	-5.10000e+00	6.189793e-05	

Index   v-sweep         i(vds)          
--------------------------------------------------------------------------------
635	-5.15000e+00	6.199446e-05	
636	-5.20000e+00	6.208987e-05	
637	-5.25000e+00	6.218420e-05	
638	-5.30000e+00	6.227747e-05	
639	-5.35000e+00	6.236973e-05	
640	-5.40000e+00	6.246099e-05	
641	-5.45000e+00	6.255130e-05	
642	-5.50000e+00	6.264067e-05	
643	-5.55000e+00	6.272914e-05	
644	-5.60000e+00	6.281672e-05	
645	-5.65000e+00	6.290345e-05	
646	-5.70000e+00	6.298934e-05	
647	-5.75000e+00	6.307443e-05	
648	-5.80000e+00	6.315872e-05	
649	-5.85000e+00	6.324225e-05	
650	-5.90000e+00	6.332503e-05	
651	-5.95000e+00	6.340709e-05	
652	-6.00000e+00	6.348845e-05	
653	-6.05000e+00	6.356912e-05	
654	-6.10000e+00	6.364912e-05	
655	-6.15000e+00	6.372849e-05	
656	-6.20000e+00	6.380724e-05	
657	-6.25000e+00	6.388538e-05	
658	-6.30000e+00	6.396295e-05	
659	-6.35000e+00	6.403997e-05	
660	-6.40000e+00	6.411646e-05	
661	-6.45000e+00	6.419246e-05	
662	-6.50000e+00	6.426798e-05	
663	-6.55000e+00	6.434306e-05	
664	-6.60000e+00	6.441774e-05	
665	0.000000e+00	1.410872e-20	
666	-5.00000e-02	1.836024e-06	
667	-1.00000e-01	3.648750e-06	
668	-1.50000e-01	5.439838e-06	
669	-2.00000e-01	7.209723e-06	
670	-2.50000e-01	8.958518e-06	
671	-3.00000e-01	1.068625e-05	
672	-3.50000e-01	1.239291e-05	
673	-4.00000e-01	1.407851e-05	
674	-4.50000e-01	1.574304e-05	
675	-5.00000e-01	1.738649e-05	
676	-5.50000e-01	1.900885e-05	
677	-6.00000e-01	2.061013e-05	
678	-6.50000e-01	2.219031e-05	
679	-7.00000e-01	2.374939e-05	
680	-7.50000e-01	2.528737e-05	
681	-8.00000e-01	2.680423e-05	
682	-8.50000e-01	2.829998e-05	
683	-9.00000e-01	2.977461e-05	
684	-9.50000e-01	3.122811e-05	
685	-1.00000e+00	3.266048e-05	
686	-1.05000e+00	3.407171e-05	
687	-1.10000e+00	3.546180e-05	
688	-1.15000e+00	3.683074e-05	
689	-1.20000e+00	3.817853e-05	
690	-1.25000e+00	3.950516e-05	
691	-1.30000e+00	4.081064e-05	
692	-1.35000e+00	4.209494e-05	

Index   v-sweep         i(vds)          
--------------------------------------------------------------------------------
693	-1.40000e+00	4.335808e-05	
694	-1.45000e+00	4.460004e-05	
695	-1.50000e+00	4.582083e-05	
696	-1.55000e+00	4.702043e-05	
697	-1.60000e+00	4.819884e-05	
698	-1.65000e+00	4.935606e-05	
699	-1.70000e+00	5.049209e-05	
700	-1.75000e+00	5.160692e-05	
701	-1.80000e+00	5.270054e-05	
702	-1.85000e+00	5.377296e-05	
703	-1.90000e+00	5.482417e-05	
704	-1.95000e+00	5.585417e-05	
705	-2.00000e+00	5.686296e-05	
706	-2.05000e+00	5.785052e-05	
707	-2.10000e+00	5.881687e-05	
708	-2.15000e+00	5.976200e-05	
709	-2.20000e+00	6.068590e-05	
710	-2.25000e+00	6.158857e-05	
711	-2.30000e+00	6.247002e-05	
712	-2.35000e+00	6.333025e-05	
713	-2.40000e+00	6.416925e-05	
714	-2.45000e+00	6.498702e-05	
715	-2.50000e+00	6.578357e-05	
716	-2.55000e+00	6.655891e-05	
717	-2.60000e+00	6.731302e-05	
718	-2.65000e+00	6.804593e-05	
719	-2.70000e+00	6.875763e-05	
720	-2.75000e+00	6.944814e-05	
721	-2.80000e+00	7.011746e-05	
722	-2.85000e+00	7.076562e-05	
723	-2.90000e+00	7.139263e-05	
724	-2.95000e+00	7.199852e-05	
725	-3.00000e+00	7.258332e-05	
726	-3.05000e+00	7.314707e-05	
727	-3.10000e+00	7.368982e-05	
728	-3.15000e+00	7.421163e-05	
729	-3.20000e+00	7.471261e-05	
730	-3.25000e+00	7.519285e-05	
731	-3.30000e+00	7.565252e-05	
732	-3.35000e+00	7.609181e-05	
733	-3.40000e+00	7.651099e-05	
734	-3.45000e+00	7.691042e-05	
735	-3.50000e+00	7.729057e-05	
736	-3.55000e+00	7.765206e-05	
737	-3.60000e+00	7.799570e-05	
738	-3.65000e+00	7.832249e-05	
739	-3.70000e+00	7.863362e-05	
740	-3.75000e+00	7.893042e-05	
741	-3.80000e+00	7.921430e-05	
742	-3.85000e+00	7.948661e-05	
743	-3.90000e+00	7.974862e-05	
744	-3.95000e+00	8.000140e-05	
745	-4.00000e+00	8.024587e-05	
746	-4.05000e+00	8.048278e-05	
747	-4.10000e+00	8.071277e-05	
748	-4.15000e+00	8.093635e-05	
749	-4.20000e+00	8.115396e-05	
750	-4.25000e+00	8.136601e-05	

Index   v-sweep         i(vds)          
--------------------------------------------------------------------------------
751	-4.30000e+00	8.157282e-05	
752	-4.35000e+00	8.177471e-05	
753	-4.40000e+00	8.197194e-05	
754	-4.45000e+00	8.216477e-05	
755	-4.50000e+00	8.235343e-05	
756	-4.55000e+00	8.253812e-05	
757	-4.60000e+00	8.271904e-05	
758	-4.65000e+00	8.289637e-05	
759	-4.70000e+00	8.307027e-05	
760	-4.75000e+00	8.324091e-05	
761	-4.80000e+00	8.340842e-05	
762	-4.85000e+00	8.357295e-05	
763	-4.90000e+00	8.373462e-05	
764	-4.95000e+00	8.389354e-05	
765	-5.00000e+00	8.404984e-05	
766	-5.05000e+00	8.420362e-05	
767	-5.10000e+00	8.435497e-05	
768	-5.15000e+00	8.450400e-05	
769	-5.20000e+00	8.465078e-05	
770	-5.25000e+00	8.479541e-05	
771	-5.30000e+00	8.493796e-05	
772	-5.35000e+00	8.507850e-05	
773	-5.40000e+00	8.521711e-05	
774	-5.45000e+00	8.535386e-05	
775	-5.50000e+00	8.548881e-05	
776	-5.55000e+00	8.562201e-05	
777	-5.60000e+00	8.575353e-05	
778	-5.65000e+00	8.588342e-05	
779	-5.70000e+00	8.601174e-05	
780	-5.75000e+00	8.613853e-05	
781	-5.80000e+00	8.626384e-05	
782	-5.85000e+00	8.638772e-05	
783	-5.90000e+00	8.651021e-05	
784	-5.95000e+00	8.663135e-05	
785	-6.00000e+00	8.675119e-05	
786	-6.05000e+00	8.686975e-05	
787	-6.10000e+00	8.698708e-05	
788	-6.15000e+00	8.710320e-05	
789	-6.20000e+00	8.721817e-05	
790	-6.25000e+00	8.733200e-05	
791	-6.30000e+00	8.744473e-05	
792	-6.35000e+00	8.755638e-05	
793	-6.40000e+00	8.766700e-05	
794	-6.45000e+00	8.777660e-05	
795	-6.50000e+00	8.788521e-05	
796	-6.55000e+00	8.799287e-05	
797	-6.60000e+00	8.809959e-05	
Note: No ".plot", ".print", or ".fourier" lines; no simulations run
