
Note: Compatibility modes selected: hs

Warning: m=xx on .subckt line will override multiplier m hierarchy!


Circuit: ***************************

Doing analysis at TEMP = 25.000000 and TNOM = 25.000000


No. of Data Rows : 798
                          ***************************
                          DC transfer characteristic  Mon Jan  9 13:58:50  2023
--------------------------------------------------------------------------------
Index   v-sweep         i(vds)          
--------------------------------------------------------------------------------
0	0.000000e+00	-1.11221e-31	
1	-5.00000e-02	3.574698e-06	
2	-1.00000e-01	5.820931e-06	
3	-1.50000e-01	6.918438e-06	
4	-2.00000e-01	7.326529e-06	
5	-2.50000e-01	7.504151e-06	
6	-3.00000e-01	7.621399e-06	
7	-3.50000e-01	7.718176e-06	
8	-4.00000e-01	7.805147e-06	
9	-4.50000e-01	7.886111e-06	
10	-5.00000e-01	7.962813e-06	
11	-5.50000e-01	8.036225e-06	
12	-6.00000e-01	8.106968e-06	
13	-6.50000e-01	8.175478e-06	
14	-7.00000e-01	8.242078e-06	
15	-7.50000e-01	8.307023e-06	
16	-8.00000e-01	8.370516e-06	
17	-8.50000e-01	8.432725e-06	
18	-9.00000e-01	8.493791e-06	
19	-9.50000e-01	8.553833e-06	
20	-1.00000e+00	8.612952e-06	
21	-1.05000e+00	8.671237e-06	
22	-1.10000e+00	8.728766e-06	
23	-1.15000e+00	8.785606e-06	
24	-1.20000e+00	8.841817e-06	
25	-1.25000e+00	8.897453e-06	
26	-1.30000e+00	8.952561e-06	
27	-1.35000e+00	9.007185e-06	
28	-1.40000e+00	9.061361e-06	
29	-1.45000e+00	9.115126e-06	
30	-1.50000e+00	9.168510e-06	
31	-1.55000e+00	9.221542e-06	
32	-1.60000e+00	9.274249e-06	
33	-1.65000e+00	9.326654e-06	
34	-1.70000e+00	9.378780e-06	
35	-1.75000e+00	9.430646e-06	
36	-1.80000e+00	9.482271e-06	
37	-1.85000e+00	9.533672e-06	
38	-1.90000e+00	9.584866e-06	
39	-1.95000e+00	9.635866e-06	
40	-2.00000e+00	9.686687e-06	
41	-2.05000e+00	9.737342e-06	
42	-2.10000e+00	9.787841e-06	
43	-2.15000e+00	9.838197e-06	
44	-2.20000e+00	9.888419e-06	
45	-2.25000e+00	9.938518e-06	
46	-2.30000e+00	9.988502e-06	
47	-2.35000e+00	1.003838e-05	
48	-2.40000e+00	1.008816e-05	
49	-2.45000e+00	1.013785e-05	
50	-2.50000e+00	1.018746e-05	
51	-2.55000e+00	1.023699e-05	
52	-2.60000e+00	1.028645e-05	
53	-2.65000e+00	1.033584e-05	
54	-2.70000e+00	1.038518e-05	

Index   v-sweep         i(vds)          
--------------------------------------------------------------------------------
55	-2.75000e+00	1.043447e-05	
56	-2.80000e+00	1.048370e-05	
57	-2.85000e+00	1.053290e-05	
58	-2.90000e+00	1.058205e-05	
59	-2.95000e+00	1.063118e-05	
60	-3.00000e+00	1.068027e-05	
61	-3.05000e+00	1.072935e-05	
62	-3.10000e+00	1.077840e-05	
63	-3.15000e+00	1.082744e-05	
64	-3.20000e+00	1.087647e-05	
65	-3.25000e+00	1.092549e-05	
66	-3.30000e+00	1.097452e-05	
67	-3.35000e+00	1.102355e-05	
68	-3.40000e+00	1.107259e-05	
69	-3.45000e+00	1.112165e-05	
70	-3.50000e+00	1.117073e-05	
71	-3.55000e+00	1.121984e-05	
72	-3.60000e+00	1.126899e-05	
73	-3.65000e+00	1.131818e-05	
74	-3.70000e+00	1.136743e-05	
75	-3.75000e+00	1.141675e-05	
76	-3.80000e+00	1.146614e-05	
77	-3.85000e+00	1.151562e-05	
78	-3.90000e+00	1.156521e-05	
79	-3.95000e+00	1.161491e-05	
80	-4.00000e+00	1.166475e-05	
81	-4.05000e+00	1.171475e-05	
82	-4.10000e+00	1.176491e-05	
83	-4.15000e+00	1.181528e-05	
84	-4.20000e+00	1.186587e-05	
85	-4.25000e+00	1.191671e-05	
86	-4.30000e+00	1.196782e-05	
87	-4.35000e+00	1.201925e-05	
88	-4.40000e+00	1.207103e-05	
89	-4.45000e+00	1.212320e-05	
90	-4.50000e+00	1.217579e-05	
91	-4.55000e+00	1.222886e-05	
92	-4.60000e+00	1.228245e-05	
93	-4.65000e+00	1.233662e-05	
94	-4.70000e+00	1.239142e-05	
95	-4.75000e+00	1.244692e-05	
96	-4.80000e+00	1.250318e-05	
97	-4.85000e+00	1.256027e-05	
98	-4.90000e+00	1.261827e-05	
99	-4.95000e+00	1.267725e-05	
100	-5.00000e+00	1.273731e-05	
101	-5.05000e+00	1.279854e-05	
102	-5.10000e+00	1.286102e-05	
103	-5.15000e+00	1.292486e-05	
104	-5.20000e+00	1.299018e-05	
105	-5.25000e+00	1.305707e-05	
106	-5.30000e+00	1.312567e-05	
107	-5.35000e+00	1.319611e-05	
108	-5.40000e+00	1.326850e-05	
109	-5.45000e+00	1.334300e-05	
110	-5.50000e+00	1.341975e-05	
111	-5.55000e+00	1.349890e-05	
112	-5.60000e+00	1.358061e-05	

Index   v-sweep         i(vds)          
--------------------------------------------------------------------------------
113	-5.65000e+00	1.366506e-05	
114	-5.70000e+00	1.375241e-05	
115	-5.75000e+00	1.384285e-05	
116	-5.80000e+00	1.393657e-05	
117	-5.85000e+00	1.403377e-05	
118	-5.90000e+00	1.413465e-05	
119	-5.95000e+00	1.423943e-05	
120	-6.00000e+00	1.434832e-05	
121	-6.05000e+00	1.446156e-05	
122	-6.10000e+00	1.457938e-05	
123	-6.15000e+00	1.470203e-05	
124	-6.20000e+00	1.482977e-05	
125	-6.25000e+00	1.496285e-05	
126	-6.30000e+00	1.510155e-05	
127	-6.35000e+00	1.524615e-05	
128	-6.40000e+00	1.539692e-05	
129	-6.45000e+00	1.555418e-05	
130	-6.50000e+00	1.571822e-05	
131	-6.55000e+00	1.588935e-05	
132	-6.60000e+00	1.606791e-05	
133	0.000000e+00	3.351623e-30	
134	-5.00000e-02	2.710853e-05	
135	-1.00000e-01	5.263573e-05	
136	-1.50000e-01	7.659521e-05	
137	-2.00000e-01	9.900052e-05	
138	-2.50000e-01	1.198653e-04	
139	-3.00000e-01	1.392030e-04	
140	-3.50000e-01	1.570277e-04	
141	-4.00000e-01	1.733531e-04	
142	-4.50000e-01	1.881939e-04	
143	-5.00000e-01	2.015652e-04	
144	-5.50000e-01	2.134840e-04	
145	-6.00000e-01	2.239696e-04	
146	-6.50000e-01	2.330470e-04	
147	-7.00000e-01	2.407515e-04	
148	-7.50000e-01	2.471387e-04	
149	-8.00000e-01	2.523030e-04	
150	-8.50000e-01	2.563984e-04	
151	-9.00000e-01	2.596414e-04	
152	-9.50000e-01	2.622683e-04	
153	-1.00000e+00	2.644760e-04	
154	-1.05000e+00	2.663974e-04	
155	-1.10000e+00	2.681144e-04	
156	-1.15000e+00	2.696774e-04	
157	-1.20000e+00	2.711191e-04	
158	-1.25000e+00	2.724619e-04	
159	-1.30000e+00	2.737218e-04	
160	-1.35000e+00	2.749112e-04	
161	-1.40000e+00	2.760396e-04	
162	-1.45000e+00	2.771145e-04	
163	-1.50000e+00	2.781423e-04	
164	-1.55000e+00	2.791280e-04	
165	-1.60000e+00	2.800760e-04	
166	-1.65000e+00	2.809900e-04	
167	-1.70000e+00	2.818731e-04	
168	-1.75000e+00	2.827282e-04	
169	-1.80000e+00	2.835576e-04	
170	-1.85000e+00	2.843633e-04	

Index   v-sweep         i(vds)          
--------------------------------------------------------------------------------
171	-1.90000e+00	2.851473e-04	
172	-1.95000e+00	2.859111e-04	
173	-2.00000e+00	2.866563e-04	
174	-2.05000e+00	2.873841e-04	
175	-2.10000e+00	2.880957e-04	
176	-2.15000e+00	2.887923e-04	
177	-2.20000e+00	2.894746e-04	
178	-2.25000e+00	2.901437e-04	
179	-2.30000e+00	2.908003e-04	
180	-2.35000e+00	2.914452e-04	
181	-2.40000e+00	2.920789e-04	
182	-2.45000e+00	2.927022e-04	
183	-2.50000e+00	2.933156e-04	
184	-2.55000e+00	2.939195e-04	
185	-2.60000e+00	2.945146e-04	
186	-2.65000e+00	2.951012e-04	
187	-2.70000e+00	2.956797e-04	
188	-2.75000e+00	2.962506e-04	
189	-2.80000e+00	2.968142e-04	
190	-2.85000e+00	2.973707e-04	
191	-2.90000e+00	2.979207e-04	
192	-2.95000e+00	2.984642e-04	
193	-3.00000e+00	2.990016e-04	
194	-3.05000e+00	2.995333e-04	
195	-3.10000e+00	3.000593e-04	
196	-3.15000e+00	3.005799e-04	
197	-3.20000e+00	3.010954e-04	
198	-3.25000e+00	3.016059e-04	
199	-3.30000e+00	3.021117e-04	
200	-3.35000e+00	3.026129e-04	
201	-3.40000e+00	3.031096e-04	
202	-3.45000e+00	3.036022e-04	
203	-3.50000e+00	3.040906e-04	
204	-3.55000e+00	3.045752e-04	
205	-3.60000e+00	3.050559e-04	
206	-3.65000e+00	3.055330e-04	
207	-3.70000e+00	3.060066e-04	
208	-3.75000e+00	3.064768e-04	
209	-3.80000e+00	3.069438e-04	
210	-3.85000e+00	3.074077e-04	
211	-3.90000e+00	3.078686e-04	
212	-3.95000e+00	3.083267e-04	
213	-4.00000e+00	3.087821e-04	
214	-4.05000e+00	3.092350e-04	
215	-4.10000e+00	3.096855e-04	
216	-4.15000e+00	3.101338e-04	
217	-4.20000e+00	3.105800e-04	
218	-4.25000e+00	3.110244e-04	
219	-4.30000e+00	3.114671e-04	
220	-4.35000e+00	3.119085e-04	
221	-4.40000e+00	3.123486e-04	
222	-4.45000e+00	3.127878e-04	
223	-4.50000e+00	3.132265e-04	
224	-4.55000e+00	3.136648e-04	
225	-4.60000e+00	3.141032e-04	
226	-4.65000e+00	3.145421e-04	
227	-4.70000e+00	3.149818e-04	
228	-4.75000e+00	3.154229e-04	

Index   v-sweep         i(vds)          
--------------------------------------------------------------------------------
229	-4.80000e+00	3.158659e-04	
230	-4.85000e+00	3.163113e-04	
231	-4.90000e+00	3.167598e-04	
232	-4.95000e+00	3.172121e-04	
233	-5.00000e+00	3.176688e-04	
234	-5.05000e+00	3.181308e-04	
235	-5.10000e+00	3.185989e-04	
236	-5.15000e+00	3.190742e-04	
237	-5.20000e+00	3.195575e-04	
238	-5.25000e+00	3.200500e-04	
239	-5.30000e+00	3.205529e-04	
240	-5.35000e+00	3.210675e-04	
241	-5.40000e+00	3.215950e-04	
242	-5.45000e+00	3.221369e-04	
243	-5.50000e+00	3.226949e-04	
244	-5.55000e+00	3.232704e-04	
245	-5.60000e+00	3.238654e-04	
246	-5.65000e+00	3.244815e-04	
247	-5.70000e+00	3.251209e-04	
248	-5.75000e+00	3.257855e-04	
249	-5.80000e+00	3.264776e-04	
250	-5.85000e+00	3.271995e-04	
251	-5.90000e+00	3.279536e-04	
252	-5.95000e+00	3.287424e-04	
253	-6.00000e+00	3.295688e-04	
254	-6.05000e+00	3.304354e-04	
255	-6.10000e+00	3.313452e-04	
256	-6.15000e+00	3.323013e-04	
257	-6.20000e+00	3.333069e-04	
258	-6.25000e+00	3.343653e-04	
259	-6.30000e+00	3.354801e-04	
260	-6.35000e+00	3.366548e-04	
261	-6.40000e+00	3.378932e-04	
262	-6.45000e+00	3.391992e-04	
263	-6.50000e+00	3.405769e-04	
264	-6.55000e+00	3.420303e-04	
265	-6.60000e+00	3.435638e-04	
266	0.000000e+00	-2.70096e-21	
267	-5.00000e-02	4.364021e-05	
268	-1.00000e-01	8.583431e-05	
269	-1.50000e-01	1.265922e-04	
270	-2.00000e-01	1.659238e-04	
271	-2.50000e-01	2.038389e-04	
272	-3.00000e-01	2.403473e-04	
273	-3.50000e-01	2.754589e-04	
274	-4.00000e-01	3.091832e-04	
275	-4.50000e-01	3.415300e-04	
276	-5.00000e-01	3.725091e-04	
277	-5.50000e-01	4.021300e-04	
278	-6.00000e-01	4.304023e-04	
279	-6.50000e-01	4.573358e-04	
280	-7.00000e-01	4.829399e-04	
281	-7.50000e-01	5.072244e-04	
282	-8.00000e-01	5.301990e-04	
283	-8.50000e-01	5.518734e-04	
284	-9.00000e-01	5.722576e-04	
285	-9.50000e-01	5.913615e-04	
286	-1.00000e+00	6.091958e-04	

Index   v-sweep         i(vds)          
--------------------------------------------------------------------------------
287	-1.05000e+00	6.257713e-04	
288	-1.10000e+00	6.410998e-04	
289	-1.15000e+00	6.551945e-04	
290	-1.20000e+00	6.680707e-04	
291	-1.25000e+00	6.797474e-04	
292	-1.30000e+00	6.902500e-04	
293	-1.35000e+00	6.996139e-04	
294	-1.40000e+00	7.078914e-04	
295	-1.45000e+00	7.151584e-04	
296	-1.50000e+00	7.215182e-04	
297	-1.55000e+00	7.270965e-04	
298	-1.60000e+00	7.320255e-04	
299	-1.65000e+00	7.364262e-04	
300	-1.70000e+00	7.403994e-04	
301	-1.75000e+00	7.440240e-04	
302	-1.80000e+00	7.473608e-04	
303	-1.85000e+00	7.504566e-04	
304	-1.90000e+00	7.533480e-04	
305	-1.95000e+00	7.560640e-04	
306	-2.00000e+00	7.586278e-04	
307	-2.05000e+00	7.610583e-04	
308	-2.10000e+00	7.633712e-04	
309	-2.15000e+00	7.655795e-04	
310	-2.20000e+00	7.676942e-04	
311	-2.25000e+00	7.697246e-04	
312	-2.30000e+00	7.716788e-04	
313	-2.35000e+00	7.735637e-04	
314	-2.40000e+00	7.753853e-04	
315	-2.45000e+00	7.771490e-04	
316	-2.50000e+00	7.788593e-04	
317	-2.55000e+00	7.805205e-04	
318	-2.60000e+00	7.821361e-04	
319	-2.65000e+00	7.837094e-04	
320	-2.70000e+00	7.852434e-04	
321	-2.75000e+00	7.867406e-04	
322	-2.80000e+00	7.882036e-04	
323	-2.85000e+00	7.896344e-04	
324	-2.90000e+00	7.910350e-04	
325	-2.95000e+00	7.924072e-04	
326	-3.00000e+00	7.937526e-04	
327	-3.05000e+00	7.950728e-04	
328	-3.10000e+00	7.963691e-04	
329	-3.15000e+00	7.976428e-04	
330	-3.20000e+00	7.988950e-04	
331	-3.25000e+00	8.001269e-04	
332	-3.30000e+00	8.013395e-04	
333	-3.35000e+00	8.025336e-04	
334	-3.40000e+00	8.037103e-04	
335	-3.45000e+00	8.048701e-04	
336	-3.50000e+00	8.060141e-04	
337	-3.55000e+00	8.071427e-04	
338	-3.60000e+00	8.082567e-04	
339	-3.65000e+00	8.093568e-04	
340	-3.70000e+00	8.104434e-04	
341	-3.75000e+00	8.115172e-04	
342	-3.80000e+00	8.125786e-04	
343	-3.85000e+00	8.136282e-04	
344	-3.90000e+00	8.146664e-04	

Index   v-sweep         i(vds)          
--------------------------------------------------------------------------------
345	-3.95000e+00	8.156937e-04	
346	-4.00000e+00	8.167104e-04	
347	-4.05000e+00	8.177169e-04	
348	-4.10000e+00	8.187137e-04	
349	-4.15000e+00	8.197010e-04	
350	-4.20000e+00	8.206793e-04	
351	-4.25000e+00	8.216489e-04	
352	-4.30000e+00	8.226100e-04	
353	-4.35000e+00	8.235631e-04	
354	-4.40000e+00	8.245084e-04	
355	-4.45000e+00	8.254463e-04	
356	-4.50000e+00	8.263771e-04	
357	-4.55000e+00	8.273011e-04	
358	-4.60000e+00	8.282186e-04	
359	-4.65000e+00	8.291300e-04	
360	-4.70000e+00	8.300357e-04	
361	-4.75000e+00	8.309361e-04	
362	-4.80000e+00	8.318316e-04	
363	-4.85000e+00	8.327227e-04	
364	-4.90000e+00	8.336098e-04	
365	-4.95000e+00	8.344934e-04	
366	-5.00000e+00	8.353743e-04	
367	-5.05000e+00	8.362530e-04	
368	-5.10000e+00	8.371303e-04	
369	-5.15000e+00	8.380070e-04	
370	-5.20000e+00	8.388839e-04	
371	-5.25000e+00	8.397620e-04	
372	-5.30000e+00	8.406423e-04	
373	-5.35000e+00	8.415261e-04	
374	-5.40000e+00	8.424146e-04	
375	-5.45000e+00	8.433093e-04	
376	-5.50000e+00	8.442116e-04	
377	-5.55000e+00	8.451233e-04	
378	-5.60000e+00	8.460462e-04	
379	-5.65000e+00	8.469823e-04	
380	-5.70000e+00	8.479337e-04	
381	-5.75000e+00	8.489030e-04	
382	-5.80000e+00	8.498925e-04	
383	-5.85000e+00	8.509050e-04	
384	-5.90000e+00	8.519436e-04	
385	-5.95000e+00	8.530113e-04	
386	-6.00000e+00	8.541117e-04	
387	-6.05000e+00	8.552483e-04	
388	-6.10000e+00	8.564250e-04	
389	-6.15000e+00	8.576460e-04	
390	-6.20000e+00	8.589157e-04	
391	-6.25000e+00	8.602388e-04	
392	-6.30000e+00	8.616203e-04	
393	-6.35000e+00	8.630653e-04	
394	-6.40000e+00	8.645796e-04	
395	-6.45000e+00	8.661688e-04	
396	-6.50000e+00	8.678393e-04	
397	-6.55000e+00	8.695973e-04	
398	-6.60000e+00	8.714498e-04	
399	0.000000e+00	-5.00220e-21	
400	-5.00000e-02	5.594952e-05	
401	-1.00000e-01	1.105805e-04	
402	-1.50000e-01	1.639005e-04	

Index   v-sweep         i(vds)          
--------------------------------------------------------------------------------
403	-2.00000e-01	2.159173e-04	
404	-2.50000e-01	2.666385e-04	
405	-3.00000e-01	3.160716e-04	
406	-3.50000e-01	3.642244e-04	
407	-4.00000e-01	4.111043e-04	
408	-4.50000e-01	4.567189e-04	
409	-5.00000e-01	5.010757e-04	
410	-5.50000e-01	5.441821e-04	
411	-6.00000e-01	5.860457e-04	
412	-6.50000e-01	6.266738e-04	
413	-7.00000e-01	6.660739e-04	
414	-7.50000e-01	7.042532e-04	
415	-8.00000e-01	7.412193e-04	
416	-8.50000e-01	7.769794e-04	
417	-9.00000e-01	8.115409e-04	
418	-9.50000e-01	8.449109e-04	
419	-1.00000e+00	8.770969e-04	
420	-1.05000e+00	9.081061e-04	
421	-1.10000e+00	9.379456e-04	
422	-1.15000e+00	9.666229e-04	
423	-1.20000e+00	9.941451e-04	
424	-1.25000e+00	1.020519e-03	
425	-1.30000e+00	1.045753e-03	
426	-1.35000e+00	1.069854e-03	
427	-1.40000e+00	1.092829e-03	
428	-1.45000e+00	1.114685e-03	
429	-1.50000e+00	1.135431e-03	
430	-1.55000e+00	1.155074e-03	
431	-1.60000e+00	1.173622e-03	
432	-1.65000e+00	1.191083e-03	
433	-1.70000e+00	1.207468e-03	
434	-1.75000e+00	1.222785e-03	
435	-1.80000e+00	1.237046e-03	
436	-1.85000e+00	1.250266e-03	
437	-1.90000e+00	1.262462e-03	
438	-1.95000e+00	1.273658e-03	
439	-2.00000e+00	1.283886e-03	
440	-2.05000e+00	1.293192e-03	
441	-2.10000e+00	1.301637e-03	
442	-2.15000e+00	1.309295e-03	
443	-2.20000e+00	1.316254e-03	
444	-2.25000e+00	1.322600e-03	
445	-2.30000e+00	1.328418e-03	
446	-2.35000e+00	1.333783e-03	
447	-2.40000e+00	1.338757e-03	
448	-2.45000e+00	1.343395e-03	
449	-2.50000e+00	1.347742e-03	
450	-2.55000e+00	1.351835e-03	
451	-2.60000e+00	1.355705e-03	
452	-2.65000e+00	1.359378e-03	
453	-2.70000e+00	1.362875e-03	
454	-2.75000e+00	1.366216e-03	
455	-2.80000e+00	1.369417e-03	
456	-2.85000e+00	1.372490e-03	
457	-2.90000e+00	1.375448e-03	
458	-2.95000e+00	1.378301e-03	
459	-3.00000e+00	1.381058e-03	
460	-3.05000e+00	1.383727e-03	

Index   v-sweep         i(vds)          
--------------------------------------------------------------------------------
461	-3.10000e+00	1.386315e-03	
462	-3.15000e+00	1.388827e-03	
463	-3.20000e+00	1.391270e-03	
464	-3.25000e+00	1.393649e-03	
465	-3.30000e+00	1.395967e-03	
466	-3.35000e+00	1.398229e-03	
467	-3.40000e+00	1.400438e-03	
468	-3.45000e+00	1.402599e-03	
469	-3.50000e+00	1.404713e-03	
470	-3.55000e+00	1.406783e-03	
471	-3.60000e+00	1.408812e-03	
472	-3.65000e+00	1.410803e-03	
473	-3.70000e+00	1.412756e-03	
474	-3.75000e+00	1.414675e-03	
475	-3.80000e+00	1.416561e-03	
476	-3.85000e+00	1.418416e-03	
477	-3.90000e+00	1.420241e-03	
478	-3.95000e+00	1.422038e-03	
479	-4.00000e+00	1.423807e-03	
480	-4.05000e+00	1.425551e-03	
481	-4.10000e+00	1.427271e-03	
482	-4.15000e+00	1.428966e-03	
483	-4.20000e+00	1.430640e-03	
484	-4.25000e+00	1.432291e-03	
485	-4.30000e+00	1.433922e-03	
486	-4.35000e+00	1.435533e-03	
487	-4.40000e+00	1.437126e-03	
488	-4.45000e+00	1.438699e-03	
489	-4.50000e+00	1.440256e-03	
490	-4.55000e+00	1.441795e-03	
491	-4.60000e+00	1.443318e-03	
492	-4.65000e+00	1.444825e-03	
493	-4.70000e+00	1.446318e-03	
494	-4.75000e+00	1.447795e-03	
495	-4.80000e+00	1.449259e-03	
496	-4.85000e+00	1.450710e-03	
497	-4.90000e+00	1.452147e-03	
498	-4.95000e+00	1.453572e-03	
499	-5.00000e+00	1.454985e-03	
500	-5.05000e+00	1.456386e-03	
501	-5.10000e+00	1.457777e-03	
502	-5.15000e+00	1.459157e-03	
503	-5.20000e+00	1.460528e-03	
504	-5.25000e+00	1.461889e-03	
505	-5.30000e+00	1.463242e-03	
506	-5.35000e+00	1.464586e-03	
507	-5.40000e+00	1.465924e-03	
508	-5.45000e+00	1.467255e-03	
509	-5.50000e+00	1.468581e-03	
510	-5.55000e+00	1.469902e-03	
511	-5.60000e+00	1.471219e-03	
512	-5.65000e+00	1.472534e-03	
513	-5.70000e+00	1.473848e-03	
514	-5.75000e+00	1.475163e-03	
515	-5.80000e+00	1.476479e-03	
516	-5.85000e+00	1.477798e-03	
517	-5.90000e+00	1.479124e-03	
518	-5.95000e+00	1.480456e-03	

Index   v-sweep         i(vds)          
--------------------------------------------------------------------------------
519	-6.00000e+00	1.481799e-03	
520	-6.05000e+00	1.483153e-03	
521	-6.10000e+00	1.484523e-03	
522	-6.15000e+00	1.485911e-03	
523	-6.20000e+00	1.487321e-03	
524	-6.25000e+00	1.488755e-03	
525	-6.30000e+00	1.490218e-03	
526	-6.35000e+00	1.491714e-03	
527	-6.40000e+00	1.493248e-03	
528	-6.45000e+00	1.494824e-03	
529	-6.50000e+00	1.496448e-03	
530	-6.55000e+00	1.498126e-03	
531	-6.60000e+00	1.499863e-03	
532	0.000000e+00	-1.15457e-29	
533	-5.00000e-02	6.551446e-05	
534	-1.00000e-01	1.298195e-04	
535	-1.50000e-01	1.929214e-04	
536	-2.00000e-01	2.548263e-04	
537	-2.50000e-01	3.155403e-04	
538	-3.00000e-01	3.750696e-04	
539	-3.50000e-01	4.334203e-04	
540	-4.00000e-01	4.905985e-04	
541	-4.50000e-01	5.466103e-04	
542	-5.00000e-01	6.014617e-04	
543	-5.50000e-01	6.551588e-04	
544	-6.00000e-01	7.077077e-04	
545	-6.50000e-01	7.591143e-04	
546	-7.00000e-01	8.093846e-04	
547	-7.50000e-01	8.585246e-04	
548	-8.00000e-01	9.065403e-04	
549	-8.50000e-01	9.534375e-04	
550	-9.00000e-01	9.992222e-04	
551	-9.50000e-01	1.043900e-03	
552	-1.00000e+00	1.087478e-03	
553	-1.05000e+00	1.129960e-03	
554	-1.10000e+00	1.171354e-03	
555	-1.15000e+00	1.211664e-03	
556	-1.20000e+00	1.250897e-03	
557	-1.25000e+00	1.289058e-03	
558	-1.30000e+00	1.326153e-03	
559	-1.35000e+00	1.362188e-03	
560	-1.40000e+00	1.397169e-03	
561	-1.45000e+00	1.431101e-03	
562	-1.50000e+00	1.463990e-03	
563	-1.55000e+00	1.495842e-03	
564	-1.60000e+00	1.526663e-03	
565	-1.65000e+00	1.556457e-03	
566	-1.70000e+00	1.585232e-03	
567	-1.75000e+00	1.612991e-03	
568	-1.80000e+00	1.639742e-03	
569	-1.85000e+00	1.665490e-03	
570	-1.90000e+00	1.690241e-03	
571	-1.95000e+00	1.713999e-03	
572	-2.00000e+00	1.736772e-03	
573	-2.05000e+00	1.758564e-03	
574	-2.10000e+00	1.779382e-03	
575	-2.15000e+00	1.799231e-03	
576	-2.20000e+00	1.818117e-03	

Index   v-sweep         i(vds)          
--------------------------------------------------------------------------------
577	-2.25000e+00	1.836046e-03	
578	-2.30000e+00	1.853024e-03	
579	-2.35000e+00	1.869057e-03	
580	-2.40000e+00	1.884152e-03	
581	-2.45000e+00	1.898316e-03	
582	-2.50000e+00	1.911556e-03	
583	-2.55000e+00	1.923886e-03	
584	-2.60000e+00	1.935324e-03	
585	-2.65000e+00	1.945899e-03	
586	-2.70000e+00	1.955652e-03	
587	-2.75000e+00	1.964639e-03	
588	-2.80000e+00	1.972927e-03	
589	-2.85000e+00	1.980588e-03	
590	-2.90000e+00	1.987693e-03	
591	-2.95000e+00	1.994307e-03	
592	-3.00000e+00	2.000492e-03	
593	-3.05000e+00	2.006298e-03	
594	-3.10000e+00	2.011770e-03	
595	-3.15000e+00	2.016948e-03	
596	-3.20000e+00	2.021863e-03	
597	-3.25000e+00	2.026545e-03	
598	-3.30000e+00	2.031016e-03	
599	-3.35000e+00	2.035299e-03	
600	-3.40000e+00	2.039411e-03	
601	-3.45000e+00	2.043368e-03	
602	-3.50000e+00	2.047183e-03	
603	-3.55000e+00	2.050869e-03	
604	-3.60000e+00	2.054435e-03	
605	-3.65000e+00	2.057892e-03	
606	-3.70000e+00	2.061248e-03	
607	-3.75000e+00	2.064510e-03	
608	-3.80000e+00	2.067684e-03	
609	-3.85000e+00	2.070777e-03	
610	-3.90000e+00	2.073795e-03	
611	-3.95000e+00	2.076741e-03	
612	-4.00000e+00	2.079621e-03	
613	-4.05000e+00	2.082439e-03	
614	-4.10000e+00	2.085197e-03	
615	-4.15000e+00	2.087900e-03	
616	-4.20000e+00	2.090551e-03	
617	-4.25000e+00	2.093153e-03	
618	-4.30000e+00	2.095707e-03	
619	-4.35000e+00	2.098217e-03	
620	-4.40000e+00	2.100685e-03	
621	-4.45000e+00	2.103113e-03	
622	-4.50000e+00	2.105502e-03	
623	-4.55000e+00	2.107855e-03	
624	-4.60000e+00	2.110174e-03	
625	-4.65000e+00	2.112459e-03	
626	-4.70000e+00	2.114713e-03	
627	-4.75000e+00	2.116936e-03	
628	-4.80000e+00	2.119130e-03	
629	-4.85000e+00	2.121296e-03	
630	-4.90000e+00	2.123436e-03	
631	-4.95000e+00	2.125550e-03	
632	-5.00000e+00	2.127639e-03	
633	-5.05000e+00	2.129705e-03	
634	-5.10000e+00	2.131748e-03	

Index   v-sweep         i(vds)          
--------------------------------------------------------------------------------
635	-5.15000e+00	2.133769e-03	
636	-5.20000e+00	2.135768e-03	
637	-5.25000e+00	2.137748e-03	
638	-5.30000e+00	2.139708e-03	
639	-5.35000e+00	2.141649e-03	
640	-5.40000e+00	2.143572e-03	
641	-5.45000e+00	2.145478e-03	
642	-5.50000e+00	2.147367e-03	
643	-5.55000e+00	2.149239e-03	
644	-5.60000e+00	2.151097e-03	
645	-5.65000e+00	2.152940e-03	
646	-5.70000e+00	2.154769e-03	
647	-5.75000e+00	2.156585e-03	
648	-5.80000e+00	2.158388e-03	
649	-5.85000e+00	2.160180e-03	
650	-5.90000e+00	2.161962e-03	
651	-5.95000e+00	2.163734e-03	
652	-6.00000e+00	2.165498e-03	
653	-6.05000e+00	2.167255e-03	
654	-6.10000e+00	2.169005e-03	
655	-6.15000e+00	2.170752e-03	
656	-6.20000e+00	2.172495e-03	
657	-6.25000e+00	2.174238e-03	
658	-6.30000e+00	2.175982e-03	
659	-6.35000e+00	2.177729e-03	
660	-6.40000e+00	2.179482e-03	
661	-6.45000e+00	2.181243e-03	
662	-6.50000e+00	2.183016e-03	
663	-6.55000e+00	2.184804e-03	
664	-6.60000e+00	2.186610e-03	
665	0.000000e+00	-4.31626e-21	
666	-5.00000e-02	7.318544e-05	
667	-1.00000e-01	1.452542e-04	
668	-1.50000e-01	2.162114e-04	
669	-2.00000e-01	2.860622e-04	
670	-2.50000e-01	3.548116e-04	
671	-3.00000e-01	4.224648e-04	
672	-3.50000e-01	4.890268e-04	
673	-4.00000e-01	5.545028e-04	
674	-4.50000e-01	6.188977e-04	
675	-5.00000e-01	6.822166e-04	
676	-5.50000e-01	7.444645e-04	
677	-6.00000e-01	8.056465e-04	
678	-6.50000e-01	8.657675e-04	
679	-7.00000e-01	9.248325e-04	
680	-7.50000e-01	9.828465e-04	
681	-8.00000e-01	1.039814e-03	
682	-8.50000e-01	1.095741e-03	
683	-9.00000e-01	1.150632e-03	
684	-9.50000e-01	1.204491e-03	
685	-1.00000e+00	1.257324e-03	
686	-1.05000e+00	1.309136e-03	
687	-1.10000e+00	1.359930e-03	
688	-1.15000e+00	1.409713e-03	
689	-1.20000e+00	1.458489e-03	
690	-1.25000e+00	1.506263e-03	
691	-1.30000e+00	1.553040e-03	
692	-1.35000e+00	1.598823e-03	

Index   v-sweep         i(vds)          
--------------------------------------------------------------------------------
693	-1.40000e+00	1.643620e-03	
694	-1.45000e+00	1.687433e-03	
695	-1.50000e+00	1.730267e-03	
696	-1.55000e+00	1.772129e-03	
697	-1.60000e+00	1.813021e-03	
698	-1.65000e+00	1.852950e-03	
699	-1.70000e+00	1.891918e-03	
700	-1.75000e+00	1.929933e-03	
701	-1.80000e+00	1.966997e-03	
702	-1.85000e+00	2.003115e-03	
703	-1.90000e+00	2.038293e-03	
704	-1.95000e+00	2.072535e-03	
705	-2.00000e+00	2.105845e-03	
706	-2.05000e+00	2.138228e-03	
707	-2.10000e+00	2.169689e-03	
708	-2.15000e+00	2.200232e-03	
709	-2.20000e+00	2.229862e-03	
710	-2.25000e+00	2.258583e-03	
711	-2.30000e+00	2.286400e-03	
712	-2.35000e+00	2.313317e-03	
713	-2.40000e+00	2.339340e-03	
714	-2.45000e+00	2.364471e-03	
715	-2.50000e+00	2.388716e-03	
716	-2.55000e+00	2.412080e-03	
717	-2.60000e+00	2.434565e-03	
718	-2.65000e+00	2.456176e-03	
719	-2.70000e+00	2.476918e-03	
720	-2.75000e+00	2.496792e-03	
721	-2.80000e+00	2.515802e-03	
722	-2.85000e+00	2.533951e-03	
723	-2.90000e+00	2.551238e-03	
724	-2.95000e+00	2.567664e-03	
725	-3.00000e+00	2.583227e-03	
726	-3.05000e+00	2.597926e-03	
727	-3.10000e+00	2.611759e-03	
728	-3.15000e+00	2.624730e-03	
729	-3.20000e+00	2.636850e-03	
730	-3.25000e+00	2.648146e-03	
731	-3.30000e+00	2.658655e-03	
732	-3.35000e+00	2.668431e-03	
733	-3.40000e+00	2.677535e-03	
734	-3.45000e+00	2.686031e-03	
735	-3.50000e+00	2.693981e-03	
736	-3.55000e+00	2.701445e-03	
737	-3.60000e+00	2.708477e-03	
738	-3.65000e+00	2.715123e-03	
739	-3.70000e+00	2.721425e-03	
740	-3.75000e+00	2.727419e-03	
741	-3.80000e+00	2.733137e-03	
742	-3.85000e+00	2.738606e-03	
743	-3.90000e+00	2.743850e-03	
744	-3.95000e+00	2.748890e-03	
745	-4.00000e+00	2.753743e-03	
746	-4.05000e+00	2.758427e-03	
747	-4.10000e+00	2.762954e-03	
748	-4.15000e+00	2.767337e-03	
749	-4.20000e+00	2.771587e-03	
750	-4.25000e+00	2.775715e-03	

Index   v-sweep         i(vds)          
--------------------------------------------------------------------------------
751	-4.30000e+00	2.779729e-03	
752	-4.35000e+00	2.783637e-03	
753	-4.40000e+00	2.787447e-03	
754	-4.45000e+00	2.791164e-03	
755	-4.50000e+00	2.794795e-03	
756	-4.55000e+00	2.798344e-03	
757	-4.60000e+00	2.801818e-03	
758	-4.65000e+00	2.805219e-03	
759	-4.70000e+00	2.808553e-03	
760	-4.75000e+00	2.811823e-03	
761	-4.80000e+00	2.815033e-03	
762	-4.85000e+00	2.818185e-03	
763	-4.90000e+00	2.821283e-03	
764	-4.95000e+00	2.824329e-03	
765	-5.00000e+00	2.827326e-03	
766	-5.05000e+00	2.830276e-03	
767	-5.10000e+00	2.833182e-03	
768	-5.15000e+00	2.836045e-03	
769	-5.20000e+00	2.838868e-03	
770	-5.25000e+00	2.841651e-03	
771	-5.30000e+00	2.844398e-03	
772	-5.35000e+00	2.847108e-03	
773	-5.40000e+00	2.849785e-03	
774	-5.45000e+00	2.852429e-03	
775	-5.50000e+00	2.855041e-03	
776	-5.55000e+00	2.857623e-03	
777	-5.60000e+00	2.860176e-03	
778	-5.65000e+00	2.862701e-03	
779	-5.70000e+00	2.865199e-03	
780	-5.75000e+00	2.867671e-03	
781	-5.80000e+00	2.870119e-03	
782	-5.85000e+00	2.872542e-03	
783	-5.90000e+00	2.874942e-03	
784	-5.95000e+00	2.877320e-03	
785	-6.00000e+00	2.879676e-03	
786	-6.05000e+00	2.882012e-03	
787	-6.10000e+00	2.884328e-03	
788	-6.15000e+00	2.886626e-03	
789	-6.20000e+00	2.888906e-03	
790	-6.25000e+00	2.891168e-03	
791	-6.30000e+00	2.893415e-03	
792	-6.35000e+00	2.895647e-03	
793	-6.40000e+00	2.897866e-03	
794	-6.45000e+00	2.900071e-03	
795	-6.50000e+00	2.902266e-03	
796	-6.55000e+00	2.904451e-03	
797	-6.60000e+00	2.906628e-03	
Note: No ".plot", ".print", or ".fourier" lines; no simulations run
