
Note: Compatibility modes selected: hs

Warning: m=xx on .subckt line will override multiplier m hierarchy!


Circuit: ***************************

Doing analysis at TEMP = -40.000000 and TNOM = -40.000000


No. of Data Rows : 798
                          ***************************
                          DC transfer characteristic  Mon Jan  9 13:58:50  2023
--------------------------------------------------------------------------------
Index   v-sweep         i(vds)          
--------------------------------------------------------------------------------
0	0.000000e+00	8.096918e-24	
1	-5.00000e-02	4.375106e-08	
2	-1.00000e-01	6.206909e-08	
3	-1.50000e-01	6.673853e-08	
4	-2.00000e-01	6.810360e-08	
5	-2.50000e-01	6.882218e-08	
6	-3.00000e-01	6.934804e-08	
7	-3.50000e-01	6.978702e-08	
8	-4.00000e-01	7.017455e-08	
9	-4.50000e-01	7.052628e-08	
10	-5.00000e-01	7.085065e-08	
11	-5.50000e-01	7.115289e-08	
12	-6.00000e-01	7.143660e-08	
13	-6.50000e-01	7.170444e-08	
14	-7.00000e-01	7.195843e-08	
15	-7.50000e-01	7.220021e-08	
16	-8.00000e-01	7.243110e-08	
17	-8.50000e-01	7.265220e-08	
18	-9.00000e-01	7.286446e-08	
19	-9.50000e-01	7.306868e-08	
20	-1.00000e+00	7.326555e-08	
21	-1.05000e+00	7.345567e-08	
22	-1.10000e+00	7.363957e-08	
23	-1.15000e+00	7.381773e-08	
24	-1.20000e+00	7.399057e-08	
25	-1.25000e+00	7.415844e-08	
26	-1.30000e+00	7.432170e-08	
27	-1.35000e+00	7.448063e-08	
28	-1.40000e+00	7.463552e-08	
29	-1.45000e+00	7.478660e-08	
30	-1.50000e+00	7.493411e-08	
31	-1.55000e+00	7.507825e-08	
32	-1.60000e+00	7.521921e-08	
33	-1.65000e+00	7.535717e-08	
34	-1.70000e+00	7.549227e-08	
35	-1.75000e+00	7.562467e-08	
36	-1.80000e+00	7.575451e-08	
37	-1.85000e+00	7.588190e-08	
38	-1.90000e+00	7.600697e-08	
39	-1.95000e+00	7.612983e-08	
40	-2.00000e+00	7.625058e-08	
41	-2.05000e+00	7.636930e-08	
42	-2.10000e+00	7.648610e-08	
43	-2.15000e+00	7.660105e-08	
44	-2.20000e+00	7.671423e-08	
45	-2.25000e+00	7.682571e-08	
46	-2.30000e+00	7.693556e-08	
47	-2.35000e+00	7.704385e-08	
48	-2.40000e+00	7.715063e-08	
49	-2.45000e+00	7.725597e-08	
50	-2.50000e+00	7.735991e-08	
51	-2.55000e+00	7.746251e-08	
52	-2.60000e+00	7.756382e-08	
53	-2.65000e+00	7.766389e-08	
54	-2.70000e+00	7.776275e-08	

Index   v-sweep         i(vds)          
--------------------------------------------------------------------------------
55	-2.75000e+00	7.786045e-08	
56	-2.80000e+00	7.795704e-08	
57	-2.85000e+00	7.805254e-08	
58	-2.90000e+00	7.814700e-08	
59	-2.95000e+00	7.824045e-08	
60	-3.00000e+00	7.833293e-08	
61	-3.05000e+00	7.842447e-08	
62	-3.10000e+00	7.851511e-08	
63	-3.15000e+00	7.860489e-08	
64	-3.20000e+00	7.869383e-08	
65	-3.25000e+00	7.878197e-08	
66	-3.30000e+00	7.886935e-08	
67	-3.35000e+00	7.895600e-08	
68	-3.40000e+00	7.904197e-08	
69	-3.45000e+00	7.912730e-08	
70	-3.50000e+00	7.921202e-08	
71	-3.55000e+00	7.929619e-08	
72	-3.60000e+00	7.937986e-08	
73	-3.65000e+00	7.946307e-08	
74	-3.70000e+00	7.954590e-08	
75	-3.75000e+00	7.962840e-08	
76	-3.80000e+00	7.971065e-08	
77	-3.85000e+00	7.979271e-08	
78	-3.90000e+00	7.987469e-08	
79	-3.95000e+00	7.995666e-08	
80	-4.00000e+00	8.003873e-08	
81	-4.05000e+00	8.012101e-08	
82	-4.10000e+00	8.020362e-08	
83	-4.15000e+00	8.028670e-08	
84	-4.20000e+00	8.037037e-08	
85	-4.25000e+00	8.045482e-08	
86	-4.30000e+00	8.054019e-08	
87	-4.35000e+00	8.062668e-08	
88	-4.40000e+00	8.071449e-08	
89	-4.45000e+00	8.080383e-08	
90	-4.50000e+00	8.089493e-08	
91	-4.55000e+00	8.098805e-08	
92	-4.60000e+00	8.108345e-08	
93	-4.65000e+00	8.118142e-08	
94	-4.70000e+00	8.128227e-08	
95	-4.75000e+00	8.138632e-08	
96	-4.80000e+00	8.149394e-08	
97	-4.85000e+00	8.160548e-08	
98	-4.90000e+00	8.172136e-08	
99	-4.95000e+00	8.184198e-08	
100	-5.00000e+00	8.196780e-08	
101	-5.05000e+00	8.209928e-08	
102	-5.10000e+00	8.223693e-08	
103	-5.15000e+00	8.238125e-08	
104	-5.20000e+00	8.253282e-08	
105	-5.25000e+00	8.269219e-08	
106	-5.30000e+00	8.285998e-08	
107	-5.35000e+00	8.303683e-08	
108	-5.40000e+00	8.322340e-08	
109	-5.45000e+00	8.342037e-08	
110	-5.50000e+00	8.362849e-08	
111	-5.55000e+00	8.384849e-08	
112	-5.60000e+00	8.408117e-08	

Index   v-sweep         i(vds)          
--------------------------------------------------------------------------------
113	-5.65000e+00	8.432734e-08	
114	-5.70000e+00	8.458785e-08	
115	-5.75000e+00	8.486358e-08	
116	-5.80000e+00	8.515543e-08	
117	-5.85000e+00	8.546436e-08	
118	-5.90000e+00	8.579132e-08	
119	-5.95000e+00	8.613734e-08	
120	-6.00000e+00	8.650345e-08	
121	-6.05000e+00	8.689071e-08	
122	-6.10000e+00	8.730023e-08	
123	-6.15000e+00	8.773314e-08	
124	-6.20000e+00	8.819061e-08	
125	-6.25000e+00	8.867383e-08	
126	-6.30000e+00	8.918403e-08	
127	-6.35000e+00	8.972248e-08	
128	-6.40000e+00	9.029046e-08	
129	-6.45000e+00	9.088929e-08	
130	-6.50000e+00	9.152032e-08	
131	-6.55000e+00	9.218495e-08	
132	-6.60000e+00	9.288457e-08	
133	0.000000e+00	-3.18213e-37	
134	-5.00000e-02	5.539671e-07	
135	-1.00000e-01	1.071582e-06	
136	-1.50000e-01	1.553074e-06	
137	-2.00000e-01	1.998678e-06	
138	-2.50000e-01	2.408627e-06	
139	-3.00000e-01	2.783164e-06	
140	-3.50000e-01	3.122536e-06	
141	-4.00000e-01	3.427011e-06	
142	-4.50000e-01	3.696883e-06	
143	-5.00000e-01	3.932500e-06	
144	-5.50000e-01	4.134317e-06	
145	-6.00000e-01	4.303004e-06	
146	-6.50000e-01	4.439671e-06	
147	-7.00000e-01	4.546322e-06	
148	-7.50000e-01	4.626507e-06	
149	-8.00000e-01	4.685651e-06	
150	-8.50000e-01	4.730066e-06	
151	-9.00000e-01	4.765095e-06	
152	-9.50000e-01	4.794233e-06	
153	-1.00000e+00	4.819487e-06	
154	-1.05000e+00	4.841991e-06	
155	-1.10000e+00	4.862418e-06	
156	-1.15000e+00	4.881202e-06	
157	-1.20000e+00	4.898636e-06	
158	-1.25000e+00	4.914936e-06	
159	-1.30000e+00	4.930263e-06	
160	-1.35000e+00	4.944744e-06	
161	-1.40000e+00	4.958480e-06	
162	-1.45000e+00	4.971555e-06	
163	-1.50000e+00	4.984039e-06	
164	-1.55000e+00	4.995990e-06	
165	-1.60000e+00	5.007458e-06	
166	-1.65000e+00	5.018487e-06	
167	-1.70000e+00	5.029114e-06	
168	-1.75000e+00	5.039371e-06	
169	-1.80000e+00	5.049287e-06	
170	-1.85000e+00	5.058889e-06	

Index   v-sweep         i(vds)          
--------------------------------------------------------------------------------
171	-1.90000e+00	5.068199e-06	
172	-1.95000e+00	5.077237e-06	
173	-2.00000e+00	5.086022e-06	
174	-2.05000e+00	5.094569e-06	
175	-2.10000e+00	5.102895e-06	
176	-2.15000e+00	5.111012e-06	
177	-2.20000e+00	5.118933e-06	
178	-2.25000e+00	5.126670e-06	
179	-2.30000e+00	5.134231e-06	
180	-2.35000e+00	5.141628e-06	
181	-2.40000e+00	5.148869e-06	
182	-2.45000e+00	5.155961e-06	
183	-2.50000e+00	5.162913e-06	
184	-2.55000e+00	5.169730e-06	
185	-2.60000e+00	5.176420e-06	
186	-2.65000e+00	5.182989e-06	
187	-2.70000e+00	5.189442e-06	
188	-2.75000e+00	5.195784e-06	
189	-2.80000e+00	5.202020e-06	
190	-2.85000e+00	5.208155e-06	
191	-2.90000e+00	5.214193e-06	
192	-2.95000e+00	5.220137e-06	
193	-3.00000e+00	5.225992e-06	
194	-3.05000e+00	5.231761e-06	
195	-3.10000e+00	5.237448e-06	
196	-3.15000e+00	5.243055e-06	
197	-3.20000e+00	5.248586e-06	
198	-3.25000e+00	5.254043e-06	
199	-3.30000e+00	5.259430e-06	
200	-3.35000e+00	5.264748e-06	
201	-3.40000e+00	5.270000e-06	
202	-3.45000e+00	5.275188e-06	
203	-3.50000e+00	5.280315e-06	
204	-3.55000e+00	5.285383e-06	
205	-3.60000e+00	5.290393e-06	
206	-3.65000e+00	5.295349e-06	
207	-3.70000e+00	5.300251e-06	
208	-3.75000e+00	5.305102e-06	
209	-3.80000e+00	5.309904e-06	
210	-3.85000e+00	5.314659e-06	
211	-3.90000e+00	5.319369e-06	
212	-3.95000e+00	5.324036e-06	
213	-4.00000e+00	5.328663e-06	
214	-4.05000e+00	5.333250e-06	
215	-4.10000e+00	5.337802e-06	
216	-4.15000e+00	5.342320e-06	
217	-4.20000e+00	5.346808e-06	
218	-4.25000e+00	5.351268e-06	
219	-4.30000e+00	5.355704e-06	
220	-4.35000e+00	5.360119e-06	
221	-4.40000e+00	5.364518e-06	
222	-4.45000e+00	5.368904e-06	
223	-4.50000e+00	5.373282e-06	
224	-4.55000e+00	5.377658e-06	
225	-4.60000e+00	5.382037e-06	
226	-4.65000e+00	5.386426e-06	
227	-4.70000e+00	5.390831e-06	
228	-4.75000e+00	5.395260e-06	

Index   v-sweep         i(vds)          
--------------------------------------------------------------------------------
229	-4.80000e+00	5.399721e-06	
230	-4.85000e+00	5.404223e-06	
231	-4.90000e+00	5.408777e-06	
232	-4.95000e+00	5.413393e-06	
233	-5.00000e+00	5.418082e-06	
234	-5.05000e+00	5.422858e-06	
235	-5.10000e+00	5.427734e-06	
236	-5.15000e+00	5.432724e-06	
237	-5.20000e+00	5.437846e-06	
238	-5.25000e+00	5.443115e-06	
239	-5.30000e+00	5.448550e-06	
240	-5.35000e+00	5.454172e-06	
241	-5.40000e+00	5.460000e-06	
242	-5.45000e+00	5.466058e-06	
243	-5.50000e+00	5.472370e-06	
244	-5.55000e+00	5.478961e-06	
245	-5.60000e+00	5.485858e-06	
246	-5.65000e+00	5.493090e-06	
247	-5.70000e+00	5.500687e-06	
248	-5.75000e+00	5.508681e-06	
249	-5.80000e+00	5.517106e-06	
250	-5.85000e+00	5.525997e-06	
251	-5.90000e+00	5.535392e-06	
252	-5.95000e+00	5.545330e-06	
253	-6.00000e+00	5.555851e-06	
254	-6.05000e+00	5.567000e-06	
255	-6.10000e+00	5.578820e-06	
256	-6.15000e+00	5.591358e-06	
257	-6.20000e+00	5.604664e-06	
258	-6.25000e+00	5.618788e-06	
259	-6.30000e+00	5.633783e-06	
260	-6.35000e+00	5.649704e-06	
261	-6.40000e+00	5.666607e-06	
262	-6.45000e+00	5.684551e-06	
263	-6.50000e+00	5.703598e-06	
264	-6.55000e+00	5.723811e-06	
265	-6.60000e+00	5.745254e-06	
266	0.000000e+00	9.275573e-37	
267	-5.00000e-02	9.549588e-07	
268	-1.00000e-01	1.876249e-06	
269	-1.50000e-01	2.764032e-06	
270	-2.00000e-01	3.618469e-06	
271	-2.50000e-01	4.439722e-06	
272	-3.00000e-01	5.227952e-06	
273	-3.50000e-01	5.983320e-06	
274	-4.00000e-01	6.705988e-06	
275	-4.50000e-01	7.396116e-06	
276	-5.00000e-01	8.053865e-06	
277	-5.50000e-01	8.679398e-06	
278	-6.00000e-01	9.272876e-06	
279	-6.50000e-01	9.834464e-06	
280	-7.00000e-01	1.036433e-05	
281	-7.50000e-01	1.086263e-05	
282	-8.00000e-01	1.132955e-05	
283	-8.50000e-01	1.176525e-05	
284	-9.00000e-01	1.216994e-05	
285	-9.50000e-01	1.254379e-05	
286	-1.00000e+00	1.288704e-05	

Index   v-sweep         i(vds)          
--------------------------------------------------------------------------------
287	-1.05000e+00	1.319994e-05	
288	-1.10000e+00	1.348280e-05	
289	-1.15000e+00	1.373603e-05	
290	-1.20000e+00	1.396019e-05	
291	-1.25000e+00	1.415615e-05	
292	-1.30000e+00	1.432524e-05	
293	-1.35000e+00	1.446946e-05	
294	-1.40000e+00	1.459169e-05	
295	-1.45000e+00	1.469549e-05	
296	-1.50000e+00	1.478458e-05	
297	-1.55000e+00	1.486229e-05	
298	-1.60000e+00	1.493121e-05	
299	-1.65000e+00	1.499326e-05	
300	-1.70000e+00	1.504982e-05	
301	-1.75000e+00	1.510187e-05	
302	-1.80000e+00	1.515017e-05	
303	-1.85000e+00	1.519528e-05	
304	-1.90000e+00	1.523764e-05	
305	-1.95000e+00	1.527762e-05	
306	-2.00000e+00	1.531549e-05	
307	-2.05000e+00	1.535149e-05	
308	-2.10000e+00	1.538582e-05	
309	-2.15000e+00	1.541866e-05	
310	-2.20000e+00	1.545014e-05	
311	-2.25000e+00	1.548040e-05	
312	-2.30000e+00	1.550952e-05	
313	-2.35000e+00	1.553762e-05	
314	-2.40000e+00	1.556477e-05	
315	-2.45000e+00	1.559104e-05	
316	-2.50000e+00	1.561650e-05	
317	-2.55000e+00	1.564122e-05	
318	-2.60000e+00	1.566523e-05	
319	-2.65000e+00	1.568858e-05	
320	-2.70000e+00	1.571133e-05	
321	-2.75000e+00	1.573350e-05	
322	-2.80000e+00	1.575513e-05	
323	-2.85000e+00	1.577626e-05	
324	-2.90000e+00	1.579691e-05	
325	-2.95000e+00	1.581710e-05	
326	-3.00000e+00	1.583687e-05	
327	-3.05000e+00	1.585624e-05	
328	-3.10000e+00	1.587522e-05	
329	-3.15000e+00	1.589383e-05	
330	-3.20000e+00	1.591210e-05	
331	-3.25000e+00	1.593004e-05	
332	-3.30000e+00	1.594766e-05	
333	-3.35000e+00	1.596499e-05	
334	-3.40000e+00	1.598202e-05	
335	-3.45000e+00	1.599878e-05	
336	-3.50000e+00	1.601528e-05	
337	-3.55000e+00	1.603152e-05	
338	-3.60000e+00	1.604753e-05	
339	-3.65000e+00	1.606330e-05	
340	-3.70000e+00	1.607885e-05	
341	-3.75000e+00	1.609418e-05	
342	-3.80000e+00	1.610931e-05	
343	-3.85000e+00	1.612424e-05	
344	-3.90000e+00	1.613897e-05	

Index   v-sweep         i(vds)          
--------------------------------------------------------------------------------
345	-3.95000e+00	1.615353e-05	
346	-4.00000e+00	1.616790e-05	
347	-4.05000e+00	1.618211e-05	
348	-4.10000e+00	1.619615e-05	
349	-4.15000e+00	1.621003e-05	
350	-4.20000e+00	1.622375e-05	
351	-4.25000e+00	1.623733e-05	
352	-4.30000e+00	1.625077e-05	
353	-4.35000e+00	1.626407e-05	
354	-4.40000e+00	1.627723e-05	
355	-4.45000e+00	1.629027e-05	
356	-4.50000e+00	1.630319e-05	
357	-4.55000e+00	1.631600e-05	
358	-4.60000e+00	1.632870e-05	
359	-4.65000e+00	1.634129e-05	
360	-4.70000e+00	1.635379e-05	
361	-4.75000e+00	1.636619e-05	
362	-4.80000e+00	1.637852e-05	
363	-4.85000e+00	1.639077e-05	
364	-4.90000e+00	1.640297e-05	
365	-4.95000e+00	1.641510e-05	
366	-5.00000e+00	1.642720e-05	
367	-5.05000e+00	1.643926e-05	
368	-5.10000e+00	1.645131e-05	
369	-5.15000e+00	1.646335e-05	
370	-5.20000e+00	1.647541e-05	
371	-5.25000e+00	1.648750e-05	
372	-5.30000e+00	1.649964e-05	
373	-5.35000e+00	1.651185e-05	
374	-5.40000e+00	1.652416e-05	
375	-5.45000e+00	1.653660e-05	
376	-5.50000e+00	1.654918e-05	
377	-5.55000e+00	1.656195e-05	
378	-5.60000e+00	1.657493e-05	
379	-5.65000e+00	1.658816e-05	
380	-5.70000e+00	1.660169e-05	
381	-5.75000e+00	1.661555e-05	
382	-5.80000e+00	1.662979e-05	
383	-5.85000e+00	1.664446e-05	
384	-5.90000e+00	1.665962e-05	
385	-5.95000e+00	1.667532e-05	
386	-6.00000e+00	1.669162e-05	
387	-6.05000e+00	1.670859e-05	
388	-6.10000e+00	1.672630e-05	
389	-6.15000e+00	1.674483e-05	
390	-6.20000e+00	1.676425e-05	
391	-6.25000e+00	1.678465e-05	
392	-6.30000e+00	1.680611e-05	
393	-6.35000e+00	1.682873e-05	
394	-6.40000e+00	1.685262e-05	
395	-6.45000e+00	1.687787e-05	
396	-6.50000e+00	1.690459e-05	
397	-6.55000e+00	1.693291e-05	
398	-6.60000e+00	1.696293e-05	
399	0.000000e+00	1.393839e-37	
400	-5.00000e-02	1.276989e-06	
401	-1.00000e-01	2.523001e-06	
402	-1.50000e-01	3.738156e-06	

Index   v-sweep         i(vds)          
--------------------------------------------------------------------------------
403	-2.00000e-01	4.922574e-06	
404	-2.50000e-01	6.076376e-06	
405	-3.00000e-01	7.199681e-06	
406	-3.50000e-01	8.292609e-06	
407	-4.00000e-01	9.355281e-06	
408	-4.50000e-01	1.038781e-05	
409	-5.00000e-01	1.139033e-05	
410	-5.50000e-01	1.236295e-05	
411	-6.00000e-01	1.330578e-05	
412	-6.50000e-01	1.421896e-05	
413	-7.00000e-01	1.510260e-05	
414	-7.50000e-01	1.595681e-05	
415	-8.00000e-01	1.678172e-05	
416	-8.50000e-01	1.757744e-05	
417	-9.00000e-01	1.834410e-05	
418	-9.50000e-01	1.908181e-05	
419	-1.00000e+00	1.979070e-05	
420	-1.05000e+00	2.047088e-05	
421	-1.10000e+00	2.112247e-05	
422	-1.15000e+00	2.174560e-05	
423	-1.20000e+00	2.234039e-05	
424	-1.25000e+00	2.290696e-05	
425	-1.30000e+00	2.344544e-05	
426	-1.35000e+00	2.395596e-05	
427	-1.40000e+00	2.443865e-05	
428	-1.45000e+00	2.489366e-05	
429	-1.50000e+00	2.532113e-05	
430	-1.55000e+00	2.572124e-05	
431	-1.60000e+00	2.609416e-05	
432	-1.65000e+00	2.644012e-05	
433	-1.70000e+00	2.675938e-05	
434	-1.75000e+00	2.705229e-05	
435	-1.80000e+00	2.731933e-05	
436	-1.85000e+00	2.756117e-05	
437	-1.90000e+00	2.777878e-05	
438	-1.95000e+00	2.797350e-05	
439	-2.00000e+00	2.814718e-05	
440	-2.05000e+00	2.830205e-05	
441	-2.10000e+00	2.844058e-05	
442	-2.15000e+00	2.856525e-05	
443	-2.20000e+00	2.867825e-05	
444	-2.25000e+00	2.878149e-05	
445	-2.30000e+00	2.887650e-05	
446	-2.35000e+00	2.896452e-05	
447	-2.40000e+00	2.904656e-05	
448	-2.45000e+00	2.912344e-05	
449	-2.50000e+00	2.919581e-05	
450	-2.55000e+00	2.926422e-05	
451	-2.60000e+00	2.932913e-05	
452	-2.65000e+00	2.939091e-05	
453	-2.70000e+00	2.944989e-05	
454	-2.75000e+00	2.950635e-05	
455	-2.80000e+00	2.956052e-05	
456	-2.85000e+00	2.961260e-05	
457	-2.90000e+00	2.966279e-05	
458	-2.95000e+00	2.971123e-05	
459	-3.00000e+00	2.975806e-05	
460	-3.05000e+00	2.980340e-05	

Index   v-sweep         i(vds)          
--------------------------------------------------------------------------------
461	-3.10000e+00	2.984737e-05	
462	-3.15000e+00	2.989007e-05	
463	-3.20000e+00	2.993157e-05	
464	-3.25000e+00	2.997196e-05	
465	-3.30000e+00	3.001132e-05	
466	-3.35000e+00	3.004970e-05	
467	-3.40000e+00	3.008716e-05	
468	-3.45000e+00	3.012376e-05	
469	-3.50000e+00	3.015955e-05	
470	-3.55000e+00	3.019458e-05	
471	-3.60000e+00	3.022887e-05	
472	-3.65000e+00	3.026248e-05	
473	-3.70000e+00	3.029544e-05	
474	-3.75000e+00	3.032777e-05	
475	-3.80000e+00	3.035952e-05	
476	-3.85000e+00	3.039070e-05	
477	-3.90000e+00	3.042135e-05	
478	-3.95000e+00	3.045149e-05	
479	-4.00000e+00	3.048114e-05	
480	-4.05000e+00	3.051032e-05	
481	-4.10000e+00	3.053906e-05	
482	-4.15000e+00	3.056737e-05	
483	-4.20000e+00	3.059526e-05	
484	-4.25000e+00	3.062276e-05	
485	-4.30000e+00	3.064989e-05	
486	-4.35000e+00	3.067665e-05	
487	-4.40000e+00	3.070306e-05	
488	-4.45000e+00	3.072913e-05	
489	-4.50000e+00	3.075488e-05	
490	-4.55000e+00	3.078031e-05	
491	-4.60000e+00	3.080545e-05	
492	-4.65000e+00	3.083029e-05	
493	-4.70000e+00	3.085485e-05	
494	-4.75000e+00	3.087915e-05	
495	-4.80000e+00	3.090318e-05	
496	-4.85000e+00	3.092696e-05	
497	-4.90000e+00	3.095050e-05	
498	-4.95000e+00	3.097381e-05	
499	-5.00000e+00	3.099689e-05	
500	-5.05000e+00	3.101976e-05	
501	-5.10000e+00	3.104243e-05	
502	-5.15000e+00	3.106491e-05	
503	-5.20000e+00	3.108720e-05	
504	-5.25000e+00	3.110932e-05	
505	-5.30000e+00	3.113128e-05	
506	-5.35000e+00	3.115309e-05	
507	-5.40000e+00	3.117478e-05	
508	-5.45000e+00	3.119634e-05	
509	-5.50000e+00	3.121780e-05	
510	-5.55000e+00	3.123919e-05	
511	-5.60000e+00	3.126051e-05	
512	-5.65000e+00	3.128179e-05	
513	-5.70000e+00	3.130305e-05	
514	-5.75000e+00	3.132433e-05	
515	-5.80000e+00	3.134565e-05	
516	-5.85000e+00	3.136705e-05	
517	-5.90000e+00	3.138856e-05	
518	-5.95000e+00	3.141022e-05	

Index   v-sweep         i(vds)          
--------------------------------------------------------------------------------
519	-6.00000e+00	3.143208e-05	
520	-6.05000e+00	3.145418e-05	
521	-6.10000e+00	3.147659e-05	
522	-6.15000e+00	3.149935e-05	
523	-6.20000e+00	3.152254e-05	
524	-6.25000e+00	3.154621e-05	
525	-6.30000e+00	3.157045e-05	
526	-6.35000e+00	3.159533e-05	
527	-6.40000e+00	3.162094e-05	
528	-6.45000e+00	3.164738e-05	
529	-6.50000e+00	3.167475e-05	
530	-6.55000e+00	3.170315e-05	
531	-6.60000e+00	3.173270e-05	
532	0.000000e+00	5.769189e-21	
533	-5.00000e-02	1.544228e-06	
534	-1.00000e-01	3.059878e-06	
535	-1.50000e-01	4.547044e-06	
536	-2.00000e-01	6.005817e-06	
537	-2.50000e-01	7.436291e-06	
538	-3.00000e-01	8.838558e-06	
539	-3.50000e-01	1.021271e-05	
540	-4.00000e-01	1.155884e-05	
541	-4.50000e-01	1.287703e-05	
542	-5.00000e-01	1.416739e-05	
543	-5.50000e-01	1.543001e-05	
544	-6.00000e-01	1.666496e-05	
545	-6.50000e-01	1.787236e-05	
546	-7.00000e-01	1.905228e-05	
547	-7.50000e-01	2.020482e-05	
548	-8.00000e-01	2.133007e-05	
549	-8.50000e-01	2.242813e-05	
550	-9.00000e-01	2.349908e-05	
551	-9.50000e-01	2.454302e-05	
552	-1.00000e+00	2.556004e-05	
553	-1.05000e+00	2.655022e-05	
554	-1.10000e+00	2.751366e-05	
555	-1.15000e+00	2.845046e-05	
556	-1.20000e+00	2.936070e-05	
557	-1.25000e+00	3.024447e-05	
558	-1.30000e+00	3.110186e-05	
559	-1.35000e+00	3.193297e-05	
560	-1.40000e+00	3.273789e-05	
561	-1.45000e+00	3.351671e-05	
562	-1.50000e+00	3.426952e-05	
563	-1.55000e+00	3.499641e-05	
564	-1.60000e+00	3.569748e-05	
565	-1.65000e+00	3.637282e-05	
566	-1.70000e+00	3.702252e-05	
567	-1.75000e+00	3.764668e-05	
568	-1.80000e+00	3.824540e-05	
569	-1.85000e+00	3.881877e-05	
570	-1.90000e+00	3.936689e-05	
571	-1.95000e+00	3.988988e-05	
572	-2.00000e+00	4.038783e-05	
573	-2.05000e+00	4.086086e-05	
574	-2.10000e+00	4.130909e-05	
575	-2.15000e+00	4.173266e-05	
576	-2.20000e+00	4.213173e-05	

Index   v-sweep         i(vds)          
--------------------------------------------------------------------------------
577	-2.25000e+00	4.250646e-05	
578	-2.30000e+00	4.285708e-05	
579	-2.35000e+00	4.318385e-05	
580	-2.40000e+00	4.348714e-05	
581	-2.45000e+00	4.376743e-05	
582	-2.50000e+00	4.402541e-05	
583	-2.55000e+00	4.426200e-05	
584	-2.60000e+00	4.447842e-05	
585	-2.65000e+00	4.467620e-05	
586	-2.70000e+00	4.485709e-05	
587	-2.75000e+00	4.502294e-05	
588	-2.80000e+00	4.517556e-05	
589	-2.85000e+00	4.531663e-05	
590	-2.90000e+00	4.544766e-05	
591	-2.95000e+00	4.556992e-05	
592	-3.00000e+00	4.568452e-05	
593	-3.05000e+00	4.579239e-05	
594	-3.10000e+00	4.589431e-05	
595	-3.15000e+00	4.599096e-05	
596	-3.20000e+00	4.608290e-05	
597	-3.25000e+00	4.617061e-05	
598	-3.30000e+00	4.625451e-05	
599	-3.35000e+00	4.633497e-05	
600	-3.40000e+00	4.641228e-05	
601	-3.45000e+00	4.648673e-05	
602	-3.50000e+00	4.655855e-05	
603	-3.55000e+00	4.662796e-05	
604	-3.60000e+00	4.669514e-05	
605	-3.65000e+00	4.676026e-05	
606	-3.70000e+00	4.682347e-05	
607	-3.75000e+00	4.688490e-05	
608	-3.80000e+00	4.694467e-05	
609	-3.85000e+00	4.700289e-05	
610	-3.90000e+00	4.705965e-05	
611	-3.95000e+00	4.711506e-05	
612	-4.00000e+00	4.716918e-05	
613	-4.05000e+00	4.722209e-05	
614	-4.10000e+00	4.727386e-05	
615	-4.15000e+00	4.732456e-05	
616	-4.20000e+00	4.737423e-05	
617	-4.25000e+00	4.742294e-05	
618	-4.30000e+00	4.747073e-05	
619	-4.35000e+00	4.751766e-05	
620	-4.40000e+00	4.756375e-05	
621	-4.45000e+00	4.760905e-05	
622	-4.50000e+00	4.765359e-05	
623	-4.55000e+00	4.769742e-05	
624	-4.60000e+00	4.774055e-05	
625	-4.65000e+00	4.778303e-05	
626	-4.70000e+00	4.782488e-05	
627	-4.75000e+00	4.786613e-05	
628	-4.80000e+00	4.790679e-05	
629	-4.85000e+00	4.794690e-05	
630	-4.90000e+00	4.798647e-05	
631	-4.95000e+00	4.802553e-05	
632	-5.00000e+00	4.806410e-05	
633	-5.05000e+00	4.810218e-05	
634	-5.10000e+00	4.813981e-05	

Index   v-sweep         i(vds)          
--------------------------------------------------------------------------------
635	-5.15000e+00	4.817700e-05	
636	-5.20000e+00	4.821376e-05	
637	-5.25000e+00	4.825011e-05	
638	-5.30000e+00	4.828607e-05	
639	-5.35000e+00	4.832164e-05	
640	-5.40000e+00	4.835685e-05	
641	-5.45000e+00	4.839170e-05	
642	-5.50000e+00	4.842621e-05	
643	-5.55000e+00	4.846039e-05	
644	-5.60000e+00	4.849426e-05	
645	-5.65000e+00	4.852783e-05	
646	-5.70000e+00	4.856112e-05	
647	-5.75000e+00	4.859414e-05	
648	-5.80000e+00	4.862690e-05	
649	-5.85000e+00	4.865942e-05	
650	-5.90000e+00	4.869173e-05	
651	-5.95000e+00	4.872384e-05	
652	-6.00000e+00	4.875577e-05	
653	-6.05000e+00	4.878755e-05	
654	-6.10000e+00	4.881919e-05	
655	-6.15000e+00	4.885074e-05	
656	-6.20000e+00	4.888223e-05	
657	-6.25000e+00	4.891368e-05	
658	-6.30000e+00	4.894513e-05	
659	-6.35000e+00	4.897664e-05	
660	-6.40000e+00	4.900824e-05	
661	-6.45000e+00	4.904000e-05	
662	-6.50000e+00	4.907196e-05	
663	-6.55000e+00	4.910419e-05	
664	-6.60000e+00	4.913676e-05	
665	0.000000e+00	-1.03844e-22	
666	-5.00000e-02	1.771726e-06	
667	-1.00000e-01	3.516973e-06	
668	-1.50000e-01	5.235813e-06	
669	-2.00000e-01	6.928321e-06	
670	-2.50000e-01	8.594569e-06	
671	-3.00000e-01	1.023463e-05	
672	-3.50000e-01	1.184858e-05	
673	-4.00000e-01	1.343648e-05	
674	-4.50000e-01	1.499842e-05	
675	-5.00000e-01	1.653446e-05	
676	-5.50000e-01	1.804468e-05	
677	-6.00000e-01	1.952915e-05	
678	-6.50000e-01	2.098794e-05	
679	-7.00000e-01	2.242113e-05	
680	-7.50000e-01	2.382878e-05	
681	-8.00000e-01	2.521098e-05	
682	-8.50000e-01	2.656778e-05	
683	-9.00000e-01	2.789928e-05	
684	-9.50000e-01	2.920553e-05	
685	-1.00000e+00	3.048660e-05	
686	-1.05000e+00	3.174259e-05	
687	-1.10000e+00	3.297354e-05	
688	-1.15000e+00	3.417955e-05	
689	-1.20000e+00	3.536067e-05	
690	-1.25000e+00	3.651698e-05	
691	-1.30000e+00	3.764855e-05	
692	-1.35000e+00	3.875546e-05	

Index   v-sweep         i(vds)          
--------------------------------------------------------------------------------
693	-1.40000e+00	3.983778e-05	
694	-1.45000e+00	4.089557e-05	
695	-1.50000e+00	4.192891e-05	
696	-1.55000e+00	4.293788e-05	
697	-1.60000e+00	4.392254e-05	
698	-1.65000e+00	4.488297e-05	
699	-1.70000e+00	4.581924e-05	
700	-1.75000e+00	4.673141e-05	
701	-1.80000e+00	4.761957e-05	
702	-1.85000e+00	4.848379e-05	
703	-1.90000e+00	4.932413e-05	
704	-1.95000e+00	5.014066e-05	
705	-2.00000e+00	5.093348e-05	
706	-2.05000e+00	5.170263e-05	
707	-2.10000e+00	5.244821e-05	
708	-2.15000e+00	5.317027e-05	
709	-2.20000e+00	5.386890e-05	
710	-2.25000e+00	5.454418e-05	
711	-2.30000e+00	5.519616e-05	
712	-2.35000e+00	5.582494e-05	
713	-2.40000e+00	5.643059e-05	
714	-2.45000e+00	5.701319e-05	
715	-2.50000e+00	5.757281e-05	
716	-2.55000e+00	5.810955e-05	
717	-2.60000e+00	5.862349e-05	
718	-2.65000e+00	5.911471e-05	
719	-2.70000e+00	5.958332e-05	
720	-2.75000e+00	6.002941e-05	
721	-2.80000e+00	6.045310e-05	
722	-2.85000e+00	6.085451e-05	
723	-2.90000e+00	6.123379e-05	
724	-2.95000e+00	6.159112e-05	
725	-3.00000e+00	6.192672e-05	
726	-3.05000e+00	6.224091e-05	
727	-3.10000e+00	6.253412e-05	
728	-3.15000e+00	6.280695e-05	
729	-3.20000e+00	6.306024e-05	
730	-3.25000e+00	6.329509e-05	
731	-3.30000e+00	6.351281e-05	
732	-3.35000e+00	6.371487e-05	
733	-3.40000e+00	6.390279e-05	
734	-3.45000e+00	6.407808e-05	
735	-3.50000e+00	6.424211e-05	
736	-3.55000e+00	6.439615e-05	
737	-3.60000e+00	6.454131e-05	
738	-3.65000e+00	6.467857e-05	
739	-3.70000e+00	6.480877e-05	
740	-3.75000e+00	6.493264e-05	
741	-3.80000e+00	6.505082e-05	
742	-3.85000e+00	6.516386e-05	
743	-3.90000e+00	6.527224e-05	
744	-3.95000e+00	6.537638e-05	
745	-4.00000e+00	6.547664e-05	
746	-4.05000e+00	6.557335e-05	
747	-4.10000e+00	6.566680e-05	
748	-4.15000e+00	6.575723e-05	
749	-4.20000e+00	6.584488e-05	
750	-4.25000e+00	6.592994e-05	

Index   v-sweep         i(vds)          
--------------------------------------------------------------------------------
751	-4.30000e+00	6.601261e-05	
752	-4.35000e+00	6.609303e-05	
753	-4.40000e+00	6.617136e-05	
754	-4.45000e+00	6.624773e-05	
755	-4.50000e+00	6.632226e-05	
756	-4.55000e+00	6.639507e-05	
757	-4.60000e+00	6.646625e-05	
758	-4.65000e+00	6.653590e-05	
759	-4.70000e+00	6.660410e-05	
760	-4.75000e+00	6.667093e-05	
761	-4.80000e+00	6.673646e-05	
762	-4.85000e+00	6.680076e-05	
763	-4.90000e+00	6.686389e-05	
764	-4.95000e+00	6.692591e-05	
765	-5.00000e+00	6.698687e-05	
766	-5.05000e+00	6.704681e-05	
767	-5.10000e+00	6.710580e-05	
768	-5.15000e+00	6.716386e-05	
769	-5.20000e+00	6.722103e-05	
770	-5.25000e+00	6.727737e-05	
771	-5.30000e+00	6.733290e-05	
772	-5.35000e+00	6.738765e-05	
773	-5.40000e+00	6.744165e-05	
774	-5.45000e+00	6.749495e-05	
775	-5.50000e+00	6.754755e-05	
776	-5.55000e+00	6.759950e-05	
777	-5.60000e+00	6.765081e-05	
778	-5.65000e+00	6.770151e-05	
779	-5.70000e+00	6.775161e-05	
780	-5.75000e+00	6.780115e-05	
781	-5.80000e+00	6.785014e-05	
782	-5.85000e+00	6.789861e-05	
783	-5.90000e+00	6.794656e-05	
784	-5.95000e+00	6.799402e-05	
785	-6.00000e+00	6.804101e-05	
786	-6.05000e+00	6.808754e-05	
787	-6.10000e+00	6.813364e-05	
788	-6.15000e+00	6.817932e-05	
789	-6.20000e+00	6.822460e-05	
790	-6.25000e+00	6.826949e-05	
791	-6.30000e+00	6.831403e-05	
792	-6.35000e+00	6.835822e-05	
793	-6.40000e+00	6.840209e-05	
794	-6.45000e+00	6.844566e-05	
795	-6.50000e+00	6.848897e-05	
796	-6.55000e+00	6.853203e-05	
797	-6.60000e+00	6.857488e-05	
Note: No ".plot", ".print", or ".fourier" lines; no simulations run
