
Note: Compatibility modes selected: hs

Warning: m=xx on .subckt line will override multiplier m hierarchy!


Circuit: ***************************

Doing analysis at TEMP = 125.000000 and TNOM = 125.000000


No. of Data Rows : 798
                          ***************************
                          DC transfer characteristic  Mon Jan  9 13:58:51  2023
--------------------------------------------------------------------------------
Index   v-sweep         i(vds)          
--------------------------------------------------------------------------------
0	0.000000e+00	-8.11995e-24	
1	-5.00000e-02	4.649625e-08	
2	-1.00000e-01	7.447584e-08	
3	-1.50000e-01	9.119659e-08	
4	-2.00000e-01	9.944969e-08	
5	-2.50000e-01	1.024838e-07	
6	-3.00000e-01	1.034831e-07	
7	-3.50000e-01	1.038839e-07	
8	-4.00000e-01	1.040956e-07	
9	-4.50000e-01	1.042348e-07	
10	-5.00000e-01	1.043405e-07	
11	-5.50000e-01	1.044283e-07	
12	-6.00000e-01	1.045054e-07	
13	-6.50000e-01	1.045754e-07	
14	-7.00000e-01	1.046404e-07	
15	-7.50000e-01	1.047017e-07	
16	-8.00000e-01	1.047600e-07	
17	-8.50000e-01	1.048160e-07	
18	-9.00000e-01	1.048700e-07	
19	-9.50000e-01	1.049222e-07	
20	-1.00000e+00	1.049730e-07	
21	-1.05000e+00	1.050225e-07	
22	-1.10000e+00	1.050708e-07	
23	-1.15000e+00	1.051181e-07	
24	-1.20000e+00	1.051644e-07	
25	-1.25000e+00	1.052099e-07	
26	-1.30000e+00	1.052546e-07	
27	-1.35000e+00	1.052985e-07	
28	-1.40000e+00	1.053417e-07	
29	-1.45000e+00	1.053844e-07	
30	-1.50000e+00	1.054264e-07	
31	-1.55000e+00	1.054678e-07	
32	-1.60000e+00	1.055088e-07	
33	-1.65000e+00	1.055492e-07	
34	-1.70000e+00	1.055892e-07	
35	-1.75000e+00	1.056288e-07	
36	-1.80000e+00	1.056679e-07	
37	-1.85000e+00	1.057067e-07	
38	-1.90000e+00	1.057450e-07	
39	-1.95000e+00	1.057830e-07	
40	-2.00000e+00	1.058207e-07	
41	-2.05000e+00	1.058581e-07	
42	-2.10000e+00	1.058951e-07	
43	-2.15000e+00	1.059319e-07	
44	-2.20000e+00	1.059683e-07	
45	-2.25000e+00	1.060045e-07	
46	-2.30000e+00	1.060405e-07	
47	-2.35000e+00	1.060762e-07	
48	-2.40000e+00	1.061116e-07	
49	-2.45000e+00	1.061468e-07	
50	-2.50000e+00	1.061818e-07	
51	-2.55000e+00	1.062166e-07	
52	-2.60000e+00	1.062512e-07	
53	-2.65000e+00	1.062856e-07	
54	-2.70000e+00	1.063198e-07	

Index   v-sweep         i(vds)          
--------------------------------------------------------------------------------
55	-2.75000e+00	1.063538e-07	
56	-2.80000e+00	1.063876e-07	
57	-2.85000e+00	1.064213e-07	
58	-2.90000e+00	1.064548e-07	
59	-2.95000e+00	1.064882e-07	
60	-3.00000e+00	1.065214e-07	
61	-3.05000e+00	1.065545e-07	
62	-3.10000e+00	1.065874e-07	
63	-3.15000e+00	1.066203e-07	
64	-3.20000e+00	1.066530e-07	
65	-3.25000e+00	1.066856e-07	
66	-3.30000e+00	1.067182e-07	
67	-3.35000e+00	1.067507e-07	
68	-3.40000e+00	1.067832e-07	
69	-3.45000e+00	1.068156e-07	
70	-3.50000e+00	1.068481e-07	
71	-3.55000e+00	1.068806e-07	
72	-3.60000e+00	1.069132e-07	
73	-3.65000e+00	1.069459e-07	
74	-3.70000e+00	1.069787e-07	
75	-3.75000e+00	1.070118e-07	
76	-3.80000e+00	1.070452e-07	
77	-3.85000e+00	1.070789e-07	
78	-3.90000e+00	1.071130e-07	
79	-3.95000e+00	1.071476e-07	
80	-4.00000e+00	1.071829e-07	
81	-4.05000e+00	1.072188e-07	
82	-4.10000e+00	1.072556e-07	
83	-4.15000e+00	1.072933e-07	
84	-4.20000e+00	1.073321e-07	
85	-4.25000e+00	1.073722e-07	
86	-4.30000e+00	1.074137e-07	
87	-4.35000e+00	1.074569e-07	
88	-4.40000e+00	1.075019e-07	
89	-4.45000e+00	1.075489e-07	
90	-4.50000e+00	1.075983e-07	
91	-4.55000e+00	1.076503e-07	
92	-4.60000e+00	1.077051e-07	
93	-4.65000e+00	1.077631e-07	
94	-4.70000e+00	1.078246e-07	
95	-4.75000e+00	1.078901e-07	
96	-4.80000e+00	1.079597e-07	
97	-4.85000e+00	1.080341e-07	
98	-4.90000e+00	1.081135e-07	
99	-4.95000e+00	1.081986e-07	
100	-5.00000e+00	1.082897e-07	
101	-5.05000e+00	1.083873e-07	
102	-5.10000e+00	1.084922e-07	
103	-5.15000e+00	1.086047e-07	
104	-5.20000e+00	1.087256e-07	
105	-5.25000e+00	1.088554e-07	
106	-5.30000e+00	1.089949e-07	
107	-5.35000e+00	1.091447e-07	
108	-5.40000e+00	1.093057e-07	
109	-5.45000e+00	1.094785e-07	
110	-5.50000e+00	1.096641e-07	
111	-5.55000e+00	1.098631e-07	
112	-5.60000e+00	1.100766e-07	

Index   v-sweep         i(vds)          
--------------------------------------------------------------------------------
113	-5.65000e+00	1.103054e-07	
114	-5.70000e+00	1.105505e-07	
115	-5.75000e+00	1.108129e-07	
116	-5.80000e+00	1.110935e-07	
117	-5.85000e+00	1.113935e-07	
118	-5.90000e+00	1.117139e-07	
119	-5.95000e+00	1.120559e-07	
120	-6.00000e+00	1.124206e-07	
121	-6.05000e+00	1.128093e-07	
122	-6.10000e+00	1.132231e-07	
123	-6.15000e+00	1.136633e-07	
124	-6.20000e+00	1.141313e-07	
125	-6.25000e+00	1.146284e-07	
126	-6.30000e+00	1.151560e-07	
127	-6.35000e+00	1.157154e-07	
128	-6.40000e+00	1.163081e-07	
129	-6.45000e+00	1.169356e-07	
130	-6.50000e+00	1.175994e-07	
131	-6.55000e+00	1.183011e-07	
132	-6.60000e+00	1.190422e-07	
133	0.000000e+00	4.441352e-23	
134	-5.00000e-02	2.012568e-07	
135	-1.00000e-01	3.828627e-07	
136	-1.50000e-01	5.517168e-07	
137	-2.00000e-01	7.094352e-07	
138	-2.50000e-01	8.563990e-07	
139	-3.00000e-01	9.927016e-07	
140	-3.50000e-01	1.118370e-06	
141	-4.00000e-01	1.233418e-06	
142	-4.50000e-01	1.337859e-06	
143	-5.00000e-01	1.431709e-06	
144	-5.50000e-01	1.514995e-06	
145	-6.00000e-01	1.587758e-06	
146	-6.50000e-01	1.650069e-06	
147	-7.00000e-01	1.702050e-06	
148	-7.50000e-01	1.743930e-06	
149	-8.00000e-01	1.776138e-06	
150	-8.50000e-01	1.799470e-06	
151	-9.00000e-01	1.815259e-06	
152	-9.50000e-01	1.825360e-06	
153	-1.00000e+00	1.831724e-06	
154	-1.05000e+00	1.835898e-06	
155	-1.10000e+00	1.838853e-06	
156	-1.15000e+00	1.841125e-06	
157	-1.20000e+00	1.842999e-06	
158	-1.25000e+00	1.844624e-06	
159	-1.30000e+00	1.846085e-06	
160	-1.35000e+00	1.847431e-06	
161	-1.40000e+00	1.848693e-06	
162	-1.45000e+00	1.849888e-06	
163	-1.50000e+00	1.851032e-06	
164	-1.55000e+00	1.852132e-06	
165	-1.60000e+00	1.853196e-06	
166	-1.65000e+00	1.854228e-06	
167	-1.70000e+00	1.855233e-06	
168	-1.75000e+00	1.856213e-06	
169	-1.80000e+00	1.857172e-06	
170	-1.85000e+00	1.858111e-06	

Index   v-sweep         i(vds)          
--------------------------------------------------------------------------------
171	-1.90000e+00	1.859032e-06	
172	-1.95000e+00	1.859937e-06	
173	-2.00000e+00	1.860826e-06	
174	-2.05000e+00	1.861702e-06	
175	-2.10000e+00	1.862564e-06	
176	-2.15000e+00	1.863415e-06	
177	-2.20000e+00	1.864254e-06	
178	-2.25000e+00	1.865082e-06	
179	-2.30000e+00	1.865901e-06	
180	-2.35000e+00	1.866710e-06	
181	-2.40000e+00	1.867510e-06	
182	-2.45000e+00	1.868301e-06	
183	-2.50000e+00	1.869085e-06	
184	-2.55000e+00	1.869861e-06	
185	-2.60000e+00	1.870629e-06	
186	-2.65000e+00	1.871391e-06	
187	-2.70000e+00	1.872147e-06	
188	-2.75000e+00	1.872896e-06	
189	-2.80000e+00	1.873639e-06	
190	-2.85000e+00	1.874376e-06	
191	-2.90000e+00	1.875108e-06	
192	-2.95000e+00	1.875834e-06	
193	-3.00000e+00	1.876556e-06	
194	-3.05000e+00	1.877273e-06	
195	-3.10000e+00	1.877985e-06	
196	-3.15000e+00	1.878692e-06	
197	-3.20000e+00	1.879395e-06	
198	-3.25000e+00	1.880094e-06	
199	-3.30000e+00	1.880789e-06	
200	-3.35000e+00	1.881480e-06	
201	-3.40000e+00	1.882168e-06	
202	-3.45000e+00	1.882852e-06	
203	-3.50000e+00	1.883532e-06	
204	-3.55000e+00	1.884209e-06	
205	-3.60000e+00	1.884883e-06	
206	-3.65000e+00	1.885554e-06	
207	-3.70000e+00	1.886223e-06	
208	-3.75000e+00	1.886888e-06	
209	-3.80000e+00	1.887551e-06	
210	-3.85000e+00	1.888212e-06	
211	-3.90000e+00	1.888871e-06	
212	-3.95000e+00	1.889528e-06	
213	-4.00000e+00	1.890183e-06	
214	-4.05000e+00	1.890838e-06	
215	-4.10000e+00	1.891491e-06	
216	-4.15000e+00	1.892145e-06	
217	-4.20000e+00	1.892799e-06	
218	-4.25000e+00	1.893453e-06	
219	-4.30000e+00	1.894110e-06	
220	-4.35000e+00	1.894768e-06	
221	-4.40000e+00	1.895430e-06	
222	-4.45000e+00	1.896097e-06	
223	-4.50000e+00	1.896769e-06	
224	-4.55000e+00	1.897448e-06	
225	-4.60000e+00	1.898136e-06	
226	-4.65000e+00	1.898834e-06	
227	-4.70000e+00	1.899545e-06	
228	-4.75000e+00	1.900269e-06	

Index   v-sweep         i(vds)          
--------------------------------------------------------------------------------
229	-4.80000e+00	1.901011e-06	
230	-4.85000e+00	1.901772e-06	
231	-4.90000e+00	1.902555e-06	
232	-4.95000e+00	1.903364e-06	
233	-5.00000e+00	1.904203e-06	
234	-5.05000e+00	1.905074e-06	
235	-5.10000e+00	1.905983e-06	
236	-5.15000e+00	1.906934e-06	
237	-5.20000e+00	1.907932e-06	
238	-5.25000e+00	1.908983e-06	
239	-5.30000e+00	1.910092e-06	
240	-5.35000e+00	1.911266e-06	
241	-5.40000e+00	1.912511e-06	
242	-5.45000e+00	1.913835e-06	
243	-5.50000e+00	1.915247e-06	
244	-5.55000e+00	1.916753e-06	
245	-5.60000e+00	1.918363e-06	
246	-5.65000e+00	1.920087e-06	
247	-5.70000e+00	1.921934e-06	
248	-5.75000e+00	1.923916e-06	
249	-5.80000e+00	1.926043e-06	
250	-5.85000e+00	1.928327e-06	
251	-5.90000e+00	1.930781e-06	
252	-5.95000e+00	1.933418e-06	
253	-6.00000e+00	1.936251e-06	
254	-6.05000e+00	1.939296e-06	
255	-6.10000e+00	1.942567e-06	
256	-6.15000e+00	1.946080e-06	
257	-6.20000e+00	1.949852e-06	
258	-6.25000e+00	1.953901e-06	
259	-6.30000e+00	1.958243e-06	
260	-6.35000e+00	1.962897e-06	
261	-6.40000e+00	1.967884e-06	
262	-6.45000e+00	1.973224e-06	
263	-6.50000e+00	1.978936e-06	
264	-6.55000e+00	1.985043e-06	
265	-6.60000e+00	1.991567e-06	
266	0.000000e+00	4.971450e-27	
267	-5.00000e-02	3.345391e-07	
268	-1.00000e-01	6.500927e-07	
269	-1.50000e-01	9.535315e-07	
270	-2.00000e-01	1.246467e-06	
271	-2.50000e-01	1.529280e-06	
272	-3.00000e-01	1.802059e-06	
273	-3.50000e-01	2.064828e-06	
274	-4.00000e-01	2.317594e-06	
275	-4.50000e-01	2.560361e-06	
276	-5.00000e-01	2.793130e-06	
277	-5.50000e-01	3.015905e-06	
278	-6.00000e-01	3.228689e-06	
279	-6.50000e-01	3.431484e-06	
280	-7.00000e-01	3.624294e-06	
281	-7.50000e-01	3.807123e-06	
282	-8.00000e-01	3.979975e-06	
283	-8.50000e-01	4.142856e-06	
284	-9.00000e-01	4.295770e-06	
285	-9.50000e-01	4.438727e-06	
286	-1.00000e+00	4.571735e-06	

Index   v-sweep         i(vds)          
--------------------------------------------------------------------------------
287	-1.05000e+00	4.694808e-06	
288	-1.10000e+00	4.807962e-06	
289	-1.15000e+00	4.911220e-06	
290	-1.20000e+00	5.004616e-06	
291	-1.25000e+00	5.088199e-06	
292	-1.30000e+00	5.162043e-06	
293	-1.35000e+00	5.226262e-06	
294	-1.40000e+00	5.281040e-06	
295	-1.45000e+00	5.326667e-06	
296	-1.50000e+00	5.363608e-06	
297	-1.55000e+00	5.392582e-06	
298	-1.60000e+00	5.414614e-06	
299	-1.65000e+00	5.431004e-06	
300	-1.70000e+00	5.443160e-06	
301	-1.75000e+00	5.452358e-06	
302	-1.80000e+00	5.459591e-06	
303	-1.85000e+00	5.465541e-06	
304	-1.90000e+00	5.470646e-06	
305	-1.95000e+00	5.475182e-06	
306	-2.00000e+00	5.479317e-06	
307	-2.05000e+00	5.483159e-06	
308	-2.10000e+00	5.486781e-06	
309	-2.15000e+00	5.490228e-06	
310	-2.20000e+00	5.493533e-06	
311	-2.25000e+00	5.496722e-06	
312	-2.30000e+00	5.499810e-06	
313	-2.35000e+00	5.502812e-06	
314	-2.40000e+00	5.505739e-06	
315	-2.45000e+00	5.508597e-06	
316	-2.50000e+00	5.511396e-06	
317	-2.55000e+00	5.514139e-06	
318	-2.60000e+00	5.516832e-06	
319	-2.65000e+00	5.519479e-06	
320	-2.70000e+00	5.522084e-06	
321	-2.75000e+00	5.524650e-06	
322	-2.80000e+00	5.527178e-06	
323	-2.85000e+00	5.529673e-06	
324	-2.90000e+00	5.532136e-06	
325	-2.95000e+00	5.534568e-06	
326	-3.00000e+00	5.536972e-06	
327	-3.05000e+00	5.539350e-06	
328	-3.10000e+00	5.541702e-06	
329	-3.15000e+00	5.544030e-06	
330	-3.20000e+00	5.546336e-06	
331	-3.25000e+00	5.548620e-06	
332	-3.30000e+00	5.550883e-06	
333	-3.35000e+00	5.553127e-06	
334	-3.40000e+00	5.555352e-06	
335	-3.45000e+00	5.557559e-06	
336	-3.50000e+00	5.559749e-06	
337	-3.55000e+00	5.561923e-06	
338	-3.60000e+00	5.564081e-06	
339	-3.65000e+00	5.566224e-06	
340	-3.70000e+00	5.568352e-06	
341	-3.75000e+00	5.570467e-06	
342	-3.80000e+00	5.572568e-06	
343	-3.85000e+00	5.574657e-06	
344	-3.90000e+00	5.576733e-06	

Index   v-sweep         i(vds)          
--------------------------------------------------------------------------------
345	-3.95000e+00	5.578797e-06	
346	-4.00000e+00	5.580850e-06	
347	-4.05000e+00	5.582891e-06	
348	-4.10000e+00	5.584922e-06	
349	-4.15000e+00	5.586943e-06	
350	-4.20000e+00	5.588954e-06	
351	-4.25000e+00	5.590955e-06	
352	-4.30000e+00	5.592947e-06	
353	-4.35000e+00	5.594931e-06	
354	-4.40000e+00	5.596906e-06	
355	-4.45000e+00	5.598874e-06	
356	-4.50000e+00	5.600835e-06	
357	-4.55000e+00	5.602789e-06	
358	-4.60000e+00	5.604737e-06	
359	-4.65000e+00	5.606680e-06	
360	-4.70000e+00	5.608619e-06	
361	-4.75000e+00	5.610554e-06	
362	-4.80000e+00	5.612487e-06	
363	-4.85000e+00	5.614420e-06	
364	-4.90000e+00	5.616353e-06	
365	-4.95000e+00	5.618288e-06	
366	-5.00000e+00	5.620229e-06	
367	-5.05000e+00	5.622176e-06	
368	-5.10000e+00	5.624132e-06	
369	-5.15000e+00	5.626101e-06	
370	-5.20000e+00	5.628087e-06	
371	-5.25000e+00	5.630092e-06	
372	-5.30000e+00	5.632122e-06	
373	-5.35000e+00	5.634181e-06	
374	-5.40000e+00	5.636275e-06	
375	-5.45000e+00	5.638411e-06	
376	-5.50000e+00	5.640595e-06	
377	-5.55000e+00	5.642835e-06	
378	-5.60000e+00	5.645139e-06	
379	-5.65000e+00	5.647518e-06	
380	-5.70000e+00	5.649981e-06	
381	-5.75000e+00	5.652540e-06	
382	-5.80000e+00	5.655207e-06	
383	-5.85000e+00	5.657997e-06	
384	-5.90000e+00	5.660922e-06	
385	-5.95000e+00	5.664000e-06	
386	-6.00000e+00	5.667248e-06	
387	-6.05000e+00	5.670683e-06	
388	-6.10000e+00	5.674327e-06	
389	-6.15000e+00	5.678201e-06	
390	-6.20000e+00	5.682327e-06	
391	-6.25000e+00	5.686729e-06	
392	-6.30000e+00	5.691435e-06	
393	-6.35000e+00	5.696471e-06	
394	-6.40000e+00	5.701868e-06	
395	-6.45000e+00	5.707656e-06	
396	-6.50000e+00	5.713868e-06	
397	-6.55000e+00	5.720540e-06	
398	-6.60000e+00	5.727707e-06	
399	0.000000e+00	-1.29696e-25	
400	-5.00000e-02	4.526149e-07	
401	-1.00000e-01	8.868991e-07	
402	-1.50000e-01	1.309700e-06	

Index   v-sweep         i(vds)          
--------------------------------------------------------------------------------
403	-2.00000e-01	1.722626e-06	
404	-2.50000e-01	2.126058e-06	
405	-3.00000e-01	2.520085e-06	
406	-3.50000e-01	2.904730e-06	
407	-4.00000e-01	3.280000e-06	
408	-4.50000e-01	3.645898e-06	
409	-5.00000e-01	4.002426e-06	
410	-5.50000e-01	4.349585e-06	
411	-6.00000e-01	4.687378e-06	
412	-6.50000e-01	5.015806e-06	
413	-7.00000e-01	5.334871e-06	
414	-7.50000e-01	5.644576e-06	
415	-8.00000e-01	5.944922e-06	
416	-8.50000e-01	6.235911e-06	
417	-9.00000e-01	6.517546e-06	
418	-9.50000e-01	6.789828e-06	
419	-1.00000e+00	7.052760e-06	
420	-1.05000e+00	7.306345e-06	
421	-1.10000e+00	7.550583e-06	
422	-1.15000e+00	7.785480e-06	
423	-1.20000e+00	8.011036e-06	
424	-1.25000e+00	8.227256e-06	
425	-1.30000e+00	8.434143e-06	
426	-1.35000e+00	8.631701e-06	
427	-1.40000e+00	8.819934e-06	
428	-1.45000e+00	8.998847e-06	
429	-1.50000e+00	9.168446e-06	
430	-1.55000e+00	9.328738e-06	
431	-1.60000e+00	9.479733e-06	
432	-1.65000e+00	9.621440e-06	
433	-1.70000e+00	9.753874e-06	
434	-1.75000e+00	9.877052e-06	
435	-1.80000e+00	9.990997e-06	
436	-1.85000e+00	1.009574e-05	
437	-1.90000e+00	1.019133e-05	
438	-1.95000e+00	1.027782e-05	
439	-2.00000e+00	1.035530e-05	
440	-2.05000e+00	1.042390e-05	
441	-2.10000e+00	1.048381e-05	
442	-2.15000e+00	1.053529e-05	
443	-2.20000e+00	1.057876e-05	
444	-2.25000e+00	1.061477e-05	
445	-2.30000e+00	1.064411e-05	
446	-2.35000e+00	1.066772e-05	
447	-2.40000e+00	1.068669e-05	
448	-2.45000e+00	1.070208e-05	
449	-2.50000e+00	1.071484e-05	
450	-2.55000e+00	1.072572e-05	
451	-2.60000e+00	1.073525e-05	
452	-2.65000e+00	1.074383e-05	
453	-2.70000e+00	1.075171e-05	
454	-2.75000e+00	1.075906e-05	
455	-2.80000e+00	1.076601e-05	
456	-2.85000e+00	1.077264e-05	
457	-2.90000e+00	1.077900e-05	
458	-2.95000e+00	1.078515e-05	
459	-3.00000e+00	1.079111e-05	
460	-3.05000e+00	1.079690e-05	

Index   v-sweep         i(vds)          
--------------------------------------------------------------------------------
461	-3.10000e+00	1.080256e-05	
462	-3.15000e+00	1.080809e-05	
463	-3.20000e+00	1.081351e-05	
464	-3.25000e+00	1.081882e-05	
465	-3.30000e+00	1.082404e-05	
466	-3.35000e+00	1.082917e-05	
467	-3.40000e+00	1.083422e-05	
468	-3.45000e+00	1.083920e-05	
469	-3.50000e+00	1.084411e-05	
470	-3.55000e+00	1.084895e-05	
471	-3.60000e+00	1.085373e-05	
472	-3.65000e+00	1.085846e-05	
473	-3.70000e+00	1.086313e-05	
474	-3.75000e+00	1.086775e-05	
475	-3.80000e+00	1.087233e-05	
476	-3.85000e+00	1.087686e-05	
477	-3.90000e+00	1.088134e-05	
478	-3.95000e+00	1.088579e-05	
479	-4.00000e+00	1.089019e-05	
480	-4.05000e+00	1.089456e-05	
481	-4.10000e+00	1.089889e-05	
482	-4.15000e+00	1.090319e-05	
483	-4.20000e+00	1.090746e-05	
484	-4.25000e+00	1.091169e-05	
485	-4.30000e+00	1.091590e-05	
486	-4.35000e+00	1.092008e-05	
487	-4.40000e+00	1.092422e-05	
488	-4.45000e+00	1.092835e-05	
489	-4.50000e+00	1.093244e-05	
490	-4.55000e+00	1.093652e-05	
491	-4.60000e+00	1.094056e-05	
492	-4.65000e+00	1.094459e-05	
493	-4.70000e+00	1.094859e-05	
494	-4.75000e+00	1.095258e-05	
495	-4.80000e+00	1.095654e-05	
496	-4.85000e+00	1.096048e-05	
497	-4.90000e+00	1.096441e-05	
498	-4.95000e+00	1.096831e-05	
499	-5.00000e+00	1.097220e-05	
500	-5.05000e+00	1.097607e-05	
501	-5.10000e+00	1.097993e-05	
502	-5.15000e+00	1.098377e-05	
503	-5.20000e+00	1.098759e-05	
504	-5.25000e+00	1.099141e-05	
505	-5.30000e+00	1.099521e-05	
506	-5.35000e+00	1.099900e-05	
507	-5.40000e+00	1.100279e-05	
508	-5.45000e+00	1.100656e-05	
509	-5.50000e+00	1.101033e-05	
510	-5.55000e+00	1.101410e-05	
511	-5.60000e+00	1.101787e-05	
512	-5.65000e+00	1.102165e-05	
513	-5.70000e+00	1.102543e-05	
514	-5.75000e+00	1.102922e-05	
515	-5.80000e+00	1.103302e-05	
516	-5.85000e+00	1.103685e-05	
517	-5.90000e+00	1.104071e-05	
518	-5.95000e+00	1.104461e-05	

Index   v-sweep         i(vds)          
--------------------------------------------------------------------------------
519	-6.00000e+00	1.104854e-05	
520	-6.05000e+00	1.105253e-05	
521	-6.10000e+00	1.105659e-05	
522	-6.15000e+00	1.106072e-05	
523	-6.20000e+00	1.106493e-05	
524	-6.25000e+00	1.106925e-05	
525	-6.30000e+00	1.107369e-05	
526	-6.35000e+00	1.107826e-05	
527	-6.40000e+00	1.108299e-05	
528	-6.45000e+00	1.108790e-05	
529	-6.50000e+00	1.109300e-05	
530	-6.55000e+00	1.109833e-05	
531	-6.60000e+00	1.110392e-05	
532	0.000000e+00	1.468008e-21	
533	-5.00000e-02	5.600051e-07	
534	-1.00000e-01	1.102249e-06	
535	-1.50000e-01	1.633556e-06	
536	-2.00000e-01	2.155535e-06	
537	-2.50000e-01	2.668565e-06	
538	-3.00000e-01	3.172736e-06	
539	-3.50000e-01	3.668071e-06	
540	-4.00000e-01	4.154576e-06	
541	-4.50000e-01	4.632255e-06	
542	-5.00000e-01	5.101109e-06	
543	-5.50000e-01	5.561140e-06	
544	-6.00000e-01	6.012349e-06	
545	-6.50000e-01	6.454738e-06	
546	-7.00000e-01	6.888310e-06	
547	-7.50000e-01	7.313065e-06	
548	-8.00000e-01	7.729005e-06	
549	-8.50000e-01	8.136132e-06	
550	-9.00000e-01	8.534448e-06	
551	-9.50000e-01	8.923954e-06	
552	-1.00000e+00	9.304653e-06	
553	-1.05000e+00	9.676545e-06	
554	-1.10000e+00	1.003963e-05	
555	-1.15000e+00	1.039392e-05	
556	-1.20000e+00	1.073940e-05	
557	-1.25000e+00	1.107609e-05	
558	-1.30000e+00	1.140398e-05	
559	-1.35000e+00	1.172307e-05	
560	-1.40000e+00	1.203337e-05	
561	-1.45000e+00	1.233488e-05	
562	-1.50000e+00	1.262760e-05	
563	-1.55000e+00	1.291153e-05	
564	-1.60000e+00	1.318668e-05	
565	-1.65000e+00	1.345304e-05	
566	-1.70000e+00	1.371063e-05	
567	-1.75000e+00	1.395944e-05	
568	-1.80000e+00	1.419947e-05	
569	-1.85000e+00	1.443074e-05	
570	-1.90000e+00	1.465323e-05	
571	-1.95000e+00	1.486697e-05	
572	-2.00000e+00	1.507194e-05	
573	-2.05000e+00	1.526815e-05	
574	-2.10000e+00	1.545562e-05	
575	-2.15000e+00	1.563434e-05	
576	-2.20000e+00	1.580433e-05	

Index   v-sweep         i(vds)          
--------------------------------------------------------------------------------
577	-2.25000e+00	1.596559e-05	
578	-2.30000e+00	1.611813e-05	
579	-2.35000e+00	1.626196e-05	
580	-2.40000e+00	1.639711e-05	
581	-2.45000e+00	1.652359e-05	
582	-2.50000e+00	1.664143e-05	
583	-2.55000e+00	1.675067e-05	
584	-2.60000e+00	1.685134e-05	
585	-2.65000e+00	1.694352e-05	
586	-2.70000e+00	1.702728e-05	
587	-2.75000e+00	1.710275e-05	
588	-2.80000e+00	1.717008e-05	
589	-2.85000e+00	1.722952e-05	
590	-2.90000e+00	1.728136e-05	
591	-2.95000e+00	1.732605e-05	
592	-3.00000e+00	1.736415e-05	
593	-3.05000e+00	1.739637e-05	
594	-3.10000e+00	1.742354e-05	
595	-3.15000e+00	1.744654e-05	
596	-3.20000e+00	1.746623e-05	
597	-3.25000e+00	1.748338e-05	
598	-3.30000e+00	1.749860e-05	
599	-3.35000e+00	1.751239e-05	
600	-3.40000e+00	1.752509e-05	
601	-3.45000e+00	1.753696e-05	
602	-3.50000e+00	1.754818e-05	
603	-3.55000e+00	1.755889e-05	
604	-3.60000e+00	1.756917e-05	
605	-3.65000e+00	1.757910e-05	
606	-3.70000e+00	1.758873e-05	
607	-3.75000e+00	1.759810e-05	
608	-3.80000e+00	1.760724e-05	
609	-3.85000e+00	1.761618e-05	
610	-3.90000e+00	1.762494e-05	
611	-3.95000e+00	1.763353e-05	
612	-4.00000e+00	1.764197e-05	
613	-4.05000e+00	1.765028e-05	
614	-4.10000e+00	1.765845e-05	
615	-4.15000e+00	1.766651e-05	
616	-4.20000e+00	1.767446e-05	
617	-4.25000e+00	1.768230e-05	
618	-4.30000e+00	1.769005e-05	
619	-4.35000e+00	1.769770e-05	
620	-4.40000e+00	1.770527e-05	
621	-4.45000e+00	1.771276e-05	
622	-4.50000e+00	1.772017e-05	
623	-4.55000e+00	1.772751e-05	
624	-4.60000e+00	1.773479e-05	
625	-4.65000e+00	1.774199e-05	
626	-4.70000e+00	1.774913e-05	
627	-4.75000e+00	1.775622e-05	
628	-4.80000e+00	1.776324e-05	
629	-4.85000e+00	1.777022e-05	
630	-4.90000e+00	1.777714e-05	
631	-4.95000e+00	1.778400e-05	
632	-5.00000e+00	1.779083e-05	
633	-5.05000e+00	1.779760e-05	
634	-5.10000e+00	1.780433e-05	

Index   v-sweep         i(vds)          
--------------------------------------------------------------------------------
635	-5.15000e+00	1.781102e-05	
636	-5.20000e+00	1.781767e-05	
637	-5.25000e+00	1.782428e-05	
638	-5.30000e+00	1.783085e-05	
639	-5.35000e+00	1.783739e-05	
640	-5.40000e+00	1.784389e-05	
641	-5.45000e+00	1.785035e-05	
642	-5.50000e+00	1.785678e-05	
643	-5.55000e+00	1.786318e-05	
644	-5.60000e+00	1.786955e-05	
645	-5.65000e+00	1.787589e-05	
646	-5.70000e+00	1.788221e-05	
647	-5.75000e+00	1.788849e-05	
648	-5.80000e+00	1.789475e-05	
649	-5.85000e+00	1.790099e-05	
650	-5.90000e+00	1.790720e-05	
651	-5.95000e+00	1.791339e-05	
652	-6.00000e+00	1.791956e-05	
653	-6.05000e+00	1.792572e-05	
654	-6.10000e+00	1.793186e-05	
655	-6.15000e+00	1.793798e-05	
656	-6.20000e+00	1.794410e-05	
657	-6.25000e+00	1.795021e-05	
658	-6.30000e+00	1.795631e-05	
659	-6.35000e+00	1.796242e-05	
660	-6.40000e+00	1.796854e-05	
661	-6.45000e+00	1.797467e-05	
662	-6.50000e+00	1.798082e-05	
663	-6.55000e+00	1.798700e-05	
664	-6.60000e+00	1.799322e-05	
665	0.000000e+00	-4.05803e-26	
666	-5.00000e-02	6.598552e-07	
667	-1.00000e-01	1.302435e-06	
668	-1.50000e-01	1.934545e-06	
669	-2.00000e-01	2.557791e-06	
670	-2.50000e-01	3.172553e-06	
671	-3.00000e-01	3.778921e-06	
672	-3.50000e-01	4.376917e-06	
673	-4.00000e-01	4.966549e-06	
674	-4.50000e-01	5.547818e-06	
675	-5.00000e-01	6.120727e-06	
676	-5.50000e-01	6.685278e-06	
677	-6.00000e-01	7.241472e-06	
678	-6.50000e-01	7.789311e-06	
679	-7.00000e-01	8.328795e-06	
680	-7.50000e-01	8.859928e-06	
681	-8.00000e-01	9.382710e-06	
682	-8.50000e-01	9.897143e-06	
683	-9.00000e-01	1.040323e-05	
684	-9.50000e-01	1.090097e-05	
685	-1.00000e+00	1.139036e-05	
686	-1.05000e+00	1.187142e-05	
687	-1.10000e+00	1.234413e-05	
688	-1.15000e+00	1.280850e-05	
689	-1.20000e+00	1.326454e-05	
690	-1.25000e+00	1.371223e-05	
691	-1.30000e+00	1.415160e-05	
692	-1.35000e+00	1.458263e-05	

Index   v-sweep         i(vds)          
--------------------------------------------------------------------------------
693	-1.40000e+00	1.500533e-05	
694	-1.45000e+00	1.541970e-05	
695	-1.50000e+00	1.582574e-05	
696	-1.55000e+00	1.622345e-05	
697	-1.60000e+00	1.661285e-05	
698	-1.65000e+00	1.699391e-05	
699	-1.70000e+00	1.736666e-05	
700	-1.75000e+00	1.773109e-05	
701	-1.80000e+00	1.808720e-05	
702	-1.85000e+00	1.843499e-05	
703	-1.90000e+00	1.877447e-05	
704	-1.95000e+00	1.910564e-05	
705	-2.00000e+00	1.942850e-05	
706	-2.05000e+00	1.974305e-05	
707	-2.10000e+00	2.004929e-05	
708	-2.15000e+00	2.034723e-05	
709	-2.20000e+00	2.063687e-05	
710	-2.25000e+00	2.091821e-05	
711	-2.30000e+00	2.119125e-05	
712	-2.35000e+00	2.145600e-05	
713	-2.40000e+00	2.171245e-05	
714	-2.45000e+00	2.196062e-05	
715	-2.50000e+00	2.220050e-05	
716	-2.55000e+00	2.243210e-05	
717	-2.60000e+00	2.265542e-05	
718	-2.65000e+00	2.287047e-05	
719	-2.70000e+00	2.307724e-05	
720	-2.75000e+00	2.327575e-05	
721	-2.80000e+00	2.346601e-05	
722	-2.85000e+00	2.364801e-05	
723	-2.90000e+00	2.382177e-05	
724	-2.95000e+00	2.398730e-05	
725	-3.00000e+00	2.414460e-05	
726	-3.05000e+00	2.429370e-05	
727	-3.10000e+00	2.443460e-05	
728	-3.15000e+00	2.456733e-05	
729	-3.20000e+00	2.469192e-05	
730	-3.25000e+00	2.480840e-05	
731	-3.30000e+00	2.491682e-05	
732	-3.35000e+00	2.501722e-05	
733	-3.40000e+00	2.510968e-05	
734	-3.45000e+00	2.519431e-05	
735	-3.50000e+00	2.527124e-05	
736	-3.55000e+00	2.534063e-05	
737	-3.60000e+00	2.540274e-05	
738	-3.65000e+00	2.545786e-05	
739	-3.70000e+00	2.550642e-05	
740	-3.75000e+00	2.554892e-05	
741	-3.80000e+00	2.558597e-05	
742	-3.85000e+00	2.561829e-05	
743	-3.90000e+00	2.564661e-05	
744	-3.95000e+00	2.567166e-05	
745	-4.00000e+00	2.569410e-05	
746	-4.05000e+00	2.571448e-05	
747	-4.10000e+00	2.573327e-05	
748	-4.15000e+00	2.575082e-05	
749	-4.20000e+00	2.576737e-05	
750	-4.25000e+00	2.578314e-05	

Index   v-sweep         i(vds)          
--------------------------------------------------------------------------------
751	-4.30000e+00	2.579827e-05	
752	-4.35000e+00	2.581286e-05	
753	-4.40000e+00	2.582700e-05	
754	-4.45000e+00	2.584075e-05	
755	-4.50000e+00	2.585415e-05	
756	-4.55000e+00	2.586726e-05	
757	-4.60000e+00	2.588010e-05	
758	-4.65000e+00	2.589269e-05	
759	-4.70000e+00	2.590506e-05	
760	-4.75000e+00	2.591722e-05	
761	-4.80000e+00	2.592920e-05	
762	-4.85000e+00	2.594101e-05	
763	-4.90000e+00	2.595265e-05	
764	-4.95000e+00	2.596414e-05	
765	-5.00000e+00	2.597549e-05	
766	-5.05000e+00	2.598671e-05	
767	-5.10000e+00	2.599780e-05	
768	-5.15000e+00	2.600877e-05	
769	-5.20000e+00	2.601963e-05	
770	-5.25000e+00	2.603039e-05	
771	-5.30000e+00	2.604104e-05	
772	-5.35000e+00	2.605160e-05	
773	-5.40000e+00	2.606206e-05	
774	-5.45000e+00	2.607244e-05	
775	-5.50000e+00	2.608273e-05	
776	-5.55000e+00	2.609295e-05	
777	-5.60000e+00	2.610309e-05	
778	-5.65000e+00	2.611315e-05	
779	-5.70000e+00	2.612315e-05	
780	-5.75000e+00	2.613308e-05	
781	-5.80000e+00	2.614294e-05	
782	-5.85000e+00	2.615275e-05	
783	-5.90000e+00	2.616249e-05	
784	-5.95000e+00	2.617217e-05	
785	-6.00000e+00	2.618180e-05	
786	-6.05000e+00	2.619138e-05	
787	-6.10000e+00	2.620090e-05	
788	-6.15000e+00	2.621037e-05	
789	-6.20000e+00	2.621980e-05	
790	-6.25000e+00	2.622918e-05	
791	-6.30000e+00	2.623851e-05	
792	-6.35000e+00	2.624780e-05	
793	-6.40000e+00	2.625705e-05	
794	-6.45000e+00	2.626626e-05	
795	-6.50000e+00	2.627543e-05	
796	-6.55000e+00	2.628457e-05	
797	-6.60000e+00	2.629367e-05	
Note: No ".plot", ".print", or ".fourier" lines; no simulations run
