
Note: Compatibility modes selected: hs

Warning: m=xx on .subckt line will override multiplier m hierarchy!


Circuit: ***************************

Doing analysis at TEMP = 125.000000 and TNOM = 125.000000


No. of Data Rows : 798
                          ***************************
                          DC transfer characteristic  Mon Jan  9 13:58:51  2023
--------------------------------------------------------------------------------
Index   v-sweep         i(vds)          
--------------------------------------------------------------------------------
0	0.000000e+00	-7.52221e-25	
1	-5.00000e-02	8.542142e-08	
2	-1.00000e-01	1.524149e-07	
3	-1.50000e-01	2.031920e-07	
4	-2.00000e-01	2.386407e-07	
5	-2.50000e-01	2.600827e-07	
6	-3.00000e-01	2.706881e-07	
7	-3.50000e-01	2.753285e-07	
8	-4.00000e-01	2.776437e-07	
9	-4.50000e-01	2.791360e-07	
10	-5.00000e-01	2.802977e-07	
11	-5.50000e-01	2.812986e-07	
12	-6.00000e-01	2.822056e-07	
13	-6.50000e-01	2.830497e-07	
14	-7.00000e-01	2.838468e-07	
15	-7.50000e-01	2.846064e-07	
16	-8.00000e-01	2.853344e-07	
17	-8.50000e-01	2.860349e-07	
18	-9.00000e-01	2.867112e-07	
19	-9.50000e-01	2.873655e-07	
20	-1.00000e+00	2.879997e-07	
21	-1.05000e+00	2.886156e-07	
22	-1.10000e+00	2.892145e-07	
23	-1.15000e+00	2.897976e-07	
24	-1.20000e+00	2.903658e-07	
25	-1.25000e+00	2.909202e-07	
26	-1.30000e+00	2.914616e-07	
27	-1.35000e+00	2.919908e-07	
28	-1.40000e+00	2.925083e-07	
29	-1.45000e+00	2.930149e-07	
30	-1.50000e+00	2.935111e-07	
31	-1.55000e+00	2.939974e-07	
32	-1.60000e+00	2.944744e-07	
33	-1.65000e+00	2.949424e-07	
34	-1.70000e+00	2.954019e-07	
35	-1.75000e+00	2.958533e-07	
36	-1.80000e+00	2.962969e-07	
37	-1.85000e+00	2.967331e-07	
38	-1.90000e+00	2.971621e-07	
39	-1.95000e+00	2.975843e-07	
40	-2.00000e+00	2.980000e-07	
41	-2.05000e+00	2.984094e-07	
42	-2.10000e+00	2.988127e-07	
43	-2.15000e+00	2.992103e-07	
44	-2.20000e+00	2.996022e-07	
45	-2.25000e+00	2.999888e-07	
46	-2.30000e+00	3.003701e-07	
47	-2.35000e+00	3.007464e-07	
48	-2.40000e+00	3.011179e-07	
49	-2.45000e+00	3.014848e-07	
50	-2.50000e+00	3.018471e-07	
51	-2.55000e+00	3.022050e-07	
52	-2.60000e+00	3.025588e-07	
53	-2.65000e+00	3.029084e-07	
54	-2.70000e+00	3.032541e-07	

Index   v-sweep         i(vds)          
--------------------------------------------------------------------------------
55	-2.75000e+00	3.035959e-07	
56	-2.80000e+00	3.039340e-07	
57	-2.85000e+00	3.042686e-07	
58	-2.90000e+00	3.045996e-07	
59	-2.95000e+00	3.049273e-07	
60	-3.00000e+00	3.052516e-07	
61	-3.05000e+00	3.055728e-07	
62	-3.10000e+00	3.058909e-07	
63	-3.15000e+00	3.062060e-07	
64	-3.20000e+00	3.065183e-07	
65	-3.25000e+00	3.068277e-07	
66	-3.30000e+00	3.071344e-07	
67	-3.35000e+00	3.074386e-07	
68	-3.40000e+00	3.077402e-07	
69	-3.45000e+00	3.080395e-07	
70	-3.50000e+00	3.083365e-07	
71	-3.55000e+00	3.086313e-07	
72	-3.60000e+00	3.089241e-07	
73	-3.65000e+00	3.092150e-07	
74	-3.70000e+00	3.095042e-07	
75	-3.75000e+00	3.097918e-07	
76	-3.80000e+00	3.100780e-07	
77	-3.85000e+00	3.103630e-07	
78	-3.90000e+00	3.106470e-07	
79	-3.95000e+00	3.109302e-07	
80	-4.00000e+00	3.112130e-07	
81	-4.05000e+00	3.114955e-07	
82	-4.10000e+00	3.117782e-07	
83	-4.15000e+00	3.120613e-07	
84	-4.20000e+00	3.123453e-07	
85	-4.25000e+00	3.126306e-07	
86	-4.30000e+00	3.129175e-07	
87	-4.35000e+00	3.132068e-07	
88	-4.40000e+00	3.134988e-07	
89	-4.45000e+00	3.137943e-07	
90	-4.50000e+00	3.140938e-07	
91	-4.55000e+00	3.143981e-07	
92	-4.60000e+00	3.147079e-07	
93	-4.65000e+00	3.150241e-07	
94	-4.70000e+00	3.153476e-07	
95	-4.75000e+00	3.156794e-07	
96	-4.80000e+00	3.160205e-07	
97	-4.85000e+00	3.163720e-07	
98	-4.90000e+00	3.167351e-07	
99	-4.95000e+00	3.171111e-07	
100	-5.00000e+00	3.175014e-07	
101	-5.05000e+00	3.179074e-07	
102	-5.10000e+00	3.183306e-07	
103	-5.15000e+00	3.187727e-07	
104	-5.20000e+00	3.192354e-07	
105	-5.25000e+00	3.197206e-07	
106	-5.30000e+00	3.202301e-07	
107	-5.35000e+00	3.207660e-07	
108	-5.40000e+00	3.213304e-07	
109	-5.45000e+00	3.219255e-07	
110	-5.50000e+00	3.225538e-07	
111	-5.55000e+00	3.232176e-07	
112	-5.60000e+00	3.239196e-07	

Index   v-sweep         i(vds)          
--------------------------------------------------------------------------------
113	-5.65000e+00	3.246623e-07	
114	-5.70000e+00	3.254487e-07	
115	-5.75000e+00	3.262816e-07	
116	-5.80000e+00	3.271640e-07	
117	-5.85000e+00	3.280992e-07	
118	-5.90000e+00	3.290903e-07	
119	-5.95000e+00	3.301407e-07	
120	-6.00000e+00	3.312541e-07	
121	-6.05000e+00	3.324339e-07	
122	-6.10000e+00	3.336840e-07	
123	-6.15000e+00	3.350081e-07	
124	-6.20000e+00	3.364104e-07	
125	-6.25000e+00	3.378950e-07	
126	-6.30000e+00	3.394659e-07	
127	-6.35000e+00	3.411277e-07	
128	-6.40000e+00	3.428848e-07	
129	-6.45000e+00	3.447418e-07	
130	-6.50000e+00	3.467033e-07	
131	-6.55000e+00	3.487743e-07	
132	-6.60000e+00	3.509597e-07	
133	0.000000e+00	-1.31569e-25	
134	-5.00000e-02	3.406523e-07	
135	-1.00000e-01	6.620268e-07	
136	-1.50000e-01	9.661245e-07	
137	-2.00000e-01	1.253426e-06	
138	-2.50000e-01	1.524047e-06	
139	-3.00000e-01	1.778020e-06	
140	-3.50000e-01	2.015355e-06	
141	-4.00000e-01	2.236061e-06	
142	-4.50000e-01	2.440146e-06	
143	-5.00000e-01	2.627626e-06	
144	-5.50000e-01	2.798517e-06	
145	-6.00000e-01	2.952851e-06	
146	-6.50000e-01	3.090673e-06	
147	-7.00000e-01	3.212060e-06	
148	-7.50000e-01	3.317138e-06	
149	-8.00000e-01	3.406137e-06	
150	-8.50000e-01	3.479470e-06	
151	-9.00000e-01	3.537895e-06	
152	-9.50000e-01	3.582759e-06	
153	-1.00000e+00	3.616200e-06	
154	-1.05000e+00	3.641018e-06	
155	-1.10000e+00	3.660041e-06	
156	-1.15000e+00	3.675468e-06	
157	-1.20000e+00	3.688701e-06	
158	-1.25000e+00	3.700542e-06	
159	-1.30000e+00	3.711436e-06	
160	-1.35000e+00	3.721636e-06	
161	-1.40000e+00	3.731293e-06	
162	-1.45000e+00	3.740505e-06	
163	-1.50000e+00	3.749338e-06	
164	-1.55000e+00	3.757839e-06	
165	-1.60000e+00	3.766044e-06	
166	-1.65000e+00	3.773982e-06	
167	-1.70000e+00	3.781676e-06	
168	-1.75000e+00	3.789146e-06	
169	-1.80000e+00	3.796407e-06	
170	-1.85000e+00	3.803475e-06	

Index   v-sweep         i(vds)          
--------------------------------------------------------------------------------
171	-1.90000e+00	3.810362e-06	
172	-1.95000e+00	3.817080e-06	
173	-2.00000e+00	3.823639e-06	
174	-2.05000e+00	3.830048e-06	
175	-2.10000e+00	3.836315e-06	
176	-2.15000e+00	3.842448e-06	
177	-2.20000e+00	3.848454e-06	
178	-2.25000e+00	3.854340e-06	
179	-2.30000e+00	3.860111e-06	
180	-2.35000e+00	3.865772e-06	
181	-2.40000e+00	3.871330e-06	
182	-2.45000e+00	3.876788e-06	
183	-2.50000e+00	3.882152e-06	
184	-2.55000e+00	3.887424e-06	
185	-2.60000e+00	3.892610e-06	
186	-2.65000e+00	3.897712e-06	
187	-2.70000e+00	3.902734e-06	
188	-2.75000e+00	3.907679e-06	
189	-2.80000e+00	3.912551e-06	
190	-2.85000e+00	3.917352e-06	
191	-2.90000e+00	3.922084e-06	
192	-2.95000e+00	3.926751e-06	
193	-3.00000e+00	3.931354e-06	
194	-3.05000e+00	3.935896e-06	
195	-3.10000e+00	3.940379e-06	
196	-3.15000e+00	3.944804e-06	
197	-3.20000e+00	3.949175e-06	
198	-3.25000e+00	3.953493e-06	
199	-3.30000e+00	3.957759e-06	
200	-3.35000e+00	3.961975e-06	
201	-3.40000e+00	3.966142e-06	
202	-3.45000e+00	3.970263e-06	
203	-3.50000e+00	3.974339e-06	
204	-3.55000e+00	3.978371e-06	
205	-3.60000e+00	3.982360e-06	
206	-3.65000e+00	3.986308e-06	
207	-3.70000e+00	3.990215e-06	
208	-3.75000e+00	3.994084e-06	
209	-3.80000e+00	3.997915e-06	
210	-3.85000e+00	4.001710e-06	
211	-3.90000e+00	4.005470e-06	
212	-3.95000e+00	4.009195e-06	
213	-4.00000e+00	4.012888e-06	
214	-4.05000e+00	4.016548e-06	
215	-4.10000e+00	4.020179e-06	
216	-4.15000e+00	4.023780e-06	
217	-4.20000e+00	4.027353e-06	
218	-4.25000e+00	4.030901e-06	
219	-4.30000e+00	4.034423e-06	
220	-4.35000e+00	4.037922e-06	
221	-4.40000e+00	4.041400e-06	
222	-4.45000e+00	4.044859e-06	
223	-4.50000e+00	4.048301e-06	
224	-4.55000e+00	4.051728e-06	
225	-4.60000e+00	4.055143e-06	
226	-4.65000e+00	4.058550e-06	
227	-4.70000e+00	4.061950e-06	
228	-4.75000e+00	4.065349e-06	

Index   v-sweep         i(vds)          
--------------------------------------------------------------------------------
229	-4.80000e+00	4.068749e-06	
230	-4.85000e+00	4.072155e-06	
231	-4.90000e+00	4.075573e-06	
232	-4.95000e+00	4.079007e-06	
233	-5.00000e+00	4.082463e-06	
234	-5.05000e+00	4.085948e-06	
235	-5.10000e+00	4.089468e-06	
236	-5.15000e+00	4.093031e-06	
237	-5.20000e+00	4.096647e-06	
238	-5.25000e+00	4.100322e-06	
239	-5.30000e+00	4.104069e-06	
240	-5.35000e+00	4.107896e-06	
241	-5.40000e+00	4.111816e-06	
242	-5.45000e+00	4.115841e-06	
243	-5.50000e+00	4.119984e-06	
244	-5.55000e+00	4.124259e-06	
245	-5.60000e+00	4.128682e-06	
246	-5.65000e+00	4.133270e-06	
247	-5.70000e+00	4.138039e-06	
248	-5.75000e+00	4.143007e-06	
249	-5.80000e+00	4.148196e-06	
250	-5.85000e+00	4.153626e-06	
251	-5.90000e+00	4.159318e-06	
252	-5.95000e+00	4.165296e-06	
253	-6.00000e+00	4.171586e-06	
254	-6.05000e+00	4.178212e-06	
255	-6.10000e+00	4.185203e-06	
256	-6.15000e+00	4.192587e-06	
257	-6.20000e+00	4.200394e-06	
258	-6.25000e+00	4.208657e-06	
259	-6.30000e+00	4.217407e-06	
260	-6.35000e+00	4.226680e-06	
261	-6.40000e+00	4.236512e-06	
262	-6.45000e+00	4.246939e-06	
263	-6.50000e+00	4.258002e-06	
264	-6.55000e+00	4.269741e-06	
265	-6.60000e+00	4.282197e-06	
266	0.000000e+00	2.280324e-25	
267	-5.00000e-02	5.598221e-07	
268	-1.00000e-01	1.101403e-06	
269	-1.50000e-01	1.626689e-06	
270	-2.00000e-01	2.136152e-06	
271	-2.50000e-01	2.629903e-06	
272	-3.00000e-01	3.107968e-06	
273	-3.50000e-01	3.570351e-06	
274	-4.00000e-01	4.017051e-06	
275	-4.50000e-01	4.448067e-06	
276	-5.00000e-01	4.863397e-06	
277	-5.50000e-01	5.263040e-06	
278	-6.00000e-01	5.646992e-06	
279	-6.50000e-01	6.015254e-06	
280	-7.00000e-01	6.367824e-06	
281	-7.50000e-01	6.704702e-06	
282	-8.00000e-01	7.025887e-06	
283	-8.50000e-01	7.331382e-06	
284	-9.00000e-01	7.621187e-06	
285	-9.50000e-01	7.895306e-06	
286	-1.00000e+00	8.153744e-06	

Index   v-sweep         i(vds)          
--------------------------------------------------------------------------------
287	-1.05000e+00	8.396510e-06	
288	-1.10000e+00	8.623616e-06	
289	-1.15000e+00	8.835079e-06	
290	-1.20000e+00	9.030925e-06	
291	-1.25000e+00	9.211193e-06	
292	-1.30000e+00	9.375940e-06	
293	-1.35000e+00	9.525253e-06	
294	-1.40000e+00	9.659270e-06	
295	-1.45000e+00	9.778203e-06	
296	-1.50000e+00	9.882395e-06	
297	-1.55000e+00	9.972387e-06	
298	-1.60000e+00	1.004903e-05	
299	-1.65000e+00	1.011358e-05	
300	-1.70000e+00	1.016774e-05	
301	-1.75000e+00	1.021353e-05	
302	-1.80000e+00	1.025296e-05	
303	-1.85000e+00	1.028776e-05	
304	-1.90000e+00	1.031923e-05	
305	-1.95000e+00	1.034825e-05	
306	-2.00000e+00	1.037542e-05	
307	-2.05000e+00	1.040111e-05	
308	-2.10000e+00	1.042558e-05	
309	-2.15000e+00	1.044902e-05	
310	-2.20000e+00	1.047156e-05	
311	-2.25000e+00	1.049329e-05	
312	-2.30000e+00	1.051430e-05	
313	-2.35000e+00	1.053466e-05	
314	-2.40000e+00	1.055441e-05	
315	-2.45000e+00	1.057360e-05	
316	-2.50000e+00	1.059227e-05	
317	-2.55000e+00	1.061046e-05	
318	-2.60000e+00	1.062820e-05	
319	-2.65000e+00	1.064551e-05	
320	-2.70000e+00	1.066242e-05	
321	-2.75000e+00	1.067895e-05	
322	-2.80000e+00	1.069513e-05	
323	-2.85000e+00	1.071097e-05	
324	-2.90000e+00	1.072649e-05	
325	-2.95000e+00	1.074170e-05	
326	-3.00000e+00	1.075662e-05	
327	-3.05000e+00	1.077127e-05	
328	-3.10000e+00	1.078565e-05	
329	-3.15000e+00	1.079978e-05	
330	-3.20000e+00	1.081367e-05	
331	-3.25000e+00	1.082733e-05	
332	-3.30000e+00	1.084077e-05	
333	-3.35000e+00	1.085399e-05	
334	-3.40000e+00	1.086702e-05	
335	-3.45000e+00	1.087985e-05	
336	-3.50000e+00	1.089249e-05	
337	-3.55000e+00	1.090495e-05	
338	-3.60000e+00	1.091724e-05	
339	-3.65000e+00	1.092936e-05	
340	-3.70000e+00	1.094131e-05	
341	-3.75000e+00	1.095312e-05	
342	-3.80000e+00	1.096477e-05	
343	-3.85000e+00	1.097628e-05	
344	-3.90000e+00	1.098764e-05	

Index   v-sweep         i(vds)          
--------------------------------------------------------------------------------
345	-3.95000e+00	1.099887e-05	
346	-4.00000e+00	1.100997e-05	
347	-4.05000e+00	1.102095e-05	
348	-4.10000e+00	1.103180e-05	
349	-4.15000e+00	1.104253e-05	
350	-4.20000e+00	1.105314e-05	
351	-4.25000e+00	1.106364e-05	
352	-4.30000e+00	1.107404e-05	
353	-4.35000e+00	1.108433e-05	
354	-4.40000e+00	1.109451e-05	
355	-4.45000e+00	1.110460e-05	
356	-4.50000e+00	1.111459e-05	
357	-4.55000e+00	1.112449e-05	
358	-4.60000e+00	1.113430e-05	
359	-4.65000e+00	1.114402e-05	
360	-4.70000e+00	1.115366e-05	
361	-4.75000e+00	1.116321e-05	
362	-4.80000e+00	1.117269e-05	
363	-4.85000e+00	1.118210e-05	
364	-4.90000e+00	1.119144e-05	
365	-4.95000e+00	1.120070e-05	
366	-5.00000e+00	1.120991e-05	
367	-5.05000e+00	1.121906e-05	
368	-5.10000e+00	1.122816e-05	
369	-5.15000e+00	1.123721e-05	
370	-5.20000e+00	1.124621e-05	
371	-5.25000e+00	1.125519e-05	
372	-5.30000e+00	1.126413e-05	
373	-5.35000e+00	1.127305e-05	
374	-5.40000e+00	1.128197e-05	
375	-5.45000e+00	1.129088e-05	
376	-5.50000e+00	1.129981e-05	
377	-5.55000e+00	1.130875e-05	
378	-5.60000e+00	1.131773e-05	
379	-5.65000e+00	1.132676e-05	
380	-5.70000e+00	1.133586e-05	
381	-5.75000e+00	1.134504e-05	
382	-5.80000e+00	1.135433e-05	
383	-5.85000e+00	1.136373e-05	
384	-5.90000e+00	1.137329e-05	
385	-5.95000e+00	1.138301e-05	
386	-6.00000e+00	1.139294e-05	
387	-6.05000e+00	1.140309e-05	
388	-6.10000e+00	1.141351e-05	
389	-6.15000e+00	1.142422e-05	
390	-6.20000e+00	1.143525e-05	
391	-6.25000e+00	1.144666e-05	
392	-6.30000e+00	1.145849e-05	
393	-6.35000e+00	1.147076e-05	
394	-6.40000e+00	1.148355e-05	
395	-6.45000e+00	1.149689e-05	
396	-6.50000e+00	1.151084e-05	
397	-6.55000e+00	1.152547e-05	
398	-6.60000e+00	1.154082e-05	
399	0.000000e+00	-5.69944e-23	
400	-5.00000e-02	7.526791e-07	
401	-1.00000e-01	1.488166e-06	
402	-1.50000e-01	2.208361e-06	

Index   v-sweep         i(vds)          
--------------------------------------------------------------------------------
403	-2.00000e-01	2.913731e-06	
404	-2.50000e-01	3.604387e-06	
405	-3.00000e-01	4.280352e-06	
406	-3.50000e-01	4.941631e-06	
407	-4.00000e-01	5.588220e-06	
408	-4.50000e-01	6.220117e-06	
409	-5.00000e-01	6.837318e-06	
410	-5.50000e-01	7.439819e-06	
411	-6.00000e-01	8.027617e-06	
412	-6.50000e-01	8.600707e-06	
413	-7.00000e-01	9.159087e-06	
414	-7.50000e-01	9.702752e-06	
415	-8.00000e-01	1.023170e-05	
416	-8.50000e-01	1.074592e-05	
417	-9.00000e-01	1.124542e-05	
418	-9.50000e-01	1.173020e-05	
419	-1.00000e+00	1.220024e-05	
420	-1.05000e+00	1.265554e-05	
421	-1.10000e+00	1.309611e-05	
422	-1.15000e+00	1.352194e-05	
423	-1.20000e+00	1.393302e-05	
424	-1.25000e+00	1.432936e-05	
425	-1.30000e+00	1.471096e-05	
426	-1.35000e+00	1.507781e-05	
427	-1.40000e+00	1.542990e-05	
428	-1.45000e+00	1.576726e-05	
429	-1.50000e+00	1.608986e-05	
430	-1.55000e+00	1.639772e-05	
431	-1.60000e+00	1.669085e-05	
432	-1.65000e+00	1.696924e-05	
433	-1.70000e+00	1.723291e-05	
434	-1.75000e+00	1.748187e-05	
435	-1.80000e+00	1.771615e-05	
436	-1.85000e+00	1.793578e-05	
437	-1.90000e+00	1.814079e-05	
438	-1.95000e+00	1.833126e-05	
439	-2.00000e+00	1.850727e-05	
440	-2.05000e+00	1.866895e-05	
441	-2.10000e+00	1.881650e-05	
442	-2.15000e+00	1.895019e-05	
443	-2.20000e+00	1.907046e-05	
444	-2.25000e+00	1.917790e-05	
445	-2.30000e+00	1.927339e-05	
446	-2.35000e+00	1.935806e-05	
447	-2.40000e+00	1.943333e-05	
448	-2.45000e+00	1.950074e-05	
449	-2.50000e+00	1.956182e-05	
450	-2.55000e+00	1.961789e-05	
451	-2.60000e+00	1.967002e-05	
452	-2.65000e+00	1.971899e-05	
453	-2.70000e+00	1.976539e-05	
454	-2.75000e+00	1.980963e-05	
455	-2.80000e+00	1.985202e-05	
456	-2.85000e+00	1.989278e-05	
457	-2.90000e+00	1.993210e-05	
458	-2.95000e+00	1.997011e-05	
459	-3.00000e+00	2.000693e-05	
460	-3.05000e+00	2.004266e-05	

Index   v-sweep         i(vds)          
--------------------------------------------------------------------------------
461	-3.10000e+00	2.007738e-05	
462	-3.15000e+00	2.011116e-05	
463	-3.20000e+00	2.014406e-05	
464	-3.25000e+00	2.017614e-05	
465	-3.30000e+00	2.020746e-05	
466	-3.35000e+00	2.023805e-05	
467	-3.40000e+00	2.026796e-05	
468	-3.45000e+00	2.029722e-05	
469	-3.50000e+00	2.032587e-05	
470	-3.55000e+00	2.035394e-05	
471	-3.60000e+00	2.038146e-05	
472	-3.65000e+00	2.040845e-05	
473	-3.70000e+00	2.043495e-05	
474	-3.75000e+00	2.046097e-05	
475	-3.80000e+00	2.048653e-05	
476	-3.85000e+00	2.051166e-05	
477	-3.90000e+00	2.053638e-05	
478	-3.95000e+00	2.056070e-05	
479	-4.00000e+00	2.058463e-05	
480	-4.05000e+00	2.060820e-05	
481	-4.10000e+00	2.063142e-05	
482	-4.15000e+00	2.065430e-05	
483	-4.20000e+00	2.067685e-05	
484	-4.25000e+00	2.069909e-05	
485	-4.30000e+00	2.072103e-05	
486	-4.35000e+00	2.074268e-05	
487	-4.40000e+00	2.076404e-05	
488	-4.45000e+00	2.078514e-05	
489	-4.50000e+00	2.080598e-05	
490	-4.55000e+00	2.082656e-05	
491	-4.60000e+00	2.084690e-05	
492	-4.65000e+00	2.086700e-05	
493	-4.70000e+00	2.088687e-05	
494	-4.75000e+00	2.090652e-05	
495	-4.80000e+00	2.092596e-05	
496	-4.85000e+00	2.094519e-05	
497	-4.90000e+00	2.096422e-05	
498	-4.95000e+00	2.098305e-05	
499	-5.00000e+00	2.100169e-05	
500	-5.05000e+00	2.102015e-05	
501	-5.10000e+00	2.103843e-05	
502	-5.15000e+00	2.105654e-05	
503	-5.20000e+00	2.107448e-05	
504	-5.25000e+00	2.109226e-05	
505	-5.30000e+00	2.110988e-05	
506	-5.35000e+00	2.112735e-05	
507	-5.40000e+00	2.114467e-05	
508	-5.45000e+00	2.116186e-05	
509	-5.50000e+00	2.117891e-05	
510	-5.55000e+00	2.119583e-05	
511	-5.60000e+00	2.121263e-05	
512	-5.65000e+00	2.122932e-05	
513	-5.70000e+00	2.124590e-05	
514	-5.75000e+00	2.126238e-05	
515	-5.80000e+00	2.127877e-05	
516	-5.85000e+00	2.129509e-05	
517	-5.90000e+00	2.131133e-05	
518	-5.95000e+00	2.132752e-05	

Index   v-sweep         i(vds)          
--------------------------------------------------------------------------------
519	-6.00000e+00	2.134368e-05	
520	-6.05000e+00	2.135980e-05	
521	-6.10000e+00	2.137592e-05	
522	-6.15000e+00	2.139204e-05	
523	-6.20000e+00	2.140820e-05	
524	-6.25000e+00	2.142441e-05	
525	-6.30000e+00	2.144070e-05	
526	-6.35000e+00	2.145709e-05	
527	-6.40000e+00	2.147363e-05	
528	-6.45000e+00	2.149033e-05	
529	-6.50000e+00	2.150725e-05	
530	-6.55000e+00	2.152441e-05	
531	-6.60000e+00	2.154186e-05	
532	0.000000e+00	-1.91975e-25	
533	-5.00000e-02	9.253101e-07	
534	-1.00000e-01	1.834374e-06	
535	-1.50000e-01	2.729054e-06	
536	-2.00000e-01	3.609811e-06	
537	-2.50000e-01	4.476756e-06	
538	-3.00000e-01	5.329913e-06	
539	-3.50000e-01	6.169286e-06	
540	-4.00000e-01	6.994872e-06	
541	-4.50000e-01	7.806667e-06	
542	-5.00000e-01	8.604666e-06	
543	-5.50000e-01	9.388866e-06	
544	-6.00000e-01	1.015926e-05	
545	-6.50000e-01	1.091585e-05	
546	-7.00000e-01	1.165863e-05	
547	-7.50000e-01	1.238759e-05	
548	-8.00000e-01	1.310273e-05	
549	-8.50000e-01	1.380404e-05	
550	-9.00000e-01	1.449152e-05	
551	-9.50000e-01	1.516517e-05	
552	-1.00000e+00	1.582498e-05	
553	-1.05000e+00	1.647095e-05	
554	-1.10000e+00	1.710308e-05	
555	-1.15000e+00	1.772135e-05	
556	-1.20000e+00	1.832577e-05	
557	-1.25000e+00	1.891632e-05	
558	-1.30000e+00	1.949302e-05	
559	-1.35000e+00	2.005585e-05	
560	-1.40000e+00	2.060480e-05	
561	-1.45000e+00	2.113989e-05	
562	-1.50000e+00	2.166109e-05	
563	-1.55000e+00	2.216841e-05	
564	-1.60000e+00	2.266184e-05	
565	-1.65000e+00	2.314139e-05	
566	-1.70000e+00	2.360704e-05	
567	-1.75000e+00	2.405880e-05	
568	-1.80000e+00	2.449666e-05	
569	-1.85000e+00	2.492061e-05	
570	-1.90000e+00	2.533067e-05	
571	-1.95000e+00	2.572682e-05	
572	-2.00000e+00	2.610907e-05	
573	-2.05000e+00	2.647741e-05	
574	-2.10000e+00	2.683185e-05	
575	-2.15000e+00	2.717239e-05	
576	-2.20000e+00	2.749903e-05	

Index   v-sweep         i(vds)          
--------------------------------------------------------------------------------
577	-2.25000e+00	2.781179e-05	
578	-2.30000e+00	2.811066e-05	
579	-2.35000e+00	2.839566e-05	
580	-2.40000e+00	2.866681e-05	
581	-2.45000e+00	2.892413e-05	
582	-2.50000e+00	2.916767e-05	
583	-2.55000e+00	2.939745e-05	
584	-2.60000e+00	2.961355e-05	
585	-2.65000e+00	2.981605e-05	
586	-2.70000e+00	3.000508e-05	
587	-2.75000e+00	3.018081e-05	
588	-2.80000e+00	3.034347e-05	
589	-2.85000e+00	3.049340e-05	
590	-2.90000e+00	3.063108e-05	
591	-2.95000e+00	3.075713e-05	
592	-3.00000e+00	3.087239e-05	
593	-3.05000e+00	3.097787e-05	
594	-3.10000e+00	3.107473e-05	
595	-3.15000e+00	3.116422e-05	
596	-3.20000e+00	3.124749e-05	
597	-3.25000e+00	3.132559e-05	
598	-3.30000e+00	3.139937e-05	
599	-3.35000e+00	3.146951e-05	
600	-3.40000e+00	3.153653e-05	
601	-3.45000e+00	3.160082e-05	
602	-3.50000e+00	3.166271e-05	
603	-3.55000e+00	3.172245e-05	
604	-3.60000e+00	3.178023e-05	
605	-3.65000e+00	3.183623e-05	
606	-3.70000e+00	3.189058e-05	
607	-3.75000e+00	3.194341e-05	
608	-3.80000e+00	3.199482e-05	
609	-3.85000e+00	3.204491e-05	
610	-3.90000e+00	3.209376e-05	
611	-3.95000e+00	3.214145e-05	
612	-4.00000e+00	3.218805e-05	
613	-4.05000e+00	3.223361e-05	
614	-4.10000e+00	3.227819e-05	
615	-4.15000e+00	3.232185e-05	
616	-4.20000e+00	3.236463e-05	
617	-4.25000e+00	3.240657e-05	
618	-4.30000e+00	3.244773e-05	
619	-4.35000e+00	3.248812e-05	
620	-4.40000e+00	3.252780e-05	
621	-4.45000e+00	3.256678e-05	
622	-4.50000e+00	3.260511e-05	
623	-4.55000e+00	3.264280e-05	
624	-4.60000e+00	3.267990e-05	
625	-4.65000e+00	3.271641e-05	
626	-4.70000e+00	3.275237e-05	
627	-4.75000e+00	3.278780e-05	
628	-4.80000e+00	3.282272e-05	
629	-4.85000e+00	3.285714e-05	
630	-4.90000e+00	3.289109e-05	
631	-4.95000e+00	3.292458e-05	
632	-5.00000e+00	3.295763e-05	
633	-5.05000e+00	3.299025e-05	
634	-5.10000e+00	3.302247e-05	

Index   v-sweep         i(vds)          
--------------------------------------------------------------------------------
635	-5.15000e+00	3.305429e-05	
636	-5.20000e+00	3.308573e-05	
637	-5.25000e+00	3.311679e-05	
638	-5.30000e+00	3.314750e-05	
639	-5.35000e+00	3.317786e-05	
640	-5.40000e+00	3.320789e-05	
641	-5.45000e+00	3.323759e-05	
642	-5.50000e+00	3.326698e-05	
643	-5.55000e+00	3.329606e-05	
644	-5.60000e+00	3.332485e-05	
645	-5.65000e+00	3.335335e-05	
646	-5.70000e+00	3.338157e-05	
647	-5.75000e+00	3.340952e-05	
648	-5.80000e+00	3.343721e-05	
649	-5.85000e+00	3.346465e-05	
650	-5.90000e+00	3.349184e-05	
651	-5.95000e+00	3.351879e-05	
652	-6.00000e+00	3.354551e-05	
653	-6.05000e+00	3.357201e-05	
654	-6.10000e+00	3.359830e-05	
655	-6.15000e+00	3.362438e-05	
656	-6.20000e+00	3.365026e-05	
657	-6.25000e+00	3.367596e-05	
658	-6.30000e+00	3.370149e-05	
659	-6.35000e+00	3.372685e-05	
660	-6.40000e+00	3.375206e-05	
661	-6.45000e+00	3.377712e-05	
662	-6.50000e+00	3.380207e-05	
663	-6.55000e+00	3.382691e-05	
664	-6.60000e+00	3.385165e-05	
665	0.000000e+00	9.609560e-21	
666	-5.00000e-02	1.082011e-06	
667	-1.00000e-01	2.148614e-06	
668	-1.50000e-01	3.201638e-06	
669	-2.00000e-01	4.241539e-06	
670	-2.50000e-01	5.268428e-06	
671	-3.00000e-01	6.282331e-06	
672	-3.50000e-01	7.283250e-06	
673	-4.00000e-01	8.271184e-06	
674	-4.50000e-01	9.246127e-06	
675	-5.00000e-01	1.020808e-05	
676	-5.50000e-01	1.115703e-05	
677	-6.00000e-01	1.209297e-05	
678	-6.50000e-01	1.301591e-05	
679	-7.00000e-01	1.392584e-05	
680	-7.50000e-01	1.482275e-05	
681	-8.00000e-01	1.570664e-05	
682	-8.50000e-01	1.657751e-05	
683	-9.00000e-01	1.743535e-05	
684	-9.50000e-01	1.828015e-05	
685	-1.00000e+00	1.911191e-05	
686	-1.05000e+00	1.993063e-05	
687	-1.10000e+00	2.073630e-05	
688	-1.15000e+00	2.152892e-05	
689	-1.20000e+00	2.230849e-05	
690	-1.25000e+00	2.307499e-05	
691	-1.30000e+00	2.382843e-05	
692	-1.35000e+00	2.456879e-05	

Index   v-sweep         i(vds)          
--------------------------------------------------------------------------------
693	-1.40000e+00	2.529609e-05	
694	-1.45000e+00	2.601030e-05	
695	-1.50000e+00	2.671143e-05	
696	-1.55000e+00	2.739947e-05	
697	-1.60000e+00	2.807442e-05	
698	-1.65000e+00	2.873628e-05	
699	-1.70000e+00	2.938503e-05	
700	-1.75000e+00	3.002068e-05	
701	-1.80000e+00	3.064321e-05	
702	-1.85000e+00	3.125264e-05	
703	-1.90000e+00	3.184894e-05	
704	-1.95000e+00	3.243212e-05	
705	-2.00000e+00	3.300218e-05	
706	-2.05000e+00	3.355911e-05	
707	-2.10000e+00	3.410290e-05	
708	-2.15000e+00	3.463355e-05	
709	-2.20000e+00	3.515107e-05	
710	-2.25000e+00	3.565543e-05	
711	-2.30000e+00	3.614665e-05	
712	-2.35000e+00	3.662472e-05	
713	-2.40000e+00	3.708963e-05	
714	-2.45000e+00	3.754139e-05	
715	-2.50000e+00	3.797999e-05	
716	-2.55000e+00	3.840543e-05	
717	-2.60000e+00	3.881771e-05	
718	-2.65000e+00	3.921683e-05	
719	-2.70000e+00	3.960279e-05	
720	-2.75000e+00	3.997560e-05	
721	-2.80000e+00	4.033525e-05	
722	-2.85000e+00	4.068175e-05	
723	-2.90000e+00	4.101511e-05	
724	-2.95000e+00	4.133534e-05	
725	-3.00000e+00	4.164246e-05	
726	-3.05000e+00	4.193648e-05	
727	-3.10000e+00	4.221743e-05	
728	-3.15000e+00	4.248534e-05	
729	-3.20000e+00	4.274027e-05	
730	-3.25000e+00	4.298227e-05	
731	-3.30000e+00	4.321143e-05	
732	-3.35000e+00	4.342785e-05	
733	-3.40000e+00	4.363170e-05	
734	-3.45000e+00	4.382316e-05	
735	-3.50000e+00	4.400253e-05	
736	-3.55000e+00	4.417017e-05	
737	-3.60000e+00	4.432656e-05	
738	-3.65000e+00	4.447232e-05	
739	-3.70000e+00	4.460822e-05	
740	-3.75000e+00	4.473515e-05	
741	-3.80000e+00	4.485406e-05	
742	-3.85000e+00	4.496595e-05	
743	-3.90000e+00	4.507172e-05	
744	-3.95000e+00	4.517221e-05	
745	-4.00000e+00	4.526811e-05	
746	-4.05000e+00	4.535999e-05	
747	-4.10000e+00	4.544831e-05	
748	-4.15000e+00	4.553344e-05	
749	-4.20000e+00	4.561570e-05	
750	-4.25000e+00	4.569533e-05	

Index   v-sweep         i(vds)          
--------------------------------------------------------------------------------
751	-4.30000e+00	4.577255e-05	
752	-4.35000e+00	4.584755e-05	
753	-4.40000e+00	4.592048e-05	
754	-4.45000e+00	4.599149e-05	
755	-4.50000e+00	4.606069e-05	
756	-4.55000e+00	4.612821e-05	
757	-4.60000e+00	4.619413e-05	
758	-4.65000e+00	4.625856e-05	
759	-4.70000e+00	4.632158e-05	
760	-4.75000e+00	4.638325e-05	
761	-4.80000e+00	4.644366e-05	
762	-4.85000e+00	4.650286e-05	
763	-4.90000e+00	4.656092e-05	
764	-4.95000e+00	4.661789e-05	
765	-5.00000e+00	4.667383e-05	
766	-5.05000e+00	4.672877e-05	
767	-5.10000e+00	4.678276e-05	
768	-5.15000e+00	4.683586e-05	
769	-5.20000e+00	4.688808e-05	
770	-5.25000e+00	4.693948e-05	
771	-5.30000e+00	4.699009e-05	
772	-5.35000e+00	4.703993e-05	
773	-5.40000e+00	4.708904e-05	
774	-5.45000e+00	4.713744e-05	
775	-5.50000e+00	4.718517e-05	
776	-5.55000e+00	4.723224e-05	
777	-5.60000e+00	4.727869e-05	
778	-5.65000e+00	4.732453e-05	
779	-5.70000e+00	4.736979e-05	
780	-5.75000e+00	4.741449e-05	
781	-5.80000e+00	4.745864e-05	
782	-5.85000e+00	4.750226e-05	
783	-5.90000e+00	4.754538e-05	
784	-5.95000e+00	4.758800e-05	
785	-6.00000e+00	4.763015e-05	
786	-6.05000e+00	4.767184e-05	
787	-6.10000e+00	4.771308e-05	
788	-6.15000e+00	4.775389e-05	
789	-6.20000e+00	4.779427e-05	
790	-6.25000e+00	4.783426e-05	
791	-6.30000e+00	4.787384e-05	
792	-6.35000e+00	4.791304e-05	
793	-6.40000e+00	4.795188e-05	
794	-6.45000e+00	4.799035e-05	
795	-6.50000e+00	4.802847e-05	
796	-6.55000e+00	4.806625e-05	
797	-6.60000e+00	4.810371e-05	
Note: No ".plot", ".print", or ".fourier" lines; no simulations run
