
Note: Compatibility modes selected: hs

Warning: m=xx on .subckt line will override multiplier m hierarchy!


Circuit: ***************************

Doing analysis at TEMP = -40.000000 and TNOM = -40.000000


No. of Data Rows : 798
                          ***************************
                          DC transfer characteristic  Mon Jan  9 13:58:50  2023
--------------------------------------------------------------------------------
Index   v-sweep         i(vds)          
--------------------------------------------------------------------------------
0	0.000000e+00	-6.23474e-38	
1	-5.00000e-02	8.989489e-07	
2	-1.00000e-01	1.174698e-06	
3	-1.50000e-01	1.245662e-06	
4	-2.00000e-01	1.284067e-06	
5	-2.50000e-01	1.315274e-06	
6	-3.00000e-01	1.343671e-06	
7	-3.50000e-01	1.370515e-06	
8	-4.00000e-01	1.396331e-06	
9	-4.50000e-01	1.421398e-06	
10	-5.00000e-01	1.445893e-06	
11	-5.50000e-01	1.469937e-06	
12	-6.00000e-01	1.493617e-06	
13	-6.50000e-01	1.517004e-06	
14	-7.00000e-01	1.540149e-06	
15	-7.50000e-01	1.563099e-06	
16	-8.00000e-01	1.585887e-06	
17	-8.50000e-01	1.608545e-06	
18	-9.00000e-01	1.631097e-06	
19	-9.50000e-01	1.653566e-06	
20	-1.00000e+00	1.675970e-06	
21	-1.05000e+00	1.698325e-06	
22	-1.10000e+00	1.720646e-06	
23	-1.15000e+00	1.742944e-06	
24	-1.20000e+00	1.765232e-06	
25	-1.25000e+00	1.787518e-06	
26	-1.30000e+00	1.809812e-06	
27	-1.35000e+00	1.832121e-06	
28	-1.40000e+00	1.854452e-06	
29	-1.45000e+00	1.876812e-06	
30	-1.50000e+00	1.899207e-06	
31	-1.55000e+00	1.921641e-06	
32	-1.60000e+00	1.944121e-06	
33	-1.65000e+00	1.966649e-06	
34	-1.70000e+00	1.989230e-06	
35	-1.75000e+00	2.011868e-06	
36	-1.80000e+00	2.034567e-06	
37	-1.85000e+00	2.057328e-06	
38	-1.90000e+00	2.080157e-06	
39	-1.95000e+00	2.103054e-06	
40	-2.00000e+00	2.126023e-06	
41	-2.05000e+00	2.149066e-06	
42	-2.10000e+00	2.172185e-06	
43	-2.15000e+00	2.195383e-06	
44	-2.20000e+00	2.218661e-06	
45	-2.25000e+00	2.242021e-06	
46	-2.30000e+00	2.265466e-06	
47	-2.35000e+00	2.288995e-06	
48	-2.40000e+00	2.312612e-06	
49	-2.45000e+00	2.336317e-06	
50	-2.50000e+00	2.360113e-06	
51	-2.55000e+00	2.383999e-06	
52	-2.60000e+00	2.407978e-06	
53	-2.65000e+00	2.432051e-06	
54	-2.70000e+00	2.456219e-06	

Index   v-sweep         i(vds)          
--------------------------------------------------------------------------------
55	-2.75000e+00	2.480483e-06	
56	-2.80000e+00	2.504844e-06	
57	-2.85000e+00	2.529303e-06	
58	-2.90000e+00	2.553861e-06	
59	-2.95000e+00	2.578520e-06	
60	-3.00000e+00	2.603280e-06	
61	-3.05000e+00	2.628142e-06	
62	-3.10000e+00	2.653108e-06	
63	-3.15000e+00	2.678179e-06	
64	-3.20000e+00	2.703355e-06	
65	-3.25000e+00	2.728638e-06	
66	-3.30000e+00	2.754030e-06	
67	-3.35000e+00	2.779531e-06	
68	-3.40000e+00	2.805144e-06	
69	-3.45000e+00	2.830870e-06	
70	-3.50000e+00	2.856710e-06	
71	-3.55000e+00	2.882668e-06	
72	-3.60000e+00	2.908746e-06	
73	-3.65000e+00	2.934945e-06	
74	-3.70000e+00	2.961269e-06	
75	-3.75000e+00	2.987721e-06	
76	-3.80000e+00	3.014305e-06	
77	-3.85000e+00	3.041026e-06	
78	-3.90000e+00	3.067886e-06	
79	-3.95000e+00	3.094892e-06	
80	-4.00000e+00	3.122049e-06	
81	-4.05000e+00	3.149363e-06	
82	-4.10000e+00	3.176842e-06	
83	-4.15000e+00	3.204492e-06	
84	-4.20000e+00	3.232323e-06	
85	-4.25000e+00	3.260344e-06	
86	-4.30000e+00	3.288564e-06	
87	-4.35000e+00	3.316995e-06	
88	-4.40000e+00	3.345650e-06	
89	-4.45000e+00	3.374541e-06	
90	-4.50000e+00	3.403683e-06	
91	-4.55000e+00	3.433092e-06	
92	-4.60000e+00	3.462785e-06	
93	-4.65000e+00	3.492781e-06	
94	-4.70000e+00	3.523100e-06	
95	-4.75000e+00	3.553762e-06	
96	-4.80000e+00	3.584793e-06	
97	-4.85000e+00	3.616216e-06	
98	-4.90000e+00	3.648058e-06	
99	-4.95000e+00	3.680349e-06	
100	-5.00000e+00	3.713118e-06	
101	-5.05000e+00	3.746399e-06	
102	-5.10000e+00	3.780226e-06	
103	-5.15000e+00	3.814636e-06	
104	-5.20000e+00	3.849669e-06	
105	-5.25000e+00	3.885366e-06	
106	-5.30000e+00	3.921772e-06	
107	-5.35000e+00	3.958933e-06	
108	-5.40000e+00	3.996899e-06	
109	-5.45000e+00	4.035721e-06	
110	-5.50000e+00	4.075456e-06	
111	-5.55000e+00	4.116159e-06	
112	-5.60000e+00	4.157892e-06	

Index   v-sweep         i(vds)          
--------------------------------------------------------------------------------
113	-5.65000e+00	4.200719e-06	
114	-5.70000e+00	4.244707e-06	
115	-5.75000e+00	4.289924e-06	
116	-5.80000e+00	4.336445e-06	
117	-5.85000e+00	4.384346e-06	
118	-5.90000e+00	4.433707e-06	
119	-5.95000e+00	4.484611e-06	
120	-6.00000e+00	4.537145e-06	
121	-6.05000e+00	4.591399e-06	
122	-6.10000e+00	4.647467e-06	
123	-6.15000e+00	4.705448e-06	
124	-6.20000e+00	4.765443e-06	
125	-6.25000e+00	4.827558e-06	
126	-6.30000e+00	4.891901e-06	
127	-6.35000e+00	4.958586e-06	
128	-6.40000e+00	5.027730e-06	
129	-6.45000e+00	5.099455e-06	
130	-6.50000e+00	5.173887e-06	
131	-6.55000e+00	5.251154e-06	
132	-6.60000e+00	5.331392e-06	
133	0.000000e+00	-1.12533e-35	
134	-5.00000e-02	1.871746e-05	
135	-1.00000e-01	3.615009e-05	
136	-1.50000e-01	5.231922e-05	
137	-2.00000e-01	6.724594e-05	
138	-2.50000e-01	8.095117e-05	
139	-3.00000e-01	9.345572e-05	
140	-3.50000e-01	1.047804e-04	
141	-4.00000e-01	1.149464e-04	
142	-4.50000e-01	1.239755e-04	
143	-5.00000e-01	1.318910e-04	
144	-5.50000e-01	1.387199e-04	
145	-6.00000e-01	1.444962e-04	
146	-6.50000e-01	1.492697e-04	
147	-7.00000e-01	1.531201e-04	
148	-7.50000e-01	1.561745e-04	
149	-8.00000e-01	1.586033e-04	
150	-8.50000e-01	1.605812e-04	
151	-9.00000e-01	1.622457e-04	
152	-9.50000e-01	1.636888e-04	
153	-1.00000e+00	1.649693e-04	
154	-1.05000e+00	1.661255e-04	
155	-1.10000e+00	1.671835e-04	
156	-1.15000e+00	1.681618e-04	
157	-1.20000e+00	1.690742e-04	
158	-1.25000e+00	1.699310e-04	
159	-1.30000e+00	1.707403e-04	
160	-1.35000e+00	1.715086e-04	
161	-1.40000e+00	1.722411e-04	
162	-1.45000e+00	1.729420e-04	
163	-1.50000e+00	1.736149e-04	
164	-1.55000e+00	1.742628e-04	
165	-1.60000e+00	1.748882e-04	
166	-1.65000e+00	1.754933e-04	
167	-1.70000e+00	1.760801e-04	
168	-1.75000e+00	1.766500e-04	
169	-1.80000e+00	1.772045e-04	
170	-1.85000e+00	1.777449e-04	

Index   v-sweep         i(vds)          
--------------------------------------------------------------------------------
171	-1.90000e+00	1.782723e-04	
172	-1.95000e+00	1.787876e-04	
173	-2.00000e+00	1.792918e-04	
174	-2.05000e+00	1.797856e-04	
175	-2.10000e+00	1.802698e-04	
176	-2.15000e+00	1.807449e-04	
177	-2.20000e+00	1.812115e-04	
178	-2.25000e+00	1.816703e-04	
179	-2.30000e+00	1.821216e-04	
180	-2.35000e+00	1.825659e-04	
181	-2.40000e+00	1.830036e-04	
182	-2.45000e+00	1.834350e-04	
183	-2.50000e+00	1.838606e-04	
184	-2.55000e+00	1.842805e-04	
185	-2.60000e+00	1.846952e-04	
186	-2.65000e+00	1.851048e-04	
187	-2.70000e+00	1.855097e-04	
188	-2.75000e+00	1.859100e-04	
189	-2.80000e+00	1.863060e-04	
190	-2.85000e+00	1.866978e-04	
191	-2.90000e+00	1.870857e-04	
192	-2.95000e+00	1.874699e-04	
193	-3.00000e+00	1.878504e-04	
194	-3.05000e+00	1.882275e-04	
195	-3.10000e+00	1.886013e-04	
196	-3.15000e+00	1.889719e-04	
197	-3.20000e+00	1.893395e-04	
198	-3.25000e+00	1.897042e-04	
199	-3.30000e+00	1.900660e-04	
200	-3.35000e+00	1.904252e-04	
201	-3.40000e+00	1.907819e-04	
202	-3.45000e+00	1.911360e-04	
203	-3.50000e+00	1.914878e-04	
204	-3.55000e+00	1.918372e-04	
205	-3.60000e+00	1.921845e-04	
206	-3.65000e+00	1.925297e-04	
207	-3.70000e+00	1.928728e-04	
208	-3.75000e+00	1.932141e-04	
209	-3.80000e+00	1.935534e-04	
210	-3.85000e+00	1.938911e-04	
211	-3.90000e+00	1.942271e-04	
212	-3.95000e+00	1.945615e-04	
213	-4.00000e+00	1.948945e-04	
214	-4.05000e+00	1.952261e-04	
215	-4.10000e+00	1.955565e-04	
216	-4.15000e+00	1.958858e-04	
217	-4.20000e+00	1.962141e-04	
218	-4.25000e+00	1.965416e-04	
219	-4.30000e+00	1.968685e-04	
220	-4.35000e+00	1.971948e-04	
221	-4.40000e+00	1.975208e-04	
222	-4.45000e+00	1.978468e-04	
223	-4.50000e+00	1.981728e-04	
224	-4.55000e+00	1.984993e-04	
225	-4.60000e+00	1.988264e-04	
226	-4.65000e+00	1.991546e-04	
227	-4.70000e+00	1.994840e-04	
228	-4.75000e+00	1.998151e-04	

Index   v-sweep         i(vds)          
--------------------------------------------------------------------------------
229	-4.80000e+00	2.001483e-04	
230	-4.85000e+00	2.004840e-04	
231	-4.90000e+00	2.008227e-04	
232	-4.95000e+00	2.011648e-04	
233	-5.00000e+00	2.015111e-04	
234	-5.05000e+00	2.018620e-04	
235	-5.10000e+00	2.022183e-04	
236	-5.15000e+00	2.025806e-04	
237	-5.20000e+00	2.029497e-04	
238	-5.25000e+00	2.033264e-04	
239	-5.30000e+00	2.037116e-04	
240	-5.35000e+00	2.041062e-04	
241	-5.40000e+00	2.045111e-04	
242	-5.45000e+00	2.049276e-04	
243	-5.50000e+00	2.053567e-04	
244	-5.55000e+00	2.057995e-04	
245	-5.60000e+00	2.062574e-04	
246	-5.65000e+00	2.067317e-04	
247	-5.70000e+00	2.072238e-04	
248	-5.75000e+00	2.077352e-04	
249	-5.80000e+00	2.082675e-04	
250	-5.85000e+00	2.088223e-04	
251	-5.90000e+00	2.094014e-04	
252	-5.95000e+00	2.100065e-04	
253	-6.00000e+00	2.106396e-04	
254	-6.05000e+00	2.113027e-04	
255	-6.10000e+00	2.119978e-04	
256	-6.15000e+00	2.127270e-04	
257	-6.20000e+00	2.134927e-04	
258	-6.25000e+00	2.142971e-04	
259	-6.30000e+00	2.151427e-04	
260	-6.35000e+00	2.160320e-04	
261	-6.40000e+00	2.169676e-04	
262	-6.45000e+00	2.179522e-04	
263	-6.50000e+00	2.189885e-04	
264	-6.55000e+00	2.200795e-04	
265	-6.60000e+00	2.212282e-04	
266	0.000000e+00	5.214779e-36	
267	-5.00000e-02	3.050320e-05	
268	-1.00000e-01	5.983104e-05	
269	-1.50000e-01	8.799836e-05	
270	-2.00000e-01	1.150199e-04	
271	-2.50000e-01	1.409102e-04	
272	-3.00000e-01	1.656838e-04	
273	-3.50000e-01	1.893548e-04	
274	-4.00000e-01	2.119375e-04	
275	-4.50000e-01	2.334458e-04	
276	-5.00000e-01	2.538936e-04	
277	-5.50000e-01	2.732948e-04	
278	-6.00000e-01	2.916627e-04	
279	-6.50000e-01	3.090110e-04	
280	-7.00000e-01	3.253530e-04	
281	-7.50000e-01	3.407021e-04	
282	-8.00000e-01	3.550713e-04	
283	-8.50000e-01	3.684740e-04	
284	-9.00000e-01	3.809233e-04	
285	-9.50000e-01	3.924325e-04	
286	-1.00000e+00	4.030153e-04	

Index   v-sweep         i(vds)          
--------------------------------------------------------------------------------
287	-1.05000e+00	4.126859e-04	
288	-1.10000e+00	4.214594e-04	
289	-1.15000e+00	4.293535e-04	
290	-1.20000e+00	4.363903e-04	
291	-1.25000e+00	4.426010e-04	
292	-1.30000e+00	4.480323e-04	
293	-1.35000e+00	4.527531e-04	
294	-1.40000e+00	4.568533e-04	
295	-1.45000e+00	4.604327e-04	
296	-1.50000e+00	4.635868e-04	
297	-1.55000e+00	4.663971e-04	
298	-1.60000e+00	4.689292e-04	
299	-1.65000e+00	4.712342e-04	
300	-1.70000e+00	4.733519e-04	
301	-1.75000e+00	4.753129e-04	
302	-1.80000e+00	4.771416e-04	
303	-1.85000e+00	4.788571e-04	
304	-1.90000e+00	4.804748e-04	
305	-1.95000e+00	4.820074e-04	
306	-2.00000e+00	4.834652e-04	
307	-2.05000e+00	4.848568e-04	
308	-2.10000e+00	4.861894e-04	
309	-2.15000e+00	4.874692e-04	
310	-2.20000e+00	4.887014e-04	
311	-2.25000e+00	4.898904e-04	
312	-2.30000e+00	4.910403e-04	
313	-2.35000e+00	4.921543e-04	
314	-2.40000e+00	4.932355e-04	
315	-2.45000e+00	4.942865e-04	
316	-2.50000e+00	4.953097e-04	
317	-2.55000e+00	4.963070e-04	
318	-2.60000e+00	4.972804e-04	
319	-2.65000e+00	4.982315e-04	
320	-2.70000e+00	4.991618e-04	
321	-2.75000e+00	5.000727e-04	
322	-2.80000e+00	5.009654e-04	
323	-2.85000e+00	5.018409e-04	
324	-2.90000e+00	5.027004e-04	
325	-2.95000e+00	5.035448e-04	
326	-3.00000e+00	5.043748e-04	
327	-3.05000e+00	5.051914e-04	
328	-3.10000e+00	5.059952e-04	
329	-3.15000e+00	5.067868e-04	
330	-3.20000e+00	5.075669e-04	
331	-3.25000e+00	5.083361e-04	
332	-3.30000e+00	5.090949e-04	
333	-3.35000e+00	5.098438e-04	
334	-3.40000e+00	5.105833e-04	
335	-3.45000e+00	5.113137e-04	
336	-3.50000e+00	5.120355e-04	
337	-3.55000e+00	5.127491e-04	
338	-3.60000e+00	5.134548e-04	
339	-3.65000e+00	5.141529e-04	
340	-3.70000e+00	5.148438e-04	
341	-3.75000e+00	5.155277e-04	
342	-3.80000e+00	5.162050e-04	
343	-3.85000e+00	5.168758e-04	
344	-3.90000e+00	5.175405e-04	

Index   v-sweep         i(vds)          
--------------------------------------------------------------------------------
345	-3.95000e+00	5.181993e-04	
346	-4.00000e+00	5.188524e-04	
347	-4.05000e+00	5.195000e-04	
348	-4.10000e+00	5.201424e-04	
349	-4.15000e+00	5.207797e-04	
350	-4.20000e+00	5.214122e-04	
351	-4.25000e+00	5.220401e-04	
352	-4.30000e+00	5.226635e-04	
353	-4.35000e+00	5.232827e-04	
354	-4.40000e+00	5.238979e-04	
355	-4.45000e+00	5.245094e-04	
356	-4.50000e+00	5.251172e-04	
357	-4.55000e+00	5.257218e-04	
358	-4.60000e+00	5.263233e-04	
359	-4.65000e+00	5.269220e-04	
360	-4.70000e+00	5.275183e-04	
361	-4.75000e+00	5.281124e-04	
362	-4.80000e+00	5.287047e-04	
363	-4.85000e+00	5.292957e-04	
364	-4.90000e+00	5.298857e-04	
365	-4.95000e+00	5.304752e-04	
366	-5.00000e+00	5.310648e-04	
367	-5.05000e+00	5.316550e-04	
368	-5.10000e+00	5.322465e-04	
369	-5.15000e+00	5.328400e-04	
370	-5.20000e+00	5.334363e-04	
371	-5.25000e+00	5.340362e-04	
372	-5.30000e+00	5.346406e-04	
373	-5.35000e+00	5.352506e-04	
374	-5.40000e+00	5.358673e-04	
375	-5.45000e+00	5.364919e-04	
376	-5.50000e+00	5.371258e-04	
377	-5.55000e+00	5.377703e-04	
378	-5.60000e+00	5.384270e-04	
379	-5.65000e+00	5.390977e-04	
380	-5.70000e+00	5.397840e-04	
381	-5.75000e+00	5.404880e-04	
382	-5.80000e+00	5.412118e-04	
383	-5.85000e+00	5.419575e-04	
384	-5.90000e+00	5.427276e-04	
385	-5.95000e+00	5.435247e-04	
386	-6.00000e+00	5.443513e-04	
387	-6.05000e+00	5.452105e-04	
388	-6.10000e+00	5.461053e-04	
389	-6.15000e+00	5.470389e-04	
390	-6.20000e+00	5.480147e-04	
391	-6.25000e+00	5.490364e-04	
392	-6.30000e+00	5.501078e-04	
393	-6.35000e+00	5.512328e-04	
394	-6.40000e+00	5.524157e-04	
395	-6.45000e+00	5.536609e-04	
396	-6.50000e+00	5.549730e-04	
397	-6.55000e+00	5.563567e-04	
398	-6.60000e+00	5.578172e-04	
399	0.000000e+00	-1.70744e-36	
400	-5.00000e-02	3.873687e-05	
401	-1.00000e-01	7.641029e-05	
402	-1.50000e-01	1.130312e-04	

Index   v-sweep         i(vds)          
--------------------------------------------------------------------------------
403	-2.00000e-01	1.486106e-04	
404	-2.50000e-01	1.831593e-04	
405	-3.00000e-01	2.166880e-04	
406	-3.50000e-01	2.492073e-04	
407	-4.00000e-01	2.807278e-04	
408	-4.50000e-01	3.112601e-04	
409	-5.00000e-01	3.408145e-04	
410	-5.50000e-01	3.694013e-04	
411	-6.00000e-01	3.970308e-04	
412	-6.50000e-01	4.237131e-04	
413	-7.00000e-01	4.494583e-04	
414	-7.50000e-01	4.742763e-04	
415	-8.00000e-01	4.981770e-04	
416	-8.50000e-01	5.211703e-04	
417	-9.00000e-01	5.432657e-04	
418	-9.50000e-01	5.644729e-04	
419	-1.00000e+00	5.848014e-04	
420	-1.05000e+00	6.042607e-04	
421	-1.10000e+00	6.228599e-04	
422	-1.15000e+00	6.406085e-04	
423	-1.20000e+00	6.575152e-04	
424	-1.25000e+00	6.735892e-04	
425	-1.30000e+00	6.888391e-04	
426	-1.35000e+00	7.032734e-04	
427	-1.40000e+00	7.169000e-04	
428	-1.45000e+00	7.297267e-04	
429	-1.50000e+00	7.417603e-04	
430	-1.55000e+00	7.530064e-04	
431	-1.60000e+00	7.634692e-04	
432	-1.65000e+00	7.731511e-04	
433	-1.70000e+00	7.820527e-04	
434	-1.75000e+00	7.901750e-04	
435	-1.80000e+00	7.975246e-04	
436	-1.85000e+00	8.041228e-04	
437	-1.90000e+00	8.100131e-04	
438	-1.95000e+00	8.152616e-04	
439	-2.00000e+00	8.199484e-04	
440	-2.05000e+00	8.241557e-04	
441	-2.10000e+00	8.279593e-04	
442	-2.15000e+00	8.314243e-04	
443	-2.20000e+00	8.346049e-04	
444	-2.25000e+00	8.375452e-04	
445	-2.30000e+00	8.402808e-04	
446	-2.35000e+00	8.428407e-04	
447	-2.40000e+00	8.452487e-04	
448	-2.45000e+00	8.475242e-04	
449	-2.50000e+00	8.496833e-04	
450	-2.55000e+00	8.517395e-04	
451	-2.60000e+00	8.537041e-04	
452	-2.65000e+00	8.555867e-04	
453	-2.70000e+00	8.573955e-04	
454	-2.75000e+00	8.591376e-04	
455	-2.80000e+00	8.608191e-04	
456	-2.85000e+00	8.624454e-04	
457	-2.90000e+00	8.640211e-04	
458	-2.95000e+00	8.655503e-04	
459	-3.00000e+00	8.670367e-04	
460	-3.05000e+00	8.684835e-04	

Index   v-sweep         i(vds)          
--------------------------------------------------------------------------------
461	-3.10000e+00	8.698936e-04	
462	-3.15000e+00	8.712695e-04	
463	-3.20000e+00	8.726136e-04	
464	-3.25000e+00	8.739280e-04	
465	-3.30000e+00	8.752147e-04	
466	-3.35000e+00	8.764752e-04	
467	-3.40000e+00	8.777112e-04	
468	-3.45000e+00	8.789242e-04	
469	-3.50000e+00	8.801153e-04	
470	-3.55000e+00	8.812860e-04	
471	-3.60000e+00	8.824372e-04	
472	-3.65000e+00	8.835700e-04	
473	-3.70000e+00	8.846853e-04	
474	-3.75000e+00	8.857841e-04	
475	-3.80000e+00	8.868670e-04	
476	-3.85000e+00	8.879350e-04	
477	-3.90000e+00	8.889886e-04	
478	-3.95000e+00	8.900286e-04	
479	-4.00000e+00	8.910555e-04	
480	-4.05000e+00	8.920699e-04	
481	-4.10000e+00	8.930724e-04	
482	-4.15000e+00	8.940635e-04	
483	-4.20000e+00	8.950436e-04	
484	-4.25000e+00	8.960132e-04	
485	-4.30000e+00	8.969727e-04	
486	-4.35000e+00	8.979226e-04	
487	-4.40000e+00	8.988631e-04	
488	-4.45000e+00	8.997947e-04	
489	-4.50000e+00	9.007177e-04	
490	-4.55000e+00	9.016325e-04	
491	-4.60000e+00	9.025393e-04	
492	-4.65000e+00	9.034385e-04	
493	-4.70000e+00	9.043305e-04	
494	-4.75000e+00	9.052154e-04	
495	-4.80000e+00	9.060937e-04	
496	-4.85000e+00	9.069657e-04	
497	-4.90000e+00	9.078316e-04	
498	-4.95000e+00	9.086919e-04	
499	-5.00000e+00	9.095469e-04	
500	-5.05000e+00	9.103969e-04	
501	-5.10000e+00	9.112425e-04	
502	-5.15000e+00	9.120839e-04	
503	-5.20000e+00	9.129218e-04	
504	-5.25000e+00	9.137567e-04	
505	-5.30000e+00	9.145891e-04	
506	-5.35000e+00	9.154196e-04	
507	-5.40000e+00	9.162490e-04	
508	-5.45000e+00	9.170781e-04	
509	-5.50000e+00	9.179077e-04	
510	-5.55000e+00	9.187388e-04	
511	-5.60000e+00	9.195724e-04	
512	-5.65000e+00	9.204098e-04	
513	-5.70000e+00	9.212521e-04	
514	-5.75000e+00	9.221009e-04	
515	-5.80000e+00	9.229576e-04	
516	-5.85000e+00	9.238239e-04	
517	-5.90000e+00	9.247018e-04	
518	-5.95000e+00	9.255932e-04	

Index   v-sweep         i(vds)          
--------------------------------------------------------------------------------
519	-6.00000e+00	9.265004e-04	
520	-6.05000e+00	9.274257e-04	
521	-6.10000e+00	9.283718e-04	
522	-6.15000e+00	9.293414e-04	
523	-6.20000e+00	9.303375e-04	
524	-6.25000e+00	9.313635e-04	
525	-6.30000e+00	9.324228e-04	
526	-6.35000e+00	9.335191e-04	
527	-6.40000e+00	9.346565e-04	
528	-6.45000e+00	9.358392e-04	
529	-6.50000e+00	9.370718e-04	
530	-6.55000e+00	9.383590e-04	
531	-6.60000e+00	9.397061e-04	
532	0.000000e+00	4.795677e-37	
533	-5.00000e-02	4.481449e-05	
534	-1.00000e-01	8.866332e-05	
535	-1.50000e-01	1.315550e-04	
536	-2.00000e-01	1.734978e-04	
537	-2.50000e-01	2.145003e-04	
538	-3.00000e-01	2.545707e-04	
539	-3.50000e-01	2.937174e-04	
540	-4.00000e-01	3.319484e-04	
541	-4.50000e-01	3.692721e-04	
542	-5.00000e-01	4.056964e-04	
543	-5.50000e-01	4.412296e-04	
544	-6.00000e-01	4.758795e-04	
545	-6.50000e-01	5.096541e-04	
546	-7.00000e-01	5.425614e-04	
547	-7.50000e-01	5.746091e-04	
548	-8.00000e-01	6.058050e-04	
549	-8.50000e-01	6.361569e-04	
550	-9.00000e-01	6.656725e-04	
551	-9.50000e-01	6.943592e-04	
552	-1.00000e+00	7.222248e-04	
553	-1.05000e+00	7.492766e-04	
554	-1.10000e+00	7.755221e-04	
555	-1.15000e+00	8.009686e-04	
556	-1.20000e+00	8.256236e-04	
557	-1.25000e+00	8.494941e-04	
558	-1.30000e+00	8.725873e-04	
559	-1.35000e+00	8.949104e-04	
560	-1.40000e+00	9.164704e-04	
561	-1.45000e+00	9.372742e-04	
562	-1.50000e+00	9.573286e-04	
563	-1.55000e+00	9.766403e-04	
564	-1.60000e+00	9.952159e-04	
565	-1.65000e+00	1.013062e-03	
566	-1.70000e+00	1.030184e-03	
567	-1.75000e+00	1.046588e-03	
568	-1.80000e+00	1.062280e-03	
569	-1.85000e+00	1.077264e-03	
570	-1.90000e+00	1.091544e-03	
571	-1.95000e+00	1.105122e-03	
572	-2.00000e+00	1.118000e-03	
573	-2.05000e+00	1.130173e-03	
574	-2.10000e+00	1.141637e-03	
575	-2.15000e+00	1.152381e-03	
576	-2.20000e+00	1.162391e-03	

Index   v-sweep         i(vds)          
--------------------------------------------------------------------------------
577	-2.25000e+00	1.171650e-03	
578	-2.30000e+00	1.180148e-03	
579	-2.35000e+00	1.187890e-03	
580	-2.40000e+00	1.194903e-03	
581	-2.45000e+00	1.201238e-03	
582	-2.50000e+00	1.206963e-03	
583	-2.55000e+00	1.212155e-03	
584	-2.60000e+00	1.216885e-03	
585	-2.65000e+00	1.221221e-03	
586	-2.70000e+00	1.225219e-03	
587	-2.75000e+00	1.228927e-03	
588	-2.80000e+00	1.232387e-03	
589	-2.85000e+00	1.235630e-03	
590	-2.90000e+00	1.238685e-03	
591	-2.95000e+00	1.241576e-03	
592	-3.00000e+00	1.244321e-03	
593	-3.05000e+00	1.246936e-03	
594	-3.10000e+00	1.249436e-03	
595	-3.15000e+00	1.251833e-03	
596	-3.20000e+00	1.254136e-03	
597	-3.25000e+00	1.256355e-03	
598	-3.30000e+00	1.258497e-03	
599	-3.35000e+00	1.260569e-03	
600	-3.40000e+00	1.262576e-03	
601	-3.45000e+00	1.264524e-03	
602	-3.50000e+00	1.266417e-03	
603	-3.55000e+00	1.268260e-03	
604	-3.60000e+00	1.270056e-03	
605	-3.65000e+00	1.271808e-03	
606	-3.70000e+00	1.273520e-03	
607	-3.75000e+00	1.275193e-03	
608	-3.80000e+00	1.276832e-03	
609	-3.85000e+00	1.278436e-03	
610	-3.90000e+00	1.280010e-03	
611	-3.95000e+00	1.281553e-03	
612	-4.00000e+00	1.283069e-03	
613	-4.05000e+00	1.284559e-03	
614	-4.10000e+00	1.286023e-03	
615	-4.15000e+00	1.287464e-03	
616	-4.20000e+00	1.288883e-03	
617	-4.25000e+00	1.290280e-03	
618	-4.30000e+00	1.291658e-03	
619	-4.35000e+00	1.293015e-03	
620	-4.40000e+00	1.294355e-03	
621	-4.45000e+00	1.295677e-03	
622	-4.50000e+00	1.296982e-03	
623	-4.55000e+00	1.298271e-03	
624	-4.60000e+00	1.299545e-03	
625	-4.65000e+00	1.300804e-03	
626	-4.70000e+00	1.302049e-03	
627	-4.75000e+00	1.303281e-03	
628	-4.80000e+00	1.304499e-03	
629	-4.85000e+00	1.305706e-03	
630	-4.90000e+00	1.306900e-03	
631	-4.95000e+00	1.308083e-03	
632	-5.00000e+00	1.309254e-03	
633	-5.05000e+00	1.310415e-03	
634	-5.10000e+00	1.311566e-03	

Index   v-sweep         i(vds)          
--------------------------------------------------------------------------------
635	-5.15000e+00	1.312708e-03	
636	-5.20000e+00	1.313839e-03	
637	-5.25000e+00	1.314962e-03	
638	-5.30000e+00	1.316077e-03	
639	-5.35000e+00	1.317183e-03	
640	-5.40000e+00	1.318282e-03	
641	-5.45000e+00	1.319374e-03	
642	-5.50000e+00	1.320459e-03	
643	-5.55000e+00	1.321538e-03	
644	-5.60000e+00	1.322611e-03	
645	-5.65000e+00	1.323679e-03	
646	-5.70000e+00	1.324744e-03	
647	-5.75000e+00	1.325805e-03	
648	-5.80000e+00	1.326863e-03	
649	-5.85000e+00	1.327919e-03	
650	-5.90000e+00	1.328975e-03	
651	-5.95000e+00	1.330032e-03	
652	-6.00000e+00	1.331090e-03	
653	-6.05000e+00	1.332151e-03	
654	-6.10000e+00	1.333217e-03	
655	-6.15000e+00	1.334289e-03	
656	-6.20000e+00	1.335370e-03	
657	-6.25000e+00	1.336461e-03	
658	-6.30000e+00	1.337564e-03	
659	-6.35000e+00	1.338683e-03	
660	-6.40000e+00	1.339819e-03	
661	-6.45000e+00	1.340977e-03	
662	-6.50000e+00	1.342158e-03	
663	-6.55000e+00	1.343367e-03	
664	-6.60000e+00	1.344607e-03	
665	0.000000e+00	-4.28176e-19	
666	-5.00000e-02	4.947628e-05	
667	-1.00000e-01	9.807027e-05	
668	-1.50000e-01	1.457887e-04	
669	-2.00000e-01	1.926384e-04	
670	-2.50000e-01	2.386259e-04	
671	-3.00000e-01	2.837580e-04	
672	-3.50000e-01	3.280412e-04	
673	-4.00000e-01	3.714822e-04	
674	-4.50000e-01	4.140875e-04	
675	-5.00000e-01	4.558636e-04	
676	-5.50000e-01	4.968170e-04	
677	-6.00000e-01	5.369542e-04	
678	-6.50000e-01	5.762816e-04	
679	-7.00000e-01	6.148055e-04	
680	-7.50000e-01	6.525322e-04	
681	-8.00000e-01	6.894681e-04	
682	-8.50000e-01	7.256195e-04	
683	-9.00000e-01	7.609924e-04	
684	-9.50000e-01	7.955932e-04	
685	-1.00000e+00	8.294279e-04	
686	-1.05000e+00	8.625026e-04	
687	-1.10000e+00	8.948235e-04	
688	-1.15000e+00	9.263964e-04	
689	-1.20000e+00	9.572275e-04	
690	-1.25000e+00	9.873225e-04	
691	-1.30000e+00	1.016688e-03	
692	-1.35000e+00	1.045328e-03	

Index   v-sweep         i(vds)          
--------------------------------------------------------------------------------
693	-1.40000e+00	1.073251e-03	
694	-1.45000e+00	1.100460e-03	
695	-1.50000e+00	1.126963e-03	
696	-1.55000e+00	1.152764e-03	
697	-1.60000e+00	1.177870e-03	
698	-1.65000e+00	1.202285e-03	
699	-1.70000e+00	1.226016e-03	
700	-1.75000e+00	1.249068e-03	
701	-1.80000e+00	1.271446e-03	
702	-1.85000e+00	1.293156e-03	
703	-1.90000e+00	1.314202e-03	
704	-1.95000e+00	1.334591e-03	
705	-2.00000e+00	1.354325e-03	
706	-2.05000e+00	1.373412e-03	
707	-2.10000e+00	1.391854e-03	
708	-2.15000e+00	1.409656e-03	
709	-2.20000e+00	1.426822e-03	
710	-2.25000e+00	1.443355e-03	
711	-2.30000e+00	1.459258e-03	
712	-2.35000e+00	1.474530e-03	
713	-2.40000e+00	1.489172e-03	
714	-2.45000e+00	1.503180e-03	
715	-2.50000e+00	1.516548e-03	
716	-2.55000e+00	1.529266e-03	
717	-2.60000e+00	1.541316e-03	
718	-2.65000e+00	1.552677e-03	
719	-2.70000e+00	1.563324e-03	
720	-2.75000e+00	1.573232e-03	
721	-2.80000e+00	1.582387e-03	
722	-2.85000e+00	1.590791e-03	
723	-2.90000e+00	1.598471e-03	
724	-2.95000e+00	1.605476e-03	
725	-3.00000e+00	1.611868e-03	
726	-3.05000e+00	1.617717e-03	
727	-3.10000e+00	1.623091e-03	
728	-3.15000e+00	1.628051e-03	
729	-3.20000e+00	1.632653e-03	
730	-3.25000e+00	1.636945e-03	
731	-3.30000e+00	1.640965e-03	
732	-3.35000e+00	1.644750e-03	
733	-3.40000e+00	1.648325e-03	
734	-3.45000e+00	1.651718e-03	
735	-3.50000e+00	1.654947e-03	
736	-3.55000e+00	1.658030e-03	
737	-3.60000e+00	1.660982e-03	
738	-3.65000e+00	1.663817e-03	
739	-3.70000e+00	1.666544e-03	
740	-3.75000e+00	1.669175e-03	
741	-3.80000e+00	1.671718e-03	
742	-3.85000e+00	1.674179e-03	
743	-3.90000e+00	1.676566e-03	
744	-3.95000e+00	1.678885e-03	
745	-4.00000e+00	1.681140e-03	
746	-4.05000e+00	1.683336e-03	
747	-4.10000e+00	1.685477e-03	
748	-4.15000e+00	1.687568e-03	
749	-4.20000e+00	1.689611e-03	
750	-4.25000e+00	1.691610e-03	

Index   v-sweep         i(vds)          
--------------------------------------------------------------------------------
751	-4.30000e+00	1.693567e-03	
752	-4.35000e+00	1.695485e-03	
753	-4.40000e+00	1.697366e-03	
754	-4.45000e+00	1.699212e-03	
755	-4.50000e+00	1.701026e-03	
756	-4.55000e+00	1.702809e-03	
757	-4.60000e+00	1.704562e-03	
758	-4.65000e+00	1.706287e-03	
759	-4.70000e+00	1.707986e-03	
760	-4.75000e+00	1.709660e-03	
761	-4.80000e+00	1.711310e-03	
762	-4.85000e+00	1.712937e-03	
763	-4.90000e+00	1.714543e-03	
764	-4.95000e+00	1.716127e-03	
765	-5.00000e+00	1.717692e-03	
766	-5.05000e+00	1.719238e-03	
767	-5.10000e+00	1.720765e-03	
768	-5.15000e+00	1.722276e-03	
769	-5.20000e+00	1.723769e-03	
770	-5.25000e+00	1.725247e-03	
771	-5.30000e+00	1.726709e-03	
772	-5.35000e+00	1.728156e-03	
773	-5.40000e+00	1.729590e-03	
774	-5.45000e+00	1.731009e-03	
775	-5.50000e+00	1.732416e-03	
776	-5.55000e+00	1.733810e-03	
777	-5.60000e+00	1.735192e-03	
778	-5.65000e+00	1.736562e-03	
779	-5.70000e+00	1.737921e-03	
780	-5.75000e+00	1.739270e-03	
781	-5.80000e+00	1.740609e-03	
782	-5.85000e+00	1.741938e-03	
783	-5.90000e+00	1.743259e-03	
784	-5.95000e+00	1.744571e-03	
785	-6.00000e+00	1.745876e-03	
786	-6.05000e+00	1.747174e-03	
787	-6.10000e+00	1.748466e-03	
788	-6.15000e+00	1.749753e-03	
789	-6.20000e+00	1.751035e-03	
790	-6.25000e+00	1.752314e-03	
791	-6.30000e+00	1.753591e-03	
792	-6.35000e+00	1.754867e-03	
793	-6.40000e+00	1.756143e-03	
794	-6.45000e+00	1.757422e-03	
795	-6.50000e+00	1.758704e-03	
796	-6.55000e+00	1.759992e-03	
797	-6.60000e+00	1.761288e-03	
Note: No ".plot", ".print", or ".fourier" lines; no simulations run
