
Note: Compatibility modes selected: hs

Warning: m=xx on .subckt line will override multiplier m hierarchy!


Circuit: ***************************

Doing analysis at TEMP = -40.000000 and TNOM = -40.000000


No. of Data Rows : 798
                          ***************************
                          DC transfer characteristic  Mon Jan  9 13:58:50  2023
--------------------------------------------------------------------------------
Index   v-sweep         i(vds)          
--------------------------------------------------------------------------------
0	0.000000e+00	-2.88775e-25	
1	-5.00000e-02	9.037523e-09	
2	-1.00000e-01	1.068370e-08	
3	-1.50000e-01	1.092289e-08	
4	-2.00000e-01	1.099223e-08	
5	-2.50000e-01	1.102582e-08	
6	-3.00000e-01	1.104751e-08	
7	-3.50000e-01	1.106393e-08	
8	-4.00000e-01	1.107753e-08	
9	-4.50000e-01	1.108939e-08	
10	-5.00000e-01	1.110009e-08	
11	-5.50000e-01	1.110993e-08	
12	-6.00000e-01	1.111913e-08	
13	-6.50000e-01	1.112781e-08	
14	-7.00000e-01	1.113606e-08	
15	-7.50000e-01	1.114396e-08	
16	-8.00000e-01	1.115156e-08	
17	-8.50000e-01	1.115889e-08	
18	-9.00000e-01	1.116599e-08	
19	-9.50000e-01	1.117288e-08	
20	-1.00000e+00	1.117959e-08	
21	-1.05000e+00	1.118614e-08	
22	-1.10000e+00	1.119253e-08	
23	-1.15000e+00	1.119879e-08	
24	-1.20000e+00	1.120492e-08	
25	-1.25000e+00	1.121093e-08	
26	-1.30000e+00	1.121684e-08	
27	-1.35000e+00	1.122265e-08	
28	-1.40000e+00	1.122836e-08	
29	-1.45000e+00	1.123399e-08	
30	-1.50000e+00	1.123954e-08	
31	-1.55000e+00	1.124501e-08	
32	-1.60000e+00	1.125042e-08	
33	-1.65000e+00	1.125575e-08	
34	-1.70000e+00	1.126103e-08	
35	-1.75000e+00	1.126624e-08	
36	-1.80000e+00	1.127140e-08	
37	-1.85000e+00	1.127650e-08	
38	-1.90000e+00	1.128155e-08	
39	-1.95000e+00	1.128656e-08	
40	-2.00000e+00	1.129152e-08	
41	-2.05000e+00	1.129643e-08	
42	-2.10000e+00	1.130131e-08	
43	-2.15000e+00	1.130614e-08	
44	-2.20000e+00	1.131094e-08	
45	-2.25000e+00	1.131570e-08	
46	-2.30000e+00	1.132042e-08	
47	-2.35000e+00	1.132512e-08	
48	-2.40000e+00	1.132977e-08	
49	-2.45000e+00	1.133440e-08	
50	-2.50000e+00	1.133900e-08	
51	-2.55000e+00	1.134357e-08	
52	-2.60000e+00	1.134812e-08	
53	-2.65000e+00	1.135264e-08	
54	-2.70000e+00	1.135713e-08	

Index   v-sweep         i(vds)          
--------------------------------------------------------------------------------
55	-2.75000e+00	1.136160e-08	
56	-2.80000e+00	1.136605e-08	
57	-2.85000e+00	1.137047e-08	
58	-2.90000e+00	1.137488e-08	
59	-2.95000e+00	1.137926e-08	
60	-3.00000e+00	1.138363e-08	
61	-3.05000e+00	1.138799e-08	
62	-3.10000e+00	1.139232e-08	
63	-3.15000e+00	1.139665e-08	
64	-3.20000e+00	1.140097e-08	
65	-3.25000e+00	1.140528e-08	
66	-3.30000e+00	1.140959e-08	
67	-3.35000e+00	1.141389e-08	
68	-3.40000e+00	1.141820e-08	
69	-3.45000e+00	1.142252e-08	
70	-3.50000e+00	1.142685e-08	
71	-3.55000e+00	1.143120e-08	
72	-3.60000e+00	1.143557e-08	
73	-3.65000e+00	1.143998e-08	
74	-3.70000e+00	1.144443e-08	
75	-3.75000e+00	1.144893e-08	
76	-3.80000e+00	1.145349e-08	
77	-3.85000e+00	1.145812e-08	
78	-3.90000e+00	1.146284e-08	
79	-3.95000e+00	1.146767e-08	
80	-4.00000e+00	1.147261e-08	
81	-4.05000e+00	1.147769e-08	
82	-4.10000e+00	1.148293e-08	
83	-4.15000e+00	1.148834e-08	
84	-4.20000e+00	1.149396e-08	
85	-4.25000e+00	1.149981e-08	
86	-4.30000e+00	1.150591e-08	
87	-4.35000e+00	1.151230e-08	
88	-4.40000e+00	1.151902e-08	
89	-4.45000e+00	1.152609e-08	
90	-4.50000e+00	1.153356e-08	
91	-4.55000e+00	1.154147e-08	
92	-4.60000e+00	1.154986e-08	
93	-4.65000e+00	1.155879e-08	
94	-4.70000e+00	1.156830e-08	
95	-4.75000e+00	1.157845e-08	
96	-4.80000e+00	1.158929e-08	
97	-4.85000e+00	1.160089e-08	
98	-4.90000e+00	1.161331e-08	
99	-4.95000e+00	1.162662e-08	
100	-5.00000e+00	1.164090e-08	
101	-5.05000e+00	1.165622e-08	
102	-5.10000e+00	1.167266e-08	
103	-5.15000e+00	1.169030e-08	
104	-5.20000e+00	1.170924e-08	
105	-5.25000e+00	1.172957e-08	
106	-5.30000e+00	1.175138e-08	
107	-5.35000e+00	1.177478e-08	
108	-5.40000e+00	1.179987e-08	
109	-5.45000e+00	1.182675e-08	
110	-5.50000e+00	1.185556e-08	
111	-5.55000e+00	1.188640e-08	
112	-5.60000e+00	1.191939e-08	

Index   v-sweep         i(vds)          
--------------------------------------------------------------------------------
113	-5.65000e+00	1.195467e-08	
114	-5.70000e+00	1.199237e-08	
115	-5.75000e+00	1.203262e-08	
116	-5.80000e+00	1.207556e-08	
117	-5.85000e+00	1.212135e-08	
118	-5.90000e+00	1.217012e-08	
119	-5.95000e+00	1.222204e-08	
120	-6.00000e+00	1.227727e-08	
121	-6.05000e+00	1.233595e-08	
122	-6.10000e+00	1.239828e-08	
123	-6.15000e+00	1.246441e-08	
124	-6.20000e+00	1.253452e-08	
125	-6.25000e+00	1.260879e-08	
126	-6.30000e+00	1.268741e-08	
127	-6.35000e+00	1.277057e-08	
128	-6.40000e+00	1.285846e-08	
129	-6.45000e+00	1.295127e-08	
130	-6.50000e+00	1.304921e-08	
131	-6.55000e+00	1.315249e-08	
132	-6.60000e+00	1.326130e-08	
133	0.000000e+00	5.239217e-23	
134	-5.00000e-02	3.083678e-07	
135	-1.00000e-01	5.947897e-07	
136	-1.50000e-01	8.592984e-07	
137	-2.00000e-01	1.101929e-06	
138	-2.50000e-01	1.322720e-06	
139	-3.00000e-01	1.521717e-06	
140	-3.50000e-01	1.698976e-06	
141	-4.00000e-01	1.854570e-06	
142	-4.50000e-01	1.988609e-06	
143	-5.00000e-01	2.101271e-06	
144	-5.50000e-01	2.192874e-06	
145	-6.00000e-01	2.264032e-06	
146	-6.50000e-01	2.315967e-06	
147	-7.00000e-01	2.351009e-06	
148	-7.50000e-01	2.372893e-06	
149	-8.00000e-01	2.386068e-06	
150	-8.50000e-01	2.394267e-06	
151	-9.00000e-01	2.399818e-06	
152	-9.50000e-01	2.403943e-06	
153	-1.00000e+00	2.407252e-06	
154	-1.05000e+00	2.410057e-06	
155	-1.10000e+00	2.412529e-06	
156	-1.15000e+00	2.414764e-06	
157	-1.20000e+00	2.416823e-06	
158	-1.25000e+00	2.418746e-06	
159	-1.30000e+00	2.420559e-06	
160	-1.35000e+00	2.422281e-06	
161	-1.40000e+00	2.423927e-06	
162	-1.45000e+00	2.425508e-06	
163	-1.50000e+00	2.427032e-06	
164	-1.55000e+00	2.428507e-06	
165	-1.60000e+00	2.429937e-06	
166	-1.65000e+00	2.431328e-06	
167	-1.70000e+00	2.432683e-06	
168	-1.75000e+00	2.434006e-06	
169	-1.80000e+00	2.435299e-06	
170	-1.85000e+00	2.436566e-06	

Index   v-sweep         i(vds)          
--------------------------------------------------------------------------------
171	-1.90000e+00	2.437808e-06	
172	-1.95000e+00	2.439026e-06	
173	-2.00000e+00	2.440224e-06	
174	-2.05000e+00	2.441402e-06	
175	-2.10000e+00	2.442561e-06	
176	-2.15000e+00	2.443704e-06	
177	-2.20000e+00	2.444830e-06	
178	-2.25000e+00	2.445941e-06	
179	-2.30000e+00	2.447038e-06	
180	-2.35000e+00	2.448121e-06	
181	-2.40000e+00	2.449192e-06	
182	-2.45000e+00	2.450251e-06	
183	-2.50000e+00	2.451299e-06	
184	-2.55000e+00	2.452335e-06	
185	-2.60000e+00	2.453362e-06	
186	-2.65000e+00	2.454379e-06	
187	-2.70000e+00	2.455386e-06	
188	-2.75000e+00	2.456385e-06	
189	-2.80000e+00	2.457375e-06	
190	-2.85000e+00	2.458358e-06	
191	-2.90000e+00	2.459332e-06	
192	-2.95000e+00	2.460299e-06	
193	-3.00000e+00	2.461259e-06	
194	-3.05000e+00	2.462212e-06	
195	-3.10000e+00	2.463159e-06	
196	-3.15000e+00	2.464100e-06	
197	-3.20000e+00	2.465034e-06	
198	-3.25000e+00	2.465963e-06	
199	-3.30000e+00	2.466886e-06	
200	-3.35000e+00	2.467804e-06	
201	-3.40000e+00	2.468717e-06	
202	-3.45000e+00	2.469625e-06	
203	-3.50000e+00	2.470529e-06	
204	-3.55000e+00	2.471428e-06	
205	-3.60000e+00	2.472323e-06	
206	-3.65000e+00	2.473215e-06	
207	-3.70000e+00	2.474103e-06	
208	-3.75000e+00	2.474988e-06	
209	-3.80000e+00	2.475870e-06	
210	-3.85000e+00	2.476750e-06	
211	-3.90000e+00	2.477629e-06	
212	-3.95000e+00	2.478507e-06	
213	-4.00000e+00	2.479384e-06	
214	-4.05000e+00	2.480262e-06	
215	-4.10000e+00	2.481141e-06	
216	-4.15000e+00	2.482023e-06	
217	-4.20000e+00	2.482908e-06	
218	-4.25000e+00	2.483798e-06	
219	-4.30000e+00	2.484695e-06	
220	-4.35000e+00	2.485600e-06	
221	-4.40000e+00	2.486516e-06	
222	-4.45000e+00	2.487444e-06	
223	-4.50000e+00	2.488387e-06	
224	-4.55000e+00	2.489348e-06	
225	-4.60000e+00	2.490330e-06	
226	-4.65000e+00	2.491336e-06	
227	-4.70000e+00	2.492370e-06	
228	-4.75000e+00	2.493436e-06	

Index   v-sweep         i(vds)          
--------------------------------------------------------------------------------
229	-4.80000e+00	2.494540e-06	
230	-4.85000e+00	2.495685e-06	
231	-4.90000e+00	2.496877e-06	
232	-4.95000e+00	2.498123e-06	
233	-5.00000e+00	2.499429e-06	
234	-5.05000e+00	2.500802e-06	
235	-5.10000e+00	2.502249e-06	
236	-5.15000e+00	2.503779e-06	
237	-5.20000e+00	2.505401e-06	
238	-5.25000e+00	2.507124e-06	
239	-5.30000e+00	2.508957e-06	
240	-5.35000e+00	2.510913e-06	
241	-5.40000e+00	2.513002e-06	
242	-5.45000e+00	2.515237e-06	
243	-5.50000e+00	2.517631e-06	
244	-5.55000e+00	2.520197e-06	
245	-5.60000e+00	2.522951e-06	
246	-5.65000e+00	2.525907e-06	
247	-5.70000e+00	2.529082e-06	
248	-5.75000e+00	2.532493e-06	
249	-5.80000e+00	2.536158e-06	
250	-5.85000e+00	2.540096e-06	
251	-5.90000e+00	2.544327e-06	
252	-5.95000e+00	2.548871e-06	
253	-6.00000e+00	2.553749e-06	
254	-6.05000e+00	2.558985e-06	
255	-6.10000e+00	2.564602e-06	
256	-6.15000e+00	2.570624e-06	
257	-6.20000e+00	2.577077e-06	
258	-6.25000e+00	2.583986e-06	
259	-6.30000e+00	2.591380e-06	
260	-6.35000e+00	2.599286e-06	
261	-6.40000e+00	2.607733e-06	
262	-6.45000e+00	2.616752e-06	
263	-6.50000e+00	2.626374e-06	
264	-6.55000e+00	2.636631e-06	
265	-6.60000e+00	2.647556e-06	
266	0.000000e+00	1.493303e-22	
267	-5.00000e-02	5.688764e-07	
268	-1.00000e-01	1.117461e-06	
269	-1.50000e-01	1.645778e-06	
270	-2.00000e-01	2.153850e-06	
271	-2.50000e-01	2.641701e-06	
272	-3.00000e-01	3.109354e-06	
273	-3.50000e-01	3.556833e-06	
274	-4.00000e-01	3.984163e-06	
275	-4.50000e-01	4.391368e-06	
276	-5.00000e-01	4.778472e-06	
277	-5.50000e-01	5.145502e-06	
278	-6.00000e-01	5.492483e-06	
279	-6.50000e-01	5.819443e-06	
280	-7.00000e-01	6.126412e-06	
281	-7.50000e-01	6.413419e-06	
282	-8.00000e-01	6.680500e-06	
283	-8.50000e-01	6.927693e-06	
284	-9.00000e-01	7.155044e-06	
285	-9.50000e-01	7.362609e-06	
286	-1.00000e+00	7.550458e-06	

Index   v-sweep         i(vds)          
--------------------------------------------------------------------------------
287	-1.05000e+00	7.718690e-06	
288	-1.10000e+00	7.867443e-06	
289	-1.15000e+00	7.996926e-06	
290	-1.20000e+00	8.107466e-06	
291	-1.25000e+00	8.199593e-06	
292	-1.30000e+00	8.274172e-06	
293	-1.35000e+00	8.332583e-06	
294	-1.40000e+00	8.376871e-06	
295	-1.45000e+00	8.409699e-06	
296	-1.50000e+00	8.433979e-06	
297	-1.55000e+00	8.452332e-06	
298	-1.60000e+00	8.466752e-06	
299	-1.65000e+00	8.478584e-06	
300	-1.70000e+00	8.488680e-06	
301	-1.75000e+00	8.497570e-06	
302	-1.80000e+00	8.505586e-06	
303	-1.85000e+00	8.512947e-06	
304	-1.90000e+00	8.519797e-06	
305	-1.95000e+00	8.526238e-06	
306	-2.00000e+00	8.532343e-06	
307	-2.05000e+00	8.538167e-06	
308	-2.10000e+00	8.543749e-06	
309	-2.15000e+00	8.549124e-06	
310	-2.20000e+00	8.554317e-06	
311	-2.25000e+00	8.559348e-06	
312	-2.30000e+00	8.564236e-06	
313	-2.35000e+00	8.568995e-06	
314	-2.40000e+00	8.573637e-06	
315	-2.45000e+00	8.578174e-06	
316	-2.50000e+00	8.582613e-06	
317	-2.55000e+00	8.586963e-06	
318	-2.60000e+00	8.591231e-06	
319	-2.65000e+00	8.595424e-06	
320	-2.70000e+00	8.599546e-06	
321	-2.75000e+00	8.603602e-06	
322	-2.80000e+00	8.607597e-06	
323	-2.85000e+00	8.611535e-06	
324	-2.90000e+00	8.615420e-06	
325	-2.95000e+00	8.619254e-06	
326	-3.00000e+00	8.623041e-06	
327	-3.05000e+00	8.626783e-06	
328	-3.10000e+00	8.630482e-06	
329	-3.15000e+00	8.634142e-06	
330	-3.20000e+00	8.637763e-06	
331	-3.25000e+00	8.641349e-06	
332	-3.30000e+00	8.644900e-06	
333	-3.35000e+00	8.648419e-06	
334	-3.40000e+00	8.651907e-06	
335	-3.45000e+00	8.655365e-06	
336	-3.50000e+00	8.658794e-06	
337	-3.55000e+00	8.662197e-06	
338	-3.60000e+00	8.665574e-06	
339	-3.65000e+00	8.668925e-06	
340	-3.70000e+00	8.672253e-06	
341	-3.75000e+00	8.675559e-06	
342	-3.80000e+00	8.678842e-06	
343	-3.85000e+00	8.682104e-06	
344	-3.90000e+00	8.685347e-06	

Index   v-sweep         i(vds)          
--------------------------------------------------------------------------------
345	-3.95000e+00	8.688569e-06	
346	-4.00000e+00	8.691774e-06	
347	-4.05000e+00	8.694960e-06	
348	-4.10000e+00	8.698130e-06	
349	-4.15000e+00	8.701283e-06	
350	-4.20000e+00	8.704422e-06	
351	-4.25000e+00	8.707545e-06	
352	-4.30000e+00	8.710656e-06	
353	-4.35000e+00	8.713754e-06	
354	-4.40000e+00	8.716840e-06	
355	-4.45000e+00	8.719917e-06	
356	-4.50000e+00	8.722985e-06	
357	-4.55000e+00	8.726046e-06	
358	-4.60000e+00	8.729102e-06	
359	-4.65000e+00	8.732156e-06	
360	-4.70000e+00	8.735209e-06	
361	-4.75000e+00	8.738264e-06	
362	-4.80000e+00	8.741325e-06	
363	-4.85000e+00	8.744396e-06	
364	-4.90000e+00	8.747480e-06	
365	-4.95000e+00	8.750583e-06	
366	-5.00000e+00	8.753710e-06	
367	-5.05000e+00	8.756867e-06	
368	-5.10000e+00	8.760062e-06	
369	-5.15000e+00	8.763301e-06	
370	-5.20000e+00	8.766595e-06	
371	-5.25000e+00	8.769952e-06	
372	-5.30000e+00	8.773385e-06	
373	-5.35000e+00	8.776904e-06	
374	-5.40000e+00	8.780524e-06	
375	-5.45000e+00	8.784259e-06	
376	-5.50000e+00	8.788125e-06	
377	-5.55000e+00	8.792141e-06	
378	-5.60000e+00	8.796325e-06	
379	-5.65000e+00	8.800700e-06	
380	-5.70000e+00	8.805288e-06	
381	-5.75000e+00	8.810113e-06	
382	-5.80000e+00	8.815203e-06	
383	-5.85000e+00	8.820588e-06	
384	-5.90000e+00	8.826297e-06	
385	-5.95000e+00	8.832365e-06	
386	-6.00000e+00	8.838827e-06	
387	-6.05000e+00	8.845722e-06	
388	-6.10000e+00	8.853091e-06	
389	-6.15000e+00	8.860976e-06	
390	-6.20000e+00	8.869425e-06	
391	-6.25000e+00	8.878485e-06	
392	-6.30000e+00	8.888208e-06	
393	-6.35000e+00	8.898649e-06	
394	-6.40000e+00	8.909865e-06	
395	-6.45000e+00	8.921917e-06	
396	-6.50000e+00	8.934869e-06	
397	-6.55000e+00	8.948785e-06	
398	-6.60000e+00	8.963738e-06	
399	0.000000e+00	7.057112e-21	
400	-5.00000e-02	7.828557e-07	
401	-1.00000e-01	1.547138e-06	
402	-1.50000e-01	2.292866e-06	

Index   v-sweep         i(vds)          
--------------------------------------------------------------------------------
403	-2.00000e-01	3.020059e-06	
404	-2.50000e-01	3.728737e-06	
405	-3.00000e-01	4.418918e-06	
406	-3.50000e-01	5.090623e-06	
407	-4.00000e-01	5.743871e-06	
408	-4.50000e-01	6.378680e-06	
409	-5.00000e-01	6.995071e-06	
410	-5.50000e-01	7.593063e-06	
411	-6.00000e-01	8.172675e-06	
412	-6.50000e-01	8.733928e-06	
413	-7.00000e-01	9.276839e-06	
414	-7.50000e-01	9.801430e-06	
415	-8.00000e-01	1.030772e-05	
416	-8.50000e-01	1.079573e-05	
417	-9.00000e-01	1.126548e-05	
418	-9.50000e-01	1.171699e-05	
419	-1.00000e+00	1.215028e-05	
420	-1.05000e+00	1.256537e-05	
421	-1.10000e+00	1.296228e-05	
422	-1.15000e+00	1.334104e-05	
423	-1.20000e+00	1.370167e-05	
424	-1.25000e+00	1.404420e-05	
425	-1.30000e+00	1.436864e-05	
426	-1.35000e+00	1.467503e-05	
427	-1.40000e+00	1.496339e-05	
428	-1.45000e+00	1.523377e-05	
429	-1.50000e+00	1.548620e-05	
430	-1.55000e+00	1.572073e-05	
431	-1.60000e+00	1.593741e-05	
432	-1.65000e+00	1.613632e-05	
433	-1.70000e+00	1.631755e-05	
434	-1.75000e+00	1.648123e-05	
435	-1.80000e+00	1.662755e-05	
436	-1.85000e+00	1.675675e-05	
437	-1.90000e+00	1.686924e-05	
438	-1.95000e+00	1.696559e-05	
439	-2.00000e+00	1.704664e-05	
440	-2.05000e+00	1.711361e-05	
441	-2.10000e+00	1.716811e-05	
442	-2.15000e+00	1.721212e-05	
443	-2.20000e+00	1.724775e-05	
444	-2.25000e+00	1.727700e-05	
445	-2.30000e+00	1.730156e-05	
446	-2.35000e+00	1.732269e-05	
447	-2.40000e+00	1.734133e-05	
448	-2.45000e+00	1.735810e-05	
449	-2.50000e+00	1.737346e-05	
450	-2.55000e+00	1.738770e-05	
451	-2.60000e+00	1.740105e-05	
452	-2.65000e+00	1.741367e-05	
453	-2.70000e+00	1.742568e-05	
454	-2.75000e+00	1.743717e-05	
455	-2.80000e+00	1.744822e-05	
456	-2.85000e+00	1.745887e-05	
457	-2.90000e+00	1.746918e-05	
458	-2.95000e+00	1.747919e-05	
459	-3.00000e+00	1.748893e-05	
460	-3.05000e+00	1.749841e-05	

Index   v-sweep         i(vds)          
--------------------------------------------------------------------------------
461	-3.10000e+00	1.750768e-05	
462	-3.15000e+00	1.751674e-05	
463	-3.20000e+00	1.752561e-05	
464	-3.25000e+00	1.753432e-05	
465	-3.30000e+00	1.754286e-05	
466	-3.35000e+00	1.755126e-05	
467	-3.40000e+00	1.755952e-05	
468	-3.45000e+00	1.756765e-05	
469	-3.50000e+00	1.757567e-05	
470	-3.55000e+00	1.758357e-05	
471	-3.60000e+00	1.759137e-05	
472	-3.65000e+00	1.759907e-05	
473	-3.70000e+00	1.760668e-05	
474	-3.75000e+00	1.761420e-05	
475	-3.80000e+00	1.762164e-05	
476	-3.85000e+00	1.762900e-05	
477	-3.90000e+00	1.763629e-05	
478	-3.95000e+00	1.764350e-05	
479	-4.00000e+00	1.765065e-05	
480	-4.05000e+00	1.765773e-05	
481	-4.10000e+00	1.766476e-05	
482	-4.15000e+00	1.767173e-05	
483	-4.20000e+00	1.767864e-05	
484	-4.25000e+00	1.768549e-05	
485	-4.30000e+00	1.769230e-05	
486	-4.35000e+00	1.769906e-05	
487	-4.40000e+00	1.770577e-05	
488	-4.45000e+00	1.771244e-05	
489	-4.50000e+00	1.771906e-05	
490	-4.55000e+00	1.772564e-05	
491	-4.60000e+00	1.773219e-05	
492	-4.65000e+00	1.773869e-05	
493	-4.70000e+00	1.774516e-05	
494	-4.75000e+00	1.775159e-05	
495	-4.80000e+00	1.775799e-05	
496	-4.85000e+00	1.776436e-05	
497	-4.90000e+00	1.777070e-05	
498	-4.95000e+00	1.777701e-05	
499	-5.00000e+00	1.778329e-05	
500	-5.05000e+00	1.778955e-05	
501	-5.10000e+00	1.779579e-05	
502	-5.15000e+00	1.780201e-05	
503	-5.20000e+00	1.780821e-05	
504	-5.25000e+00	1.781440e-05	
505	-5.30000e+00	1.782058e-05	
506	-5.35000e+00	1.782675e-05	
507	-5.40000e+00	1.783292e-05	
508	-5.45000e+00	1.783910e-05	
509	-5.50000e+00	1.784529e-05	
510	-5.55000e+00	1.785150e-05	
511	-5.60000e+00	1.785774e-05	
512	-5.65000e+00	1.786402e-05	
513	-5.70000e+00	1.787035e-05	
514	-5.75000e+00	1.787673e-05	
515	-5.80000e+00	1.788320e-05	
516	-5.85000e+00	1.788975e-05	
517	-5.90000e+00	1.789642e-05	
518	-5.95000e+00	1.790321e-05	

Index   v-sweep         i(vds)          
--------------------------------------------------------------------------------
519	-6.00000e+00	1.791016e-05	
520	-6.05000e+00	1.791728e-05	
521	-6.10000e+00	1.792461e-05	
522	-6.15000e+00	1.793217e-05	
523	-6.20000e+00	1.794000e-05	
524	-6.25000e+00	1.794813e-05	
525	-6.30000e+00	1.795661e-05	
526	-6.35000e+00	1.796546e-05	
527	-6.40000e+00	1.797475e-05	
528	-6.45000e+00	1.798453e-05	
529	-6.50000e+00	1.799484e-05	
530	-6.55000e+00	1.800575e-05	
531	-6.60000e+00	1.801731e-05	
532	0.000000e+00	-1.21183e-22	
533	-5.00000e-02	9.591659e-07	
534	-1.00000e-01	1.901337e-06	
535	-1.50000e-01	2.826528e-06	
536	-2.00000e-01	3.734758e-06	
537	-2.50000e-01	4.626041e-06	
538	-3.00000e-01	5.500394e-06	
539	-3.50000e-01	6.357834e-06	
540	-4.00000e-01	7.198376e-06	
541	-4.50000e-01	8.022038e-06	
542	-5.00000e-01	8.828836e-06	
543	-5.50000e-01	9.618785e-06	
544	-6.00000e-01	1.039190e-05	
545	-6.50000e-01	1.114820e-05	
546	-7.00000e-01	1.188771e-05	
547	-7.50000e-01	1.261042e-05	
548	-8.00000e-01	1.331638e-05	
549	-8.50000e-01	1.400558e-05	
550	-9.00000e-01	1.467805e-05	
551	-9.50000e-01	1.533380e-05	
552	-1.00000e+00	1.597284e-05	
553	-1.05000e+00	1.659521e-05	
554	-1.10000e+00	1.720090e-05	
555	-1.15000e+00	1.778994e-05	
556	-1.20000e+00	1.836235e-05	
557	-1.25000e+00	1.891814e-05	
558	-1.30000e+00	1.945732e-05	
559	-1.35000e+00	1.997992e-05	
560	-1.40000e+00	2.048596e-05	
561	-1.45000e+00	2.097544e-05	
562	-1.50000e+00	2.144838e-05	
563	-1.55000e+00	2.190482e-05	
564	-1.60000e+00	2.234475e-05	
565	-1.65000e+00	2.276820e-05	
566	-1.70000e+00	2.317519e-05	
567	-1.75000e+00	2.356574e-05	
568	-1.80000e+00	2.393987e-05	
569	-1.85000e+00	2.429759e-05	
570	-1.90000e+00	2.463894e-05	
571	-1.95000e+00	2.496394e-05	
572	-2.00000e+00	2.527260e-05	
573	-2.05000e+00	2.556497e-05	
574	-2.10000e+00	2.584107e-05	
575	-2.15000e+00	2.610094e-05	
576	-2.20000e+00	2.634461e-05	

Index   v-sweep         i(vds)          
--------------------------------------------------------------------------------
577	-2.25000e+00	2.657216e-05	
578	-2.30000e+00	2.678363e-05	
579	-2.35000e+00	2.697911e-05	
580	-2.40000e+00	2.715871e-05	
581	-2.45000e+00	2.732257e-05	
582	-2.50000e+00	2.747088e-05	
583	-2.55000e+00	2.760390e-05	
584	-2.60000e+00	2.772202e-05	
585	-2.65000e+00	2.782576e-05	
586	-2.70000e+00	2.791584e-05	
587	-2.75000e+00	2.799324e-05	
588	-2.80000e+00	2.805920e-05	
589	-2.85000e+00	2.811522e-05	
590	-2.90000e+00	2.816291e-05	
591	-2.95000e+00	2.820386e-05	
592	-3.00000e+00	2.823951e-05	
593	-3.05000e+00	2.827104e-05	
594	-3.10000e+00	2.829939e-05	
595	-3.15000e+00	2.832526e-05	
596	-3.20000e+00	2.834916e-05	
597	-3.25000e+00	2.837149e-05	
598	-3.30000e+00	2.839253e-05	
599	-3.35000e+00	2.841249e-05	
600	-3.40000e+00	2.843154e-05	
601	-3.45000e+00	2.844981e-05	
602	-3.50000e+00	2.846740e-05	
603	-3.55000e+00	2.848440e-05	
604	-3.60000e+00	2.850088e-05	
605	-3.65000e+00	2.851688e-05	
606	-3.70000e+00	2.853246e-05	
607	-3.75000e+00	2.854766e-05	
608	-3.80000e+00	2.856252e-05	
609	-3.85000e+00	2.857706e-05	
610	-3.90000e+00	2.859130e-05	
611	-3.95000e+00	2.860528e-05	
612	-4.00000e+00	2.861901e-05	
613	-4.05000e+00	2.863252e-05	
614	-4.10000e+00	2.864580e-05	
615	-4.15000e+00	2.865889e-05	
616	-4.20000e+00	2.867179e-05	
617	-4.25000e+00	2.868452e-05	
618	-4.30000e+00	2.869708e-05	
619	-4.35000e+00	2.870949e-05	
620	-4.40000e+00	2.872176e-05	
621	-4.45000e+00	2.873388e-05	
622	-4.50000e+00	2.874588e-05	
623	-4.55000e+00	2.875775e-05	
624	-4.60000e+00	2.876951e-05	
625	-4.65000e+00	2.878115e-05	
626	-4.70000e+00	2.879269e-05	
627	-4.75000e+00	2.880413e-05	
628	-4.80000e+00	2.881547e-05	
629	-4.85000e+00	2.882672e-05	
630	-4.90000e+00	2.883788e-05	
631	-4.95000e+00	2.884896e-05	
632	-5.00000e+00	2.885996e-05	
633	-5.05000e+00	2.887088e-05	
634	-5.10000e+00	2.888173e-05	

Index   v-sweep         i(vds)          
--------------------------------------------------------------------------------
635	-5.15000e+00	2.889250e-05	
636	-5.20000e+00	2.890321e-05	
637	-5.25000e+00	2.891385e-05	
638	-5.30000e+00	2.892443e-05	
639	-5.35000e+00	2.893495e-05	
640	-5.40000e+00	2.894542e-05	
641	-5.45000e+00	2.895582e-05	
642	-5.50000e+00	2.896618e-05	
643	-5.55000e+00	2.897648e-05	
644	-5.60000e+00	2.898674e-05	
645	-5.65000e+00	2.899695e-05	
646	-5.70000e+00	2.900712e-05	
647	-5.75000e+00	2.901725e-05	
648	-5.80000e+00	2.902734e-05	
649	-5.85000e+00	2.903741e-05	
650	-5.90000e+00	2.904744e-05	
651	-5.95000e+00	2.905746e-05	
652	-6.00000e+00	2.906746e-05	
653	-6.05000e+00	2.907745e-05	
654	-6.10000e+00	2.908744e-05	
655	-6.15000e+00	2.909743e-05	
656	-6.20000e+00	2.910745e-05	
657	-6.25000e+00	2.911750e-05	
658	-6.30000e+00	2.912758e-05	
659	-6.35000e+00	2.913773e-05	
660	-6.40000e+00	2.914796e-05	
661	-6.45000e+00	2.915828e-05	
662	-6.50000e+00	2.916871e-05	
663	-6.55000e+00	2.917930e-05	
664	-6.60000e+00	2.919005e-05	
665	0.000000e+00	-1.04248e-36	
666	-5.00000e-02	1.104927e-06	
667	-1.00000e-01	2.194278e-06	
668	-1.50000e-01	3.268067e-06	
669	-2.00000e-01	4.326309e-06	
670	-2.50000e-01	5.369018e-06	
671	-3.00000e-01	6.396207e-06	
672	-3.50000e-01	7.407890e-06	
673	-4.00000e-01	8.404082e-06	
674	-4.50000e-01	9.384796e-06	
675	-5.00000e-01	1.035005e-05	
676	-5.50000e-01	1.129985e-05	
677	-6.00000e-01	1.223421e-05	
678	-6.50000e-01	1.315315e-05	
679	-7.00000e-01	1.405669e-05	
680	-7.50000e-01	1.494482e-05	
681	-8.00000e-01	1.581758e-05	
682	-8.50000e-01	1.667497e-05	
683	-9.00000e-01	1.751701e-05	
684	-9.50000e-01	1.834371e-05	
685	-1.00000e+00	1.915508e-05	
686	-1.05000e+00	1.995115e-05	
687	-1.10000e+00	2.073191e-05	
688	-1.15000e+00	2.149739e-05	
689	-1.20000e+00	2.224760e-05	
690	-1.25000e+00	2.298255e-05	
691	-1.30000e+00	2.370226e-05	
692	-1.35000e+00	2.440674e-05	

Index   v-sweep         i(vds)          
--------------------------------------------------------------------------------
693	-1.40000e+00	2.509601e-05	
694	-1.45000e+00	2.577008e-05	
695	-1.50000e+00	2.642896e-05	
696	-1.55000e+00	2.707266e-05	
697	-1.60000e+00	2.770121e-05	
698	-1.65000e+00	2.831461e-05	
699	-1.70000e+00	2.891288e-05	
700	-1.75000e+00	2.949603e-05	
701	-1.80000e+00	3.006408e-05	
702	-1.85000e+00	3.061704e-05	
703	-1.90000e+00	3.115493e-05	
704	-1.95000e+00	3.167776e-05	
705	-2.00000e+00	3.218554e-05	
706	-2.05000e+00	3.267829e-05	
707	-2.10000e+00	3.315602e-05	
708	-2.15000e+00	3.361876e-05	
709	-2.20000e+00	3.406650e-05	
710	-2.25000e+00	3.449928e-05	
711	-2.30000e+00	3.491711e-05	
712	-2.35000e+00	3.532000e-05	
713	-2.40000e+00	3.570797e-05	
714	-2.45000e+00	3.608104e-05	
715	-2.50000e+00	3.643923e-05	
716	-2.55000e+00	3.678256e-05	
717	-2.60000e+00	3.711104e-05	
718	-2.65000e+00	3.742471e-05	
719	-2.70000e+00	3.772359e-05	
720	-2.75000e+00	3.800771e-05	
721	-2.80000e+00	3.827709e-05	
722	-2.85000e+00	3.853178e-05	
723	-2.90000e+00	3.877183e-05	
724	-2.95000e+00	3.899728e-05	
725	-3.00000e+00	3.920821e-05	
726	-3.05000e+00	3.940468e-05	
727	-3.10000e+00	3.958682e-05	
728	-3.15000e+00	3.975475e-05	
729	-3.20000e+00	3.990865e-05	
730	-3.25000e+00	4.004877e-05	
731	-3.30000e+00	4.017543e-05	
732	-3.35000e+00	4.028907e-05	
733	-3.40000e+00	4.039025e-05	
734	-3.45000e+00	4.047974e-05	
735	-3.50000e+00	4.055848e-05	
736	-3.55000e+00	4.062758e-05	
737	-3.60000e+00	4.068828e-05	
738	-3.65000e+00	4.074189e-05	
739	-3.70000e+00	4.078963e-05	
740	-3.75000e+00	4.083259e-05	
741	-3.80000e+00	4.087171e-05	
742	-3.85000e+00	4.090772e-05	
743	-3.90000e+00	4.094121e-05	
744	-3.95000e+00	4.097263e-05	
745	-4.00000e+00	4.100233e-05	
746	-4.05000e+00	4.103058e-05	
747	-4.10000e+00	4.105759e-05	
748	-4.15000e+00	4.108353e-05	
749	-4.20000e+00	4.110854e-05	
750	-4.25000e+00	4.113273e-05	

Index   v-sweep         i(vds)          
--------------------------------------------------------------------------------
751	-4.30000e+00	4.115620e-05	
752	-4.35000e+00	4.117900e-05	
753	-4.40000e+00	4.120123e-05	
754	-4.45000e+00	4.122292e-05	
755	-4.50000e+00	4.124412e-05	
756	-4.55000e+00	4.126488e-05	
757	-4.60000e+00	4.128524e-05	
758	-4.65000e+00	4.130522e-05	
759	-4.70000e+00	4.132485e-05	
760	-4.75000e+00	4.134415e-05	
761	-4.80000e+00	4.136316e-05	
762	-4.85000e+00	4.138189e-05	
763	-4.90000e+00	4.140035e-05	
764	-4.95000e+00	4.141857e-05	
765	-5.00000e+00	4.143656e-05	
766	-5.05000e+00	4.145433e-05	
767	-5.10000e+00	4.147189e-05	
768	-5.15000e+00	4.148926e-05	
769	-5.20000e+00	4.150645e-05	
770	-5.25000e+00	4.152346e-05	
771	-5.30000e+00	4.154031e-05	
772	-5.35000e+00	4.155700e-05	
773	-5.40000e+00	4.157354e-05	
774	-5.45000e+00	4.158994e-05	
775	-5.50000e+00	4.160620e-05	
776	-5.55000e+00	4.162233e-05	
777	-5.60000e+00	4.163834e-05	
778	-5.65000e+00	4.165423e-05	
779	-5.70000e+00	4.167000e-05	
780	-5.75000e+00	4.168567e-05	
781	-5.80000e+00	4.170123e-05	
782	-5.85000e+00	4.171669e-05	
783	-5.90000e+00	4.173206e-05	
784	-5.95000e+00	4.174733e-05	
785	-6.00000e+00	4.176252e-05	
786	-6.05000e+00	4.177762e-05	
787	-6.10000e+00	4.179263e-05	
788	-6.15000e+00	4.180757e-05	
789	-6.20000e+00	4.182243e-05	
790	-6.25000e+00	4.183723e-05	
791	-6.30000e+00	4.185195e-05	
792	-6.35000e+00	4.186661e-05	
793	-6.40000e+00	4.188121e-05	
794	-6.45000e+00	4.189575e-05	
795	-6.50000e+00	4.191024e-05	
796	-6.55000e+00	4.192468e-05	
797	-6.60000e+00	4.193909e-05	
Note: No ".plot", ".print", or ".fourier" lines; no simulations run
