
Note: Compatibility modes selected: hs

Warning: m=xx on .subckt line will override multiplier m hierarchy!


Circuit: ***************************

Doing analysis at TEMP = 125.000000 and TNOM = 125.000000


No. of Data Rows : 798
                          ***************************
                          DC transfer characteristic  Mon Jan  9 13:58:51  2023
--------------------------------------------------------------------------------
Index   v-sweep         i(vds)          
--------------------------------------------------------------------------------
0	0.000000e+00	3.379054e-26	
1	-5.00000e-02	2.925092e-06	
2	-1.00000e-01	5.274481e-06	
3	-1.50000e-01	7.089746e-06	
4	-2.00000e-01	8.393872e-06	
5	-2.50000e-01	9.226864e-06	
6	-3.00000e-01	9.684977e-06	
7	-3.50000e-01	9.924902e-06	
8	-4.00000e-01	1.007470e-05	
9	-4.50000e-01	1.019107e-05	
10	-5.00000e-01	1.029313e-05	
11	-5.50000e-01	1.038757e-05	
12	-6.00000e-01	1.047709e-05	
13	-6.50000e-01	1.056304e-05	
14	-7.00000e-01	1.064615e-05	
15	-7.50000e-01	1.072691e-05	
16	-8.00000e-01	1.080565e-05	
17	-8.50000e-01	1.088261e-05	
18	-9.00000e-01	1.095801e-05	
19	-9.50000e-01	1.103201e-05	
20	-1.00000e+00	1.110473e-05	
21	-1.05000e+00	1.117630e-05	
22	-1.10000e+00	1.124682e-05	
23	-1.15000e+00	1.131637e-05	
24	-1.20000e+00	1.138504e-05	
25	-1.25000e+00	1.145288e-05	
26	-1.30000e+00	1.151998e-05	
27	-1.35000e+00	1.158637e-05	
28	-1.40000e+00	1.165211e-05	
29	-1.45000e+00	1.171725e-05	
30	-1.50000e+00	1.178182e-05	
31	-1.55000e+00	1.184587e-05	
32	-1.60000e+00	1.190942e-05	
33	-1.65000e+00	1.197252e-05	
34	-1.70000e+00	1.203519e-05	
35	-1.75000e+00	1.209745e-05	
36	-1.80000e+00	1.215933e-05	
37	-1.85000e+00	1.222086e-05	
38	-1.90000e+00	1.228206e-05	
39	-1.95000e+00	1.234294e-05	
40	-2.00000e+00	1.240352e-05	
41	-2.05000e+00	1.246382e-05	
42	-2.10000e+00	1.252386e-05	
43	-2.15000e+00	1.258366e-05	
44	-2.20000e+00	1.264322e-05	
45	-2.25000e+00	1.270256e-05	
46	-2.30000e+00	1.276169e-05	
47	-2.35000e+00	1.282063e-05	
48	-2.40000e+00	1.287938e-05	
49	-2.45000e+00	1.293796e-05	
50	-2.50000e+00	1.299637e-05	
51	-2.55000e+00	1.305462e-05	
52	-2.60000e+00	1.311273e-05	
53	-2.65000e+00	1.317070e-05	
54	-2.70000e+00	1.322854e-05	

Index   v-sweep         i(vds)          
--------------------------------------------------------------------------------
55	-2.75000e+00	1.328626e-05	
56	-2.80000e+00	1.334386e-05	
57	-2.85000e+00	1.340136e-05	
58	-2.90000e+00	1.345875e-05	
59	-2.95000e+00	1.351604e-05	
60	-3.00000e+00	1.357325e-05	
61	-3.05000e+00	1.363037e-05	
62	-3.10000e+00	1.368741e-05	
63	-3.15000e+00	1.374438e-05	
64	-3.20000e+00	1.380128e-05	
65	-3.25000e+00	1.385812e-05	
66	-3.30000e+00	1.391491e-05	
67	-3.35000e+00	1.397165e-05	
68	-3.40000e+00	1.402834e-05	
69	-3.45000e+00	1.408500e-05	
70	-3.50000e+00	1.414162e-05	
71	-3.55000e+00	1.419822e-05	
72	-3.60000e+00	1.425481e-05	
73	-3.65000e+00	1.431139e-05	
74	-3.70000e+00	1.436796e-05	
75	-3.75000e+00	1.442455e-05	
76	-3.80000e+00	1.448116e-05	
77	-3.85000e+00	1.453781e-05	
78	-3.90000e+00	1.459449e-05	
79	-3.95000e+00	1.465124e-05	
80	-4.00000e+00	1.470806e-05	
81	-4.05000e+00	1.476498e-05	
82	-4.10000e+00	1.482201e-05	
83	-4.15000e+00	1.487918e-05	
84	-4.20000e+00	1.493650e-05	
85	-4.25000e+00	1.499400e-05	
86	-4.30000e+00	1.505172e-05	
87	-4.35000e+00	1.510968e-05	
88	-4.40000e+00	1.516792e-05	
89	-4.45000e+00	1.522648e-05	
90	-4.50000e+00	1.528539e-05	
91	-4.55000e+00	1.534470e-05	
92	-4.60000e+00	1.540446e-05	
93	-4.65000e+00	1.546473e-05	
94	-4.70000e+00	1.552556e-05	
95	-4.75000e+00	1.558700e-05	
96	-4.80000e+00	1.564914e-05	
97	-4.85000e+00	1.571203e-05	
98	-4.90000e+00	1.577576e-05	
99	-4.95000e+00	1.584040e-05	
100	-5.00000e+00	1.590605e-05	
101	-5.05000e+00	1.597279e-05	
102	-5.10000e+00	1.604074e-05	
103	-5.15000e+00	1.610999e-05	
104	-5.20000e+00	1.618065e-05	
105	-5.25000e+00	1.625284e-05	
106	-5.30000e+00	1.632670e-05	
107	-5.35000e+00	1.640235e-05	
108	-5.40000e+00	1.647994e-05	
109	-5.45000e+00	1.655961e-05	
110	-5.50000e+00	1.664152e-05	
111	-5.55000e+00	1.672582e-05	
112	-5.60000e+00	1.681271e-05	

Index   v-sweep         i(vds)          
--------------------------------------------------------------------------------
113	-5.65000e+00	1.690234e-05	
114	-5.70000e+00	1.699492e-05	
115	-5.75000e+00	1.709064e-05	
116	-5.80000e+00	1.718970e-05	
117	-5.85000e+00	1.729232e-05	
118	-5.90000e+00	1.739872e-05	
119	-5.95000e+00	1.750914e-05	
120	-6.00000e+00	1.762381e-05	
121	-6.05000e+00	1.774299e-05	
122	-6.10000e+00	1.786693e-05	
123	-6.15000e+00	1.799591e-05	
124	-6.20000e+00	1.813021e-05	
125	-6.25000e+00	1.827011e-05	
126	-6.30000e+00	1.841591e-05	
127	-6.35000e+00	1.856792e-05	
128	-6.40000e+00	1.872646e-05	
129	-6.45000e+00	1.889186e-05	
130	-6.50000e+00	1.906445e-05	
131	-6.55000e+00	1.924459e-05	
132	-6.60000e+00	1.943262e-05	
133	0.000000e+00	-1.02031e-21	
134	-5.00000e-02	1.160956e-05	
135	-1.00000e-01	2.262621e-05	
136	-1.50000e-01	3.308459e-05	
137	-2.00000e-01	4.299484e-05	
138	-2.50000e-01	5.236113e-05	
139	-3.00000e-01	6.118622e-05	
140	-3.50000e-01	6.947255e-05	
141	-4.00000e-01	7.722252e-05	
142	-4.50000e-01	8.443856e-05	
143	-5.00000e-01	9.112320e-05	
144	-5.50000e-01	9.727915e-05	
145	-6.00000e-01	1.029093e-04	
146	-6.50000e-01	1.080170e-04	
147	-7.00000e-01	1.126063e-04	
148	-7.50000e-01	1.166822e-04	
149	-8.00000e-01	1.202519e-04	
150	-8.50000e-01	1.233265e-04	
151	-9.00000e-01	1.259240e-04	
152	-9.50000e-01	1.280745e-04	
153	-1.00000e+00	1.298274e-04	
154	-1.05000e+00	1.312534e-04	
155	-1.10000e+00	1.324351e-04	
156	-1.15000e+00	1.334478e-04	
157	-1.20000e+00	1.343462e-04	
158	-1.25000e+00	1.351651e-04	
159	-1.30000e+00	1.359253e-04	
160	-1.35000e+00	1.366397e-04	
161	-1.40000e+00	1.373165e-04	
162	-1.45000e+00	1.379617e-04	
163	-1.50000e+00	1.385794e-04	
164	-1.55000e+00	1.391729e-04	
165	-1.60000e+00	1.397448e-04	
166	-1.65000e+00	1.402974e-04	
167	-1.70000e+00	1.408325e-04	
168	-1.75000e+00	1.413515e-04	
169	-1.80000e+00	1.418559e-04	
170	-1.85000e+00	1.423469e-04	

Index   v-sweep         i(vds)          
--------------------------------------------------------------------------------
171	-1.90000e+00	1.428253e-04	
172	-1.95000e+00	1.432923e-04	
173	-2.00000e+00	1.437485e-04	
174	-2.05000e+00	1.441947e-04	
175	-2.10000e+00	1.446317e-04	
176	-2.15000e+00	1.450598e-04	
177	-2.20000e+00	1.454799e-04	
178	-2.25000e+00	1.458922e-04	
179	-2.30000e+00	1.462972e-04	
180	-2.35000e+00	1.466955e-04	
181	-2.40000e+00	1.470872e-04	
182	-2.45000e+00	1.474729e-04	
183	-2.50000e+00	1.478528e-04	
184	-2.55000e+00	1.482272e-04	
185	-2.60000e+00	1.485963e-04	
186	-2.65000e+00	1.489605e-04	
187	-2.70000e+00	1.493200e-04	
188	-2.75000e+00	1.496750e-04	
189	-2.80000e+00	1.500257e-04	
190	-2.85000e+00	1.503723e-04	
191	-2.90000e+00	1.507150e-04	
192	-2.95000e+00	1.510539e-04	
193	-3.00000e+00	1.513892e-04	
194	-3.05000e+00	1.517211e-04	
195	-3.10000e+00	1.520496e-04	
196	-3.15000e+00	1.523750e-04	
197	-3.20000e+00	1.526974e-04	
198	-3.25000e+00	1.530168e-04	
199	-3.30000e+00	1.533334e-04	
200	-3.35000e+00	1.536473e-04	
201	-3.40000e+00	1.539586e-04	
202	-3.45000e+00	1.542674e-04	
203	-3.50000e+00	1.545737e-04	
204	-3.55000e+00	1.548778e-04	
205	-3.60000e+00	1.551795e-04	
206	-3.65000e+00	1.554791e-04	
207	-3.70000e+00	1.557766e-04	
208	-3.75000e+00	1.560720e-04	
209	-3.80000e+00	1.563655e-04	
210	-3.85000e+00	1.566572e-04	
211	-3.90000e+00	1.569470e-04	
212	-3.95000e+00	1.572350e-04	
213	-4.00000e+00	1.575214e-04	
214	-4.05000e+00	1.578061e-04	
215	-4.10000e+00	1.580894e-04	
216	-4.15000e+00	1.583711e-04	
217	-4.20000e+00	1.586515e-04	
218	-4.25000e+00	1.589305e-04	
219	-4.30000e+00	1.592083e-04	
220	-4.35000e+00	1.594849e-04	
221	-4.40000e+00	1.597605e-04	
222	-4.45000e+00	1.600351e-04	
223	-4.50000e+00	1.603089e-04	
224	-4.55000e+00	1.605820e-04	
225	-4.60000e+00	1.608544e-04	
226	-4.65000e+00	1.611265e-04	
227	-4.70000e+00	1.613982e-04	
228	-4.75000e+00	1.616698e-04	

Index   v-sweep         i(vds)          
--------------------------------------------------------------------------------
229	-4.80000e+00	1.619415e-04	
230	-4.85000e+00	1.622134e-04	
231	-4.90000e+00	1.624859e-04	
232	-4.95000e+00	1.627591e-04	
233	-5.00000e+00	1.630334e-04	
234	-5.05000e+00	1.633091e-04	
235	-5.10000e+00	1.635864e-04	
236	-5.15000e+00	1.638658e-04	
237	-5.20000e+00	1.641476e-04	
238	-5.25000e+00	1.644323e-04	
239	-5.30000e+00	1.647203e-04	
240	-5.35000e+00	1.650122e-04	
241	-5.40000e+00	1.653085e-04	
242	-5.45000e+00	1.656097e-04	
243	-5.50000e+00	1.659165e-04	
244	-5.55000e+00	1.662296e-04	
245	-5.60000e+00	1.665497e-04	
246	-5.65000e+00	1.668776e-04	
247	-5.70000e+00	1.672140e-04	
248	-5.75000e+00	1.675599e-04	
249	-5.80000e+00	1.679162e-04	
250	-5.85000e+00	1.682839e-04	
251	-5.90000e+00	1.686640e-04	
252	-5.95000e+00	1.690577e-04	
253	-6.00000e+00	1.694660e-04	
254	-6.05000e+00	1.698903e-04	
255	-6.10000e+00	1.703318e-04	
256	-6.15000e+00	1.707919e-04	
257	-6.20000e+00	1.712720e-04	
258	-6.25000e+00	1.717736e-04	
259	-6.30000e+00	1.722983e-04	
260	-6.35000e+00	1.728477e-04	
261	-6.40000e+00	1.734235e-04	
262	-6.45000e+00	1.740275e-04	
263	-6.50000e+00	1.746615e-04	
264	-6.55000e+00	1.753274e-04	
265	-6.60000e+00	1.760273e-04	
266	0.000000e+00	-3.89015e-21	
267	-5.00000e-02	1.807727e-05	
268	-1.00000e-01	3.560688e-05	
269	-1.50000e-01	5.262169e-05	
270	-2.00000e-01	6.913113e-05	
271	-2.50000e-01	8.513881e-05	
272	-3.00000e-01	1.006469e-04	
273	-3.50000e-01	1.156571e-04	
274	-4.00000e-01	1.301713e-04	
275	-4.50000e-01	1.441910e-04	
276	-5.00000e-01	1.577180e-04	
277	-5.50000e-01	1.707540e-04	
278	-6.00000e-01	1.833006e-04	
279	-6.50000e-01	1.953596e-04	
280	-7.00000e-01	2.069327e-04	
281	-7.50000e-01	2.180217e-04	
282	-8.00000e-01	2.286282e-04	
283	-8.50000e-01	2.387540e-04	
284	-9.00000e-01	2.484009e-04	
285	-9.50000e-01	2.575708e-04	
286	-1.00000e+00	2.662656e-04	

Index   v-sweep         i(vds)          
--------------------------------------------------------------------------------
287	-1.05000e+00	2.744872e-04	
288	-1.10000e+00	2.822377e-04	
289	-1.15000e+00	2.895192e-04	
290	-1.20000e+00	2.963343e-04	
291	-1.25000e+00	3.026856e-04	
292	-1.30000e+00	3.085764e-04	
293	-1.35000e+00	3.140105e-04	
294	-1.40000e+00	3.189933e-04	
295	-1.45000e+00	3.235315e-04	
296	-1.50000e+00	3.276351e-04	
297	-1.55000e+00	3.313188e-04	
298	-1.60000e+00	3.346041e-04	
299	-1.65000e+00	3.375221e-04	
300	-1.70000e+00	3.401141e-04	
301	-1.75000e+00	3.424292e-04	
302	-1.80000e+00	3.445177e-04	
303	-1.85000e+00	3.464247e-04	
304	-1.90000e+00	3.481861e-04	
305	-1.95000e+00	3.498290e-04	
306	-2.00000e+00	3.513733e-04	
307	-2.05000e+00	3.528337e-04	
308	-2.10000e+00	3.542217e-04	
309	-2.15000e+00	3.555461e-04	
310	-2.20000e+00	3.568141e-04	
311	-2.25000e+00	3.580315e-04	
312	-2.30000e+00	3.592035e-04	
313	-2.35000e+00	3.603342e-04	
314	-2.40000e+00	3.614273e-04	
315	-2.45000e+00	3.624859e-04	
316	-2.50000e+00	3.635128e-04	
317	-2.55000e+00	3.645104e-04	
318	-2.60000e+00	3.654810e-04	
319	-2.65000e+00	3.664264e-04	
320	-2.70000e+00	3.673484e-04	
321	-2.75000e+00	3.682485e-04	
322	-2.80000e+00	3.691282e-04	
323	-2.85000e+00	3.699887e-04	
324	-2.90000e+00	3.708312e-04	
325	-2.95000e+00	3.716568e-04	
326	-3.00000e+00	3.724664e-04	
327	-3.05000e+00	3.732609e-04	
328	-3.10000e+00	3.740411e-04	
329	-3.15000e+00	3.748079e-04	
330	-3.20000e+00	3.755618e-04	
331	-3.25000e+00	3.763036e-04	
332	-3.30000e+00	3.770337e-04	
333	-3.35000e+00	3.777529e-04	
334	-3.40000e+00	3.784616e-04	
335	-3.45000e+00	3.791602e-04	
336	-3.50000e+00	3.798493e-04	
337	-3.55000e+00	3.805292e-04	
338	-3.60000e+00	3.812004e-04	
339	-3.65000e+00	3.818632e-04	
340	-3.70000e+00	3.825180e-04	
341	-3.75000e+00	3.831650e-04	
342	-3.80000e+00	3.838047e-04	
343	-3.85000e+00	3.844373e-04	
344	-3.90000e+00	3.850630e-04	

Index   v-sweep         i(vds)          
--------------------------------------------------------------------------------
345	-3.95000e+00	3.856821e-04	
346	-4.00000e+00	3.862949e-04	
347	-4.05000e+00	3.869016e-04	
348	-4.10000e+00	3.875024e-04	
349	-4.15000e+00	3.880975e-04	
350	-4.20000e+00	3.886872e-04	
351	-4.25000e+00	3.892716e-04	
352	-4.30000e+00	3.898509e-04	
353	-4.35000e+00	3.904252e-04	
354	-4.40000e+00	3.909949e-04	
355	-4.45000e+00	3.915599e-04	
356	-4.50000e+00	3.921205e-04	
357	-4.55000e+00	3.926768e-04	
358	-4.60000e+00	3.932290e-04	
359	-4.65000e+00	3.937773e-04	
360	-4.70000e+00	3.943217e-04	
361	-4.75000e+00	3.948625e-04	
362	-4.80000e+00	3.953998e-04	
363	-4.85000e+00	3.959338e-04	
364	-4.90000e+00	3.964647e-04	
365	-4.95000e+00	3.969926e-04	
366	-5.00000e+00	3.975177e-04	
367	-5.05000e+00	3.980404e-04	
368	-5.10000e+00	3.985607e-04	
369	-5.15000e+00	3.990790e-04	
370	-5.20000e+00	3.995955e-04	
371	-5.25000e+00	4.001105e-04	
372	-5.30000e+00	4.006245e-04	
373	-5.35000e+00	4.011376e-04	
374	-5.40000e+00	4.016504e-04	
375	-5.45000e+00	4.021632e-04	
376	-5.50000e+00	4.026767e-04	
377	-5.55000e+00	4.031912e-04	
378	-5.60000e+00	4.037074e-04	
379	-5.65000e+00	4.042260e-04	
380	-5.70000e+00	4.047477e-04	
381	-5.75000e+00	4.052732e-04	
382	-5.80000e+00	4.058034e-04	
383	-5.85000e+00	4.063393e-04	
384	-5.90000e+00	4.068817e-04	
385	-5.95000e+00	4.074319e-04	
386	-6.00000e+00	4.079909e-04	
387	-6.05000e+00	4.085602e-04	
388	-6.10000e+00	4.091410e-04	
389	-6.15000e+00	4.097348e-04	
390	-6.20000e+00	4.103433e-04	
391	-6.25000e+00	4.109680e-04	
392	-6.30000e+00	4.116109e-04	
393	-6.35000e+00	4.122739e-04	
394	-6.40000e+00	4.129590e-04	
395	-6.45000e+00	4.136684e-04	
396	-6.50000e+00	4.144045e-04	
397	-6.55000e+00	4.151697e-04	
398	-6.60000e+00	4.159666e-04	
399	0.000000e+00	1.970567e-19	
400	-5.00000e-02	2.325333e-05	
401	-1.00000e-01	4.599888e-05	
402	-1.50000e-01	6.826825e-05	

Index   v-sweep         i(vds)          
--------------------------------------------------------------------------------
403	-2.00000e-01	9.007043e-05	
404	-2.50000e-01	1.114087e-04	
405	-3.00000e-01	1.322849e-04	
406	-3.50000e-01	1.527006e-04	
407	-4.00000e-01	1.726570e-04	
408	-4.50000e-01	1.921555e-04	
409	-5.00000e-01	2.111976e-04	
410	-5.50000e-01	2.297845e-04	
411	-6.00000e-01	2.479176e-04	
412	-6.50000e-01	2.655983e-04	
413	-7.00000e-01	2.828278e-04	
414	-7.50000e-01	2.996076e-04	
415	-8.00000e-01	3.159391e-04	
416	-8.50000e-01	3.318235e-04	
417	-9.00000e-01	3.472623e-04	
418	-9.50000e-01	3.622567e-04	
419	-1.00000e+00	3.768083e-04	
420	-1.05000e+00	3.909183e-04	
421	-1.10000e+00	4.045880e-04	
422	-1.15000e+00	4.178191e-04	
423	-1.20000e+00	4.306126e-04	
424	-1.25000e+00	4.429702e-04	
425	-1.30000e+00	4.548932e-04	
426	-1.35000e+00	4.663831e-04	
427	-1.40000e+00	4.774412e-04	
428	-1.45000e+00	4.880691e-04	
429	-1.50000e+00	4.982683e-04	
430	-1.55000e+00	5.080402e-04	
431	-1.60000e+00	5.173866e-04	
432	-1.65000e+00	5.263091e-04	
433	-1.70000e+00	5.348095e-04	
434	-1.75000e+00	5.428896e-04	
435	-1.80000e+00	5.505516e-04	
436	-1.85000e+00	5.577979e-04	
437	-1.90000e+00	5.646312e-04	
438	-1.95000e+00	5.710548e-04	
439	-2.00000e+00	5.770728e-04	
440	-2.05000e+00	5.826906e-04	
441	-2.10000e+00	5.879152e-04	
442	-2.15000e+00	5.927564e-04	
443	-2.20000e+00	5.972274e-04	
444	-2.25000e+00	6.013464e-04	
445	-2.30000e+00	6.051368e-04	
446	-2.35000e+00	6.086277e-04	
447	-2.40000e+00	6.118513e-04	
448	-2.45000e+00	6.148407e-04	
449	-2.50000e+00	6.176270e-04	
450	-2.55000e+00	6.202374e-04	
451	-2.60000e+00	6.226949e-04	
452	-2.65000e+00	6.250188e-04	
453	-2.70000e+00	6.272248e-04	
454	-2.75000e+00	6.293262e-04	
455	-2.80000e+00	6.313343e-04	
456	-2.85000e+00	6.332583e-04	
457	-2.90000e+00	6.351066e-04	
458	-2.95000e+00	6.368859e-04	
459	-3.00000e+00	6.386024e-04	
460	-3.05000e+00	6.402614e-04	

Index   v-sweep         i(vds)          
--------------------------------------------------------------------------------
461	-3.10000e+00	6.418675e-04	
462	-3.15000e+00	6.434249e-04	
463	-3.20000e+00	6.449372e-04	
464	-3.25000e+00	6.464076e-04	
465	-3.30000e+00	6.478392e-04	
466	-3.35000e+00	6.492346e-04	
467	-3.40000e+00	6.505960e-04	
468	-3.45000e+00	6.519257e-04	
469	-3.50000e+00	6.532257e-04	
470	-3.55000e+00	6.544977e-04	
471	-3.60000e+00	6.557433e-04	
472	-3.65000e+00	6.569641e-04	
473	-3.70000e+00	6.581614e-04	
474	-3.75000e+00	6.593364e-04	
475	-3.80000e+00	6.604904e-04	
476	-3.85000e+00	6.616244e-04	
477	-3.90000e+00	6.627393e-04	
478	-3.95000e+00	6.638363e-04	
479	-4.00000e+00	6.649160e-04	
480	-4.05000e+00	6.659793e-04	
481	-4.10000e+00	6.670269e-04	
482	-4.15000e+00	6.680596e-04	
483	-4.20000e+00	6.690780e-04	
484	-4.25000e+00	6.700826e-04	
485	-4.30000e+00	6.710741e-04	
486	-4.35000e+00	6.720531e-04	
487	-4.40000e+00	6.730200e-04	
488	-4.45000e+00	6.739752e-04	
489	-4.50000e+00	6.749193e-04	
490	-4.55000e+00	6.758527e-04	
491	-4.60000e+00	6.767758e-04	
492	-4.65000e+00	6.776889e-04	
493	-4.70000e+00	6.785924e-04	
494	-4.75000e+00	6.794867e-04	
495	-4.80000e+00	6.803721e-04	
496	-4.85000e+00	6.812489e-04	
497	-4.90000e+00	6.821174e-04	
498	-4.95000e+00	6.829778e-04	
499	-5.00000e+00	6.838306e-04	
500	-5.05000e+00	6.846758e-04	
501	-5.10000e+00	6.855138e-04	
502	-5.15000e+00	6.863449e-04	
503	-5.20000e+00	6.871693e-04	
504	-5.25000e+00	6.879872e-04	
505	-5.30000e+00	6.887989e-04	
506	-5.35000e+00	6.896046e-04	
507	-5.40000e+00	6.904046e-04	
508	-5.45000e+00	6.911992e-04	
509	-5.50000e+00	6.919887e-04	
510	-5.55000e+00	6.927733e-04	
511	-5.60000e+00	6.935534e-04	
512	-5.65000e+00	6.943293e-04	
513	-5.70000e+00	6.951013e-04	
514	-5.75000e+00	6.958700e-04	
515	-5.80000e+00	6.966356e-04	
516	-5.85000e+00	6.973988e-04	
517	-5.90000e+00	6.981600e-04	
518	-5.95000e+00	6.989198e-04	

Index   v-sweep         i(vds)          
--------------------------------------------------------------------------------
519	-6.00000e+00	6.996788e-04	
520	-6.05000e+00	7.004379e-04	
521	-6.10000e+00	7.011976e-04	
522	-6.15000e+00	7.019590e-04	
523	-6.20000e+00	7.027230e-04	
524	-6.25000e+00	7.034906e-04	
525	-6.30000e+00	7.042630e-04	
526	-6.35000e+00	7.050414e-04	
527	-6.40000e+00	7.058271e-04	
528	-6.45000e+00	7.066218e-04	
529	-6.50000e+00	7.074271e-04	
530	-6.55000e+00	7.082446e-04	
531	-6.60000e+00	7.090764e-04	
532	0.000000e+00	2.718211e-24	
533	-5.00000e-02	2.758056e-05	
534	-1.00000e-01	5.468611e-05	
535	-1.50000e-01	8.134724e-05	
536	-2.00000e-01	1.075726e-04	
537	-2.50000e-01	1.333654e-04	
538	-3.00000e-01	1.587272e-04	
539	-3.50000e-01	1.836592e-04	
540	-4.00000e-01	2.081626e-04	
541	-4.50000e-01	2.322386e-04	
542	-5.00000e-01	2.558883e-04	
543	-5.50000e-01	2.791128e-04	
544	-6.00000e-01	3.019133e-04	
545	-6.50000e-01	3.242909e-04	
546	-7.00000e-01	3.462467e-04	
547	-7.50000e-01	3.677819e-04	
548	-8.00000e-01	3.888976e-04	
549	-8.50000e-01	4.095950e-04	
550	-9.00000e-01	4.298751e-04	
551	-9.50000e-01	4.497392e-04	
552	-1.00000e+00	4.691883e-04	
553	-1.05000e+00	4.882237e-04	
554	-1.10000e+00	5.068463e-04	
555	-1.15000e+00	5.250575e-04	
556	-1.20000e+00	5.428582e-04	
557	-1.25000e+00	5.602497e-04	
558	-1.30000e+00	5.772331e-04	
559	-1.35000e+00	5.938096e-04	
560	-1.40000e+00	6.099802e-04	
561	-1.45000e+00	6.257462e-04	
562	-1.50000e+00	6.411087e-04	
563	-1.55000e+00	6.560688e-04	
564	-1.60000e+00	6.706277e-04	
565	-1.65000e+00	6.847866e-04	
566	-1.70000e+00	6.985467e-04	
567	-1.75000e+00	7.119090e-04	
568	-1.80000e+00	7.248749e-04	
569	-1.85000e+00	7.374456e-04	
570	-1.90000e+00	7.496221e-04	
571	-1.95000e+00	7.614058e-04	
572	-2.00000e+00	7.727979e-04	
573	-2.05000e+00	7.837997e-04	
574	-2.10000e+00	7.944126e-04	
575	-2.15000e+00	8.046378e-04	
576	-2.20000e+00	8.144767e-04	

Index   v-sweep         i(vds)          
--------------------------------------------------------------------------------
577	-2.25000e+00	8.239310e-04	
578	-2.30000e+00	8.330021e-04	
579	-2.35000e+00	8.416917e-04	
580	-2.40000e+00	8.500018e-04	
581	-2.45000e+00	8.579344e-04	
582	-2.50000e+00	8.654919e-04	
583	-2.55000e+00	8.726773e-04	
584	-2.60000e+00	8.794938e-04	
585	-2.65000e+00	8.859459e-04	
586	-2.70000e+00	8.920389e-04	
587	-2.75000e+00	8.977799e-04	
588	-2.80000e+00	9.031779e-04	
589	-2.85000e+00	9.082449e-04	
590	-2.90000e+00	9.129956e-04	
591	-2.95000e+00	9.174479e-04	
592	-3.00000e+00	9.216228e-04	
593	-3.05000e+00	9.255425e-04	
594	-3.10000e+00	9.292301e-04	
595	-3.15000e+00	9.327081e-04	
596	-3.20000e+00	9.359972e-04	
597	-3.25000e+00	9.391168e-04	
598	-3.30000e+00	9.420838e-04	
599	-3.35000e+00	9.449134e-04	
600	-3.40000e+00	9.476188e-04	
601	-3.45000e+00	9.502118e-04	
602	-3.50000e+00	9.527025e-04	
603	-3.55000e+00	9.551000e-04	
604	-3.60000e+00	9.574122e-04	
605	-3.65000e+00	9.596461e-04	
606	-3.70000e+00	9.618079e-04	
607	-3.75000e+00	9.639031e-04	
608	-3.80000e+00	9.659368e-04	
609	-3.85000e+00	9.679133e-04	
610	-3.90000e+00	9.698365e-04	
611	-3.95000e+00	9.717102e-04	
612	-4.00000e+00	9.735374e-04	
613	-4.05000e+00	9.753213e-04	
614	-4.10000e+00	9.770643e-04	
615	-4.15000e+00	9.787690e-04	
616	-4.20000e+00	9.804376e-04	
617	-4.25000e+00	9.820722e-04	
618	-4.30000e+00	9.836746e-04	
619	-4.35000e+00	9.852466e-04	
620	-4.40000e+00	9.867896e-04	
621	-4.45000e+00	9.883054e-04	
622	-4.50000e+00	9.897951e-04	
623	-4.55000e+00	9.912600e-04	
624	-4.60000e+00	9.927014e-04	
625	-4.65000e+00	9.941204e-04	
626	-4.70000e+00	9.955178e-04	
627	-4.75000e+00	9.968949e-04	
628	-4.80000e+00	9.982523e-04	
629	-4.85000e+00	9.995909e-04	
630	-4.90000e+00	1.000912e-03	
631	-4.95000e+00	1.002215e-03	
632	-5.00000e+00	1.003502e-03	
633	-5.05000e+00	1.004773e-03	
634	-5.10000e+00	1.006029e-03	

Index   v-sweep         i(vds)          
--------------------------------------------------------------------------------
635	-5.15000e+00	1.007270e-03	
636	-5.20000e+00	1.008497e-03	
637	-5.25000e+00	1.009710e-03	
638	-5.30000e+00	1.010911e-03	
639	-5.35000e+00	1.012098e-03	
640	-5.40000e+00	1.013274e-03	
641	-5.45000e+00	1.014437e-03	
642	-5.50000e+00	1.015590e-03	
643	-5.55000e+00	1.016731e-03	
644	-5.60000e+00	1.017862e-03	
645	-5.65000e+00	1.018982e-03	
646	-5.70000e+00	1.020093e-03	
647	-5.75000e+00	1.021194e-03	
648	-5.80000e+00	1.022286e-03	
649	-5.85000e+00	1.023369e-03	
650	-5.90000e+00	1.024444e-03	
651	-5.95000e+00	1.025510e-03	
652	-6.00000e+00	1.026569e-03	
653	-6.05000e+00	1.027620e-03	
654	-6.10000e+00	1.028665e-03	
655	-6.15000e+00	1.029702e-03	
656	-6.20000e+00	1.030734e-03	
657	-6.25000e+00	1.031760e-03	
658	-6.30000e+00	1.032781e-03	
659	-6.35000e+00	1.033797e-03	
660	-6.40000e+00	1.034810e-03	
661	-6.45000e+00	1.035819e-03	
662	-6.50000e+00	1.036825e-03	
663	-6.55000e+00	1.037830e-03	
664	-6.60000e+00	1.038834e-03	
665	0.000000e+00	2.703650e-19	
666	-5.00000e-02	3.132287e-05	
667	-1.00000e-01	6.219757e-05	
668	-1.50000e-01	9.265387e-05	
669	-2.00000e-01	1.227003e-04	
670	-2.50000e-01	1.523396e-04	
671	-3.00000e-01	1.815735e-04	
672	-3.50000e-01	2.104031e-04	
673	-4.00000e-01	2.388292e-04	
674	-4.50000e-01	2.668530e-04	
675	-5.00000e-01	2.944754e-04	
676	-5.50000e-01	3.216974e-04	
677	-6.00000e-01	3.485200e-04	
678	-6.50000e-01	3.749442e-04	
679	-7.00000e-01	4.009709e-04	
680	-7.50000e-01	4.266012e-04	
681	-8.00000e-01	4.518359e-04	
682	-8.50000e-01	4.766762e-04	
683	-9.00000e-01	5.011230e-04	
684	-9.50000e-01	5.251773e-04	
685	-1.00000e+00	5.488400e-04	
686	-1.05000e+00	5.721122e-04	
687	-1.10000e+00	5.949947e-04	
688	-1.15000e+00	6.174887e-04	
689	-1.20000e+00	6.395951e-04	
690	-1.25000e+00	6.613149e-04	
691	-1.30000e+00	6.826490e-04	
692	-1.35000e+00	7.035985e-04	

Index   v-sweep         i(vds)          
--------------------------------------------------------------------------------
693	-1.40000e+00	7.241643e-04	
694	-1.45000e+00	7.443474e-04	
695	-1.50000e+00	7.641488e-04	
696	-1.55000e+00	7.835694e-04	
697	-1.60000e+00	8.026104e-04	
698	-1.65000e+00	8.212726e-04	
699	-1.70000e+00	8.395570e-04	
700	-1.75000e+00	8.574646e-04	
701	-1.80000e+00	8.749965e-04	
702	-1.85000e+00	8.921536e-04	
703	-1.90000e+00	9.089369e-04	
704	-1.95000e+00	9.253473e-04	
705	-2.00000e+00	9.413860e-04	
706	-2.05000e+00	9.570538e-04	
707	-2.10000e+00	9.723519e-04	
708	-2.15000e+00	9.872812e-04	
709	-2.20000e+00	1.001843e-03	
710	-2.25000e+00	1.016037e-03	
711	-2.30000e+00	1.029866e-03	
712	-2.35000e+00	1.043331e-03	
713	-2.40000e+00	1.056431e-03	
714	-2.45000e+00	1.069169e-03	
715	-2.50000e+00	1.081546e-03	
716	-2.55000e+00	1.093562e-03	
717	-2.60000e+00	1.105219e-03	
718	-2.65000e+00	1.116518e-03	
719	-2.70000e+00	1.127459e-03	
720	-2.75000e+00	1.138045e-03	
721	-2.80000e+00	1.148277e-03	
722	-2.85000e+00	1.158155e-03	
723	-2.90000e+00	1.167682e-03	
724	-2.95000e+00	1.176858e-03	
725	-3.00000e+00	1.185686e-03	
726	-3.05000e+00	1.194167e-03	
727	-3.10000e+00	1.202303e-03	
728	-3.15000e+00	1.210097e-03	
729	-3.20000e+00	1.217552e-03	
730	-3.25000e+00	1.224670e-03	
731	-3.30000e+00	1.231456e-03	
732	-3.35000e+00	1.237914e-03	
733	-3.40000e+00	1.244050e-03	
734	-3.45000e+00	1.249873e-03	
735	-3.50000e+00	1.255390e-03	
736	-3.55000e+00	1.260613e-03	
737	-3.60000e+00	1.265556e-03	
738	-3.65000e+00	1.270235e-03	
739	-3.70000e+00	1.274667e-03	
740	-3.75000e+00	1.278870e-03	
741	-3.80000e+00	1.282863e-03	
742	-3.85000e+00	1.286663e-03	
743	-3.90000e+00	1.290288e-03	
744	-3.95000e+00	1.293753e-03	
745	-4.00000e+00	1.297072e-03	
746	-4.05000e+00	1.300258e-03	
747	-4.10000e+00	1.303321e-03	
748	-4.15000e+00	1.306273e-03	
749	-4.20000e+00	1.309122e-03	
750	-4.25000e+00	1.311876e-03	

Index   v-sweep         i(vds)          
--------------------------------------------------------------------------------
751	-4.30000e+00	1.314543e-03	
752	-4.35000e+00	1.317129e-03	
753	-4.40000e+00	1.319641e-03	
754	-4.45000e+00	1.322082e-03	
755	-4.50000e+00	1.324458e-03	
756	-4.55000e+00	1.326774e-03	
757	-4.60000e+00	1.329033e-03	
758	-4.65000e+00	1.331238e-03	
759	-4.70000e+00	1.333394e-03	
760	-4.75000e+00	1.335502e-03	
761	-4.80000e+00	1.337566e-03	
762	-4.85000e+00	1.339588e-03	
763	-4.90000e+00	1.341571e-03	
764	-4.95000e+00	1.343516e-03	
765	-5.00000e+00	1.345425e-03	
766	-5.05000e+00	1.347300e-03	
767	-5.10000e+00	1.349144e-03	
768	-5.15000e+00	1.350957e-03	
769	-5.20000e+00	1.352741e-03	
770	-5.25000e+00	1.354497e-03	
771	-5.30000e+00	1.356226e-03	
772	-5.35000e+00	1.357930e-03	
773	-5.40000e+00	1.359610e-03	
774	-5.45000e+00	1.361267e-03	
775	-5.50000e+00	1.362901e-03	
776	-5.55000e+00	1.364514e-03	
777	-5.60000e+00	1.366107e-03	
778	-5.65000e+00	1.367680e-03	
779	-5.70000e+00	1.369234e-03	
780	-5.75000e+00	1.370770e-03	
781	-5.80000e+00	1.372288e-03	
782	-5.85000e+00	1.373790e-03	
783	-5.90000e+00	1.375275e-03	
784	-5.95000e+00	1.376744e-03	
785	-6.00000e+00	1.378198e-03	
786	-6.05000e+00	1.379638e-03	
787	-6.10000e+00	1.381064e-03	
788	-6.15000e+00	1.382476e-03	
789	-6.20000e+00	1.383875e-03	
790	-6.25000e+00	1.385261e-03	
791	-6.30000e+00	1.386635e-03	
792	-6.35000e+00	1.387997e-03	
793	-6.40000e+00	1.389348e-03	
794	-6.45000e+00	1.390688e-03	
795	-6.50000e+00	1.392017e-03	
796	-6.55000e+00	1.393336e-03	
797	-6.60000e+00	1.394646e-03	
Note: No ".plot", ".print", or ".fourier" lines; no simulations run
