
Note: Compatibility modes selected: hs

Warning: m=xx on .subckt line will override multiplier m hierarchy!


Circuit: ***************************

Doing analysis at TEMP = 125.000000 and TNOM = 125.000000


No. of Data Rows : 798
                          ***************************
                          DC transfer characteristic  Mon Jan  9 13:58:51  2023
--------------------------------------------------------------------------------
Index   v-sweep         i(vds)          
--------------------------------------------------------------------------------
0	0.000000e+00	-4.87764e-23	
1	-5.00000e-02	2.311023e-07	
2	-1.00000e-01	4.040594e-07	
3	-1.50000e-01	5.266463e-07	
4	-2.00000e-01	6.030960e-07	
5	-2.50000e-01	6.416164e-07	
6	-3.00000e-01	6.574909e-07	
7	-3.50000e-01	6.644287e-07	
8	-4.00000e-01	6.684215e-07	
9	-4.50000e-01	6.713267e-07	
10	-5.00000e-01	6.737350e-07	
11	-5.50000e-01	6.758660e-07	
12	-6.00000e-01	6.778163e-07	
13	-6.50000e-01	6.796351e-07	
14	-7.00000e-01	6.813505e-07	
15	-7.50000e-01	6.829807e-07	
16	-8.00000e-01	6.845380e-07	
17	-8.50000e-01	6.860316e-07	
18	-9.00000e-01	6.874684e-07	
19	-9.50000e-01	6.888543e-07	
20	-1.00000e+00	6.901937e-07	
21	-1.05000e+00	6.914908e-07	
22	-1.10000e+00	6.927489e-07	
23	-1.15000e+00	6.939708e-07	
24	-1.20000e+00	6.951593e-07	
25	-1.25000e+00	6.963166e-07	
26	-1.30000e+00	6.974447e-07	
27	-1.35000e+00	6.985454e-07	
28	-1.40000e+00	6.996205e-07	
29	-1.45000e+00	7.006714e-07	
30	-1.50000e+00	7.016996e-07	
31	-1.55000e+00	7.027062e-07	
32	-1.60000e+00	7.036924e-07	
33	-1.65000e+00	7.046593e-07	
34	-1.70000e+00	7.056079e-07	
35	-1.75000e+00	7.065390e-07	
36	-1.80000e+00	7.074535e-07	
37	-1.85000e+00	7.083522e-07	
38	-1.90000e+00	7.092357e-07	
39	-1.95000e+00	7.101049e-07	
40	-2.00000e+00	7.109602e-07	
41	-2.05000e+00	7.118024e-07	
42	-2.10000e+00	7.126319e-07	
43	-2.15000e+00	7.134492e-07	
44	-2.20000e+00	7.142549e-07	
45	-2.25000e+00	7.150494e-07	
46	-2.30000e+00	7.158331e-07	
47	-2.35000e+00	7.166065e-07	
48	-2.40000e+00	7.173700e-07	
49	-2.45000e+00	7.181238e-07	
50	-2.50000e+00	7.188683e-07	
51	-2.55000e+00	7.196040e-07	
52	-2.60000e+00	7.203310e-07	
53	-2.65000e+00	7.210496e-07	
54	-2.70000e+00	7.217603e-07	

Index   v-sweep         i(vds)          
--------------------------------------------------------------------------------
55	-2.75000e+00	7.224631e-07	
56	-2.80000e+00	7.231585e-07	
57	-2.85000e+00	7.238466e-07	
58	-2.90000e+00	7.245276e-07	
59	-2.95000e+00	7.252019e-07	
60	-3.00000e+00	7.258695e-07	
61	-3.05000e+00	7.265309e-07	
62	-3.10000e+00	7.271861e-07	
63	-3.15000e+00	7.278354e-07	
64	-3.20000e+00	7.284790e-07	
65	-3.25000e+00	7.291172e-07	
66	-3.30000e+00	7.297502e-07	
67	-3.35000e+00	7.303782e-07	
68	-3.40000e+00	7.310015e-07	
69	-3.45000e+00	7.316203e-07	
70	-3.50000e+00	7.322350e-07	
71	-3.55000e+00	7.328459e-07	
72	-3.60000e+00	7.334533e-07	
73	-3.65000e+00	7.340576e-07	
74	-3.70000e+00	7.346593e-07	
75	-3.75000e+00	7.352587e-07	
76	-3.80000e+00	7.358563e-07	
77	-3.85000e+00	7.364529e-07	
78	-3.90000e+00	7.370489e-07	
79	-3.95000e+00	7.376450e-07	
80	-4.00000e+00	7.382421e-07	
81	-4.05000e+00	7.388410e-07	
82	-4.10000e+00	7.394425e-07	
83	-4.15000e+00	7.400478e-07	
84	-4.20000e+00	7.406578e-07	
85	-4.25000e+00	7.412740e-07	
86	-4.30000e+00	7.418976e-07	
87	-4.35000e+00	7.425301e-07	
88	-4.40000e+00	7.431730e-07	
89	-4.45000e+00	7.438282e-07	
90	-4.50000e+00	7.444976e-07	
91	-4.55000e+00	7.451831e-07	
92	-4.60000e+00	7.458870e-07	
93	-4.65000e+00	7.466117e-07	
94	-4.70000e+00	7.473598e-07	
95	-4.75000e+00	7.481340e-07	
96	-4.80000e+00	7.489372e-07	
97	-4.85000e+00	7.497726e-07	
98	-4.90000e+00	7.506436e-07	
99	-4.95000e+00	7.515537e-07	
100	-5.00000e+00	7.525067e-07	
101	-5.05000e+00	7.535067e-07	
102	-5.10000e+00	7.545579e-07	
103	-5.15000e+00	7.556649e-07	
104	-5.20000e+00	7.568323e-07	
105	-5.25000e+00	7.580653e-07	
106	-5.30000e+00	7.593690e-07	
107	-5.35000e+00	7.607490e-07	
108	-5.40000e+00	7.622111e-07	
109	-5.45000e+00	7.637615e-07	
110	-5.50000e+00	7.654063e-07	
111	-5.55000e+00	7.671523e-07	
112	-5.60000e+00	7.690065e-07	

Index   v-sweep         i(vds)          
--------------------------------------------------------------------------------
113	-5.65000e+00	7.709759e-07	
114	-5.70000e+00	7.730681e-07	
115	-5.75000e+00	7.752908e-07	
116	-5.80000e+00	7.776522e-07	
117	-5.85000e+00	7.801607e-07	
118	-5.90000e+00	7.828248e-07	
119	-5.95000e+00	7.856536e-07	
120	-6.00000e+00	7.886563e-07	
121	-6.05000e+00	7.918425e-07	
122	-6.10000e+00	7.952221e-07	
123	-6.15000e+00	7.988052e-07	
124	-6.20000e+00	8.026022e-07	
125	-6.25000e+00	8.066239e-07	
126	-6.30000e+00	8.108813e-07	
127	-6.35000e+00	8.153859e-07	
128	-6.40000e+00	8.201491e-07	
129	-6.45000e+00	8.251829e-07	
130	-6.50000e+00	8.304995e-07	
131	-6.55000e+00	8.361114e-07	
132	-6.60000e+00	8.420313e-07	
133	0.000000e+00	-7.92967e-26	
134	-5.00000e-02	1.038166e-06	
135	-1.00000e-01	2.014624e-06	
136	-1.50000e-01	2.936173e-06	
137	-2.00000e-01	3.804490e-06	
138	-2.50000e-01	4.620034e-06	
139	-3.00000e-01	5.382980e-06	
140	-3.50000e-01	6.093436e-06	
141	-4.00000e-01	6.751503e-06	
142	-4.50000e-01	7.357286e-06	
143	-5.00000e-01	7.910903e-06	
144	-5.50000e-01	8.412499e-06	
145	-6.00000e-01	8.862254e-06	
146	-6.50000e-01	9.260421e-06	
147	-7.00000e-01	9.607371e-06	
148	-7.50000e-01	9.903702e-06	
149	-8.00000e-01	1.015044e-05	
150	-8.50000e-01	1.034941e-05	
151	-9.00000e-01	1.050391e-05	
152	-9.50000e-01	1.061950e-05	
153	-1.00000e+00	1.070420e-05	
154	-1.05000e+00	1.076711e-05	
155	-1.10000e+00	1.081613e-05	
156	-1.15000e+00	1.085665e-05	
157	-1.20000e+00	1.089186e-05	
158	-1.25000e+00	1.092355e-05	
159	-1.30000e+00	1.095271e-05	
160	-1.35000e+00	1.097995e-05	
161	-1.40000e+00	1.100565e-05	
162	-1.45000e+00	1.103005e-05	
163	-1.50000e+00	1.105336e-05	
164	-1.55000e+00	1.107569e-05	
165	-1.60000e+00	1.109715e-05	
166	-1.65000e+00	1.111784e-05	
167	-1.70000e+00	1.113783e-05	
168	-1.75000e+00	1.115716e-05	
169	-1.80000e+00	1.117591e-05	
170	-1.85000e+00	1.119410e-05	

Index   v-sweep         i(vds)          
--------------------------------------------------------------------------------
171	-1.90000e+00	1.121178e-05	
172	-1.95000e+00	1.122899e-05	
173	-2.00000e+00	1.124576e-05	
174	-2.05000e+00	1.126211e-05	
175	-2.10000e+00	1.127807e-05	
176	-2.15000e+00	1.129366e-05	
177	-2.20000e+00	1.130891e-05	
178	-2.25000e+00	1.132383e-05	
179	-2.30000e+00	1.133844e-05	
180	-2.35000e+00	1.135276e-05	
181	-2.40000e+00	1.136680e-05	
182	-2.45000e+00	1.138058e-05	
183	-2.50000e+00	1.139410e-05	
184	-2.55000e+00	1.140739e-05	
185	-2.60000e+00	1.142045e-05	
186	-2.65000e+00	1.143328e-05	
187	-2.70000e+00	1.144591e-05	
188	-2.75000e+00	1.145834e-05	
189	-2.80000e+00	1.147058e-05	
190	-2.85000e+00	1.148263e-05	
191	-2.90000e+00	1.149451e-05	
192	-2.95000e+00	1.150622e-05	
193	-3.00000e+00	1.151776e-05	
194	-3.05000e+00	1.152915e-05	
195	-3.10000e+00	1.154039e-05	
196	-3.15000e+00	1.155149e-05	
197	-3.20000e+00	1.156244e-05	
198	-3.25000e+00	1.157326e-05	
199	-3.30000e+00	1.158395e-05	
200	-3.35000e+00	1.159451e-05	
201	-3.40000e+00	1.160495e-05	
202	-3.45000e+00	1.161527e-05	
203	-3.50000e+00	1.162548e-05	
204	-3.55000e+00	1.163558e-05	
205	-3.60000e+00	1.164558e-05	
206	-3.65000e+00	1.165547e-05	
207	-3.70000e+00	1.166526e-05	
208	-3.75000e+00	1.167496e-05	
209	-3.80000e+00	1.168456e-05	
210	-3.85000e+00	1.169408e-05	
211	-3.90000e+00	1.170350e-05	
212	-3.95000e+00	1.171285e-05	
213	-4.00000e+00	1.172212e-05	
214	-4.05000e+00	1.173131e-05	
215	-4.10000e+00	1.174043e-05	
216	-4.15000e+00	1.174948e-05	
217	-4.20000e+00	1.175847e-05	
218	-4.25000e+00	1.176740e-05	
219	-4.30000e+00	1.177628e-05	
220	-4.35000e+00	1.178511e-05	
221	-4.40000e+00	1.179390e-05	
222	-4.45000e+00	1.180265e-05	
223	-4.50000e+00	1.181138e-05	
224	-4.55000e+00	1.182009e-05	
225	-4.60000e+00	1.182880e-05	
226	-4.65000e+00	1.183750e-05	
227	-4.70000e+00	1.184622e-05	
228	-4.75000e+00	1.185496e-05	

Index   v-sweep         i(vds)          
--------------------------------------------------------------------------------
229	-4.80000e+00	1.186374e-05	
230	-4.85000e+00	1.187258e-05	
231	-4.90000e+00	1.188150e-05	
232	-4.95000e+00	1.189050e-05	
233	-5.00000e+00	1.189962e-05	
234	-5.05000e+00	1.190887e-05	
235	-5.10000e+00	1.191829e-05	
236	-5.15000e+00	1.192789e-05	
237	-5.20000e+00	1.193771e-05	
238	-5.25000e+00	1.194778e-05	
239	-5.30000e+00	1.195813e-05	
240	-5.35000e+00	1.196880e-05	
241	-5.40000e+00	1.197983e-05	
242	-5.45000e+00	1.199126e-05	
243	-5.50000e+00	1.200315e-05	
244	-5.55000e+00	1.201553e-05	
245	-5.60000e+00	1.202846e-05	
246	-5.65000e+00	1.204200e-05	
247	-5.70000e+00	1.205621e-05	
248	-5.75000e+00	1.207114e-05	
249	-5.80000e+00	1.208688e-05	
250	-5.85000e+00	1.210348e-05	
251	-5.90000e+00	1.212102e-05	
252	-5.95000e+00	1.213959e-05	
253	-6.00000e+00	1.215926e-05	
254	-6.05000e+00	1.218013e-05	
255	-6.10000e+00	1.220227e-05	
256	-6.15000e+00	1.222580e-05	
257	-6.20000e+00	1.225081e-05	
258	-6.25000e+00	1.227741e-05	
259	-6.30000e+00	1.230570e-05	
260	-6.35000e+00	1.233580e-05	
261	-6.40000e+00	1.236782e-05	
262	-6.45000e+00	1.240190e-05	
263	-6.50000e+00	1.243816e-05	
264	-6.55000e+00	1.247673e-05	
265	-6.60000e+00	1.251775e-05	
266	0.000000e+00	-6.92853e-25	
267	-5.00000e-02	1.695694e-06	
268	-1.00000e-01	3.333396e-06	
269	-1.50000e-01	4.919756e-06	
270	-2.00000e-01	6.456416e-06	
271	-2.50000e-01	7.943815e-06	
272	-3.00000e-01	9.382104e-06	
273	-3.50000e-01	1.077136e-05	
274	-4.00000e-01	1.211165e-05	
275	-4.50000e-01	1.340304e-05	
276	-5.00000e-01	1.464558e-05	
277	-5.50000e-01	1.583933e-05	
278	-6.00000e-01	1.698435e-05	
279	-6.50000e-01	1.808072e-05	
280	-7.00000e-01	1.912848e-05	
281	-7.50000e-01	2.012770e-05	
282	-8.00000e-01	2.107846e-05	
283	-8.50000e-01	2.198081e-05	
284	-9.00000e-01	2.283484e-05	
285	-9.50000e-01	2.364062e-05	
286	-1.00000e+00	2.439823e-05	

Index   v-sweep         i(vds)          
--------------------------------------------------------------------------------
287	-1.05000e+00	2.510777e-05	
288	-1.10000e+00	2.576934e-05	
289	-1.15000e+00	2.638308e-05	
290	-1.20000e+00	2.694914e-05	
291	-1.25000e+00	2.746772e-05	
292	-1.30000e+00	2.793910e-05	
293	-1.35000e+00	2.836366e-05	
294	-1.40000e+00	2.874197e-05	
295	-1.45000e+00	2.907488e-05	
296	-1.50000e+00	2.936375e-05	
297	-1.55000e+00	2.961065e-05	
298	-1.60000e+00	2.981877e-05	
299	-1.65000e+00	2.999259e-05	
300	-1.70000e+00	3.013781e-05	
301	-1.75000e+00	3.026060e-05	
302	-1.80000e+00	3.036669e-05	
303	-1.85000e+00	3.046061e-05	
304	-1.90000e+00	3.054563e-05	
305	-1.95000e+00	3.062394e-05	
306	-2.00000e+00	3.069701e-05	
307	-2.05000e+00	3.076584e-05	
308	-2.10000e+00	3.083112e-05	
309	-2.15000e+00	3.089335e-05	
310	-2.20000e+00	3.095292e-05	
311	-2.25000e+00	3.101013e-05	
312	-2.30000e+00	3.106521e-05	
313	-2.35000e+00	3.111837e-05	
314	-2.40000e+00	3.116978e-05	
315	-2.45000e+00	3.121957e-05	
316	-2.50000e+00	3.126788e-05	
317	-2.55000e+00	3.131481e-05	
318	-2.60000e+00	3.136046e-05	
319	-2.65000e+00	3.140492e-05	
320	-2.70000e+00	3.144825e-05	
321	-2.75000e+00	3.149054e-05	
322	-2.80000e+00	3.153185e-05	
323	-2.85000e+00	3.157222e-05	
324	-2.90000e+00	3.161172e-05	
325	-2.95000e+00	3.165040e-05	
326	-3.00000e+00	3.168829e-05	
327	-3.05000e+00	3.172543e-05	
328	-3.10000e+00	3.176188e-05	
329	-3.15000e+00	3.179765e-05	
330	-3.20000e+00	3.183278e-05	
331	-3.25000e+00	3.186730e-05	
332	-3.30000e+00	3.190124e-05	
333	-3.35000e+00	3.193462e-05	
334	-3.40000e+00	3.196748e-05	
335	-3.45000e+00	3.199982e-05	
336	-3.50000e+00	3.203168e-05	
337	-3.55000e+00	3.206306e-05	
338	-3.60000e+00	3.209400e-05	
339	-3.65000e+00	3.212451e-05	
340	-3.70000e+00	3.215461e-05	
341	-3.75000e+00	3.218430e-05	
342	-3.80000e+00	3.221361e-05	
343	-3.85000e+00	3.224255e-05	
344	-3.90000e+00	3.227113e-05	

Index   v-sweep         i(vds)          
--------------------------------------------------------------------------------
345	-3.95000e+00	3.229937e-05	
346	-4.00000e+00	3.232728e-05	
347	-4.05000e+00	3.235486e-05	
348	-4.10000e+00	3.238214e-05	
349	-4.15000e+00	3.240911e-05	
350	-4.20000e+00	3.243580e-05	
351	-4.25000e+00	3.246220e-05	
352	-4.30000e+00	3.248833e-05	
353	-4.35000e+00	3.251420e-05	
354	-4.40000e+00	3.253982e-05	
355	-4.45000e+00	3.256519e-05	
356	-4.50000e+00	3.259032e-05	
357	-4.55000e+00	3.261523e-05	
358	-4.60000e+00	3.263992e-05	
359	-4.65000e+00	3.266440e-05	
360	-4.70000e+00	3.268867e-05	
361	-4.75000e+00	3.271276e-05	
362	-4.80000e+00	3.273666e-05	
363	-4.85000e+00	3.276040e-05	
364	-4.90000e+00	3.278397e-05	
365	-4.95000e+00	3.280740e-05	
366	-5.00000e+00	3.283070e-05	
367	-5.05000e+00	3.285388e-05	
368	-5.10000e+00	3.287696e-05	
369	-5.15000e+00	3.289996e-05	
370	-5.20000e+00	3.292290e-05	
371	-5.25000e+00	3.294580e-05	
372	-5.30000e+00	3.296870e-05	
373	-5.35000e+00	3.299161e-05	
374	-5.40000e+00	3.301457e-05	
375	-5.45000e+00	3.303761e-05	
376	-5.50000e+00	3.306078e-05	
377	-5.55000e+00	3.308412e-05	
378	-5.60000e+00	3.310767e-05	
379	-5.65000e+00	3.313148e-05	
380	-5.70000e+00	3.315563e-05	
381	-5.75000e+00	3.318015e-05	
382	-5.80000e+00	3.320514e-05	
383	-5.85000e+00	3.323065e-05	
384	-5.90000e+00	3.325678e-05	
385	-5.95000e+00	3.328360e-05	
386	-6.00000e+00	3.331122e-05	
387	-6.05000e+00	3.333974e-05	
388	-6.10000e+00	3.336927e-05	
389	-6.15000e+00	3.339992e-05	
390	-6.20000e+00	3.343182e-05	
391	-6.25000e+00	3.346512e-05	
392	-6.30000e+00	3.349996e-05	
393	-6.35000e+00	3.353648e-05	
394	-6.40000e+00	3.357487e-05	
395	-6.45000e+00	3.361528e-05	
396	-6.50000e+00	3.365792e-05	
397	-6.55000e+00	3.370297e-05	
398	-6.60000e+00	3.375064e-05	
399	0.000000e+00	-4.94480e-25	
400	-5.00000e-02	2.254399e-06	
401	-1.00000e-01	4.454288e-06	
402	-1.50000e-01	6.606196e-06	

Index   v-sweep         i(vds)          
--------------------------------------------------------------------------------
403	-2.00000e-01	8.711746e-06	
404	-2.50000e-01	1.077137e-05	
405	-3.00000e-01	1.278520e-05	
406	-3.50000e-01	1.475333e-05	
407	-4.00000e-01	1.667578e-05	
408	-4.50000e-01	1.855263e-05	
409	-5.00000e-01	2.038391e-05	
410	-5.50000e-01	2.216968e-05	
411	-6.00000e-01	2.390999e-05	
412	-6.50000e-01	2.560488e-05	
413	-7.00000e-01	2.725440e-05	
414	-7.50000e-01	2.885860e-05	
415	-8.00000e-01	3.041753e-05	
416	-8.50000e-01	3.193124e-05	
417	-9.00000e-01	3.339979e-05	
418	-9.50000e-01	3.482321e-05	
419	-1.00000e+00	3.620156e-05	
420	-1.05000e+00	3.753490e-05	
421	-1.10000e+00	3.882327e-05	
422	-1.15000e+00	4.006672e-05	
423	-1.20000e+00	4.126532e-05	
424	-1.25000e+00	4.241911e-05	
425	-1.30000e+00	4.352814e-05	
426	-1.35000e+00	4.459248e-05	
427	-1.40000e+00	4.561219e-05	
428	-1.45000e+00	4.658733e-05	
429	-1.50000e+00	4.751796e-05	
430	-1.55000e+00	4.840415e-05	
431	-1.60000e+00	4.924598e-05	
432	-1.65000e+00	5.004354e-05	
433	-1.70000e+00	5.079691e-05	
434	-1.75000e+00	5.150622e-05	
435	-1.80000e+00	5.217160e-05	
436	-1.85000e+00	5.279321e-05	
437	-1.90000e+00	5.337126e-05	
438	-1.95000e+00	5.390602e-05	
439	-2.00000e+00	5.439787e-05	
440	-2.05000e+00	5.484733e-05	
441	-2.10000e+00	5.525515e-05	
442	-2.15000e+00	5.562237e-05	
443	-2.20000e+00	5.595056e-05	
444	-2.25000e+00	5.624189e-05	
445	-2.30000e+00	5.649934e-05	
446	-2.35000e+00	5.672670e-05	
447	-2.40000e+00	5.692836e-05	
448	-2.45000e+00	5.710884e-05	
449	-2.50000e+00	5.727231e-05	
450	-2.55000e+00	5.742225e-05	
451	-2.60000e+00	5.756138e-05	
452	-2.65000e+00	5.769169e-05	
453	-2.70000e+00	5.781468e-05	
454	-2.75000e+00	5.793146e-05	
455	-2.80000e+00	5.804285e-05	
456	-2.85000e+00	5.814951e-05	
457	-2.90000e+00	5.825195e-05	
458	-2.95000e+00	5.835060e-05	
459	-3.00000e+00	5.844580e-05	
460	-3.05000e+00	5.853787e-05	

Index   v-sweep         i(vds)          
--------------------------------------------------------------------------------
461	-3.10000e+00	5.862704e-05	
462	-3.15000e+00	5.871355e-05	
463	-3.20000e+00	5.879759e-05	
464	-3.25000e+00	5.887934e-05	
465	-3.30000e+00	5.895894e-05	
466	-3.35000e+00	5.903655e-05	
467	-3.40000e+00	5.911227e-05	
468	-3.45000e+00	5.918623e-05	
469	-3.50000e+00	5.925853e-05	
470	-3.55000e+00	5.932927e-05	
471	-3.60000e+00	5.939852e-05	
472	-3.65000e+00	5.946637e-05	
473	-3.70000e+00	5.953290e-05	
474	-3.75000e+00	5.959816e-05	
475	-3.80000e+00	5.966222e-05	
476	-3.85000e+00	5.972514e-05	
477	-3.90000e+00	5.978697e-05	
478	-3.95000e+00	5.984777e-05	
479	-4.00000e+00	5.990757e-05	
480	-4.05000e+00	5.996642e-05	
481	-4.10000e+00	6.002437e-05	
482	-4.15000e+00	6.008144e-05	
483	-4.20000e+00	6.013769e-05	
484	-4.25000e+00	6.019313e-05	
485	-4.30000e+00	6.024780e-05	
486	-4.35000e+00	6.030174e-05	
487	-4.40000e+00	6.035496e-05	
488	-4.45000e+00	6.040750e-05	
489	-4.50000e+00	6.045938e-05	
490	-4.55000e+00	6.051062e-05	
491	-4.60000e+00	6.056125e-05	
492	-4.65000e+00	6.061129e-05	
493	-4.70000e+00	6.066076e-05	
494	-4.75000e+00	6.070968e-05	
495	-4.80000e+00	6.075806e-05	
496	-4.85000e+00	6.080592e-05	
497	-4.90000e+00	6.085329e-05	
498	-4.95000e+00	6.090018e-05	
499	-5.00000e+00	6.094659e-05	
500	-5.05000e+00	6.099256e-05	
501	-5.10000e+00	6.103809e-05	
502	-5.15000e+00	6.108320e-05	
503	-5.20000e+00	6.112790e-05	
504	-5.25000e+00	6.117222e-05	
505	-5.30000e+00	6.121615e-05	
506	-5.35000e+00	6.125973e-05	
507	-5.40000e+00	6.130296e-05	
508	-5.45000e+00	6.134587e-05	
509	-5.50000e+00	6.138847e-05	
510	-5.55000e+00	6.143078e-05	
511	-5.60000e+00	6.147283e-05	
512	-5.65000e+00	6.151464e-05	
513	-5.70000e+00	6.155623e-05	
514	-5.75000e+00	6.159763e-05	
515	-5.80000e+00	6.163888e-05	
516	-5.85000e+00	6.168001e-05	
517	-5.90000e+00	6.172106e-05	
518	-5.95000e+00	6.176207e-05	

Index   v-sweep         i(vds)          
--------------------------------------------------------------------------------
519	-6.00000e+00	6.180310e-05	
520	-6.05000e+00	6.184420e-05	
521	-6.10000e+00	6.188542e-05	
522	-6.15000e+00	6.192684e-05	
523	-6.20000e+00	6.196853e-05	
524	-6.25000e+00	6.201058e-05	
525	-6.30000e+00	6.205307e-05	
526	-6.35000e+00	6.209610e-05	
527	-6.40000e+00	6.213978e-05	
528	-6.45000e+00	6.218424e-05	
529	-6.50000e+00	6.222960e-05	
530	-6.55000e+00	6.227601e-05	
531	-6.60000e+00	6.232361e-05	
532	0.000000e+00	-5.49116e-25	
533	-5.00000e-02	2.743743e-06	
534	-1.00000e-01	5.435937e-06	
535	-1.50000e-01	8.083009e-06	
536	-2.00000e-01	1.068657e-05	
537	-2.50000e-01	1.324704e-05	
538	-3.00000e-01	1.576455e-05	
539	-3.50000e-01	1.823918e-05	
540	-4.00000e-01	2.067097e-05	
541	-4.50000e-01	2.305996e-05	
542	-5.00000e-01	2.540620e-05	
543	-5.50000e-01	2.770973e-05	
544	-6.00000e-01	2.997059e-05	
545	-6.50000e-01	3.218882e-05	
546	-7.00000e-01	3.436447e-05	
547	-7.50000e-01	3.649757e-05	
548	-8.00000e-01	3.858818e-05	
549	-8.50000e-01	4.063633e-05	
550	-9.00000e-01	4.264206e-05	
551	-9.50000e-01	4.460542e-05	
552	-1.00000e+00	4.652645e-05	
553	-1.05000e+00	4.840520e-05	
554	-1.10000e+00	5.024170e-05	
555	-1.15000e+00	5.203599e-05	
556	-1.20000e+00	5.378813e-05	
557	-1.25000e+00	5.549816e-05	
558	-1.30000e+00	5.716611e-05	
559	-1.35000e+00	5.879203e-05	
560	-1.40000e+00	6.037597e-05	
561	-1.45000e+00	6.191796e-05	
562	-1.50000e+00	6.341806e-05	
563	-1.55000e+00	6.487631e-05	
564	-1.60000e+00	6.629275e-05	
565	-1.65000e+00	6.766743e-05	
566	-1.70000e+00	6.900039e-05	
567	-1.75000e+00	7.029168e-05	
568	-1.80000e+00	7.154136e-05	
569	-1.85000e+00	7.274946e-05	
570	-1.90000e+00	7.391604e-05	
571	-1.95000e+00	7.504116e-05	
572	-2.00000e+00	7.612486e-05	
573	-2.05000e+00	7.716720e-05	
574	-2.10000e+00	7.816824e-05	
575	-2.15000e+00	7.912806e-05	
576	-2.20000e+00	8.004670e-05	

Index   v-sweep         i(vds)          
--------------------------------------------------------------------------------
577	-2.25000e+00	8.092427e-05	
578	-2.30000e+00	8.176083e-05	
579	-2.35000e+00	8.255650e-05	
580	-2.40000e+00	8.331138e-05	
581	-2.45000e+00	8.402561e-05	
582	-2.50000e+00	8.469937e-05	
583	-2.55000e+00	8.533286e-05	
584	-2.60000e+00	8.592636e-05	
585	-2.65000e+00	8.648022e-05	
586	-2.70000e+00	8.699493e-05	
587	-2.75000e+00	8.747113e-05	
588	-2.80000e+00	8.790973e-05	
589	-2.85000e+00	8.831195e-05	
590	-2.90000e+00	8.867945e-05	
591	-2.95000e+00	8.901441e-05	
592	-3.00000e+00	8.931957e-05	
593	-3.05000e+00	8.959811e-05	
594	-3.10000e+00	8.985349e-05	
595	-3.15000e+00	9.008911e-05	
596	-3.20000e+00	9.030808e-05	
597	-3.25000e+00	9.051305e-05	
598	-3.30000e+00	9.070616e-05	
599	-3.35000e+00	9.088913e-05	
600	-3.40000e+00	9.106330e-05	
601	-3.45000e+00	9.122975e-05	
602	-3.50000e+00	9.138933e-05	
603	-3.55000e+00	9.154276e-05	
604	-3.60000e+00	9.169061e-05	
605	-3.65000e+00	9.183339e-05	
606	-3.70000e+00	9.197152e-05	
607	-3.75000e+00	9.210538e-05	
608	-3.80000e+00	9.223528e-05	
609	-3.85000e+00	9.236151e-05	
610	-3.90000e+00	9.248432e-05	
611	-3.95000e+00	9.260395e-05	
612	-4.00000e+00	9.272059e-05	
613	-4.05000e+00	9.283444e-05	
614	-4.10000e+00	9.294566e-05	
615	-4.15000e+00	9.305440e-05	
616	-4.20000e+00	9.316080e-05	
617	-4.25000e+00	9.326499e-05	
618	-4.30000e+00	9.336709e-05	
619	-4.35000e+00	9.346721e-05	
620	-4.40000e+00	9.356545e-05	
621	-4.45000e+00	9.366189e-05	
622	-4.50000e+00	9.375663e-05	
623	-4.55000e+00	9.384975e-05	
624	-4.60000e+00	9.394131e-05	
625	-4.65000e+00	9.403140e-05	
626	-4.70000e+00	9.412007e-05	
627	-4.75000e+00	9.420739e-05	
628	-4.80000e+00	9.429341e-05	
629	-4.85000e+00	9.437818e-05	
630	-4.90000e+00	9.446176e-05	
631	-4.95000e+00	9.454419e-05	
632	-5.00000e+00	9.462552e-05	
633	-5.05000e+00	9.470579e-05	
634	-5.10000e+00	9.478504e-05	

Index   v-sweep         i(vds)          
--------------------------------------------------------------------------------
635	-5.15000e+00	9.486330e-05	
636	-5.20000e+00	9.494062e-05	
637	-5.25000e+00	9.501702e-05	
638	-5.30000e+00	9.509254e-05	
639	-5.35000e+00	9.516720e-05	
640	-5.40000e+00	9.524105e-05	
641	-5.45000e+00	9.531409e-05	
642	-5.50000e+00	9.538637e-05	
643	-5.55000e+00	9.545790e-05	
644	-5.60000e+00	9.552872e-05	
645	-5.65000e+00	9.559883e-05	
646	-5.70000e+00	9.566828e-05	
647	-5.75000e+00	9.573707e-05	
648	-5.80000e+00	9.580523e-05	
649	-5.85000e+00	9.587279e-05	
650	-5.90000e+00	9.593976e-05	
651	-5.95000e+00	9.600617e-05	
652	-6.00000e+00	9.607204e-05	
653	-6.05000e+00	9.613740e-05	
654	-6.10000e+00	9.620227e-05	
655	-6.15000e+00	9.626668e-05	
656	-6.20000e+00	9.633065e-05	
657	-6.25000e+00	9.639422e-05	
658	-6.30000e+00	9.645742e-05	
659	-6.35000e+00	9.652030e-05	
660	-6.40000e+00	9.658289e-05	
661	-6.45000e+00	9.664523e-05	
662	-6.50000e+00	9.670739e-05	
663	-6.55000e+00	9.676942e-05	
664	-6.60000e+00	9.683138e-05	
665	0.000000e+00	-6.17074e-25	
666	-5.00000e-02	3.182964e-06	
667	-1.00000e-01	6.316874e-06	
668	-1.50000e-01	9.408068e-06	
669	-2.00000e-01	1.245814e-05	
670	-2.50000e-01	1.546751e-05	
671	-3.00000e-01	1.843632e-05	
672	-3.50000e-01	2.136462e-05	
673	-4.00000e-01	2.425247e-05	
674	-4.50000e-01	2.709988e-05	
675	-5.00000e-01	2.990692e-05	
676	-5.50000e-01	3.267361e-05	
677	-6.00000e-01	3.539998e-05	
678	-6.50000e-01	3.808609e-05	
679	-7.00000e-01	4.073197e-05	
680	-7.50000e-01	4.333765e-05	
681	-8.00000e-01	4.590317e-05	
682	-8.50000e-01	4.842857e-05	
683	-9.00000e-01	5.091390e-05	
684	-9.50000e-01	5.335917e-05	
685	-1.00000e+00	5.576444e-05	
686	-1.05000e+00	5.812975e-05	
687	-1.10000e+00	6.045512e-05	
688	-1.15000e+00	6.274060e-05	
689	-1.20000e+00	6.498622e-05	
690	-1.25000e+00	6.719203e-05	
691	-1.30000e+00	6.935806e-05	
692	-1.35000e+00	7.148434e-05	

Index   v-sweep         i(vds)          
--------------------------------------------------------------------------------
693	-1.40000e+00	7.357093e-05	
694	-1.45000e+00	7.561785e-05	
695	-1.50000e+00	7.762514e-05	
696	-1.55000e+00	7.959284e-05	
697	-1.60000e+00	8.152099e-05	
698	-1.65000e+00	8.340963e-05	
699	-1.70000e+00	8.525880e-05	
700	-1.75000e+00	8.706853e-05	
701	-1.80000e+00	8.883887e-05	
702	-1.85000e+00	9.056985e-05	
703	-1.90000e+00	9.226150e-05	
704	-1.95000e+00	9.391388e-05	
705	-2.00000e+00	9.552703e-05	
706	-2.05000e+00	9.710097e-05	
707	-2.10000e+00	9.863575e-05	
708	-2.15000e+00	1.001314e-04	
709	-2.20000e+00	1.015880e-04	
710	-2.25000e+00	1.030055e-04	
711	-2.30000e+00	1.043841e-04	
712	-2.35000e+00	1.057237e-04	
713	-2.40000e+00	1.070244e-04	
714	-2.45000e+00	1.082863e-04	
715	-2.50000e+00	1.095093e-04	
716	-2.55000e+00	1.106935e-04	
717	-2.60000e+00	1.118391e-04	
718	-2.65000e+00	1.129460e-04	
719	-2.70000e+00	1.140142e-04	
720	-2.75000e+00	1.150440e-04	
721	-2.80000e+00	1.160352e-04	
722	-2.85000e+00	1.169881e-04	
723	-2.90000e+00	1.179026e-04	
724	-2.95000e+00	1.187788e-04	
725	-3.00000e+00	1.196169e-04	
726	-3.05000e+00	1.204170e-04	
727	-3.10000e+00	1.211793e-04	
728	-3.15000e+00	1.219038e-04	
729	-3.20000e+00	1.225908e-04	
730	-3.25000e+00	1.232406e-04	
731	-3.30000e+00	1.238535e-04	
732	-3.35000e+00	1.244299e-04	
733	-3.40000e+00	1.249705e-04	
734	-3.45000e+00	1.254760e-04	
735	-3.50000e+00	1.259475e-04	
736	-3.55000e+00	1.263863e-04	
737	-3.60000e+00	1.267940e-04	
738	-3.65000e+00	1.271728e-04	
739	-3.70000e+00	1.275250e-04	
740	-3.75000e+00	1.278533e-04	
741	-3.80000e+00	1.281605e-04	
742	-3.85000e+00	1.284491e-04	
743	-3.90000e+00	1.287214e-04	
744	-3.95000e+00	1.289796e-04	
745	-4.00000e+00	1.292252e-04	
746	-4.05000e+00	1.294599e-04	
747	-4.10000e+00	1.296846e-04	
748	-4.15000e+00	1.299006e-04	
749	-4.20000e+00	1.301084e-04	
750	-4.25000e+00	1.303090e-04	

Index   v-sweep         i(vds)          
--------------------------------------------------------------------------------
751	-4.30000e+00	1.305029e-04	
752	-4.35000e+00	1.306906e-04	
753	-4.40000e+00	1.308726e-04	
754	-4.45000e+00	1.310494e-04	
755	-4.50000e+00	1.312212e-04	
756	-4.55000e+00	1.313885e-04	
757	-4.60000e+00	1.315515e-04	
758	-4.65000e+00	1.317105e-04	
759	-4.70000e+00	1.318657e-04	
760	-4.75000e+00	1.320174e-04	
761	-4.80000e+00	1.321658e-04	
762	-4.85000e+00	1.323110e-04	
763	-4.90000e+00	1.324533e-04	
764	-4.95000e+00	1.325927e-04	
765	-5.00000e+00	1.327294e-04	
766	-5.05000e+00	1.328637e-04	
767	-5.10000e+00	1.329954e-04	
768	-5.15000e+00	1.331249e-04	
769	-5.20000e+00	1.332522e-04	
770	-5.25000e+00	1.333775e-04	
771	-5.30000e+00	1.335007e-04	
772	-5.35000e+00	1.336220e-04	
773	-5.40000e+00	1.337414e-04	
774	-5.45000e+00	1.338592e-04	
775	-5.50000e+00	1.339752e-04	
776	-5.55000e+00	1.340896e-04	
777	-5.60000e+00	1.342025e-04	
778	-5.65000e+00	1.343139e-04	
779	-5.70000e+00	1.344238e-04	
780	-5.75000e+00	1.345324e-04	
781	-5.80000e+00	1.346396e-04	
782	-5.85000e+00	1.347456e-04	
783	-5.90000e+00	1.348503e-04	
784	-5.95000e+00	1.349538e-04	
785	-6.00000e+00	1.350562e-04	
786	-6.05000e+00	1.351575e-04	
787	-6.10000e+00	1.352577e-04	
788	-6.15000e+00	1.353568e-04	
789	-6.20000e+00	1.354549e-04	
790	-6.25000e+00	1.355521e-04	
791	-6.30000e+00	1.356483e-04	
792	-6.35000e+00	1.357436e-04	
793	-6.40000e+00	1.358381e-04	
794	-6.45000e+00	1.359317e-04	
795	-6.50000e+00	1.360244e-04	
796	-6.55000e+00	1.361164e-04	
797	-6.60000e+00	1.362076e-04	
Note: No ".plot", ".print", or ".fourier" lines; no simulations run
