
Note: Compatibility modes selected: hs

Warning: m=xx on .subckt line will override multiplier m hierarchy!


Circuit: ***************************

Doing analysis at TEMP = 25.000000 and TNOM = 25.000000


No. of Data Rows : 798
                          ***************************
                          DC transfer characteristic  Mon Jan  9 13:58:50  2023
--------------------------------------------------------------------------------
Index   v-sweep         i(vds)          
--------------------------------------------------------------------------------
0	0.000000e+00	-7.30632e-34	
1	-5.00000e-02	1.349186e-07	
2	-1.00000e-01	2.305083e-07	
3	-1.50000e-01	2.890099e-07	
4	-2.00000e-01	3.172760e-07	
5	-2.50000e-01	3.288679e-07	
6	-3.00000e-01	3.348057e-07	
7	-3.50000e-01	3.390713e-07	
8	-4.00000e-01	3.427170e-07	
9	-4.50000e-01	3.460537e-07	
10	-5.00000e-01	3.491958e-07	
11	-5.50000e-01	3.521955e-07	
12	-6.00000e-01	3.550809e-07	
13	-6.50000e-01	3.578698e-07	
14	-7.00000e-01	3.605743e-07	
15	-7.50000e-01	3.632038e-07	
16	-8.00000e-01	3.657655e-07	
17	-8.50000e-01	3.682656e-07	
18	-9.00000e-01	3.707090e-07	
19	-9.50000e-01	3.731003e-07	
20	-1.00000e+00	3.754434e-07	
21	-1.05000e+00	3.777415e-07	
22	-1.10000e+00	3.799979e-07	
23	-1.15000e+00	3.822152e-07	
24	-1.20000e+00	3.843960e-07	
25	-1.25000e+00	3.865424e-07	
26	-1.30000e+00	3.886566e-07	
27	-1.35000e+00	3.907405e-07	
28	-1.40000e+00	3.927956e-07	
29	-1.45000e+00	3.948237e-07	
30	-1.50000e+00	3.968263e-07	
31	-1.55000e+00	3.988045e-07	
32	-1.60000e+00	4.007598e-07	
33	-1.65000e+00	4.026933e-07	
34	-1.70000e+00	4.046060e-07	
35	-1.75000e+00	4.064989e-07	
36	-1.80000e+00	4.083731e-07	
37	-1.85000e+00	4.102294e-07	
38	-1.90000e+00	4.120686e-07	
39	-1.95000e+00	4.138915e-07	
40	-2.00000e+00	4.156988e-07	
41	-2.05000e+00	4.174913e-07	
42	-2.10000e+00	4.192694e-07	
43	-2.15000e+00	4.210340e-07	
44	-2.20000e+00	4.227854e-07	
45	-2.25000e+00	4.245244e-07	
46	-2.30000e+00	4.262513e-07	
47	-2.35000e+00	4.279667e-07	
48	-2.40000e+00	4.296710e-07	
49	-2.45000e+00	4.313647e-07	
50	-2.50000e+00	4.330481e-07	
51	-2.55000e+00	4.347218e-07	
52	-2.60000e+00	4.363859e-07	
53	-2.65000e+00	4.380410e-07	
54	-2.70000e+00	4.396873e-07	

Index   v-sweep         i(vds)          
--------------------------------------------------------------------------------
55	-2.75000e+00	4.413252e-07	
56	-2.80000e+00	4.429550e-07	
57	-2.85000e+00	4.445769e-07	
58	-2.90000e+00	4.461913e-07	
59	-2.95000e+00	4.477984e-07	
60	-3.00000e+00	4.493986e-07	
61	-3.05000e+00	4.509920e-07	
62	-3.10000e+00	4.525790e-07	
63	-3.15000e+00	4.541597e-07	
64	-3.20000e+00	4.557344e-07	
65	-3.25000e+00	4.573034e-07	
66	-3.30000e+00	4.588669e-07	
67	-3.35000e+00	4.604251e-07	
68	-3.40000e+00	4.619783e-07	
69	-3.45000e+00	4.635267e-07	
70	-3.50000e+00	4.650707e-07	
71	-3.55000e+00	4.666104e-07	
72	-3.60000e+00	4.681461e-07	
73	-3.65000e+00	4.696783e-07	
74	-3.70000e+00	4.712071e-07	
75	-3.75000e+00	4.727329e-07	
76	-3.80000e+00	4.742561e-07	
77	-3.85000e+00	4.757772e-07	
78	-3.90000e+00	4.772964e-07	
79	-3.95000e+00	4.788144e-07	
80	-4.00000e+00	4.803316e-07	
81	-4.05000e+00	4.818485e-07	
82	-4.10000e+00	4.833659e-07	
83	-4.15000e+00	4.848843e-07	
84	-4.20000e+00	4.864046e-07	
85	-4.25000e+00	4.879274e-07	
86	-4.30000e+00	4.894538e-07	
87	-4.35000e+00	4.909846e-07	
88	-4.40000e+00	4.925209e-07	
89	-4.45000e+00	4.940637e-07	
90	-4.50000e+00	4.956144e-07	
91	-4.55000e+00	4.971743e-07	
92	-4.60000e+00	4.987447e-07	
93	-4.65000e+00	5.003273e-07	
94	-4.70000e+00	5.019236e-07	
95	-4.75000e+00	5.035356e-07	
96	-4.80000e+00	5.051651e-07	
97	-4.85000e+00	5.068141e-07	
98	-4.90000e+00	5.084849e-07	
99	-4.95000e+00	5.101799e-07	
100	-5.00000e+00	5.119015e-07	
101	-5.05000e+00	5.136524e-07	
102	-5.10000e+00	5.154355e-07	
103	-5.15000e+00	5.172538e-07	
104	-5.20000e+00	5.191105e-07	
105	-5.25000e+00	5.210089e-07	
106	-5.30000e+00	5.229526e-07	
107	-5.35000e+00	5.249455e-07	
108	-5.40000e+00	5.269914e-07	
109	-5.45000e+00	5.290945e-07	
110	-5.50000e+00	5.312592e-07	
111	-5.55000e+00	5.334902e-07	
112	-5.60000e+00	5.357922e-07	

Index   v-sweep         i(vds)          
--------------------------------------------------------------------------------
113	-5.65000e+00	5.381702e-07	
114	-5.70000e+00	5.406295e-07	
115	-5.75000e+00	5.431757e-07	
116	-5.80000e+00	5.458144e-07	
117	-5.85000e+00	5.485517e-07	
118	-5.90000e+00	5.513936e-07	
119	-5.95000e+00	5.543468e-07	
120	-6.00000e+00	5.574178e-07	
121	-6.05000e+00	5.606137e-07	
122	-6.10000e+00	5.639415e-07	
123	-6.15000e+00	5.674089e-07	
124	-6.20000e+00	5.710234e-07	
125	-6.25000e+00	5.747931e-07	
126	-6.30000e+00	5.787262e-07	
127	-6.35000e+00	5.828311e-07	
128	-6.40000e+00	5.871166e-07	
129	-6.45000e+00	5.915917e-07	
130	-6.50000e+00	5.962657e-07	
131	-6.55000e+00	6.011481e-07	
132	-6.60000e+00	6.062487e-07	
133	0.000000e+00	-8.07627e-23	
134	-5.00000e-02	7.814813e-07	
135	-1.00000e-01	1.519165e-06	
136	-1.50000e-01	2.213334e-06	
137	-2.00000e-01	2.864271e-06	
138	-2.50000e-01	3.472260e-06	
139	-3.00000e-01	4.037589e-06	
140	-3.50000e-01	4.560551e-06	
141	-4.00000e-01	5.041445e-06	
142	-4.50000e-01	5.480584e-06	
143	-5.00000e-01	5.878302e-06	
144	-5.50000e-01	6.234967e-06	
145	-6.00000e-01	6.551014e-06	
146	-6.50000e-01	6.826997e-06	
147	-7.00000e-01	7.063703e-06	
148	-7.50000e-01	7.262369e-06	
149	-8.00000e-01	7.425102e-06	
150	-8.50000e-01	7.555503e-06	
151	-9.00000e-01	7.659140e-06	
152	-9.50000e-01	7.742969e-06	
153	-1.00000e+00	7.813539e-06	
154	-1.05000e+00	7.875573e-06	
155	-1.10000e+00	7.931924e-06	
156	-1.15000e+00	7.984203e-06	
157	-1.20000e+00	8.033342e-06	
158	-1.25000e+00	8.079915e-06	
159	-1.30000e+00	8.124308e-06	
160	-1.35000e+00	8.166797e-06	
161	-1.40000e+00	8.207594e-06	
162	-1.45000e+00	8.246867e-06	
163	-1.50000e+00	8.284757e-06	
164	-1.55000e+00	8.321380e-06	
165	-1.60000e+00	8.356839e-06	
166	-1.65000e+00	8.391222e-06	
167	-1.70000e+00	8.424607e-06	
168	-1.75000e+00	8.457063e-06	
169	-1.80000e+00	8.488652e-06	
170	-1.85000e+00	8.519430e-06	

Index   v-sweep         i(vds)          
--------------------------------------------------------------------------------
171	-1.90000e+00	8.549448e-06	
172	-1.95000e+00	8.578751e-06	
173	-2.00000e+00	8.607380e-06	
174	-2.05000e+00	8.635375e-06	
175	-2.10000e+00	8.662769e-06	
176	-2.15000e+00	8.689596e-06	
177	-2.20000e+00	8.715883e-06	
178	-2.25000e+00	8.741660e-06	
179	-2.30000e+00	8.766951e-06	
180	-2.35000e+00	8.791780e-06	
181	-2.40000e+00	8.816168e-06	
182	-2.45000e+00	8.840136e-06	
183	-2.50000e+00	8.863703e-06	
184	-2.55000e+00	8.886886e-06	
185	-2.60000e+00	8.909703e-06	
186	-2.65000e+00	8.932168e-06	
187	-2.70000e+00	8.954296e-06	
188	-2.75000e+00	8.976101e-06	
189	-2.80000e+00	8.997596e-06	
190	-2.85000e+00	9.018793e-06	
191	-2.90000e+00	9.039703e-06	
192	-2.95000e+00	9.060338e-06	
193	-3.00000e+00	9.080707e-06	
194	-3.05000e+00	9.100820e-06	
195	-3.10000e+00	9.120686e-06	
196	-3.15000e+00	9.140315e-06	
197	-3.20000e+00	9.159713e-06	
198	-3.25000e+00	9.178890e-06	
199	-3.30000e+00	9.197852e-06	
200	-3.35000e+00	9.216607e-06	
201	-3.40000e+00	9.235161e-06	
202	-3.45000e+00	9.253521e-06	
203	-3.50000e+00	9.271693e-06	
204	-3.55000e+00	9.289683e-06	
205	-3.60000e+00	9.307497e-06	
206	-3.65000e+00	9.325140e-06	
207	-3.70000e+00	9.342617e-06	
208	-3.75000e+00	9.359935e-06	
209	-3.80000e+00	9.377097e-06	
210	-3.85000e+00	9.394109e-06	
211	-3.90000e+00	9.410975e-06	
212	-3.95000e+00	9.427700e-06	
213	-4.00000e+00	9.444290e-06	
214	-4.05000e+00	9.460749e-06	
215	-4.10000e+00	9.477081e-06	
216	-4.15000e+00	9.493293e-06	
217	-4.20000e+00	9.509388e-06	
218	-4.25000e+00	9.525373e-06	
219	-4.30000e+00	9.541254e-06	
220	-4.35000e+00	9.557035e-06	
221	-4.40000e+00	9.572724e-06	
222	-4.45000e+00	9.588327e-06	
223	-4.50000e+00	9.603851e-06	
224	-4.55000e+00	9.619305e-06	
225	-4.60000e+00	9.634697e-06	
226	-4.65000e+00	9.650036e-06	
227	-4.70000e+00	9.665332e-06	
228	-4.75000e+00	9.680596e-06	

Index   v-sweep         i(vds)          
--------------------------------------------------------------------------------
229	-4.80000e+00	9.695841e-06	
230	-4.85000e+00	9.711079e-06	
231	-4.90000e+00	9.726324e-06	
232	-4.95000e+00	9.741592e-06	
233	-5.00000e+00	9.756900e-06	
234	-5.05000e+00	9.772266e-06	
235	-5.10000e+00	9.787709e-06	
236	-5.15000e+00	9.803252e-06	
237	-5.20000e+00	9.818918e-06	
238	-5.25000e+00	9.834731e-06	
239	-5.30000e+00	9.850718e-06	
240	-5.35000e+00	9.866910e-06	
241	-5.40000e+00	9.883337e-06	
242	-5.45000e+00	9.900033e-06	
243	-5.50000e+00	9.917034e-06	
244	-5.55000e+00	9.934378e-06	
245	-5.60000e+00	9.952107e-06	
246	-5.65000e+00	9.970263e-06	
247	-5.70000e+00	9.988895e-06	
248	-5.75000e+00	1.000805e-05	
249	-5.80000e+00	1.002778e-05	
250	-5.85000e+00	1.004815e-05	
251	-5.90000e+00	1.006920e-05	
252	-5.95000e+00	1.009101e-05	
253	-6.00000e+00	1.011363e-05	
254	-6.05000e+00	1.013714e-05	
255	-6.10000e+00	1.016161e-05	
256	-6.15000e+00	1.018711e-05	
257	-6.20000e+00	1.021372e-05	
258	-6.25000e+00	1.024152e-05	
259	-6.30000e+00	1.027061e-05	
260	-6.35000e+00	1.030106e-05	
261	-6.40000e+00	1.033298e-05	
262	-6.45000e+00	1.036645e-05	
263	-6.50000e+00	1.040159e-05	
264	-6.55000e+00	1.043850e-05	
265	-6.60000e+00	1.047728e-05	
266	0.000000e+00	-3.10234e-22	
267	-5.00000e-02	1.277243e-06	
268	-1.00000e-01	2.513921e-06	
269	-1.50000e-01	3.710223e-06	
270	-2.00000e-01	4.866337e-06	
271	-2.50000e-01	5.982453e-06	
272	-3.00000e-01	7.058761e-06	
273	-3.50000e-01	8.095449e-06	
274	-4.00000e-01	9.092710e-06	
275	-4.50000e-01	1.005073e-05	
276	-5.00000e-01	1.096971e-05	
277	-5.50000e-01	1.184983e-05	
278	-6.00000e-01	1.269129e-05	
279	-6.50000e-01	1.349428e-05	
280	-7.00000e-01	1.425899e-05	
281	-7.50000e-01	1.498563e-05	
282	-8.00000e-01	1.567440e-05	
283	-8.50000e-01	1.632549e-05	
284	-9.00000e-01	1.693912e-05	
285	-9.50000e-01	1.751550e-05	
286	-1.00000e+00	1.805486e-05	

Index   v-sweep         i(vds)          
--------------------------------------------------------------------------------
287	-1.05000e+00	1.855745e-05	
288	-1.10000e+00	1.902355e-05	
289	-1.15000e+00	1.945346e-05	
290	-1.20000e+00	1.984757e-05	
291	-1.25000e+00	2.020637e-05	
292	-1.30000e+00	2.053054e-05	
293	-1.35000e+00	2.082105e-05	
294	-1.40000e+00	2.107938e-05	
295	-1.45000e+00	2.130772e-05	
296	-1.50000e+00	2.150919e-05	
297	-1.55000e+00	2.168776e-05	
298	-1.60000e+00	2.184775e-05	
299	-1.65000e+00	2.199316e-05	
300	-1.70000e+00	2.212719e-05	
301	-1.75000e+00	2.225217e-05	
302	-1.80000e+00	2.236971e-05	
303	-1.85000e+00	2.248099e-05	
304	-1.90000e+00	2.258685e-05	
305	-1.95000e+00	2.268793e-05	
306	-2.00000e+00	2.278476e-05	
307	-2.05000e+00	2.287775e-05	
308	-2.10000e+00	2.296726e-05	
309	-2.15000e+00	2.305358e-05	
310	-2.20000e+00	2.313697e-05	
311	-2.25000e+00	2.321765e-05	
312	-2.30000e+00	2.329584e-05	
313	-2.35000e+00	2.337170e-05	
314	-2.40000e+00	2.344540e-05	
315	-2.45000e+00	2.351708e-05	
316	-2.50000e+00	2.358686e-05	
317	-2.55000e+00	2.365486e-05	
318	-2.60000e+00	2.372119e-05	
319	-2.65000e+00	2.378594e-05	
320	-2.70000e+00	2.384921e-05	
321	-2.75000e+00	2.391108e-05	
322	-2.80000e+00	2.397161e-05	
323	-2.85000e+00	2.403089e-05	
324	-2.90000e+00	2.408896e-05	
325	-2.95000e+00	2.414590e-05	
326	-3.00000e+00	2.420175e-05	
327	-3.05000e+00	2.425657e-05	
328	-3.10000e+00	2.431041e-05	
329	-3.15000e+00	2.436331e-05	
330	-3.20000e+00	2.441530e-05	
331	-3.25000e+00	2.446644e-05	
332	-3.30000e+00	2.451675e-05	
333	-3.35000e+00	2.456627e-05	
334	-3.40000e+00	2.461503e-05	
335	-3.45000e+00	2.466307e-05	
336	-3.50000e+00	2.471040e-05	
337	-3.55000e+00	2.475706e-05	
338	-3.60000e+00	2.480308e-05	
339	-3.65000e+00	2.484846e-05	
340	-3.70000e+00	2.489325e-05	
341	-3.75000e+00	2.493746e-05	
342	-3.80000e+00	2.498111e-05	
343	-3.85000e+00	2.502422e-05	
344	-3.90000e+00	2.506681e-05	

Index   v-sweep         i(vds)          
--------------------------------------------------------------------------------
345	-3.95000e+00	2.510889e-05	
346	-4.00000e+00	2.515048e-05	
347	-4.05000e+00	2.519161e-05	
348	-4.10000e+00	2.523227e-05	
349	-4.15000e+00	2.527250e-05	
350	-4.20000e+00	2.531229e-05	
351	-4.25000e+00	2.535167e-05	
352	-4.30000e+00	2.539065e-05	
353	-4.35000e+00	2.542924e-05	
354	-4.40000e+00	2.546745e-05	
355	-4.45000e+00	2.550530e-05	
356	-4.50000e+00	2.554279e-05	
357	-4.55000e+00	2.557995e-05	
358	-4.60000e+00	2.561677e-05	
359	-4.65000e+00	2.565327e-05	
360	-4.70000e+00	2.568947e-05	
361	-4.75000e+00	2.572537e-05	
362	-4.80000e+00	2.576099e-05	
363	-4.85000e+00	2.579634e-05	
364	-4.90000e+00	2.583144e-05	
365	-4.95000e+00	2.586629e-05	
366	-5.00000e+00	2.590092e-05	
367	-5.05000e+00	2.593534e-05	
368	-5.10000e+00	2.596956e-05	
369	-5.15000e+00	2.600362e-05	
370	-5.20000e+00	2.603752e-05	
371	-5.25000e+00	2.607129e-05	
372	-5.30000e+00	2.610496e-05	
373	-5.35000e+00	2.613855e-05	
374	-5.40000e+00	2.617210e-05	
375	-5.45000e+00	2.620562e-05	
376	-5.50000e+00	2.623917e-05	
377	-5.55000e+00	2.627277e-05	
378	-5.60000e+00	2.630647e-05	
379	-5.65000e+00	2.634031e-05	
380	-5.70000e+00	2.637435e-05	
381	-5.75000e+00	2.640863e-05	
382	-5.80000e+00	2.644322e-05	
383	-5.85000e+00	2.647817e-05	
384	-5.90000e+00	2.651356e-05	
385	-5.95000e+00	2.654946e-05	
386	-6.00000e+00	2.658594e-05	
387	-6.05000e+00	2.662310e-05	
388	-6.10000e+00	2.666102e-05	
389	-6.15000e+00	2.669979e-05	
390	-6.20000e+00	2.673953e-05	
391	-6.25000e+00	2.678035e-05	
392	-6.30000e+00	2.682235e-05	
393	-6.35000e+00	2.686567e-05	
394	-6.40000e+00	2.691043e-05	
395	-6.45000e+00	2.695678e-05	
396	-6.50000e+00	2.700487e-05	
397	-6.55000e+00	2.705485e-05	
398	-6.60000e+00	2.710689e-05	
399	0.000000e+00	-5.14716e-22	
400	-5.00000e-02	1.674729e-06	
401	-1.00000e-01	3.312185e-06	
402	-1.50000e-01	4.912502e-06	

Index   v-sweep         i(vds)          
--------------------------------------------------------------------------------
403	-2.00000e-01	6.475813e-06	
404	-2.50000e-01	8.002252e-06	
405	-3.00000e-01	9.491952e-06	
406	-3.50000e-01	1.094505e-05	
407	-4.00000e-01	1.236167e-05	
408	-4.50000e-01	1.374196e-05	
409	-5.00000e-01	1.508605e-05	
410	-5.50000e-01	1.639407e-05	
411	-6.00000e-01	1.766617e-05	
412	-6.50000e-01	1.890247e-05	
413	-7.00000e-01	2.010311e-05	
414	-7.50000e-01	2.126823e-05	
415	-8.00000e-01	2.239796e-05	
416	-8.50000e-01	2.349244e-05	
417	-9.00000e-01	2.455182e-05	
418	-9.50000e-01	2.557622e-05	
419	-1.00000e+00	2.656579e-05	
420	-1.05000e+00	2.752066e-05	
421	-1.10000e+00	2.844098e-05	
422	-1.15000e+00	2.932688e-05	
423	-1.20000e+00	3.017852e-05	
424	-1.25000e+00	3.099602e-05	
425	-1.30000e+00	3.177955e-05	
426	-1.35000e+00	3.252926e-05	
427	-1.40000e+00	3.324528e-05	
428	-1.45000e+00	3.392779e-05	
429	-1.50000e+00	3.457695e-05	
430	-1.55000e+00	3.519295e-05	
431	-1.60000e+00	3.577596e-05	
432	-1.65000e+00	3.632620e-05	
433	-1.70000e+00	3.684393e-05	
434	-1.75000e+00	3.732942e-05	
435	-1.80000e+00	3.778304e-05	
436	-1.85000e+00	3.820525e-05	
437	-1.90000e+00	3.859669e-05	
438	-1.95000e+00	3.895822e-05	
439	-2.00000e+00	3.929105e-05	
440	-2.05000e+00	3.959685e-05	
441	-2.10000e+00	3.987781e-05	
442	-2.15000e+00	4.013655e-05	
443	-2.20000e+00	4.037594e-05	
444	-2.25000e+00	4.059874e-05	
445	-2.30000e+00	4.080738e-05	
446	-2.35000e+00	4.100388e-05	
447	-2.40000e+00	4.118985e-05	
448	-2.45000e+00	4.136658e-05	
449	-2.50000e+00	4.153510e-05	
450	-2.55000e+00	4.169627e-05	
451	-2.60000e+00	4.185081e-05	
452	-2.65000e+00	4.199931e-05	
453	-2.70000e+00	4.214229e-05	
454	-2.75000e+00	4.228022e-05	
455	-2.80000e+00	4.241348e-05	
456	-2.85000e+00	4.254242e-05	
457	-2.90000e+00	4.266737e-05	
458	-2.95000e+00	4.278860e-05	
459	-3.00000e+00	4.290636e-05	
460	-3.05000e+00	4.302087e-05	

Index   v-sweep         i(vds)          
--------------------------------------------------------------------------------
461	-3.10000e+00	4.313234e-05	
462	-3.15000e+00	4.324095e-05	
463	-3.20000e+00	4.334688e-05	
464	-3.25000e+00	4.345028e-05	
465	-3.30000e+00	4.355129e-05	
466	-3.35000e+00	4.365004e-05	
467	-3.40000e+00	4.374666e-05	
468	-3.45000e+00	4.384124e-05	
469	-3.50000e+00	4.393390e-05	
470	-3.55000e+00	4.402472e-05	
471	-3.60000e+00	4.411380e-05	
472	-3.65000e+00	4.420123e-05	
473	-3.70000e+00	4.428706e-05	
474	-3.75000e+00	4.437138e-05	
475	-3.80000e+00	4.445426e-05	
476	-3.85000e+00	4.453575e-05	
477	-3.90000e+00	4.461591e-05	
478	-3.95000e+00	4.469480e-05	
479	-4.00000e+00	4.477247e-05	
480	-4.05000e+00	4.484896e-05	
481	-4.10000e+00	4.492433e-05	
482	-4.15000e+00	4.499862e-05	
483	-4.20000e+00	4.507186e-05	
484	-4.25000e+00	4.514410e-05	
485	-4.30000e+00	4.521537e-05	
486	-4.35000e+00	4.528571e-05	
487	-4.40000e+00	4.535515e-05	
488	-4.45000e+00	4.542371e-05	
489	-4.50000e+00	4.549144e-05	
490	-4.55000e+00	4.555835e-05	
491	-4.60000e+00	4.562448e-05	
492	-4.65000e+00	4.568985e-05	
493	-4.70000e+00	4.575448e-05	
494	-4.75000e+00	4.581840e-05	
495	-4.80000e+00	4.588164e-05	
496	-4.85000e+00	4.594420e-05	
497	-4.90000e+00	4.600611e-05	
498	-4.95000e+00	4.606740e-05	
499	-5.00000e+00	4.612808e-05	
500	-5.05000e+00	4.618818e-05	
501	-5.10000e+00	4.624770e-05	
502	-5.15000e+00	4.630668e-05	
503	-5.20000e+00	4.636512e-05	
504	-5.25000e+00	4.642305e-05	
505	-5.30000e+00	4.648050e-05	
506	-5.35000e+00	4.653747e-05	
507	-5.40000e+00	4.659398e-05	
508	-5.45000e+00	4.665007e-05	
509	-5.50000e+00	4.670575e-05	
510	-5.55000e+00	4.676105e-05	
511	-5.60000e+00	4.681600e-05	
512	-5.65000e+00	4.687061e-05	
513	-5.70000e+00	4.692493e-05	
514	-5.75000e+00	4.697898e-05	
515	-5.80000e+00	4.703280e-05	
516	-5.85000e+00	4.708644e-05	
517	-5.90000e+00	4.713992e-05	
518	-5.95000e+00	4.719330e-05	

Index   v-sweep         i(vds)          
--------------------------------------------------------------------------------
519	-6.00000e+00	4.724664e-05	
520	-6.05000e+00	4.729998e-05	
521	-6.10000e+00	4.735339e-05	
522	-6.15000e+00	4.740693e-05	
523	-6.20000e+00	4.746068e-05	
524	-6.25000e+00	4.751471e-05	
525	-6.30000e+00	4.756912e-05	
526	-6.35000e+00	4.762400e-05	
527	-6.40000e+00	4.767945e-05	
528	-6.45000e+00	4.773558e-05	
529	-6.50000e+00	4.779251e-05	
530	-6.55000e+00	4.785037e-05	
531	-6.60000e+00	4.790930e-05	
532	0.000000e+00	2.800277e-32	
533	-5.00000e-02	2.004586e-06	
534	-1.00000e-01	3.974855e-06	
535	-1.50000e-01	5.910903e-06	
536	-2.00000e-01	7.812828e-06	
537	-2.50000e-01	9.680727e-06	
538	-3.00000e-01	1.151470e-05	
539	-3.50000e-01	1.331484e-05	
540	-4.00000e-01	1.508124e-05	
541	-4.50000e-01	1.681401e-05	
542	-5.00000e-01	1.851325e-05	
543	-5.50000e-01	2.017905e-05	
544	-6.00000e-01	2.181151e-05	
545	-6.50000e-01	2.341073e-05	
546	-7.00000e-01	2.497681e-05	
547	-7.50000e-01	2.650985e-05	
548	-8.00000e-01	2.800995e-05	
549	-8.50000e-01	2.947721e-05	
550	-9.00000e-01	3.091173e-05	
551	-9.50000e-01	3.231362e-05	
552	-1.00000e+00	3.368297e-05	
553	-1.05000e+00	3.501988e-05	
554	-1.10000e+00	3.632445e-05	
555	-1.15000e+00	3.759679e-05	
556	-1.20000e+00	3.883700e-05	
557	-1.25000e+00	4.004519e-05	
558	-1.30000e+00	4.122145e-05	
559	-1.35000e+00	4.236588e-05	
560	-1.40000e+00	4.347860e-05	
561	-1.45000e+00	4.455970e-05	
562	-1.50000e+00	4.560929e-05	
563	-1.55000e+00	4.662748e-05	
564	-1.60000e+00	4.761437e-05	
565	-1.65000e+00	4.857007e-05	
566	-1.70000e+00	4.949469e-05	
567	-1.75000e+00	5.038834e-05	
568	-1.80000e+00	5.125112e-05	
569	-1.85000e+00	5.208317e-05	
570	-1.90000e+00	5.288459e-05	
571	-1.95000e+00	5.365550e-05	
572	-2.00000e+00	5.439603e-05	
573	-2.05000e+00	5.510632e-05	
574	-2.10000e+00	5.578651e-05	
575	-2.15000e+00	5.643675e-05	
576	-2.20000e+00	5.705721e-05	

Index   v-sweep         i(vds)          
--------------------------------------------------------------------------------
577	-2.25000e+00	5.764810e-05	
578	-2.30000e+00	5.820964e-05	
579	-2.35000e+00	5.874211e-05	
580	-2.40000e+00	5.924585e-05	
581	-2.45000e+00	5.972131e-05	
582	-2.50000e+00	6.016908e-05	
583	-2.55000e+00	6.058992e-05	
584	-2.60000e+00	6.098486e-05	
585	-2.65000e+00	6.135520e-05	
586	-2.70000e+00	6.170253e-05	
587	-2.75000e+00	6.202871e-05	
588	-2.80000e+00	6.233567e-05	
589	-2.85000e+00	6.262534e-05	
590	-2.90000e+00	6.289953e-05	
591	-2.95000e+00	6.315982e-05	
592	-3.00000e+00	6.340764e-05	
593	-3.05000e+00	6.364419e-05	
594	-3.10000e+00	6.387054e-05	
595	-3.15000e+00	6.408759e-05	
596	-3.20000e+00	6.429616e-05	
597	-3.25000e+00	6.449694e-05	
598	-3.30000e+00	6.469056e-05	
599	-3.35000e+00	6.487757e-05	
600	-3.40000e+00	6.505846e-05	
601	-3.45000e+00	6.523367e-05	
602	-3.50000e+00	6.540360e-05	
603	-3.55000e+00	6.556860e-05	
604	-3.60000e+00	6.572899e-05	
605	-3.65000e+00	6.588506e-05	
606	-3.70000e+00	6.603708e-05	
607	-3.75000e+00	6.618529e-05	
608	-3.80000e+00	6.632991e-05	
609	-3.85000e+00	6.647115e-05	
610	-3.90000e+00	6.660918e-05	
611	-3.95000e+00	6.674418e-05	
612	-4.00000e+00	6.687630e-05	
613	-4.05000e+00	6.700570e-05	
614	-4.10000e+00	6.713251e-05	
615	-4.15000e+00	6.725686e-05	
616	-4.20000e+00	6.737885e-05	
617	-4.25000e+00	6.749861e-05	
618	-4.30000e+00	6.761622e-05	
619	-4.35000e+00	6.773179e-05	
620	-4.40000e+00	6.784541e-05	
621	-4.45000e+00	6.795715e-05	
622	-4.50000e+00	6.806710e-05	
623	-4.55000e+00	6.817532e-05	
624	-4.60000e+00	6.828190e-05	
625	-4.65000e+00	6.838688e-05	
626	-4.70000e+00	6.849034e-05	
627	-4.75000e+00	6.859233e-05	
628	-4.80000e+00	6.869291e-05	
629	-4.85000e+00	6.879212e-05	
630	-4.90000e+00	6.889002e-05	
631	-4.95000e+00	6.898666e-05	
632	-5.00000e+00	6.908207e-05	
633	-5.05000e+00	6.917629e-05	
634	-5.10000e+00	6.926938e-05	

Index   v-sweep         i(vds)          
--------------------------------------------------------------------------------
635	-5.15000e+00	6.936136e-05	
636	-5.20000e+00	6.945227e-05	
637	-5.25000e+00	6.954215e-05	
638	-5.30000e+00	6.963103e-05	
639	-5.35000e+00	6.971894e-05	
640	-5.40000e+00	6.980591e-05	
641	-5.45000e+00	6.989197e-05	
642	-5.50000e+00	6.997715e-05	
643	-5.55000e+00	7.006148e-05	
644	-5.60000e+00	7.014498e-05	
645	-5.65000e+00	7.022768e-05	
646	-5.70000e+00	7.030961e-05	
647	-5.75000e+00	7.039079e-05	
648	-5.80000e+00	7.047126e-05	
649	-5.85000e+00	7.055103e-05	
650	-5.90000e+00	7.063013e-05	
651	-5.95000e+00	7.070860e-05	
652	-6.00000e+00	7.078646e-05	
653	-6.05000e+00	7.086375e-05	
654	-6.10000e+00	7.094049e-05	
655	-6.15000e+00	7.101673e-05	
656	-6.20000e+00	7.109250e-05	
657	-6.25000e+00	7.116784e-05	
658	-6.30000e+00	7.124281e-05	
659	-6.35000e+00	7.131744e-05	
660	-6.40000e+00	7.139179e-05	
661	-6.45000e+00	7.146592e-05	
662	-6.50000e+00	7.153990e-05	
663	-6.55000e+00	7.161379e-05	
664	-6.60000e+00	7.168768e-05	
665	0.000000e+00	-1.58267e-21	
666	-5.00000e-02	2.285692e-06	
667	-1.00000e-01	4.539656e-06	
668	-1.50000e-01	6.761963e-06	
669	-2.00000e-01	8.952686e-06	
670	-2.50000e-01	1.111190e-05	
671	-3.00000e-01	1.323967e-05	
672	-3.50000e-01	1.533608e-05	
673	-4.00000e-01	1.740119e-05	
674	-4.50000e-01	1.943508e-05	
675	-5.00000e-01	2.143783e-05	
676	-5.50000e-01	2.340951e-05	
677	-6.00000e-01	2.535019e-05	
678	-6.50000e-01	2.725994e-05	
679	-7.00000e-01	2.913885e-05	
680	-7.50000e-01	3.098698e-05	
681	-8.00000e-01	3.280441e-05	
682	-8.50000e-01	3.459122e-05	
683	-9.00000e-01	3.634748e-05	
684	-9.50000e-01	3.807327e-05	
685	-1.00000e+00	3.976866e-05	
686	-1.05000e+00	4.143373e-05	
687	-1.10000e+00	4.306856e-05	
688	-1.15000e+00	4.467321e-05	
689	-1.20000e+00	4.624778e-05	
690	-1.25000e+00	4.779233e-05	
691	-1.30000e+00	4.930694e-05	
692	-1.35000e+00	5.079170e-05	

Index   v-sweep         i(vds)          
--------------------------------------------------------------------------------
693	-1.40000e+00	5.224666e-05	
694	-1.45000e+00	5.367193e-05	
695	-1.50000e+00	5.506757e-05	
696	-1.55000e+00	5.643365e-05	
697	-1.60000e+00	5.777027e-05	
698	-1.65000e+00	5.907750e-05	
699	-1.70000e+00	6.035541e-05	
700	-1.75000e+00	6.160409e-05	
701	-1.80000e+00	6.282362e-05	
702	-1.85000e+00	6.401407e-05	
703	-1.90000e+00	6.517553e-05	
704	-1.95000e+00	6.630808e-05	
705	-2.00000e+00	6.741180e-05	
706	-2.05000e+00	6.848677e-05	
707	-2.10000e+00	6.953308e-05	
708	-2.15000e+00	7.055081e-05	
709	-2.20000e+00	7.154004e-05	
710	-2.25000e+00	7.250087e-05	
711	-2.30000e+00	7.343338e-05	
712	-2.35000e+00	7.433765e-05	
713	-2.40000e+00	7.521379e-05	
714	-2.45000e+00	7.606189e-05	
715	-2.50000e+00	7.688204e-05	
716	-2.55000e+00	7.767436e-05	
717	-2.60000e+00	7.843894e-05	
718	-2.65000e+00	7.917592e-05	
719	-2.70000e+00	7.988542e-05	
720	-2.75000e+00	8.056757e-05	
721	-2.80000e+00	8.122254e-05	
722	-2.85000e+00	8.185052e-05	
723	-2.90000e+00	8.245172e-05	
724	-2.95000e+00	8.302641e-05	
725	-3.00000e+00	8.357491e-05	
726	-3.05000e+00	8.409763e-05	
727	-3.10000e+00	8.459508e-05	
728	-3.15000e+00	8.506792e-05	
729	-3.20000e+00	8.551695e-05	
730	-3.25000e+00	8.594317e-05	
731	-3.30000e+00	8.634773e-05	
732	-3.35000e+00	8.673191e-05	
733	-3.40000e+00	8.709710e-05	
734	-3.45000e+00	8.744468e-05	
735	-3.50000e+00	8.777603e-05	
736	-3.55000e+00	8.809244e-05	
737	-3.60000e+00	8.839514e-05	
738	-3.65000e+00	8.868524e-05	
739	-3.70000e+00	8.896375e-05	
740	-3.75000e+00	8.923160e-05	
741	-3.80000e+00	8.948961e-05	
742	-3.85000e+00	8.973853e-05	
743	-3.90000e+00	8.997902e-05	
744	-3.95000e+00	9.021171e-05	
745	-4.00000e+00	9.043713e-05	
746	-4.05000e+00	9.065578e-05	
747	-4.10000e+00	9.086811e-05	
748	-4.15000e+00	9.107452e-05	
749	-4.20000e+00	9.127538e-05	
750	-4.25000e+00	9.147103e-05	

Index   v-sweep         i(vds)          
--------------------------------------------------------------------------------
751	-4.30000e+00	9.166178e-05	
752	-4.35000e+00	9.184792e-05	
753	-4.40000e+00	9.202969e-05	
754	-4.45000e+00	9.220734e-05	
755	-4.50000e+00	9.238109e-05	
756	-4.55000e+00	9.255114e-05	
757	-4.60000e+00	9.271768e-05	
758	-4.65000e+00	9.288088e-05	
759	-4.70000e+00	9.304091e-05	
760	-4.75000e+00	9.319792e-05	
761	-4.80000e+00	9.335204e-05	
762	-4.85000e+00	9.350340e-05	
763	-4.90000e+00	9.365213e-05	
764	-4.95000e+00	9.379835e-05	
765	-5.00000e+00	9.394215e-05	
766	-5.05000e+00	9.408364e-05	
767	-5.10000e+00	9.422292e-05	
768	-5.15000e+00	9.436007e-05	
769	-5.20000e+00	9.449518e-05	
770	-5.25000e+00	9.462832e-05	
771	-5.30000e+00	9.475957e-05	
772	-5.35000e+00	9.488900e-05	
773	-5.40000e+00	9.501668e-05	
774	-5.45000e+00	9.514267e-05	
775	-5.50000e+00	9.526702e-05	
776	-5.55000e+00	9.538980e-05	
777	-5.60000e+00	9.551107e-05	
778	-5.65000e+00	9.563086e-05	
779	-5.70000e+00	9.574923e-05	
780	-5.75000e+00	9.586623e-05	
781	-5.80000e+00	9.598189e-05	
782	-5.85000e+00	9.609627e-05	
783	-5.90000e+00	9.620941e-05	
784	-5.95000e+00	9.632133e-05	
785	-6.00000e+00	9.643209e-05	
786	-6.05000e+00	9.654171e-05	
787	-6.10000e+00	9.665024e-05	
788	-6.15000e+00	9.675770e-05	
789	-6.20000e+00	9.686414e-05	
790	-6.25000e+00	9.696957e-05	
791	-6.30000e+00	9.707405e-05	
792	-6.35000e+00	9.717760e-05	
793	-6.40000e+00	9.728026e-05	
794	-6.45000e+00	9.738206e-05	
795	-6.50000e+00	9.748303e-05	
796	-6.55000e+00	9.758322e-05	
797	-6.60000e+00	9.768267e-05	
Note: No ".plot", ".print", or ".fourier" lines; no simulations run
