
Note: Compatibility modes selected: hs

Warning: m=xx on .subckt line will override multiplier m hierarchy!


Circuit: ***************************

Doing analysis at TEMP = 25.000000 and TNOM = 25.000000


No. of Data Rows : 798
                          ***************************
                          DC transfer characteristic  Mon Jan  9 13:58:50  2023
--------------------------------------------------------------------------------
Index   v-sweep         i(vds)          
--------------------------------------------------------------------------------
0	0.000000e+00	-1.38913e-23	
1	-5.00000e-02	1.069153e-07	
2	-1.00000e-01	1.553820e-07	
3	-1.50000e-01	1.682882e-07	
4	-2.00000e-01	1.711156e-07	
5	-2.50000e-01	1.720070e-07	
6	-3.00000e-01	1.724192e-07	
7	-3.50000e-01	1.726675e-07	
8	-4.00000e-01	1.728451e-07	
9	-4.50000e-01	1.729867e-07	
10	-5.00000e-01	1.731075e-07	
11	-5.50000e-01	1.732152e-07	
12	-6.00000e-01	1.733140e-07	
13	-6.50000e-01	1.734064e-07	
14	-7.00000e-01	1.734940e-07	
15	-7.50000e-01	1.735778e-07	
16	-8.00000e-01	1.736586e-07	
17	-8.50000e-01	1.737368e-07	
18	-9.00000e-01	1.738129e-07	
19	-9.50000e-01	1.738872e-07	
20	-1.00000e+00	1.739599e-07	
21	-1.05000e+00	1.740311e-07	
22	-1.10000e+00	1.741012e-07	
23	-1.15000e+00	1.741701e-07	
24	-1.20000e+00	1.742380e-07	
25	-1.25000e+00	1.743049e-07	
26	-1.30000e+00	1.743711e-07	
27	-1.35000e+00	1.744364e-07	
28	-1.40000e+00	1.745010e-07	
29	-1.45000e+00	1.745650e-07	
30	-1.50000e+00	1.746284e-07	
31	-1.55000e+00	1.746911e-07	
32	-1.60000e+00	1.747534e-07	
33	-1.65000e+00	1.748151e-07	
34	-1.70000e+00	1.748764e-07	
35	-1.75000e+00	1.749372e-07	
36	-1.80000e+00	1.749976e-07	
37	-1.85000e+00	1.750576e-07	
38	-1.90000e+00	1.751172e-07	
39	-1.95000e+00	1.751764e-07	
40	-2.00000e+00	1.752354e-07	
41	-2.05000e+00	1.752939e-07	
42	-2.10000e+00	1.753522e-07	
43	-2.15000e+00	1.754102e-07	
44	-2.20000e+00	1.754679e-07	
45	-2.25000e+00	1.755253e-07	
46	-2.30000e+00	1.755825e-07	
47	-2.35000e+00	1.756395e-07	
48	-2.40000e+00	1.756961e-07	
49	-2.45000e+00	1.757526e-07	
50	-2.50000e+00	1.758089e-07	
51	-2.55000e+00	1.758649e-07	
52	-2.60000e+00	1.759207e-07	
53	-2.65000e+00	1.759764e-07	
54	-2.70000e+00	1.760319e-07	

Index   v-sweep         i(vds)          
--------------------------------------------------------------------------------
55	-2.75000e+00	1.760872e-07	
56	-2.80000e+00	1.761423e-07	
57	-2.85000e+00	1.761973e-07	
58	-2.90000e+00	1.762522e-07	
59	-2.95000e+00	1.763069e-07	
60	-3.00000e+00	1.763615e-07	
61	-3.05000e+00	1.764160e-07	
62	-3.10000e+00	1.764705e-07	
63	-3.15000e+00	1.765249e-07	
64	-3.20000e+00	1.765793e-07	
65	-3.25000e+00	1.766336e-07	
66	-3.30000e+00	1.766881e-07	
67	-3.35000e+00	1.767426e-07	
68	-3.40000e+00	1.767973e-07	
69	-3.45000e+00	1.768522e-07	
70	-3.50000e+00	1.769074e-07	
71	-3.55000e+00	1.769629e-07	
72	-3.60000e+00	1.770188e-07	
73	-3.65000e+00	1.770753e-07	
74	-3.70000e+00	1.771325e-07	
75	-3.75000e+00	1.771905e-07	
76	-3.80000e+00	1.772494e-07	
77	-3.85000e+00	1.773095e-07	
78	-3.90000e+00	1.773708e-07	
79	-3.95000e+00	1.774337e-07	
80	-4.00000e+00	1.774984e-07	
81	-4.05000e+00	1.775651e-07	
82	-4.10000e+00	1.776341e-07	
83	-4.15000e+00	1.777058e-07	
84	-4.20000e+00	1.777804e-07	
85	-4.25000e+00	1.778585e-07	
86	-4.30000e+00	1.779403e-07	
87	-4.35000e+00	1.780264e-07	
88	-4.40000e+00	1.781173e-07	
89	-4.45000e+00	1.782134e-07	
90	-4.50000e+00	1.783154e-07	
91	-4.55000e+00	1.784239e-07	
92	-4.60000e+00	1.785396e-07	
93	-4.65000e+00	1.786631e-07	
94	-4.70000e+00	1.787953e-07	
95	-4.75000e+00	1.789369e-07	
96	-4.80000e+00	1.790889e-07	
97	-4.85000e+00	1.792521e-07	
98	-4.90000e+00	1.794275e-07	
99	-4.95000e+00	1.796163e-07	
100	-5.00000e+00	1.798194e-07	
101	-5.05000e+00	1.800380e-07	
102	-5.10000e+00	1.802734e-07	
103	-5.15000e+00	1.805268e-07	
104	-5.20000e+00	1.807995e-07	
105	-5.25000e+00	1.810931e-07	
106	-5.30000e+00	1.814089e-07	
107	-5.35000e+00	1.817485e-07	
108	-5.40000e+00	1.821134e-07	
109	-5.45000e+00	1.825055e-07	
110	-5.50000e+00	1.829264e-07	
111	-5.55000e+00	1.833779e-07	
112	-5.60000e+00	1.838619e-07	

Index   v-sweep         i(vds)          
--------------------------------------------------------------------------------
113	-5.65000e+00	1.843803e-07	
114	-5.70000e+00	1.849352e-07	
115	-5.75000e+00	1.855287e-07	
116	-5.80000e+00	1.861629e-07	
117	-5.85000e+00	1.868401e-07	
118	-5.90000e+00	1.875625e-07	
119	-5.95000e+00	1.883325e-07	
120	-6.00000e+00	1.891525e-07	
121	-6.05000e+00	1.900251e-07	
122	-6.10000e+00	1.909529e-07	
123	-6.15000e+00	1.919384e-07	
124	-6.20000e+00	1.929844e-07	
125	-6.25000e+00	1.940936e-07	
126	-6.30000e+00	1.952689e-07	
127	-6.35000e+00	1.965133e-07	
128	-6.40000e+00	1.978296e-07	
129	-6.45000e+00	1.992209e-07	
130	-6.50000e+00	2.006903e-07	
131	-6.55000e+00	2.022410e-07	
132	-6.60000e+00	2.038762e-07	
133	0.000000e+00	-2.47808e-23	
134	-5.00000e-02	1.270287e-06	
135	-1.00000e-01	2.458073e-06	
136	-1.50000e-01	3.563404e-06	
137	-2.00000e-01	4.586333e-06	
138	-2.50000e-01	5.526920e-06	
139	-3.00000e-01	6.385242e-06	
140	-3.50000e-01	7.161399e-06	
141	-4.00000e-01	7.855527e-06	
142	-4.50000e-01	8.467834e-06	
143	-5.00000e-01	8.998645e-06	
144	-5.50000e-01	9.448518e-06	
145	-6.00000e-01	9.818466e-06	
146	-6.50000e-01	1.011043e-05	
147	-7.00000e-01	1.032822e-05	
148	-7.50000e-01	1.047910e-05	
149	-8.00000e-01	1.057528e-05	
150	-8.50000e-01	1.063277e-05	
151	-9.00000e-01	1.066682e-05	
152	-9.50000e-01	1.068811e-05	
153	-1.00000e+00	1.070265e-05	
154	-1.05000e+00	1.071354e-05	
155	-1.10000e+00	1.072234e-05	
156	-1.15000e+00	1.072985e-05	
157	-1.20000e+00	1.073653e-05	
158	-1.25000e+00	1.074264e-05	
159	-1.30000e+00	1.074833e-05	
160	-1.35000e+00	1.075371e-05	
161	-1.40000e+00	1.075885e-05	
162	-1.45000e+00	1.076379e-05	
163	-1.50000e+00	1.076858e-05	
164	-1.55000e+00	1.077322e-05	
165	-1.60000e+00	1.077776e-05	
166	-1.65000e+00	1.078219e-05	
167	-1.70000e+00	1.078653e-05	
168	-1.75000e+00	1.079080e-05	
169	-1.80000e+00	1.079499e-05	
170	-1.85000e+00	1.079913e-05	

Index   v-sweep         i(vds)          
--------------------------------------------------------------------------------
171	-1.90000e+00	1.080320e-05	
172	-1.95000e+00	1.080722e-05	
173	-2.00000e+00	1.081120e-05	
174	-2.05000e+00	1.081513e-05	
175	-2.10000e+00	1.081902e-05	
176	-2.15000e+00	1.082287e-05	
177	-2.20000e+00	1.082669e-05	
178	-2.25000e+00	1.083047e-05	
179	-2.30000e+00	1.083422e-05	
180	-2.35000e+00	1.083794e-05	
181	-2.40000e+00	1.084164e-05	
182	-2.45000e+00	1.084531e-05	
183	-2.50000e+00	1.084895e-05	
184	-2.55000e+00	1.085257e-05	
185	-2.60000e+00	1.085617e-05	
186	-2.65000e+00	1.085975e-05	
187	-2.70000e+00	1.086330e-05	
188	-2.75000e+00	1.086684e-05	
189	-2.80000e+00	1.087036e-05	
190	-2.85000e+00	1.087387e-05	
191	-2.90000e+00	1.087735e-05	
192	-2.95000e+00	1.088082e-05	
193	-3.00000e+00	1.088428e-05	
194	-3.05000e+00	1.088772e-05	
195	-3.10000e+00	1.089115e-05	
196	-3.15000e+00	1.089456e-05	
197	-3.20000e+00	1.089796e-05	
198	-3.25000e+00	1.090135e-05	
199	-3.30000e+00	1.090472e-05	
200	-3.35000e+00	1.090809e-05	
201	-3.40000e+00	1.091144e-05	
202	-3.45000e+00	1.091479e-05	
203	-3.50000e+00	1.091812e-05	
204	-3.55000e+00	1.092145e-05	
205	-3.60000e+00	1.092477e-05	
206	-3.65000e+00	1.092808e-05	
207	-3.70000e+00	1.093138e-05	
208	-3.75000e+00	1.093468e-05	
209	-3.80000e+00	1.093798e-05	
210	-3.85000e+00	1.094127e-05	
211	-3.90000e+00	1.094457e-05	
212	-3.95000e+00	1.094786e-05	
213	-4.00000e+00	1.095116e-05	
214	-4.05000e+00	1.095446e-05	
215	-4.10000e+00	1.095778e-05	
216	-4.15000e+00	1.096111e-05	
217	-4.20000e+00	1.096445e-05	
218	-4.25000e+00	1.096782e-05	
219	-4.30000e+00	1.097122e-05	
220	-4.35000e+00	1.097466e-05	
221	-4.40000e+00	1.097814e-05	
222	-4.45000e+00	1.098167e-05	
223	-4.50000e+00	1.098526e-05	
224	-4.55000e+00	1.098893e-05	
225	-4.60000e+00	1.099268e-05	
226	-4.65000e+00	1.099653e-05	
227	-4.70000e+00	1.100049e-05	
228	-4.75000e+00	1.100458e-05	

Index   v-sweep         i(vds)          
--------------------------------------------------------------------------------
229	-4.80000e+00	1.100883e-05	
230	-4.85000e+00	1.101324e-05	
231	-4.90000e+00	1.101784e-05	
232	-4.95000e+00	1.102266e-05	
233	-5.00000e+00	1.102772e-05	
234	-5.05000e+00	1.103305e-05	
235	-5.10000e+00	1.103868e-05	
236	-5.15000e+00	1.104465e-05	
237	-5.20000e+00	1.105099e-05	
238	-5.25000e+00	1.105775e-05	
239	-5.30000e+00	1.106496e-05	
240	-5.35000e+00	1.107266e-05	
241	-5.40000e+00	1.108092e-05	
242	-5.45000e+00	1.108977e-05	
243	-5.50000e+00	1.109928e-05	
244	-5.55000e+00	1.110950e-05	
245	-5.60000e+00	1.112049e-05	
246	-5.65000e+00	1.113232e-05	
247	-5.70000e+00	1.114506e-05	
248	-5.75000e+00	1.115878e-05	
249	-5.80000e+00	1.117355e-05	
250	-5.85000e+00	1.118946e-05	
251	-5.90000e+00	1.120659e-05	
252	-5.95000e+00	1.122503e-05	
253	-6.00000e+00	1.124486e-05	
254	-6.05000e+00	1.126620e-05	
255	-6.10000e+00	1.128913e-05	
256	-6.15000e+00	1.131377e-05	
257	-6.20000e+00	1.134022e-05	
258	-6.25000e+00	1.136859e-05	
259	-6.30000e+00	1.139900e-05	
260	-6.35000e+00	1.143157e-05	
261	-6.40000e+00	1.146644e-05	
262	-6.45000e+00	1.150372e-05	
263	-6.50000e+00	1.154356e-05	
264	-6.55000e+00	1.158609e-05	
265	-6.60000e+00	1.163146e-05	
266	0.000000e+00	4.405301e-21	
267	-5.00000e-02	2.254149e-06	
268	-1.00000e-01	4.432322e-06	
269	-1.50000e-01	6.534549e-06	
270	-2.00000e-01	8.560857e-06	
271	-2.50000e-01	1.051128e-05	
272	-3.00000e-01	1.238583e-05	
273	-3.50000e-01	1.418457e-05	
274	-4.00000e-01	1.590750e-05	
275	-4.50000e-01	1.755466e-05	
276	-5.00000e-01	1.912610e-05	
277	-5.50000e-01	2.062183e-05	
278	-6.00000e-01	2.204191e-05	
279	-6.50000e-01	2.338637e-05	
280	-7.00000e-01	2.465525e-05	
281	-7.50000e-01	2.584861e-05	
282	-8.00000e-01	2.696650e-05	
283	-8.50000e-01	2.800900e-05	
284	-9.00000e-01	2.897619e-05	
285	-9.50000e-01	2.986817e-05	
286	-1.00000e+00	3.068509e-05	

Index   v-sweep         i(vds)          
--------------------------------------------------------------------------------
287	-1.05000e+00	3.142714e-05	
288	-1.10000e+00	3.209460e-05	
289	-1.15000e+00	3.268786e-05	
290	-1.20000e+00	3.320754e-05	
291	-1.25000e+00	3.365460e-05	
292	-1.30000e+00	3.403060e-05	
293	-1.35000e+00	3.433806e-05	
294	-1.40000e+00	3.458107e-05	
295	-1.45000e+00	3.476592e-05	
296	-1.50000e+00	3.490144e-05	
297	-1.55000e+00	3.499834e-05	
298	-1.60000e+00	3.506752e-05	
299	-1.65000e+00	3.511815e-05	
300	-1.70000e+00	3.515689e-05	
301	-1.75000e+00	3.518808e-05	
302	-1.80000e+00	3.521441e-05	
303	-1.85000e+00	3.523751e-05	
304	-1.90000e+00	3.525838e-05	
305	-1.95000e+00	3.527766e-05	
306	-2.00000e+00	3.529576e-05	
307	-2.05000e+00	3.531294e-05	
308	-2.10000e+00	3.532941e-05	
309	-2.15000e+00	3.534529e-05	
310	-2.20000e+00	3.536068e-05	
311	-2.25000e+00	3.537567e-05	
312	-2.30000e+00	3.539030e-05	
313	-2.35000e+00	3.540462e-05	
314	-2.40000e+00	3.541867e-05	
315	-2.45000e+00	3.543249e-05	
316	-2.50000e+00	3.544608e-05	
317	-2.55000e+00	3.545948e-05	
318	-2.60000e+00	3.547271e-05	
319	-2.65000e+00	3.548577e-05	
320	-2.70000e+00	3.549867e-05	
321	-2.75000e+00	3.551145e-05	
322	-2.80000e+00	3.552409e-05	
323	-2.85000e+00	3.553661e-05	
324	-2.90000e+00	3.554902e-05	
325	-2.95000e+00	3.556133e-05	
326	-3.00000e+00	3.557354e-05	
327	-3.05000e+00	3.558566e-05	
328	-3.10000e+00	3.559769e-05	
329	-3.15000e+00	3.560964e-05	
330	-3.20000e+00	3.562151e-05	
331	-3.25000e+00	3.563331e-05	
332	-3.30000e+00	3.564504e-05	
333	-3.35000e+00	3.565670e-05	
334	-3.40000e+00	3.566830e-05	
335	-3.45000e+00	3.567983e-05	
336	-3.50000e+00	3.569132e-05	
337	-3.55000e+00	3.570274e-05	
338	-3.60000e+00	3.571411e-05	
339	-3.65000e+00	3.572544e-05	
340	-3.70000e+00	3.573671e-05	
341	-3.75000e+00	3.574794e-05	
342	-3.80000e+00	3.575912e-05	
343	-3.85000e+00	3.577026e-05	
344	-3.90000e+00	3.578136e-05	

Index   v-sweep         i(vds)          
--------------------------------------------------------------------------------
345	-3.95000e+00	3.579243e-05	
346	-4.00000e+00	3.580345e-05	
347	-4.05000e+00	3.581444e-05	
348	-4.10000e+00	3.582539e-05	
349	-4.15000e+00	3.583631e-05	
350	-4.20000e+00	3.584721e-05	
351	-4.25000e+00	3.585807e-05	
352	-4.30000e+00	3.586891e-05	
353	-4.35000e+00	3.587972e-05	
354	-4.40000e+00	3.589051e-05	
355	-4.45000e+00	3.590129e-05	
356	-4.50000e+00	3.591206e-05	
357	-4.55000e+00	3.592281e-05	
358	-4.60000e+00	3.593357e-05	
359	-4.65000e+00	3.594433e-05	
360	-4.70000e+00	3.595510e-05	
361	-4.75000e+00	3.596589e-05	
362	-4.80000e+00	3.597671e-05	
363	-4.85000e+00	3.598758e-05	
364	-4.90000e+00	3.599850e-05	
365	-4.95000e+00	3.600950e-05	
366	-5.00000e+00	3.602059e-05	
367	-5.05000e+00	3.603179e-05	
368	-5.10000e+00	3.604313e-05	
369	-5.15000e+00	3.605464e-05	
370	-5.20000e+00	3.606634e-05	
371	-5.25000e+00	3.607828e-05	
372	-5.30000e+00	3.609048e-05	
373	-5.35000e+00	3.610300e-05	
374	-5.40000e+00	3.611588e-05	
375	-5.45000e+00	3.612917e-05	
376	-5.50000e+00	3.614294e-05	
377	-5.55000e+00	3.615725e-05	
378	-5.60000e+00	3.617217e-05	
379	-5.65000e+00	3.618778e-05	
380	-5.70000e+00	3.620417e-05	
381	-5.75000e+00	3.622142e-05	
382	-5.80000e+00	3.623965e-05	
383	-5.85000e+00	3.625895e-05	
384	-5.90000e+00	3.627945e-05	
385	-5.95000e+00	3.630128e-05	
386	-6.00000e+00	3.632456e-05	
387	-6.05000e+00	3.634945e-05	
388	-6.10000e+00	3.637609e-05	
389	-6.15000e+00	3.640467e-05	
390	-6.20000e+00	3.643535e-05	
391	-6.25000e+00	3.646832e-05	
392	-6.30000e+00	3.650378e-05	
393	-6.35000e+00	3.654195e-05	
394	-6.40000e+00	3.658304e-05	
395	-6.45000e+00	3.662729e-05	
396	-6.50000e+00	3.667496e-05	
397	-6.55000e+00	3.672629e-05	
398	-6.60000e+00	3.678156e-05	
399	0.000000e+00	-1.97134e-30	
400	-5.00000e-02	3.070669e-06	
401	-1.00000e-01	6.071957e-06	
402	-1.50000e-01	9.003889e-06	

Index   v-sweep         i(vds)          
--------------------------------------------------------------------------------
403	-2.00000e-01	1.186649e-05	
404	-2.50000e-01	1.465978e-05	
405	-3.00000e-01	1.738378e-05	
406	-3.50000e-01	2.003853e-05	
407	-4.00000e-01	2.262403e-05	
408	-4.50000e-01	2.514032e-05	
409	-5.00000e-01	2.758743e-05	
410	-5.50000e-01	2.996537e-05	
411	-6.00000e-01	3.227417e-05	
412	-6.50000e-01	3.451385e-05	
413	-7.00000e-01	3.668445e-05	
414	-7.50000e-01	3.878598e-05	
415	-8.00000e-01	4.081848e-05	
416	-8.50000e-01	4.278196e-05	
417	-9.00000e-01	4.467647e-05	
418	-9.50000e-01	4.650201e-05	
419	-1.00000e+00	4.825863e-05	
420	-1.05000e+00	4.994635e-05	
421	-1.10000e+00	5.156521e-05	
422	-1.15000e+00	5.311524e-05	
423	-1.20000e+00	5.459647e-05	
424	-1.25000e+00	5.600895e-05	
425	-1.30000e+00	5.735271e-05	
426	-1.35000e+00	5.862780e-05	
427	-1.40000e+00	5.983429e-05	
428	-1.45000e+00	6.097223e-05	
429	-1.50000e+00	6.204169e-05	
430	-1.55000e+00	6.304277e-05	
431	-1.60000e+00	6.397558e-05	
432	-1.65000e+00	6.484026e-05	
433	-1.70000e+00	6.563700e-05	
434	-1.75000e+00	6.636606e-05	
435	-1.80000e+00	6.702778e-05	
436	-1.85000e+00	6.762265e-05	
437	-1.90000e+00	6.815137e-05	
438	-1.95000e+00	6.861497e-05	
439	-2.00000e+00	6.901499e-05	
440	-2.05000e+00	6.935369e-05	
441	-2.10000e+00	6.963440e-05	
442	-2.15000e+00	6.986184e-05	
443	-2.20000e+00	7.004231e-05	
444	-2.25000e+00	7.018346e-05	
445	-2.30000e+00	7.029354e-05	
446	-2.35000e+00	7.038040e-05	
447	-2.40000e+00	7.045064e-05	
448	-2.45000e+00	7.050927e-05	
449	-2.50000e+00	7.055985e-05	
450	-2.55000e+00	7.060477e-05	
451	-2.60000e+00	7.064565e-05	
452	-2.65000e+00	7.068357e-05	
453	-2.70000e+00	7.071924e-05	
454	-2.75000e+00	7.075318e-05	
455	-2.80000e+00	7.078574e-05	
456	-2.85000e+00	7.081717e-05	
457	-2.90000e+00	7.084766e-05	
458	-2.95000e+00	7.087736e-05	
459	-3.00000e+00	7.090638e-05	
460	-3.05000e+00	7.093481e-05	

Index   v-sweep         i(vds)          
--------------------------------------------------------------------------------
461	-3.10000e+00	7.096271e-05	
462	-3.15000e+00	7.099015e-05	
463	-3.20000e+00	7.101716e-05	
464	-3.25000e+00	7.104380e-05	
465	-3.30000e+00	7.107010e-05	
466	-3.35000e+00	7.109607e-05	
467	-3.40000e+00	7.112176e-05	
468	-3.45000e+00	7.114718e-05	
469	-3.50000e+00	7.117235e-05	
470	-3.55000e+00	7.119728e-05	
471	-3.60000e+00	7.122200e-05	
472	-3.65000e+00	7.124652e-05	
473	-3.70000e+00	7.127085e-05	
474	-3.75000e+00	7.129500e-05	
475	-3.80000e+00	7.131897e-05	
476	-3.85000e+00	7.134279e-05	
477	-3.90000e+00	7.136646e-05	
478	-3.95000e+00	7.138998e-05	
479	-4.00000e+00	7.141337e-05	
480	-4.05000e+00	7.143663e-05	
481	-4.10000e+00	7.145976e-05	
482	-4.15000e+00	7.148278e-05	
483	-4.20000e+00	7.150569e-05	
484	-4.25000e+00	7.152848e-05	
485	-4.30000e+00	7.155118e-05	
486	-4.35000e+00	7.157377e-05	
487	-4.40000e+00	7.159627e-05	
488	-4.45000e+00	7.161868e-05	
489	-4.50000e+00	7.164101e-05	
490	-4.55000e+00	7.166325e-05	
491	-4.60000e+00	7.168541e-05	
492	-4.65000e+00	7.170749e-05	
493	-4.70000e+00	7.172950e-05	
494	-4.75000e+00	7.175144e-05	
495	-4.80000e+00	7.177331e-05	
496	-4.85000e+00	7.179512e-05	
497	-4.90000e+00	7.181686e-05	
498	-4.95000e+00	7.183856e-05	
499	-5.00000e+00	7.186019e-05	
500	-5.05000e+00	7.188179e-05	
501	-5.10000e+00	7.190334e-05	
502	-5.15000e+00	7.192485e-05	
503	-5.20000e+00	7.194634e-05	
504	-5.25000e+00	7.196781e-05	
505	-5.30000e+00	7.198927e-05	
506	-5.35000e+00	7.201073e-05	
507	-5.40000e+00	7.203221e-05	
508	-5.45000e+00	7.205372e-05	
509	-5.50000e+00	7.207529e-05	
510	-5.55000e+00	7.209693e-05	
511	-5.60000e+00	7.211867e-05	
512	-5.65000e+00	7.214055e-05	
513	-5.70000e+00	7.216259e-05	
514	-5.75000e+00	7.218483e-05	
515	-5.80000e+00	7.220733e-05	
516	-5.85000e+00	7.223012e-05	
517	-5.90000e+00	7.225328e-05	
518	-5.95000e+00	7.227686e-05	

Index   v-sweep         i(vds)          
--------------------------------------------------------------------------------
519	-6.00000e+00	7.230094e-05	
520	-6.05000e+00	7.232561e-05	
521	-6.10000e+00	7.235094e-05	
522	-6.15000e+00	7.237705e-05	
523	-6.20000e+00	7.240405e-05	
524	-6.25000e+00	7.243205e-05	
525	-6.30000e+00	7.246121e-05	
526	-6.35000e+00	7.249166e-05	
527	-6.40000e+00	7.252357e-05	
528	-6.45000e+00	7.255712e-05	
529	-6.50000e+00	7.259250e-05	
530	-6.55000e+00	7.262993e-05	
531	-6.60000e+00	7.266962e-05	
532	0.000000e+00	2.427090e-20	
533	-5.00000e-02	3.753952e-06	
534	-1.00000e-01	7.444473e-06	
535	-1.50000e-01	1.107158e-05	
536	-2.00000e-01	1.463530e-05	
537	-2.50000e-01	1.813565e-05	
538	-3.00000e-01	2.157265e-05	
539	-3.50000e-01	2.494632e-05	
540	-4.00000e-01	2.825669e-05	
541	-4.50000e-01	3.150377e-05	
542	-5.00000e-01	3.468758e-05	
543	-5.50000e-01	3.780814e-05	
544	-6.00000e-01	4.086549e-05	
545	-6.50000e-01	4.385962e-05	
546	-7.00000e-01	4.679058e-05	
547	-7.50000e-01	4.965837e-05	
548	-8.00000e-01	5.246302e-05	
549	-8.50000e-01	5.520456e-05	
550	-9.00000e-01	5.788299e-05	
551	-9.50000e-01	6.049835e-05	
552	-1.00000e+00	6.305065e-05	
553	-1.05000e+00	6.553992e-05	
554	-1.10000e+00	6.796617e-05	
555	-1.15000e+00	7.032944e-05	
556	-1.20000e+00	7.262973e-05	
557	-1.25000e+00	7.486709e-05	
558	-1.30000e+00	7.704152e-05	
559	-1.35000e+00	7.915305e-05	
560	-1.40000e+00	8.120170e-05	
561	-1.45000e+00	8.318750e-05	
562	-1.50000e+00	8.511048e-05	
563	-1.55000e+00	8.697066e-05	
564	-1.60000e+00	8.876806e-05	
565	-1.65000e+00	9.050271e-05	
566	-1.70000e+00	9.217465e-05	
567	-1.75000e+00	9.378390e-05	
568	-1.80000e+00	9.533050e-05	
569	-1.85000e+00	9.681448e-05	
570	-1.90000e+00	9.823587e-05	
571	-1.95000e+00	9.959473e-05	
572	-2.00000e+00	1.008911e-04	
573	-2.05000e+00	1.021250e-04	
574	-2.10000e+00	1.032966e-04	
575	-2.15000e+00	1.044058e-04	
576	-2.20000e+00	1.054528e-04	

Index   v-sweep         i(vds)          
--------------------------------------------------------------------------------
577	-2.25000e+00	1.064377e-04	
578	-2.30000e+00	1.073606e-04	
579	-2.35000e+00	1.082216e-04	
580	-2.40000e+00	1.090210e-04	
581	-2.45000e+00	1.097591e-04	
582	-2.50000e+00	1.104361e-04	
583	-2.55000e+00	1.110525e-04	
584	-2.60000e+00	1.116091e-04	
585	-2.65000e+00	1.121066e-04	
586	-2.70000e+00	1.125463e-04	
587	-2.75000e+00	1.129300e-04	
588	-2.80000e+00	1.132602e-04	
589	-2.85000e+00	1.135401e-04	
590	-2.90000e+00	1.137742e-04	
591	-2.95000e+00	1.139678e-04	
592	-3.00000e+00	1.141272e-04	
593	-3.05000e+00	1.142589e-04	
594	-3.10000e+00	1.143689e-04	
595	-3.15000e+00	1.144627e-04	
596	-3.20000e+00	1.145445e-04	
597	-3.25000e+00	1.146174e-04	
598	-3.30000e+00	1.146839e-04	
599	-3.35000e+00	1.147455e-04	
600	-3.40000e+00	1.148034e-04	
601	-3.45000e+00	1.148585e-04	
602	-3.50000e+00	1.149112e-04	
603	-3.55000e+00	1.149621e-04	
604	-3.60000e+00	1.150114e-04	
605	-3.65000e+00	1.150595e-04	
606	-3.70000e+00	1.151064e-04	
607	-3.75000e+00	1.151524e-04	
608	-3.80000e+00	1.151975e-04	
609	-3.85000e+00	1.152419e-04	
610	-3.90000e+00	1.152856e-04	
611	-3.95000e+00	1.153287e-04	
612	-4.00000e+00	1.153712e-04	
613	-4.05000e+00	1.154133e-04	
614	-4.10000e+00	1.154548e-04	
615	-4.15000e+00	1.154960e-04	
616	-4.20000e+00	1.155367e-04	
617	-4.25000e+00	1.155770e-04	
618	-4.30000e+00	1.156170e-04	
619	-4.35000e+00	1.156567e-04	
620	-4.40000e+00	1.156961e-04	
621	-4.45000e+00	1.157352e-04	
622	-4.50000e+00	1.157740e-04	
623	-4.55000e+00	1.158126e-04	
624	-4.60000e+00	1.158509e-04	
625	-4.65000e+00	1.158890e-04	
626	-4.70000e+00	1.159269e-04	
627	-4.75000e+00	1.159645e-04	
628	-4.80000e+00	1.160020e-04	
629	-4.85000e+00	1.160393e-04	
630	-4.90000e+00	1.160764e-04	
631	-4.95000e+00	1.161133e-04	
632	-5.00000e+00	1.161501e-04	
633	-5.05000e+00	1.161867e-04	
634	-5.10000e+00	1.162231e-04	

Index   v-sweep         i(vds)          
--------------------------------------------------------------------------------
635	-5.15000e+00	1.162594e-04	
636	-5.20000e+00	1.162956e-04	
637	-5.25000e+00	1.163316e-04	
638	-5.30000e+00	1.163675e-04	
639	-5.35000e+00	1.164033e-04	
640	-5.40000e+00	1.164390e-04	
641	-5.45000e+00	1.164745e-04	
642	-5.50000e+00	1.165099e-04	
643	-5.55000e+00	1.165453e-04	
644	-5.60000e+00	1.165805e-04	
645	-5.65000e+00	1.166157e-04	
646	-5.70000e+00	1.166507e-04	
647	-5.75000e+00	1.166857e-04	
648	-5.80000e+00	1.167206e-04	
649	-5.85000e+00	1.167554e-04	
650	-5.90000e+00	1.167902e-04	
651	-5.95000e+00	1.168250e-04	
652	-6.00000e+00	1.168597e-04	
653	-6.05000e+00	1.168944e-04	
654	-6.10000e+00	1.169291e-04	
655	-6.15000e+00	1.169639e-04	
656	-6.20000e+00	1.169987e-04	
657	-6.25000e+00	1.170336e-04	
658	-6.30000e+00	1.170686e-04	
659	-6.35000e+00	1.171038e-04	
660	-6.40000e+00	1.171393e-04	
661	-6.45000e+00	1.171750e-04	
662	-6.50000e+00	1.172110e-04	
663	-6.55000e+00	1.172475e-04	
664	-6.60000e+00	1.172845e-04	
665	0.000000e+00	-2.62928e-30	
666	-5.00000e-02	4.329931e-06	
667	-1.00000e-01	8.601709e-06	
668	-1.50000e-01	1.281535e-05	
669	-2.00000e-01	1.697088e-05	
670	-2.50000e-01	2.106831e-05	
671	-3.00000e-01	2.510766e-05	
672	-3.50000e-01	2.908895e-05	
673	-4.00000e-01	3.301219e-05	
674	-4.50000e-01	3.687741e-05	
675	-5.00000e-01	4.068463e-05	
676	-5.50000e-01	4.443385e-05	
677	-6.00000e-01	4.812510e-05	
678	-6.50000e-01	5.175840e-05	
679	-7.00000e-01	5.533377e-05	
680	-7.50000e-01	5.885122e-05	
681	-8.00000e-01	6.231077e-05	
682	-8.50000e-01	6.571245e-05	
683	-9.00000e-01	6.905626e-05	
684	-9.50000e-01	7.234223e-05	
685	-1.00000e+00	7.557037e-05	
686	-1.05000e+00	7.874071e-05	
687	-1.10000e+00	8.185326e-05	
688	-1.15000e+00	8.490805e-05	
689	-1.20000e+00	8.790508e-05	
690	-1.25000e+00	9.084438e-05	
691	-1.30000e+00	9.372596e-05	
692	-1.35000e+00	9.654985e-05	

Index   v-sweep         i(vds)          
--------------------------------------------------------------------------------
693	-1.40000e+00	9.931607e-05	
694	-1.45000e+00	1.020246e-04	
695	-1.50000e+00	1.046755e-04	
696	-1.55000e+00	1.072688e-04	
697	-1.60000e+00	1.098046e-04	
698	-1.65000e+00	1.122827e-04	
699	-1.70000e+00	1.147032e-04	
700	-1.75000e+00	1.170663e-04	
701	-1.80000e+00	1.193718e-04	
702	-1.85000e+00	1.216198e-04	
703	-1.90000e+00	1.238103e-04	
704	-1.95000e+00	1.259433e-04	
705	-2.00000e+00	1.280190e-04	
706	-2.05000e+00	1.300372e-04	
707	-2.10000e+00	1.319980e-04	
708	-2.15000e+00	1.339014e-04	
709	-2.20000e+00	1.357475e-04	
710	-2.25000e+00	1.375363e-04	
711	-2.30000e+00	1.392678e-04	
712	-2.35000e+00	1.409420e-04	
713	-2.40000e+00	1.425590e-04	
714	-2.45000e+00	1.441187e-04	
715	-2.50000e+00	1.456213e-04	
716	-2.55000e+00	1.470667e-04	
717	-2.60000e+00	1.484551e-04	
718	-2.65000e+00	1.497864e-04	
719	-2.70000e+00	1.510607e-04	
720	-2.75000e+00	1.522780e-04	
721	-2.80000e+00	1.534384e-04	
722	-2.85000e+00	1.545420e-04	
723	-2.90000e+00	1.555888e-04	
724	-2.95000e+00	1.565791e-04	
725	-3.00000e+00	1.575128e-04	
726	-3.05000e+00	1.583901e-04	
727	-3.10000e+00	1.592113e-04	
728	-3.15000e+00	1.599765e-04	
729	-3.20000e+00	1.606860e-04	
730	-3.25000e+00	1.613404e-04	
731	-3.30000e+00	1.619400e-04	
732	-3.35000e+00	1.624856e-04	
733	-3.40000e+00	1.629781e-04	
734	-3.45000e+00	1.634187e-04	
735	-3.50000e+00	1.638091e-04	
736	-3.55000e+00	1.641516e-04	
737	-3.60000e+00	1.644491e-04	
738	-3.65000e+00	1.647051e-04	
739	-3.70000e+00	1.649242e-04	
740	-3.75000e+00	1.651113e-04	
741	-3.80000e+00	1.652717e-04	
742	-3.85000e+00	1.654104e-04	
743	-3.90000e+00	1.655322e-04	
744	-3.95000e+00	1.656409e-04	
745	-4.00000e+00	1.657396e-04	
746	-4.05000e+00	1.658307e-04	
747	-4.10000e+00	1.659159e-04	
748	-4.15000e+00	1.659966e-04	
749	-4.20000e+00	1.660737e-04	
750	-4.25000e+00	1.661478e-04	

Index   v-sweep         i(vds)          
--------------------------------------------------------------------------------
751	-4.30000e+00	1.662196e-04	
752	-4.35000e+00	1.662894e-04	
753	-4.40000e+00	1.663575e-04	
754	-4.45000e+00	1.664241e-04	
755	-4.50000e+00	1.664894e-04	
756	-4.55000e+00	1.665536e-04	
757	-4.60000e+00	1.666169e-04	
758	-4.65000e+00	1.666792e-04	
759	-4.70000e+00	1.667407e-04	
760	-4.75000e+00	1.668014e-04	
761	-4.80000e+00	1.668615e-04	
762	-4.85000e+00	1.669210e-04	
763	-4.90000e+00	1.669798e-04	
764	-4.95000e+00	1.670382e-04	
765	-5.00000e+00	1.670960e-04	
766	-5.05000e+00	1.671533e-04	
767	-5.10000e+00	1.672102e-04	
768	-5.15000e+00	1.672667e-04	
769	-5.20000e+00	1.673228e-04	
770	-5.25000e+00	1.673785e-04	
771	-5.30000e+00	1.674339e-04	
772	-5.35000e+00	1.674889e-04	
773	-5.40000e+00	1.675436e-04	
774	-5.45000e+00	1.675980e-04	
775	-5.50000e+00	1.676522e-04	
776	-5.55000e+00	1.677060e-04	
777	-5.60000e+00	1.677596e-04	
778	-5.65000e+00	1.678130e-04	
779	-5.70000e+00	1.678661e-04	
780	-5.75000e+00	1.679190e-04	
781	-5.80000e+00	1.679716e-04	
782	-5.85000e+00	1.680241e-04	
783	-5.90000e+00	1.680763e-04	
784	-5.95000e+00	1.681284e-04	
785	-6.00000e+00	1.681802e-04	
786	-6.05000e+00	1.682319e-04	
787	-6.10000e+00	1.682834e-04	
788	-6.15000e+00	1.683348e-04	
789	-6.20000e+00	1.683860e-04	
790	-6.25000e+00	1.684370e-04	
791	-6.30000e+00	1.684879e-04	
792	-6.35000e+00	1.685386e-04	
793	-6.40000e+00	1.685893e-04	
794	-6.45000e+00	1.686398e-04	
795	-6.50000e+00	1.686901e-04	
796	-6.55000e+00	1.687404e-04	
797	-6.60000e+00	1.687906e-04	
Note: No ".plot", ".print", or ".fourier" lines; no simulations run
