
Note: Compatibility modes selected: hs


Circuit: ***************************

Doing analysis at TEMP = 25.000000 and TNOM = 25.000000


No. of Data Rows : 10011

  Measurements for Transient Analysis

cv                  =  1.959299e+00


