
Note: Compatibility modes selected: hs

Warning: m=xx on .subckt line will override multiplier m hierarchy!


Circuit: ***************************

Doing analysis at TEMP = 25.000000 and TNOM = 25.000000


No. of Data Rows : 402
                          ***************************
                          DC transfer characteristic  Mon Jan  9 13:58:11  2023
--------------------------------------------------------------------------------
Index   v-sweep         -i(vds)         
--------------------------------------------------------------------------------
0	0.000000e+00	-5.24986e-22	
1	5.000000e-02	1.051205e-06	
2	1.000000e-01	1.646564e-06	
3	1.500000e-01	1.836443e-06	
4	2.000000e-01	1.857987e-06	
5	2.500000e-01	1.862028e-06	
6	3.000000e-01	1.864040e-06	
7	3.500000e-01	1.865520e-06	
8	4.000000e-01	1.866780e-06	
9	4.500000e-01	1.867923e-06	
10	5.000000e-01	1.868996e-06	
11	5.500000e-01	1.870019e-06	
12	6.000000e-01	1.871008e-06	
13	6.500000e-01	1.871970e-06	
14	7.000000e-01	1.872911e-06	
15	7.500000e-01	1.873835e-06	
16	8.000000e-01	1.874745e-06	
17	8.500000e-01	1.875643e-06	
18	9.000000e-01	1.876531e-06	
19	9.500000e-01	1.877410e-06	
20	1.000000e+00	1.878281e-06	
21	1.050000e+00	1.879146e-06	
22	1.100000e+00	1.880005e-06	
23	1.150000e+00	1.880858e-06	
24	1.200000e+00	1.881707e-06	
25	1.250000e+00	1.882551e-06	
26	1.300000e+00	1.883391e-06	
27	1.350000e+00	1.884228e-06	
28	1.400000e+00	1.885061e-06	
29	1.450000e+00	1.885891e-06	
30	1.500000e+00	1.886719e-06	
31	1.550000e+00	1.887544e-06	
32	1.600000e+00	1.888367e-06	
33	1.650000e+00	1.889188e-06	
34	1.700000e+00	1.890008e-06	
35	1.750000e+00	1.890827e-06	
36	1.800000e+00	1.891646e-06	
37	1.850000e+00	1.892465e-06	
38	1.900000e+00	1.893286e-06	
39	1.950000e+00	1.894111e-06	
40	2.000000e+00	1.894940e-06	
41	2.050000e+00	1.895776e-06	
42	2.100000e+00	1.896621e-06	
43	2.150000e+00	1.897479e-06	
44	2.200000e+00	1.898353e-06	
45	2.250000e+00	1.899247e-06	
46	2.300000e+00	1.900167e-06	
47	2.350000e+00	1.901117e-06	
48	2.400000e+00	1.902105e-06	
49	2.450000e+00	1.903138e-06	
50	2.500000e+00	1.904225e-06	
51	2.550000e+00	1.905374e-06	
52	2.600000e+00	1.906596e-06	
53	2.650000e+00	1.907902e-06	
54	2.700000e+00	1.909306e-06	

Index   v-sweep         -i(vds)         
--------------------------------------------------------------------------------
55	2.750000e+00	1.910819e-06	
56	2.800000e+00	1.912458e-06	
57	2.850000e+00	1.914237e-06	
58	2.900000e+00	1.916174e-06	
59	2.950000e+00	1.918287e-06	
60	3.000000e+00	1.920595e-06	
61	3.050000e+00	1.923117e-06	
62	3.100000e+00	1.925877e-06	
63	3.150000e+00	1.928895e-06	
64	3.200000e+00	1.932195e-06	
65	3.250000e+00	1.935803e-06	
66	3.300000e+00	1.939743e-06	
67	0.000000e+00	-7.81013e-22	
68	5.000000e-02	4.973319e-06	
69	1.000000e-01	9.414929e-06	
70	1.500000e-01	1.332609e-05	
71	2.000000e-01	1.670810e-05	
72	2.500000e-01	1.956236e-05	
73	3.000000e-01	2.189049e-05	
74	3.500000e-01	2.369486e-05	
75	4.000000e-01	2.498046e-05	
76	4.500000e-01	2.576439e-05	
77	5.000000e-01	2.612017e-05	
78	5.500000e-01	2.623580e-05	
79	6.000000e-01	2.627666e-05	
80	6.500000e-01	2.629754e-05	
81	7.000000e-01	2.631146e-05	
82	7.500000e-01	2.632222e-05	
83	8.000000e-01	2.633122e-05	
84	8.500000e-01	2.633914e-05	
85	9.000000e-01	2.634631e-05	
86	9.500000e-01	2.635294e-05	
87	1.000000e+00	2.635917e-05	
88	1.050000e+00	2.636507e-05	
89	1.100000e+00	2.637071e-05	
90	1.150000e+00	2.637614e-05	
91	1.200000e+00	2.638139e-05	
92	1.250000e+00	2.638648e-05	
93	1.300000e+00	2.639144e-05	
94	1.350000e+00	2.639629e-05	
95	1.400000e+00	2.640104e-05	
96	1.450000e+00	2.640570e-05	
97	1.500000e+00	2.641028e-05	
98	1.550000e+00	2.641478e-05	
99	1.600000e+00	2.641923e-05	
100	1.650000e+00	2.642361e-05	
101	1.700000e+00	2.642794e-05	
102	1.750000e+00	2.643222e-05	
103	1.800000e+00	2.643645e-05	
104	1.850000e+00	2.644065e-05	
105	1.900000e+00	2.644481e-05	
106	1.950000e+00	2.644893e-05	
107	2.000000e+00	2.645303e-05	
108	2.050000e+00	2.645711e-05	
109	2.100000e+00	2.646118e-05	
110	2.150000e+00	2.646524e-05	
111	2.200000e+00	2.646931e-05	
112	2.250000e+00	2.647340e-05	

Index   v-sweep         -i(vds)         
--------------------------------------------------------------------------------
113	2.300000e+00	2.647754e-05	
114	2.350000e+00	2.648173e-05	
115	2.400000e+00	2.648602e-05	
116	2.450000e+00	2.649044e-05	
117	2.500000e+00	2.649502e-05	
118	2.550000e+00	2.649983e-05	
119	2.600000e+00	2.650491e-05	
120	2.650000e+00	2.651034e-05	
121	2.700000e+00	2.651619e-05	
122	2.750000e+00	2.652255e-05	
123	2.800000e+00	2.652954e-05	
124	2.850000e+00	2.653725e-05	
125	2.900000e+00	2.654582e-05	
126	2.950000e+00	2.655540e-05	
127	3.000000e+00	2.656613e-05	
128	3.050000e+00	2.657819e-05	
129	3.100000e+00	2.659177e-05	
130	3.150000e+00	2.660706e-05	
131	3.200000e+00	2.662429e-05	
132	3.250000e+00	2.664368e-05	
133	3.300000e+00	2.666548e-05	
134	0.000000e+00	-2.02389e-31	
135	5.000000e-02	8.517180e-06	
136	1.000000e-01	1.653408e-05	
137	1.500000e-01	2.405179e-05	
138	2.000000e-01	3.107136e-05	
139	2.500000e-01	3.759388e-05	
140	3.000000e-01	4.362043e-05	
141	3.500000e-01	4.915207e-05	
142	4.000000e-01	5.418990e-05	
143	4.500000e-01	5.873502e-05	
144	5.000000e-01	6.278857e-05	
145	5.500000e-01	6.635174e-05	
146	6.000000e-01	6.942583e-05	
147	6.500000e-01	7.201244e-05	
148	7.000000e-01	7.411382e-05	
149	7.500000e-01	7.573413e-05	
150	8.000000e-01	7.688374e-05	
151	8.500000e-01	7.759462e-05	
152	9.000000e-01	7.795693e-05	
153	9.500000e-01	7.812030e-05	
154	1.000000e+00	7.820137e-05	
155	1.050000e+00	7.825029e-05	
156	1.100000e+00	7.828479e-05	
157	1.150000e+00	7.831171e-05	
158	1.200000e+00	7.833408e-05	
159	1.250000e+00	7.835348e-05	
160	1.300000e+00	7.837078e-05	
161	1.350000e+00	7.838654e-05	
162	1.400000e+00	7.840112e-05	
163	1.450000e+00	7.841475e-05	
164	1.500000e+00	7.842762e-05	
165	1.550000e+00	7.843985e-05	
166	1.600000e+00	7.845155e-05	
167	1.650000e+00	7.846280e-05	
168	1.700000e+00	7.847366e-05	
169	1.750000e+00	7.848417e-05	
170	1.800000e+00	7.849439e-05	

Index   v-sweep         -i(vds)         
--------------------------------------------------------------------------------
171	1.850000e+00	7.850433e-05	
172	1.900000e+00	7.851404e-05	
173	1.950000e+00	7.852353e-05	
174	2.000000e+00	7.853283e-05	
175	2.050000e+00	7.854195e-05	
176	2.100000e+00	7.855092e-05	
177	2.150000e+00	7.855974e-05	
178	2.200000e+00	7.856842e-05	
179	2.250000e+00	7.857699e-05	
180	2.300000e+00	7.858544e-05	
181	2.350000e+00	7.859381e-05	
182	2.400000e+00	7.860210e-05	
183	2.450000e+00	7.861033e-05	
184	2.500000e+00	7.861852e-05	
185	2.550000e+00	7.862671e-05	
186	2.600000e+00	7.863493e-05	
187	2.650000e+00	7.864323e-05	
188	2.700000e+00	7.865167e-05	
189	2.750000e+00	7.866032e-05	
190	2.800000e+00	7.866927e-05	
191	2.850000e+00	7.867863e-05	
192	2.900000e+00	7.868852e-05	
193	2.950000e+00	7.869911e-05	
194	3.000000e+00	7.871058e-05	
195	3.050000e+00	7.872313e-05	
196	3.100000e+00	7.873701e-05	
197	3.150000e+00	7.875250e-05	
198	3.200000e+00	7.876991e-05	
199	3.250000e+00	7.878959e-05	
200	3.300000e+00	7.881193e-05	
201	0.000000e+00	-2.00545e-30	
202	5.000000e-02	1.142335e-05	
203	1.000000e-01	2.239403e-05	
204	1.500000e-01	3.291295e-05	
205	2.000000e-01	4.298100e-05	
206	2.500000e-01	5.259909e-05	
207	3.000000e-01	6.176813e-05	
208	3.500000e-01	7.048901e-05	
209	4.000000e-01	7.876264e-05	
210	4.500000e-01	8.658990e-05	
211	5.000000e-01	9.397170e-05	
212	5.500000e-01	1.009089e-04	
213	6.000000e-01	1.074025e-04	
214	6.500000e-01	1.134533e-04	
215	7.000000e-01	1.190623e-04	
216	7.500000e-01	1.242303e-04	
217	8.000000e-01	1.289583e-04	
218	8.500000e-01	1.332472e-04	
219	9.000000e-01	1.370980e-04	
220	9.500000e-01	1.405117e-04	
221	1.000000e+00	1.434896e-04	
222	1.050000e+00	1.460332e-04	
223	1.100000e+00	1.481445e-04	
224	1.150000e+00	1.498274e-04	
225	1.200000e+00	1.510907e-04	
226	1.250000e+00	1.519572e-04	
227	1.300000e+00	1.524840e-04	
228	1.350000e+00	1.527744e-04	

Index   v-sweep         -i(vds)         
--------------------------------------------------------------------------------
229	1.400000e+00	1.529364e-04	
230	1.450000e+00	1.530369e-04	
231	1.500000e+00	1.531071e-04	
232	1.550000e+00	1.531607e-04	
233	1.600000e+00	1.532042e-04	
234	1.650000e+00	1.532412e-04	
235	1.700000e+00	1.532735e-04	
236	1.750000e+00	1.533025e-04	
237	1.800000e+00	1.533289e-04	
238	1.850000e+00	1.533533e-04	
239	1.900000e+00	1.533760e-04	
240	1.950000e+00	1.533974e-04	
241	2.000000e+00	1.534177e-04	
242	2.050000e+00	1.534370e-04	
243	2.100000e+00	1.534555e-04	
244	2.150000e+00	1.534732e-04	
245	2.200000e+00	1.534904e-04	
246	2.250000e+00	1.535069e-04	
247	2.300000e+00	1.535230e-04	
248	2.350000e+00	1.535387e-04	
249	2.400000e+00	1.535539e-04	
250	2.450000e+00	1.535688e-04	
251	2.500000e+00	1.535833e-04	
252	2.550000e+00	1.535976e-04	
253	2.600000e+00	1.536115e-04	
254	2.650000e+00	1.536253e-04	
255	2.700000e+00	1.536388e-04	
256	2.750000e+00	1.536521e-04	
257	2.800000e+00	1.536652e-04	
258	2.850000e+00	1.536782e-04	
259	2.900000e+00	1.536912e-04	
260	2.950000e+00	1.537041e-04	
261	3.000000e+00	1.537170e-04	
262	3.050000e+00	1.537301e-04	
263	3.100000e+00	1.537433e-04	
264	3.150000e+00	1.537570e-04	
265	3.200000e+00	1.537712e-04	
266	3.250000e+00	1.537861e-04	
267	3.300000e+00	1.538019e-04	
268	0.000000e+00	2.142142e-30	
269	5.000000e-02	1.366666e-05	
270	1.000000e-01	2.693233e-05	
271	1.500000e-01	3.979775e-05	
272	2.000000e-01	5.226367e-05	
273	2.500000e-01	6.433082e-05	
274	3.000000e-01	7.599995e-05	
275	3.500000e-01	8.727180e-05	
276	4.000000e-01	9.814709e-05	
277	4.500000e-01	1.086266e-04	
278	5.000000e-01	1.187110e-04	
279	5.500000e-01	1.284010e-04	
280	6.000000e-01	1.376975e-04	
281	6.500000e-01	1.466011e-04	
282	7.000000e-01	1.551125e-04	
283	7.500000e-01	1.632325e-04	
284	8.000000e-01	1.709619e-04	
285	8.500000e-01	1.783012e-04	
286	9.000000e-01	1.852514e-04	

Index   v-sweep         -i(vds)         
--------------------------------------------------------------------------------
287	9.500000e-01	1.918130e-04	
288	1.000000e+00	1.979869e-04	
289	1.050000e+00	2.037738e-04	
290	1.100000e+00	2.091744e-04	
291	1.150000e+00	2.141894e-04	
292	1.200000e+00	2.188196e-04	
293	1.250000e+00	2.230658e-04	
294	1.300000e+00	2.269287e-04	
295	1.350000e+00	2.304092e-04	
296	1.400000e+00	2.335081e-04	
297	1.450000e+00	2.362267e-04	
298	1.500000e+00	2.385661e-04	
299	1.550000e+00	2.405286e-04	
300	1.600000e+00	2.421181e-04	
301	1.650000e+00	2.433429e-04	
302	1.700000e+00	2.442236e-04	
303	1.750000e+00	2.448057e-04	
304	1.800000e+00	2.451666e-04	
305	1.850000e+00	2.453909e-04	
306	1.900000e+00	2.455397e-04	
307	1.950000e+00	2.456468e-04	
308	2.000000e+00	2.457294e-04	
309	2.050000e+00	2.457967e-04	
310	2.100000e+00	2.458537e-04	
311	2.150000e+00	2.459033e-04	
312	2.200000e+00	2.459475e-04	
313	2.250000e+00	2.459875e-04	
314	2.300000e+00	2.460242e-04	
315	2.350000e+00	2.460582e-04	
316	2.400000e+00	2.460901e-04	
317	2.450000e+00	2.461200e-04	
318	2.500000e+00	2.461485e-04	
319	2.550000e+00	2.461755e-04	
320	2.600000e+00	2.462014e-04	
321	2.650000e+00	2.462263e-04	
322	2.700000e+00	2.462503e-04	
323	2.750000e+00	2.462734e-04	
324	2.800000e+00	2.462959e-04	
325	2.850000e+00	2.463176e-04	
326	2.900000e+00	2.463388e-04	
327	2.950000e+00	2.463595e-04	
328	3.000000e+00	2.463797e-04	
329	3.050000e+00	2.463994e-04	
330	3.100000e+00	2.464187e-04	
331	3.150000e+00	2.464377e-04	
332	3.200000e+00	2.464564e-04	
333	3.250000e+00	2.464747e-04	
334	3.300000e+00	2.464929e-04	
335	0.000000e+00	5.596502e-31	
336	5.000000e-02	1.529880e-05	
337	1.000000e-01	3.024736e-05	
338	1.500000e-01	4.484630e-05	
339	2.000000e-01	5.909621e-05	
340	2.500000e-01	7.299768e-05	
341	3.000000e-01	8.655130e-05	
342	3.500000e-01	9.975768e-05	
343	4.000000e-01	1.126174e-04	
344	4.500000e-01	1.251311e-04	

Index   v-sweep         -i(vds)         
--------------------------------------------------------------------------------
345	5.000000e-01	1.372992e-04	
346	5.500000e-01	1.491225e-04	
347	6.000000e-01	1.606016e-04	
348	6.500000e-01	1.717369e-04	
349	7.000000e-01	1.825291e-04	
350	7.500000e-01	1.929787e-04	
351	8.000000e-01	2.030864e-04	
352	8.500000e-01	2.128528e-04	
353	9.000000e-01	2.222784e-04	
354	9.500000e-01	2.313638e-04	
355	1.000000e+00	2.401097e-04	
356	1.050000e+00	2.485165e-04	
357	1.100000e+00	2.565848e-04	
358	1.150000e+00	2.643154e-04	
359	1.200000e+00	2.717086e-04	
360	1.250000e+00	2.787652e-04	
361	1.300000e+00	2.854856e-04	
362	1.350000e+00	2.918706e-04	
363	1.400000e+00	2.979206e-04	
364	1.450000e+00	3.036362e-04	
365	1.500000e+00	3.090181e-04	
366	1.550000e+00	3.140667e-04	
367	1.600000e+00	3.187828e-04	
368	1.650000e+00	3.231669e-04	
369	1.700000e+00	3.272195e-04	
370	1.750000e+00	3.309414e-04	
371	1.800000e+00	3.343331e-04	
372	1.850000e+00	3.373953e-04	
373	1.900000e+00	3.401289e-04	
374	1.950000e+00	3.425347e-04	
375	2.000000e+00	3.446141e-04	
376	2.050000e+00	3.463691e-04	
377	2.100000e+00	3.478038e-04	
378	2.150000e+00	3.489269e-04	
379	2.200000e+00	3.497581e-04	
380	2.250000e+00	3.503371e-04	
381	2.300000e+00	3.507250e-04	
382	2.350000e+00	3.509867e-04	
383	2.400000e+00	3.511715e-04	
384	2.450000e+00	3.513100e-04	
385	2.500000e+00	3.514193e-04	
386	2.550000e+00	3.515094e-04	
387	2.600000e+00	3.515861e-04	
388	2.650000e+00	3.516531e-04	
389	2.700000e+00	3.517128e-04	
390	2.750000e+00	3.517668e-04	
391	2.800000e+00	3.518162e-04	
392	2.850000e+00	3.518620e-04	
393	2.900000e+00	3.519047e-04	
394	2.950000e+00	3.519448e-04	
395	3.000000e+00	3.519828e-04	
396	3.050000e+00	3.520188e-04	
397	3.100000e+00	3.520532e-04	
398	3.150000e+00	3.520862e-04	
399	3.200000e+00	3.521178e-04	
400	3.250000e+00	3.521484e-04	
401	3.300000e+00	3.521779e-04	
Note: No ".plot", ".print", or ".fourier" lines; no simulations run
