
Note: Compatibility modes selected: hs

Warning: m=xx on .subckt line will override multiplier m hierarchy!


Circuit: ***************************

Doing analysis at TEMP = 25.000000 and TNOM = 25.000000


No. of Data Rows : 402
                          ***************************
                          DC transfer characteristic  Mon Jan  9 13:58:11  2023
--------------------------------------------------------------------------------
Index   v-sweep         -i(vds)         
--------------------------------------------------------------------------------
0	0.000000e+00	-2.84379e-31	
1	5.000000e-02	1.235054e-05	
2	1.000000e-01	1.908475e-05	
3	1.500000e-01	2.170186e-05	
4	2.000000e-01	2.256418e-05	
5	2.500000e-01	2.295977e-05	
6	3.000000e-01	2.321531e-05	
7	3.500000e-01	2.341293e-05	
8	4.000000e-01	2.358034e-05	
9	4.500000e-01	2.372947e-05	
10	5.000000e-01	2.386639e-05	
11	5.500000e-01	2.399461e-05	
12	6.000000e-01	2.411633e-05	
13	6.500000e-01	2.423300e-05	
14	7.000000e-01	2.434564e-05	
15	7.500000e-01	2.445500e-05	
16	8.000000e-01	2.456164e-05	
17	8.500000e-01	2.466598e-05	
18	9.000000e-01	2.476837e-05	
19	9.500000e-01	2.486906e-05	
20	1.000000e+00	2.496829e-05	
21	1.050000e+00	2.506623e-05	
22	1.100000e+00	2.516304e-05	
23	1.150000e+00	2.525884e-05	
24	1.200000e+00	2.535374e-05	
25	1.250000e+00	2.544783e-05	
26	1.300000e+00	2.554119e-05	
27	1.350000e+00	2.563390e-05	
28	1.400000e+00	2.572601e-05	
29	1.450000e+00	2.581759e-05	
30	1.500000e+00	2.590867e-05	
31	1.550000e+00	2.599931e-05	
32	1.600000e+00	2.608955e-05	
33	1.650000e+00	2.617943e-05	
34	1.700000e+00	2.626900e-05	
35	1.750000e+00	2.635828e-05	
36	1.800000e+00	2.644733e-05	
37	1.850000e+00	2.653620e-05	
38	1.900000e+00	2.662492e-05	
39	1.950000e+00	2.671357e-05	
40	2.000000e+00	2.680219e-05	
41	2.050000e+00	2.689086e-05	
42	2.100000e+00	2.697966e-05	
43	2.150000e+00	2.706867e-05	
44	2.200000e+00	2.715800e-05	
45	2.250000e+00	2.724776e-05	
46	2.300000e+00	2.733807e-05	
47	2.350000e+00	2.742909e-05	
48	2.400000e+00	2.752096e-05	
49	2.450000e+00	2.761386e-05	
50	2.500000e+00	2.770800e-05	
51	2.550000e+00	2.780358e-05	
52	2.600000e+00	2.790085e-05	
53	2.650000e+00	2.800007e-05	
54	2.700000e+00	2.810152e-05	

Index   v-sweep         -i(vds)         
--------------------------------------------------------------------------------
55	2.750000e+00	2.820550e-05	
56	2.800000e+00	2.831236e-05	
57	2.850000e+00	2.842246e-05	
58	2.900000e+00	2.853619e-05	
59	2.950000e+00	2.865396e-05	
60	3.000000e+00	2.877623e-05	
61	3.050000e+00	2.890348e-05	
62	3.100000e+00	2.903622e-05	
63	3.150000e+00	2.917499e-05	
64	3.200000e+00	2.932037e-05	
65	3.250000e+00	2.947297e-05	
66	3.300000e+00	2.963345e-05	
67	0.000000e+00	-3.63997e-30	
68	5.000000e-02	7.710903e-05	
69	1.000000e-01	1.453083e-04	
70	1.500000e-01	2.049748e-04	
71	2.000000e-01	2.564668e-04	
72	2.500000e-01	3.001255e-04	
73	3.000000e-01	3.362776e-04	
74	3.500000e-01	3.652467e-04	
75	4.000000e-01	3.873953e-04	
76	4.500000e-01	4.032673e-04	
77	5.000000e-01	4.138703e-04	
78	5.500000e-01	4.207212e-04	
79	6.000000e-01	4.252886e-04	
80	6.500000e-01	4.285472e-04	
81	7.000000e-01	4.310353e-04	
82	7.500000e-01	4.330416e-04	
83	8.000000e-01	4.347272e-04	
84	8.500000e-01	4.361878e-04	
85	9.000000e-01	4.374834e-04	
86	9.500000e-01	4.386536e-04	
87	1.000000e+00	4.397257e-04	
88	1.050000e+00	4.407190e-04	
89	1.100000e+00	4.416481e-04	
90	1.150000e+00	4.425236e-04	
91	1.200000e+00	4.433539e-04	
92	1.250000e+00	4.441457e-04	
93	1.300000e+00	4.449041e-04	
94	1.350000e+00	4.456335e-04	
95	1.400000e+00	4.463372e-04	
96	1.450000e+00	4.470184e-04	
97	1.500000e+00	4.476793e-04	
98	1.550000e+00	4.483222e-04	
99	1.600000e+00	4.489487e-04	
100	1.650000e+00	4.495605e-04	
101	1.700000e+00	4.501588e-04	
102	1.750000e+00	4.507448e-04	
103	1.800000e+00	4.513197e-04	
104	1.850000e+00	4.518842e-04	
105	1.900000e+00	4.524393e-04	
106	1.950000e+00	4.529858e-04	
107	2.000000e+00	4.535245e-04	
108	2.050000e+00	4.540560e-04	
109	2.100000e+00	4.545812e-04	
110	2.150000e+00	4.551009e-04	
111	2.200000e+00	4.556158e-04	
112	2.250000e+00	4.561268e-04	

Index   v-sweep         -i(vds)         
--------------------------------------------------------------------------------
113	2.300000e+00	4.566350e-04	
114	2.350000e+00	4.571413e-04	
115	2.400000e+00	4.576470e-04	
116	2.450000e+00	4.581535e-04	
117	2.500000e+00	4.586621e-04	
118	2.550000e+00	4.591747e-04	
119	2.600000e+00	4.596930e-04	
120	2.650000e+00	4.602193e-04	
121	2.700000e+00	4.607558e-04	
122	2.750000e+00	4.613052e-04	
123	2.800000e+00	4.618704e-04	
124	2.850000e+00	4.624546e-04	
125	2.900000e+00	4.630611e-04	
126	2.950000e+00	4.636940e-04	
127	3.000000e+00	4.643573e-04	
128	3.050000e+00	4.650555e-04	
129	3.100000e+00	4.657937e-04	
130	3.150000e+00	4.665770e-04	
131	3.200000e+00	4.674111e-04	
132	3.250000e+00	4.683022e-04	
133	3.300000e+00	4.692568e-04	
134	0.000000e+00	-6.96737e-30	
135	5.000000e-02	1.260547e-04	
136	1.000000e-01	2.431270e-04	
137	1.500000e-01	3.515248e-04	
138	2.000000e-01	4.515433e-04	
139	2.500000e-01	5.434652e-04	
140	3.000000e-01	6.275605e-04	
141	3.500000e-01	7.040866e-04	
142	4.000000e-01	7.732868e-04	
143	4.500000e-01	8.353885e-04	
144	5.000000e-01	8.905997e-04	
145	5.500000e-01	9.391027e-04	
146	6.000000e-01	9.810447e-04	
147	6.500000e-01	1.016532e-03	
148	7.000000e-01	1.045650e-03	
149	7.500000e-01	1.068592e-03	
150	8.000000e-01	1.085900e-03	
151	8.500000e-01	1.098609e-03	
152	9.000000e-01	1.107971e-03	
153	9.500000e-01	1.115058e-03	
154	1.000000e+00	1.120621e-03	
155	1.050000e+00	1.125147e-03	
156	1.100000e+00	1.128942e-03	
157	1.150000e+00	1.132206e-03	
158	1.200000e+00	1.135071e-03	
159	1.250000e+00	1.137629e-03	
160	1.300000e+00	1.139944e-03	
161	1.350000e+00	1.142062e-03	
162	1.400000e+00	1.144020e-03	
163	1.450000e+00	1.145844e-03	
164	1.500000e+00	1.147553e-03	
165	1.550000e+00	1.149166e-03	
166	1.600000e+00	1.150695e-03	
167	1.650000e+00	1.152151e-03	
168	1.700000e+00	1.153543e-03	
169	1.750000e+00	1.154878e-03	
170	1.800000e+00	1.156162e-03	

Index   v-sweep         -i(vds)         
--------------------------------------------------------------------------------
171	1.850000e+00	1.157401e-03	
172	1.900000e+00	1.158599e-03	
173	1.950000e+00	1.159760e-03	
174	2.000000e+00	1.160887e-03	
175	2.050000e+00	1.161984e-03	
176	2.100000e+00	1.163052e-03	
177	2.150000e+00	1.164095e-03	
178	2.200000e+00	1.165115e-03	
179	2.250000e+00	1.166113e-03	
180	2.300000e+00	1.167091e-03	
181	2.350000e+00	1.168052e-03	
182	2.400000e+00	1.168998e-03	
183	2.450000e+00	1.169930e-03	
184	2.500000e+00	1.170850e-03	
185	2.550000e+00	1.171761e-03	
186	2.600000e+00	1.172665e-03	
187	2.650000e+00	1.173565e-03	
188	2.700000e+00	1.174465e-03	
189	2.750000e+00	1.175367e-03	
190	2.800000e+00	1.176275e-03	
191	2.850000e+00	1.177194e-03	
192	2.900000e+00	1.178129e-03	
193	2.950000e+00	1.179085e-03	
194	3.000000e+00	1.180069e-03	
195	3.050000e+00	1.181086e-03	
196	3.100000e+00	1.182145e-03	
197	3.150000e+00	1.183253e-03	
198	3.200000e+00	1.184420e-03	
199	3.250000e+00	1.185655e-03	
200	3.300000e+00	1.186970e-03	
201	0.000000e+00	-2.37672e-29	
202	5.000000e-02	1.604928e-04	
203	1.000000e-01	3.124940e-04	
204	1.500000e-01	4.562471e-04	
205	2.000000e-01	5.919876e-04	
206	2.500000e-01	7.199434e-04	
207	3.000000e-01	8.403342e-04	
208	3.500000e-01	9.533723e-04	
209	4.000000e-01	1.059262e-03	
210	4.500000e-01	1.158200e-03	
211	5.000000e-01	1.250373e-03	
212	5.500000e-01	1.335961e-03	
213	6.000000e-01	1.415131e-03	
214	6.500000e-01	1.488038e-03	
215	7.000000e-01	1.554819e-03	
216	7.500000e-01	1.615587e-03	
217	8.000000e-01	1.670420e-03	
218	8.500000e-01	1.719347e-03	
219	9.000000e-01	1.762328e-03	
220	9.500000e-01	1.799262e-03	
221	1.000000e+00	1.830069e-03	
222	1.050000e+00	1.854891e-03	
223	1.100000e+00	1.874312e-03	
224	1.150000e+00	1.889319e-03	
225	1.200000e+00	1.901000e-03	
226	1.250000e+00	1.910279e-03	
227	1.300000e+00	1.917837e-03	
228	1.350000e+00	1.924149e-03	

Index   v-sweep         -i(vds)         
--------------------------------------------------------------------------------
229	1.400000e+00	1.929540e-03	
230	1.450000e+00	1.934233e-03	
231	1.500000e+00	1.938384e-03	
232	1.550000e+00	1.942108e-03	
233	1.600000e+00	1.945486e-03	
234	1.650000e+00	1.948581e-03	
235	1.700000e+00	1.951441e-03	
236	1.750000e+00	1.954102e-03	
237	1.800000e+00	1.956594e-03	
238	1.850000e+00	1.958939e-03	
239	1.900000e+00	1.961158e-03	
240	1.950000e+00	1.963266e-03	
241	2.000000e+00	1.965275e-03	
242	2.050000e+00	1.967196e-03	
243	2.100000e+00	1.969040e-03	
244	2.150000e+00	1.970813e-03	
245	2.200000e+00	1.972523e-03	
246	2.250000e+00	1.974175e-03	
247	2.300000e+00	1.975775e-03	
248	2.350000e+00	1.977328e-03	
249	2.400000e+00	1.978836e-03	
250	2.450000e+00	1.980305e-03	
251	2.500000e+00	1.981737e-03	
252	2.550000e+00	1.983135e-03	
253	2.600000e+00	1.984504e-03	
254	2.650000e+00	1.985846e-03	
255	2.700000e+00	1.987165e-03	
256	2.750000e+00	1.988464e-03	
257	2.800000e+00	1.989746e-03	
258	2.850000e+00	1.991017e-03	
259	2.900000e+00	1.992279e-03	
260	2.950000e+00	1.993539e-03	
261	3.000000e+00	1.994803e-03	
262	3.050000e+00	1.996075e-03	
263	3.100000e+00	1.997364e-03	
264	3.150000e+00	1.998678e-03	
265	3.200000e+00	2.000025e-03	
266	3.250000e+00	2.001415e-03	
267	3.300000e+00	2.002859e-03	
268	0.000000e+00	-1.32482e-20	
269	5.000000e-02	1.846044e-04	
270	1.000000e-01	3.613843e-04	
271	1.500000e-01	5.305310e-04	
272	2.000000e-01	6.922308e-04	
273	2.500000e-01	8.466647e-04	
274	3.000000e-01	9.940086e-04	
275	3.500000e-01	1.134434e-03	
276	4.000000e-01	1.268106e-03	
277	4.500000e-01	1.395187e-03	
278	5.000000e-01	1.515832e-03	
279	5.500000e-01	1.630194e-03	
280	6.000000e-01	1.738417e-03	
281	6.500000e-01	1.840642e-03	
282	7.000000e-01	1.937003e-03	
283	7.500000e-01	2.027626e-03	
284	8.000000e-01	2.112631e-03	
285	8.500000e-01	2.192124e-03	
286	9.000000e-01	2.266199e-03	

Index   v-sweep         -i(vds)         
--------------------------------------------------------------------------------
287	9.500000e-01	2.334927e-03	
288	1.000000e+00	2.398354e-03	
289	1.050000e+00	2.456478e-03	
290	1.100000e+00	2.509242e-03	
291	1.150000e+00	2.556508e-03	
292	1.200000e+00	2.598069e-03	
293	1.250000e+00	2.633719e-03	
294	1.300000e+00	2.663428e-03	
295	1.350000e+00	2.687547e-03	
296	1.400000e+00	2.706835e-03	
297	1.450000e+00	2.722252e-03	
298	1.500000e+00	2.734719e-03	
299	1.550000e+00	2.744982e-03	
300	1.600000e+00	2.753599e-03	
301	1.650000e+00	2.760970e-03	
302	1.700000e+00	2.767384e-03	
303	1.750000e+00	2.773049e-03	
304	1.800000e+00	2.778116e-03	
305	1.850000e+00	2.782700e-03	
306	1.900000e+00	2.786885e-03	
307	1.950000e+00	2.790739e-03	
308	2.000000e+00	2.794312e-03	
309	2.050000e+00	2.797645e-03	
310	2.100000e+00	2.800773e-03	
311	2.150000e+00	2.803720e-03	
312	2.200000e+00	2.806511e-03	
313	2.250000e+00	2.809162e-03	
314	2.300000e+00	2.811691e-03	
315	2.350000e+00	2.814108e-03	
316	2.400000e+00	2.816427e-03	
317	2.450000e+00	2.818656e-03	
318	2.500000e+00	2.820804e-03	
319	2.550000e+00	2.822878e-03	
320	2.600000e+00	2.824885e-03	
321	2.650000e+00	2.826830e-03	
322	2.700000e+00	2.828719e-03	
323	2.750000e+00	2.830557e-03	
324	2.800000e+00	2.832348e-03	
325	2.850000e+00	2.834096e-03	
326	2.900000e+00	2.835808e-03	
327	2.950000e+00	2.837486e-03	
328	3.000000e+00	2.839136e-03	
329	3.050000e+00	2.840763e-03	
330	3.100000e+00	2.842373e-03	
331	3.150000e+00	2.843972e-03	
332	3.200000e+00	2.845567e-03	
333	3.250000e+00	2.847167e-03	
334	3.300000e+00	2.848780e-03	
335	0.000000e+00	-2.41572e-20	
336	5.000000e-02	2.013309e-04	
337	1.000000e-01	3.955356e-04	
338	1.500000e-01	5.827648e-04	
339	2.000000e-01	7.631657e-04	
340	2.500000e-01	9.368823e-04	
341	3.000000e-01	1.104055e-03	
342	3.500000e-01	1.264821e-03	
343	4.000000e-01	1.419315e-03	
344	4.500000e-01	1.567667e-03	

Index   v-sweep         -i(vds)         
--------------------------------------------------------------------------------
345	5.000000e-01	1.710004e-03	
346	5.500000e-01	1.846452e-03	
347	6.000000e-01	1.977130e-03	
348	6.500000e-01	2.102158e-03	
349	7.000000e-01	2.221648e-03	
350	7.500000e-01	2.335712e-03	
351	8.000000e-01	2.444456e-03	
352	8.500000e-01	2.547984e-03	
353	9.000000e-01	2.646393e-03	
354	9.500000e-01	2.739775e-03	
355	1.000000e+00	2.828217e-03	
356	1.050000e+00	2.911795e-03	
357	1.100000e+00	2.990574e-03	
358	1.150000e+00	3.064603e-03	
359	1.200000e+00	3.133907e-03	
360	1.250000e+00	3.198480e-03	
361	1.300000e+00	3.258267e-03	
362	1.350000e+00	3.313149e-03	
363	1.400000e+00	3.362928e-03	
364	1.450000e+00	3.407338e-03	
365	1.500000e+00	3.446115e-03	
366	1.550000e+00	3.479143e-03	
367	1.600000e+00	3.506636e-03	
368	1.650000e+00	3.529180e-03	
369	1.700000e+00	3.547596e-03	
370	1.750000e+00	3.562739e-03	
371	1.800000e+00	3.575349e-03	
372	1.850000e+00	3.586016e-03	
373	1.900000e+00	3.595182e-03	
374	1.950000e+00	3.603177e-03	
375	2.000000e+00	3.610245e-03	
376	2.050000e+00	3.616568e-03	
377	2.100000e+00	3.622282e-03	
378	2.150000e+00	3.627495e-03	
379	2.200000e+00	3.632287e-03	
380	2.250000e+00	3.636723e-03	
381	2.300000e+00	3.640854e-03	
382	2.350000e+00	3.644723e-03	
383	2.400000e+00	3.648362e-03	
384	2.450000e+00	3.651801e-03	
385	2.500000e+00	3.655062e-03	
386	2.550000e+00	3.658165e-03	
387	2.600000e+00	3.661127e-03	
388	2.650000e+00	3.663963e-03	
389	2.700000e+00	3.666684e-03	
390	2.750000e+00	3.669301e-03	
391	2.800000e+00	3.671823e-03	
392	2.850000e+00	3.674260e-03	
393	2.900000e+00	3.676617e-03	
394	2.950000e+00	3.678903e-03	
395	3.000000e+00	3.681123e-03	
396	3.050000e+00	3.683283e-03	
397	3.100000e+00	3.685389e-03	
398	3.150000e+00	3.687447e-03	
399	3.200000e+00	3.689463e-03	
400	3.250000e+00	3.691443e-03	
401	3.300000e+00	3.693394e-03	
Note: No ".plot", ".print", or ".fourier" lines; no simulations run
