
Note: Compatibility modes selected: hs

Warning: m=xx on .subckt line will override multiplier m hierarchy!


Circuit: ***************************

Doing analysis at TEMP = -40.000000 and TNOM = -40.000000


No. of Data Rows : 402
                          ***************************
                          DC transfer characteristic  Mon Jan  9 13:58:11  2023
--------------------------------------------------------------------------------
Index   v-sweep         -i(vds)         
--------------------------------------------------------------------------------
0	0.000000e+00	2.500537e-24	
1	5.000000e-02	3.861057e-07	
2	1.000000e-01	4.891640e-07	
3	1.500000e-01	4.958485e-07	
4	2.000000e-01	4.970345e-07	
5	2.500000e-01	4.976904e-07	
6	3.000000e-01	4.982068e-07	
7	3.500000e-01	4.986649e-07	
8	4.000000e-01	4.990920e-07	
9	4.500000e-01	4.995000e-07	
10	5.000000e-01	4.998949e-07	
11	5.500000e-01	5.002804e-07	
12	6.000000e-01	5.006587e-07	
13	6.500000e-01	5.010313e-07	
14	7.000000e-01	5.013993e-07	
15	7.500000e-01	5.017635e-07	
16	8.000000e-01	5.021246e-07	
17	8.500000e-01	5.024829e-07	
18	9.000000e-01	5.028389e-07	
19	9.500000e-01	5.031928e-07	
20	1.000000e+00	5.035449e-07	
21	1.050000e+00	5.038954e-07	
22	1.100000e+00	5.042445e-07	
23	1.150000e+00	5.045922e-07	
24	1.200000e+00	5.049388e-07	
25	1.250000e+00	5.052844e-07	
26	1.300000e+00	5.056289e-07	
27	1.350000e+00	5.059726e-07	
28	1.400000e+00	5.063155e-07	
29	1.450000e+00	5.066576e-07	
30	1.500000e+00	5.069991e-07	
31	1.550000e+00	5.073401e-07	
32	1.600000e+00	5.076805e-07	
33	1.650000e+00	5.080206e-07	
34	1.700000e+00	5.083606e-07	
35	1.750000e+00	5.087005e-07	
36	1.800000e+00	5.090406e-07	
37	1.850000e+00	5.093812e-07	
38	1.900000e+00	5.097227e-07	
39	1.950000e+00	5.100656e-07	
40	2.000000e+00	5.104104e-07	
41	2.050000e+00	5.107579e-07	
42	2.100000e+00	5.111088e-07	
43	2.150000e+00	5.114643e-07	
44	2.200000e+00	5.118254e-07	
45	2.250000e+00	5.121935e-07	
46	2.300000e+00	5.125702e-07	
47	2.350000e+00	5.129574e-07	
48	2.400000e+00	5.133571e-07	
49	2.450000e+00	5.137715e-07	
50	2.500000e+00	5.142033e-07	
51	2.550000e+00	5.146553e-07	
52	2.600000e+00	5.151306e-07	
53	2.650000e+00	5.156327e-07	
54	2.700000e+00	5.161653e-07	

Index   v-sweep         -i(vds)         
--------------------------------------------------------------------------------
55	2.750000e+00	5.167324e-07	
56	2.800000e+00	5.173383e-07	
57	2.850000e+00	5.179878e-07	
58	2.900000e+00	5.186858e-07	
59	2.950000e+00	5.194375e-07	
60	3.000000e+00	5.202486e-07	
61	3.050000e+00	5.211249e-07	
62	3.100000e+00	5.220725e-07	
63	3.150000e+00	5.230981e-07	
64	3.200000e+00	5.242082e-07	
65	3.250000e+00	5.254099e-07	
66	3.300000e+00	5.267105e-07	
67	0.000000e+00	1.043256e-21	
68	5.000000e-02	3.305120e-06	
69	1.000000e-01	6.199997e-06	
70	1.500000e-01	8.685993e-06	
71	2.000000e-01	1.076454e-05	
72	2.500000e-01	1.243725e-05	
73	3.000000e-01	1.370637e-05	
74	3.500000e-01	1.457665e-05	
75	4.000000e-01	1.506640e-05	
76	4.500000e-01	1.525679e-05	
77	5.000000e-01	1.531221e-05	
78	5.500000e-01	1.533305e-05	
79	6.000000e-01	1.534461e-05	
80	6.500000e-01	1.535269e-05	
81	7.000000e-01	1.535911e-05	
82	7.500000e-01	1.536457e-05	
83	8.000000e-01	1.536942e-05	
84	8.500000e-01	1.537385e-05	
85	9.000000e-01	1.537797e-05	
86	9.500000e-01	1.538185e-05	
87	1.000000e+00	1.538554e-05	
88	1.050000e+00	1.538909e-05	
89	1.100000e+00	1.539251e-05	
90	1.150000e+00	1.539582e-05	
91	1.200000e+00	1.539904e-05	
92	1.250000e+00	1.540219e-05	
93	1.300000e+00	1.540527e-05	
94	1.350000e+00	1.540829e-05	
95	1.400000e+00	1.541126e-05	
96	1.450000e+00	1.541418e-05	
97	1.500000e+00	1.541706e-05	
98	1.550000e+00	1.541990e-05	
99	1.600000e+00	1.542271e-05	
100	1.650000e+00	1.542548e-05	
101	1.700000e+00	1.542823e-05	
102	1.750000e+00	1.543095e-05	
103	1.800000e+00	1.543365e-05	
104	1.850000e+00	1.543633e-05	
105	1.900000e+00	1.543899e-05	
106	1.950000e+00	1.544163e-05	
107	2.000000e+00	1.544426e-05	
108	2.050000e+00	1.544689e-05	
109	2.100000e+00	1.544951e-05	
110	2.150000e+00	1.545214e-05	
111	2.200000e+00	1.545479e-05	
112	2.250000e+00	1.545747e-05	

Index   v-sweep         -i(vds)         
--------------------------------------------------------------------------------
113	2.300000e+00	1.546019e-05	
114	2.350000e+00	1.546297e-05	
115	2.400000e+00	1.546583e-05	
116	2.450000e+00	1.546880e-05	
117	2.500000e+00	1.547191e-05	
118	2.550000e+00	1.547519e-05	
119	2.600000e+00	1.547870e-05	
120	2.650000e+00	1.548247e-05	
121	2.700000e+00	1.548656e-05	
122	2.750000e+00	1.549103e-05	
123	2.800000e+00	1.549596e-05	
124	2.850000e+00	1.550142e-05	
125	2.900000e+00	1.550750e-05	
126	2.950000e+00	1.551429e-05	
127	3.000000e+00	1.552189e-05	
128	3.050000e+00	1.553043e-05	
129	3.100000e+00	1.554001e-05	
130	3.150000e+00	1.555078e-05	
131	3.200000e+00	1.556286e-05	
132	3.250000e+00	1.557641e-05	
133	3.300000e+00	1.559159e-05	
134	0.000000e+00	-9.18747e-22	
135	5.000000e-02	5.986100e-06	
136	1.000000e-01	1.158691e-05	
137	1.500000e-01	1.680356e-05	
138	2.000000e-01	2.163721e-05	
139	2.500000e-01	2.608900e-05	
140	3.000000e-01	3.016006e-05	
141	3.500000e-01	3.385154e-05	
142	4.000000e-01	3.716461e-05	
143	4.500000e-01	4.010043e-05	
144	5.000000e-01	4.266022e-05	
145	5.500000e-01	4.484531e-05	
146	6.000000e-01	4.665725e-05	
147	6.500000e-01	4.809825e-05	
148	7.000000e-01	4.917258e-05	
149	7.500000e-01	4.989218e-05	
150	8.000000e-01	5.029654e-05	
151	8.500000e-01	5.048278e-05	
152	9.000000e-01	5.056644e-05	
153	9.500000e-01	5.061125e-05	
154	1.000000e+00	5.064025e-05	
155	1.050000e+00	5.066161e-05	
156	1.100000e+00	5.067872e-05	
157	1.150000e+00	5.069316e-05	
158	1.200000e+00	5.070580e-05	
159	1.250000e+00	5.071716e-05	
160	1.300000e+00	5.072756e-05	
161	1.350000e+00	5.073720e-05	
162	1.400000e+00	5.074625e-05	
163	1.450000e+00	5.075482e-05	
164	1.500000e+00	5.076298e-05	
165	1.550000e+00	5.077079e-05	
166	1.600000e+00	5.077832e-05	
167	1.650000e+00	5.078559e-05	
168	1.700000e+00	5.079264e-05	
169	1.750000e+00	5.079950e-05	
170	1.800000e+00	5.080618e-05	

Index   v-sweep         -i(vds)         
--------------------------------------------------------------------------------
171	1.850000e+00	5.081271e-05	
172	1.900000e+00	5.081910e-05	
173	1.950000e+00	5.082537e-05	
174	2.000000e+00	5.083152e-05	
175	2.050000e+00	5.083757e-05	
176	2.100000e+00	5.084353e-05	
177	2.150000e+00	5.084940e-05	
178	2.200000e+00	5.085520e-05	
179	2.250000e+00	5.086092e-05	
180	2.300000e+00	5.086659e-05	
181	2.350000e+00	5.087222e-05	
182	2.400000e+00	5.087781e-05	
183	2.450000e+00	5.088338e-05	
184	2.500000e+00	5.088897e-05	
185	2.550000e+00	5.089459e-05	
186	2.600000e+00	5.090027e-05	
187	2.650000e+00	5.090607e-05	
188	2.700000e+00	5.091204e-05	
189	2.750000e+00	5.091823e-05	
190	2.800000e+00	5.092474e-05	
191	2.850000e+00	5.093164e-05	
192	2.900000e+00	5.093905e-05	
193	2.950000e+00	5.094711e-05	
194	3.000000e+00	5.095595e-05	
195	3.050000e+00	5.096575e-05	
196	3.100000e+00	5.097669e-05	
197	3.150000e+00	5.098900e-05	
198	3.200000e+00	5.100292e-05	
199	3.250000e+00	5.101872e-05	
200	3.300000e+00	5.103669e-05	
201	0.000000e+00	-1.73489e-20	
202	5.000000e-02	8.141315e-06	
203	1.000000e-01	1.593606e-05	
204	1.500000e-01	2.338520e-05	
205	2.000000e-01	3.048968e-05	
206	2.500000e-01	3.725044e-05	
207	3.000000e-01	4.366844e-05	
208	3.500000e-01	4.974462e-05	
209	4.000000e-01	5.547991e-05	
210	4.500000e-01	6.087526e-05	
211	5.000000e-01	6.593161e-05	
212	5.500000e-01	7.064989e-05	
213	6.000000e-01	7.503104e-05	
214	6.500000e-01	7.907600e-05	
215	7.000000e-01	8.278571e-05	
216	7.500000e-01	8.616110e-05	
217	8.000000e-01	8.920315e-05	
218	8.500000e-01	9.191283e-05	
219	9.000000e-01	9.429117e-05	
220	9.500000e-01	9.633933e-05	
221	1.000000e+00	9.805871e-05	
222	1.050000e+00	9.945143e-05	
223	1.100000e+00	1.005218e-04	
224	1.150000e+00	1.012807e-04	
225	1.200000e+00	1.017596e-04	
226	1.250000e+00	1.020273e-04	
227	1.300000e+00	1.021725e-04	
228	1.350000e+00	1.022583e-04	

Index   v-sweep         -i(vds)         
--------------------------------------------------------------------------------
229	1.400000e+00	1.023156e-04	
230	1.450000e+00	1.023579e-04	
231	1.500000e+00	1.023914e-04	
232	1.550000e+00	1.024192e-04	
233	1.600000e+00	1.024433e-04	
234	1.650000e+00	1.024645e-04	
235	1.700000e+00	1.024837e-04	
236	1.750000e+00	1.025013e-04	
237	1.800000e+00	1.025176e-04	
238	1.850000e+00	1.025328e-04	
239	1.900000e+00	1.025472e-04	
240	1.950000e+00	1.025609e-04	
241	2.000000e+00	1.025739e-04	
242	2.050000e+00	1.025864e-04	
243	2.100000e+00	1.025984e-04	
244	2.150000e+00	1.026101e-04	
245	2.200000e+00	1.026213e-04	
246	2.250000e+00	1.026322e-04	
247	2.300000e+00	1.026429e-04	
248	2.350000e+00	1.026533e-04	
249	2.400000e+00	1.026634e-04	
250	2.450000e+00	1.026733e-04	
251	2.500000e+00	1.026830e-04	
252	2.550000e+00	1.026926e-04	
253	2.600000e+00	1.027020e-04	
254	2.650000e+00	1.027112e-04	
255	2.700000e+00	1.027203e-04	
256	2.750000e+00	1.027293e-04	
257	2.800000e+00	1.027383e-04	
258	2.850000e+00	1.027472e-04	
259	2.900000e+00	1.027561e-04	
260	2.950000e+00	1.027651e-04	
261	3.000000e+00	1.027743e-04	
262	3.050000e+00	1.027836e-04	
263	3.100000e+00	1.027933e-04	
264	3.150000e+00	1.028034e-04	
265	3.200000e+00	1.028141e-04	
266	3.250000e+00	1.028256e-04	
267	3.300000e+00	1.028382e-04	
268	0.000000e+00	4.436370e-20	
269	5.000000e-02	9.750033e-06	
270	1.000000e-01	1.919562e-05	
271	1.500000e-01	2.833753e-05	
272	2.000000e-01	3.717652e-05	
273	2.500000e-01	4.571338e-05	
274	3.000000e-01	5.394884e-05	
275	3.500000e-01	6.188369e-05	
276	4.000000e-01	6.951868e-05	
277	4.500000e-01	7.685456e-05	
278	5.000000e-01	8.389210e-05	
279	5.500000e-01	9.063205e-05	
280	6.000000e-01	9.707515e-05	
281	6.500000e-01	1.032222e-04	
282	7.000000e-01	1.090738e-04	
283	7.500000e-01	1.146309e-04	
284	8.000000e-01	1.198942e-04	
285	8.500000e-01	1.248643e-04	
286	9.000000e-01	1.295421e-04	

Index   v-sweep         -i(vds)         
--------------------------------------------------------------------------------
287	9.500000e-01	1.339283e-04	
288	1.000000e+00	1.380236e-04	
289	1.050000e+00	1.418287e-04	
290	1.100000e+00	1.453445e-04	
291	1.150000e+00	1.485716e-04	
292	1.200000e+00	1.515109e-04	
293	1.250000e+00	1.541629e-04	
294	1.300000e+00	1.565286e-04	
295	1.350000e+00	1.586088e-04	
296	1.400000e+00	1.604043e-04	
297	1.450000e+00	1.619166e-04	
298	1.500000e+00	1.631475e-04	
299	1.550000e+00	1.641021e-04	
300	1.600000e+00	1.647926e-04	
301	1.650000e+00	1.652505e-04	
302	1.700000e+00	1.655333e-04	
303	1.750000e+00	1.657075e-04	
304	1.800000e+00	1.658217e-04	
305	1.850000e+00	1.659028e-04	
306	1.900000e+00	1.659646e-04	
307	1.950000e+00	1.660144e-04	
308	2.000000e+00	1.660561e-04	
309	2.050000e+00	1.660922e-04	
310	2.100000e+00	1.661241e-04	
311	2.150000e+00	1.661528e-04	
312	2.200000e+00	1.661790e-04	
313	2.250000e+00	1.662032e-04	
314	2.300000e+00	1.662257e-04	
315	2.350000e+00	1.662469e-04	
316	2.400000e+00	1.662669e-04	
317	2.450000e+00	1.662860e-04	
318	2.500000e+00	1.663041e-04	
319	2.550000e+00	1.663215e-04	
320	2.600000e+00	1.663383e-04	
321	2.650000e+00	1.663545e-04	
322	2.700000e+00	1.663701e-04	
323	2.750000e+00	1.663853e-04	
324	2.800000e+00	1.664001e-04	
325	2.850000e+00	1.664144e-04	
326	2.900000e+00	1.664285e-04	
327	2.950000e+00	1.664422e-04	
328	3.000000e+00	1.664556e-04	
329	3.050000e+00	1.664687e-04	
330	3.100000e+00	1.664817e-04	
331	3.150000e+00	1.664944e-04	
332	3.200000e+00	1.665070e-04	
333	3.250000e+00	1.665195e-04	
334	3.300000e+00	1.665320e-04	
335	0.000000e+00	4.654495e-20	
336	5.000000e-02	1.086483e-05	
337	1.000000e-01	2.146634e-05	
338	1.500000e-01	3.180513e-05	
339	2.000000e-01	4.188181e-05	
340	2.500000e-01	5.169697e-05	
341	3.000000e-01	6.125122e-05	
342	3.500000e-01	7.054517e-05	
343	4.000000e-01	7.957940e-05	
344	4.500000e-01	8.835452e-05	

Index   v-sweep         -i(vds)         
--------------------------------------------------------------------------------
345	5.000000e-01	9.687112e-05	
346	5.500000e-01	1.051298e-04	
347	6.000000e-01	1.131312e-04	
348	6.500000e-01	1.208758e-04	
349	7.000000e-01	1.283643e-04	
350	7.500000e-01	1.355972e-04	
351	8.000000e-01	1.425752e-04	
352	8.500000e-01	1.492989e-04	
353	9.000000e-01	1.557687e-04	
354	9.500000e-01	1.619853e-04	
355	1.000000e+00	1.679494e-04	
356	1.050000e+00	1.736614e-04	
357	1.100000e+00	1.791219e-04	
358	1.150000e+00	1.843316e-04	
359	1.200000e+00	1.892910e-04	
360	1.250000e+00	1.940007e-04	
361	1.300000e+00	1.984613e-04	
362	1.350000e+00	2.026733e-04	
363	1.400000e+00	2.066373e-04	
364	1.450000e+00	2.103539e-04	
365	1.500000e+00	2.138237e-04	
366	1.550000e+00	2.170472e-04	
367	1.600000e+00	2.200250e-04	
368	1.650000e+00	2.227576e-04	
369	1.700000e+00	2.252456e-04	
370	1.750000e+00	2.274896e-04	
371	1.800000e+00	2.294901e-04	
372	1.850000e+00	2.312477e-04	
373	1.900000e+00	2.327631e-04	
374	1.950000e+00	2.340375e-04	
375	2.000000e+00	2.350731e-04	
376	2.050000e+00	2.358759e-04	
377	2.100000e+00	2.364616e-04	
378	2.150000e+00	2.368631e-04	
379	2.200000e+00	2.371298e-04	
380	2.250000e+00	2.373100e-04	
381	2.300000e+00	2.374382e-04	
382	2.350000e+00	2.375347e-04	
383	2.400000e+00	2.376112e-04	
384	2.450000e+00	2.376743e-04	
385	2.500000e+00	2.377280e-04	
386	2.550000e+00	2.377749e-04	
387	2.600000e+00	2.378165e-04	
388	2.650000e+00	2.378542e-04	
389	2.700000e+00	2.378886e-04	
390	2.750000e+00	2.379205e-04	
391	2.800000e+00	2.379501e-04	
392	2.850000e+00	2.379780e-04	
393	2.900000e+00	2.380042e-04	
394	2.950000e+00	2.380292e-04	
395	3.000000e+00	2.380530e-04	
396	3.050000e+00	2.380757e-04	
397	3.100000e+00	2.380976e-04	
398	3.150000e+00	2.381186e-04	
399	3.200000e+00	2.381390e-04	
400	3.250000e+00	2.381587e-04	
401	3.300000e+00	2.381778e-04	
Note: No ".plot", ".print", or ".fourier" lines; no simulations run
