
Note: Compatibility modes selected: hs

Warning: m=xx on .subckt line will override multiplier m hierarchy!


Circuit: ***************************

Doing analysis at TEMP = 25.000000 and TNOM = 25.000000


No. of Data Rows : 402
                          ***************************
                          DC transfer characteristic  Mon Jan  9 13:58:11  2023
--------------------------------------------------------------------------------
Index   v-sweep         -i(vds)         
--------------------------------------------------------------------------------
0	0.000000e+00	8.451155e-25	
1	5.000000e-02	9.064293e-08	
2	1.000000e-01	1.434918e-07	
3	1.500000e-01	1.621627e-07	
4	2.000000e-01	1.647602e-07	
5	2.500000e-01	1.652745e-07	
6	3.000000e-01	1.655325e-07	
7	3.500000e-01	1.657207e-07	
8	4.000000e-01	1.658787e-07	
9	4.500000e-01	1.660200e-07	
10	5.000000e-01	1.661509e-07	
11	5.500000e-01	1.662743e-07	
12	6.000000e-01	1.663924e-07	
13	6.500000e-01	1.665062e-07	
14	7.000000e-01	1.666168e-07	
15	7.500000e-01	1.667246e-07	
16	8.000000e-01	1.668301e-07	
17	8.500000e-01	1.669337e-07	
18	9.000000e-01	1.670357e-07	
19	9.500000e-01	1.671362e-07	
20	1.000000e+00	1.672355e-07	
21	1.050000e+00	1.673337e-07	
22	1.100000e+00	1.674308e-07	
23	1.150000e+00	1.675271e-07	
24	1.200000e+00	1.676226e-07	
25	1.250000e+00	1.677174e-07	
26	1.300000e+00	1.678115e-07	
27	1.350000e+00	1.679050e-07	
28	1.400000e+00	1.679979e-07	
29	1.450000e+00	1.680904e-07	
30	1.500000e+00	1.681823e-07	
31	1.550000e+00	1.682739e-07	
32	1.600000e+00	1.683652e-07	
33	1.650000e+00	1.684561e-07	
34	1.700000e+00	1.685469e-07	
35	1.750000e+00	1.686375e-07	
36	1.800000e+00	1.687281e-07	
37	1.850000e+00	1.688189e-07	
38	1.900000e+00	1.689100e-07	
39	1.950000e+00	1.690017e-07	
40	2.000000e+00	1.690943e-07	
41	2.050000e+00	1.691882e-07	
42	2.100000e+00	1.692837e-07	
43	2.150000e+00	1.693815e-07	
44	2.200000e+00	1.694822e-07	
45	2.250000e+00	1.695865e-07	
46	2.300000e+00	1.696953e-07	
47	2.350000e+00	1.698096e-07	
48	2.400000e+00	1.699305e-07	
49	2.450000e+00	1.700593e-07	
50	2.500000e+00	1.701974e-07	
51	2.550000e+00	1.703466e-07	
52	2.600000e+00	1.705084e-07	
53	2.650000e+00	1.706849e-07	
54	2.700000e+00	1.708782e-07	

Index   v-sweep         -i(vds)         
--------------------------------------------------------------------------------
55	2.750000e+00	1.710907e-07	
56	2.800000e+00	1.713247e-07	
57	2.850000e+00	1.715830e-07	
58	2.900000e+00	1.718685e-07	
59	2.950000e+00	1.721841e-07	
60	3.000000e+00	1.725332e-07	
61	3.050000e+00	1.729190e-07	
62	3.100000e+00	1.733453e-07	
63	3.150000e+00	1.738158e-07	
64	3.200000e+00	1.743343e-07	
65	3.250000e+00	1.749051e-07	
66	3.300000e+00	1.755323e-07	
67	0.000000e+00	-3.42319e-22	
68	5.000000e-02	4.198464e-07	
69	1.000000e-01	7.951426e-07	
70	1.500000e-01	1.126077e-06	
71	2.000000e-01	1.412842e-06	
72	2.500000e-01	1.655635e-06	
73	3.000000e-01	1.854676e-06	
74	3.500000e-01	2.010243e-06	
75	4.000000e-01	2.122824e-06	
76	4.500000e-01	2.193814e-06	
77	5.000000e-01	2.228646e-06	
78	5.500000e-01	2.241550e-06	
79	6.000000e-01	2.246643e-06	
80	6.500000e-01	2.249399e-06	
81	7.000000e-01	2.251280e-06	
82	7.500000e-01	2.252739e-06	
83	8.000000e-01	2.253956e-06	
84	8.500000e-01	2.255016e-06	
85	9.000000e-01	2.255968e-06	
86	9.500000e-01	2.256839e-06	
87	1.000000e+00	2.257649e-06	
88	1.050000e+00	2.258409e-06	
89	1.100000e+00	2.259129e-06	
90	1.150000e+00	2.259816e-06	
91	1.200000e+00	2.260476e-06	
92	1.250000e+00	2.261111e-06	
93	1.300000e+00	2.261726e-06	
94	1.350000e+00	2.262322e-06	
95	1.400000e+00	2.262903e-06	
96	1.450000e+00	2.263469e-06	
97	1.500000e+00	2.264023e-06	
98	1.550000e+00	2.264565e-06	
99	1.600000e+00	2.265097e-06	
100	1.650000e+00	2.265620e-06	
101	1.700000e+00	2.266134e-06	
102	1.750000e+00	2.266641e-06	
103	1.800000e+00	2.267140e-06	
104	1.850000e+00	2.267633e-06	
105	1.900000e+00	2.268120e-06	
106	1.950000e+00	2.268602e-06	
107	2.000000e+00	2.269080e-06	
108	2.050000e+00	2.269555e-06	
109	2.100000e+00	2.270028e-06	
110	2.150000e+00	2.270501e-06	
111	2.200000e+00	2.270975e-06	
112	2.250000e+00	2.271454e-06	

Index   v-sweep         -i(vds)         
--------------------------------------------------------------------------------
113	2.300000e+00	2.271940e-06	
114	2.350000e+00	2.272438e-06	
115	2.400000e+00	2.272952e-06	
116	2.450000e+00	2.273488e-06	
117	2.500000e+00	2.274054e-06	
118	2.550000e+00	2.274657e-06	
119	2.600000e+00	2.275308e-06	
120	2.650000e+00	2.276017e-06	
121	2.700000e+00	2.276799e-06	
122	2.750000e+00	2.277669e-06	
123	2.800000e+00	2.278642e-06	
124	2.850000e+00	2.279739e-06	
125	2.900000e+00	2.280980e-06	
126	2.950000e+00	2.282388e-06	
127	3.000000e+00	2.283991e-06	
128	3.050000e+00	2.285815e-06	
129	3.100000e+00	2.287891e-06	
130	3.150000e+00	2.290252e-06	
131	3.200000e+00	2.292933e-06	
132	3.250000e+00	2.295972e-06	
133	3.300000e+00	2.299409e-06	
134	0.000000e+00	-8.12663e-22	
135	5.000000e-02	7.241079e-07	
136	1.000000e-01	1.405414e-06	
137	1.500000e-01	2.044086e-06	
138	2.000000e-01	2.640293e-06	
139	2.500000e-01	3.194201e-06	
140	3.000000e-01	3.705977e-06	
141	3.500000e-01	4.175789e-06	
142	4.000000e-01	4.603802e-06	
143	4.500000e-01	4.990184e-06	
144	5.000000e-01	5.335106e-06	
145	5.500000e-01	5.638740e-06	
146	6.000000e-01	5.901271e-06	
147	6.500000e-01	6.122905e-06	
148	7.000000e-01	6.303904e-06	
149	7.500000e-01	6.444691e-06	
150	8.000000e-01	6.546202e-06	
151	8.500000e-01	6.611121e-06	
152	9.000000e-01	6.646639e-06	
153	9.500000e-01	6.664543e-06	
154	1.000000e+00	6.674417e-06	
155	1.050000e+00	6.680789e-06	
156	1.100000e+00	6.685443e-06	
157	1.150000e+00	6.689129e-06	
158	1.200000e+00	6.692209e-06	
159	1.250000e+00	6.694877e-06	
160	1.300000e+00	6.697247e-06	
161	1.350000e+00	6.699394e-06	
162	1.400000e+00	6.701366e-06	
163	1.450000e+00	6.703199e-06	
164	1.500000e+00	6.704916e-06	
165	1.550000e+00	6.706538e-06	
166	1.600000e+00	6.708079e-06	
167	1.650000e+00	6.709550e-06	
168	1.700000e+00	6.710961e-06	
169	1.750000e+00	6.712320e-06	
170	1.800000e+00	6.713632e-06	

Index   v-sweep         -i(vds)         
--------------------------------------------------------------------------------
171	1.850000e+00	6.714902e-06	
172	1.900000e+00	6.716135e-06	
173	1.950000e+00	6.717335e-06	
174	2.000000e+00	6.718505e-06	
175	2.050000e+00	6.719647e-06	
176	2.100000e+00	6.720764e-06	
177	2.150000e+00	6.721859e-06	
178	2.200000e+00	6.722933e-06	
179	2.250000e+00	6.723988e-06	
180	2.300000e+00	6.725026e-06	
181	2.350000e+00	6.726051e-06	
182	2.400000e+00	6.727064e-06	
183	2.450000e+00	6.728069e-06	
184	2.500000e+00	6.729070e-06	
185	2.550000e+00	6.730072e-06	
186	2.600000e+00	6.731082e-06	
187	2.650000e+00	6.732108e-06	
188	2.700000e+00	6.733160e-06	
189	2.750000e+00	6.734252e-06	
190	2.800000e+00	6.735398e-06	
191	2.850000e+00	6.736617e-06	
192	2.900000e+00	6.737933e-06	
193	2.950000e+00	6.739371e-06	
194	3.000000e+00	6.740963e-06	
195	3.050000e+00	6.742744e-06	
196	3.100000e+00	6.744756e-06	
197	3.150000e+00	6.747044e-06	
198	3.200000e+00	6.749663e-06	
199	3.250000e+00	6.752670e-06	
200	3.300000e+00	6.756131e-06	
201	0.000000e+00	4.209038e-21	
202	5.000000e-02	9.822300e-07	
203	1.000000e-01	1.924846e-06	
204	1.500000e-01	2.827995e-06	
205	2.000000e-01	3.691823e-06	
206	2.500000e-01	4.516477e-06	
207	3.000000e-01	5.302102e-06	
208	3.500000e-01	6.048842e-06	
209	4.000000e-01	6.756843e-06	
210	4.500000e-01	7.426247e-06	
211	5.000000e-01	8.057197e-06	
212	5.500000e-01	8.649837e-06	
213	6.000000e-01	9.204308e-06	
214	6.500000e-01	9.720754e-06	
215	7.000000e-01	1.019931e-05	
216	7.500000e-01	1.064013e-05	
217	8.000000e-01	1.104335e-05	
218	8.500000e-01	1.140911e-05	
219	9.000000e-01	1.173756e-05	
220	9.500000e-01	1.202884e-05	
221	1.000000e+00	1.228313e-05	
222	1.050000e+00	1.250060e-05	
223	1.100000e+00	1.268150e-05	
224	1.150000e+00	1.282623e-05	
225	1.200000e+00	1.293563e-05	
226	1.250000e+00	1.301188e-05	
227	1.300000e+00	1.306018e-05	
228	1.350000e+00	1.308912e-05	

Index   v-sweep         -i(vds)         
--------------------------------------------------------------------------------
229	1.400000e+00	1.310706e-05	
230	1.450000e+00	1.311921e-05	
231	1.500000e+00	1.312820e-05	
232	1.550000e+00	1.313530e-05	
233	1.600000e+00	1.314119e-05	
234	1.650000e+00	1.314623e-05	
235	1.700000e+00	1.315067e-05	
236	1.750000e+00	1.315464e-05	
237	1.800000e+00	1.315826e-05	
238	1.850000e+00	1.316159e-05	
239	1.900000e+00	1.316469e-05	
240	1.950000e+00	1.316758e-05	
241	2.000000e+00	1.317032e-05	
242	2.050000e+00	1.317291e-05	
243	2.100000e+00	1.317538e-05	
244	2.150000e+00	1.317774e-05	
245	2.200000e+00	1.318001e-05	
246	2.250000e+00	1.318219e-05	
247	2.300000e+00	1.318430e-05	
248	2.350000e+00	1.318634e-05	
249	2.400000e+00	1.318832e-05	
250	2.450000e+00	1.319025e-05	
251	2.500000e+00	1.319212e-05	
252	2.550000e+00	1.319395e-05	
253	2.600000e+00	1.319574e-05	
254	2.650000e+00	1.319749e-05	
255	2.700000e+00	1.319921e-05	
256	2.750000e+00	1.320089e-05	
257	2.800000e+00	1.320256e-05	
258	2.850000e+00	1.320421e-05	
259	2.900000e+00	1.320585e-05	
260	2.950000e+00	1.320749e-05	
261	3.000000e+00	1.320914e-05	
262	3.050000e+00	1.321083e-05	
263	3.100000e+00	1.321256e-05	
264	3.150000e+00	1.321437e-05	
265	3.200000e+00	1.321628e-05	
266	3.250000e+00	1.321834e-05	
267	3.300000e+00	1.322057e-05	
268	0.000000e+00	-2.48676e-22	
269	5.000000e-02	1.190059e-06	
270	1.000000e-01	2.344215e-06	
271	1.500000e-01	3.462593e-06	
272	2.000000e-01	4.545318e-06	
273	2.500000e-01	5.592514e-06	
274	3.000000e-01	6.604305e-06	
275	3.500000e-01	7.580813e-06	
276	4.000000e-01	8.522162e-06	
277	4.500000e-01	9.428473e-06	
278	5.000000e-01	1.029987e-05	
279	5.500000e-01	1.113647e-05	
280	6.000000e-01	1.193840e-05	
281	6.500000e-01	1.270577e-05	
282	7.000000e-01	1.343871e-05	
283	7.500000e-01	1.413733e-05	
284	8.000000e-01	1.480176e-05	
285	8.500000e-01	1.543212e-05	
286	9.000000e-01	1.602851e-05	

Index   v-sweep         -i(vds)         
--------------------------------------------------------------------------------
287	9.500000e-01	1.659107e-05	
288	1.000000e+00	1.711990e-05	
289	1.050000e+00	1.761512e-05	
290	1.100000e+00	1.807686e-05	
291	1.150000e+00	1.850522e-05	
292	1.200000e+00	1.890032e-05	
293	1.250000e+00	1.926229e-05	
294	1.300000e+00	1.959123e-05	
295	1.350000e+00	1.988727e-05	
296	1.400000e+00	2.015053e-05	
297	1.450000e+00	2.038114e-05	
298	1.500000e+00	2.057926e-05	
299	1.550000e+00	2.074511e-05	
300	1.600000e+00	2.087910e-05	
301	1.650000e+00	2.098214e-05	
302	1.700000e+00	2.105655e-05	
303	1.750000e+00	2.110710e-05	
304	1.800000e+00	2.114067e-05	
305	1.850000e+00	2.116366e-05	
306	1.900000e+00	2.118036e-05	
307	1.950000e+00	2.119323e-05	
308	2.000000e+00	2.120364e-05	
309	2.050000e+00	2.121237e-05	
310	2.100000e+00	2.121990e-05	
311	2.150000e+00	2.122655e-05	
312	2.200000e+00	2.123251e-05	
313	2.250000e+00	2.123793e-05	
314	2.300000e+00	2.124291e-05	
315	2.350000e+00	2.124753e-05	
316	2.400000e+00	2.125185e-05	
317	2.450000e+00	2.125591e-05	
318	2.500000e+00	2.125975e-05	
319	2.550000e+00	2.126340e-05	
320	2.600000e+00	2.126688e-05	
321	2.650000e+00	2.127021e-05	
322	2.700000e+00	2.127341e-05	
323	2.750000e+00	2.127649e-05	
324	2.800000e+00	2.127947e-05	
325	2.850000e+00	2.128235e-05	
326	2.900000e+00	2.128514e-05	
327	2.950000e+00	2.128786e-05	
328	3.000000e+00	2.129050e-05	
329	3.050000e+00	2.129308e-05	
330	3.100000e+00	2.129559e-05	
331	3.150000e+00	2.129806e-05	
332	3.200000e+00	2.130048e-05	
333	3.250000e+00	2.130287e-05	
334	3.300000e+00	2.130523e-05	
335	0.000000e+00	-6.74728e-21	
336	5.000000e-02	1.349256e-06	
337	1.000000e-01	2.666449e-06	
338	1.500000e-01	3.951683e-06	
339	2.000000e-01	5.205062e-06	
340	2.500000e-01	6.426689e-06	
341	3.000000e-01	7.616666e-06	
342	3.500000e-01	8.775097e-06	
343	4.000000e-01	9.902083e-06	
344	4.500000e-01	1.099773e-05	

Index   v-sweep         -i(vds)         
--------------------------------------------------------------------------------
345	5.000000e-01	1.206213e-05	
346	5.500000e-01	1.309539e-05	
347	6.000000e-01	1.409761e-05	
348	6.500000e-01	1.506889e-05	
349	7.000000e-01	1.600933e-05	
350	7.500000e-01	1.691904e-05	
351	8.000000e-01	1.779810e-05	
352	8.500000e-01	1.864662e-05	
353	9.000000e-01	1.946469e-05	
354	9.500000e-01	2.025242e-05	
355	1.000000e+00	2.100991e-05	
356	1.050000e+00	2.173724e-05	
357	1.100000e+00	2.243452e-05	
358	1.150000e+00	2.310185e-05	
359	1.200000e+00	2.373932e-05	
360	1.250000e+00	2.434702e-05	
361	1.300000e+00	2.492505e-05	
362	1.350000e+00	2.547352e-05	
363	1.400000e+00	2.599250e-05	
364	1.450000e+00	2.648211e-05	
365	1.500000e+00	2.694242e-05	
366	1.550000e+00	2.737354e-05	
367	1.600000e+00	2.777556e-05	
368	1.650000e+00	2.814857e-05	
369	1.700000e+00	2.849266e-05	
370	1.750000e+00	2.880792e-05	
371	1.800000e+00	2.909444e-05	
372	1.850000e+00	2.935231e-05	
373	1.900000e+00	2.958161e-05	
374	1.950000e+00	2.978245e-05	
375	2.000000e+00	2.995493e-05	
376	2.050000e+00	3.009925e-05	
377	2.100000e+00	3.021587e-05	
378	2.150000e+00	3.030598e-05	
379	2.200000e+00	3.037237e-05	
380	2.250000e+00	3.041975e-05	
381	2.300000e+00	3.045366e-05	
382	2.350000e+00	3.047873e-05	
383	2.400000e+00	3.049809e-05	
384	2.450000e+00	3.051367e-05	
385	2.500000e+00	3.052664e-05	
386	2.550000e+00	3.053774e-05	
387	2.600000e+00	3.054745e-05	
388	2.650000e+00	3.055610e-05	
389	2.700000e+00	3.056391e-05	
390	2.750000e+00	3.057104e-05	
391	2.800000e+00	3.057761e-05	
392	2.850000e+00	3.058372e-05	
393	2.900000e+00	3.058944e-05	
394	2.950000e+00	3.059482e-05	
395	3.000000e+00	3.059991e-05	
396	3.050000e+00	3.060474e-05	
397	3.100000e+00	3.060935e-05	
398	3.150000e+00	3.061377e-05	
399	3.200000e+00	3.061800e-05	
400	3.250000e+00	3.062208e-05	
401	3.300000e+00	3.062601e-05	
Note: No ".plot", ".print", or ".fourier" lines; no simulations run
