
Note: Compatibility modes selected: hs

Warning: m=xx on .subckt line will override multiplier m hierarchy!


Circuit: ***************************

Doing analysis at TEMP = 125.000000 and TNOM = 125.000000


No. of Data Rows : 402
                          ***************************
                          DC transfer characteristic  Mon Jan  9 13:58:12  2023
--------------------------------------------------------------------------------
Index   v-sweep         -i(vds)         
--------------------------------------------------------------------------------
0	0.000000e+00	9.571749e-26	
1	5.000000e-02	1.710913e-05	
2	1.000000e-01	2.987418e-05	
3	1.500000e-01	3.860384e-05	
4	2.000000e-01	4.374508e-05	
5	2.500000e-01	4.623681e-05	
6	3.000000e-01	4.737633e-05	
7	3.500000e-01	4.800048e-05	
8	4.000000e-01	4.842216e-05	
9	4.500000e-01	4.874807e-05	
10	5.000000e-01	4.902042e-05	
11	5.500000e-01	4.925903e-05	
12	6.000000e-01	4.947452e-05	
13	6.500000e-01	4.967323e-05	
14	7.000000e-01	4.985918e-05	
15	7.500000e-01	5.003512e-05	
16	8.000000e-01	5.020299e-05	
17	8.500000e-01	5.036423e-05	
18	9.000000e-01	5.051992e-05	
19	9.500000e-01	5.067088e-05	
20	1.000000e+00	5.081780e-05	
21	1.050000e+00	5.096119e-05	
22	1.100000e+00	5.110150e-05	
23	1.150000e+00	5.123908e-05	
24	1.200000e+00	5.137425e-05	
25	1.250000e+00	5.150725e-05	
26	1.300000e+00	5.163830e-05	
27	1.350000e+00	5.176758e-05	
28	1.400000e+00	5.189528e-05	
29	1.450000e+00	5.202151e-05	
30	1.500000e+00	5.214642e-05	
31	1.550000e+00	5.227011e-05	
32	1.600000e+00	5.239269e-05	
33	1.650000e+00	5.251425e-05	
34	1.700000e+00	5.263487e-05	
35	1.750000e+00	5.275464e-05	
36	1.800000e+00	5.287365e-05	
37	1.850000e+00	5.299199e-05	
38	1.900000e+00	5.310972e-05	
39	1.950000e+00	5.322696e-05	
40	2.000000e+00	5.334381e-05	
41	2.050000e+00	5.346036e-05	
42	2.100000e+00	5.357675e-05	
43	2.150000e+00	5.369312e-05	
44	2.200000e+00	5.380963e-05	
45	2.250000e+00	5.392644e-05	
46	2.300000e+00	5.404376e-05	
47	2.350000e+00	5.416182e-05	
48	2.400000e+00	5.428086e-05	
49	2.450000e+00	5.440116e-05	
50	2.500000e+00	5.452303e-05	
51	2.550000e+00	5.464682e-05	
52	2.600000e+00	5.477292e-05	
53	2.650000e+00	5.490174e-05	
54	2.700000e+00	5.503373e-05	

Index   v-sweep         -i(vds)         
--------------------------------------------------------------------------------
55	2.750000e+00	5.516942e-05	
56	2.800000e+00	5.530933e-05	
57	2.850000e+00	5.545408e-05	
58	2.900000e+00	5.560430e-05	
59	2.950000e+00	5.576068e-05	
60	3.000000e+00	5.592397e-05	
61	3.050000e+00	5.609498e-05	
62	3.100000e+00	5.627454e-05	
63	3.150000e+00	5.646359e-05	
64	3.200000e+00	5.666308e-05	
65	3.250000e+00	5.687403e-05	
66	3.300000e+00	5.709755e-05	
67	0.000000e+00	-2.46764e-24	
68	5.000000e-02	5.935565e-05	
69	1.000000e-01	1.131170e-04	
70	1.500000e-01	1.615194e-04	
71	2.000000e-01	2.047439e-04	
72	2.500000e-01	2.429540e-04	
73	3.000000e-01	2.763059e-04	
74	3.500000e-01	3.049518e-04	
75	4.000000e-01	3.290440e-04	
76	4.500000e-01	3.487436e-04	
77	5.000000e-01	3.642470e-04	
78	5.500000e-01	3.758525e-04	
79	6.000000e-01	3.840823e-04	
80	6.500000e-01	3.897315e-04	
81	7.000000e-01	3.936598e-04	
82	7.500000e-01	3.965259e-04	
83	8.000000e-01	3.987376e-04	
84	8.500000e-01	4.005293e-04	
85	9.000000e-01	4.020374e-04	
86	9.500000e-01	4.033444e-04	
87	1.000000e+00	4.045030e-04	
88	1.050000e+00	4.055480e-04	
89	1.100000e+00	4.065039e-04	
90	1.150000e+00	4.073880e-04	
91	1.200000e+00	4.082133e-04	
92	1.250000e+00	4.089893e-04	
93	1.300000e+00	4.097238e-04	
94	1.350000e+00	4.104227e-04	
95	1.400000e+00	4.110907e-04	
96	1.450000e+00	4.117318e-04	
97	1.500000e+00	4.123492e-04	
98	1.550000e+00	4.129455e-04	
99	1.600000e+00	4.135230e-04	
100	1.650000e+00	4.140836e-04	
101	1.700000e+00	4.146289e-04	
102	1.750000e+00	4.151604e-04	
103	1.800000e+00	4.156793e-04	
104	1.850000e+00	4.161867e-04	
105	1.900000e+00	4.166835e-04	
106	1.950000e+00	4.171706e-04	
107	2.000000e+00	4.176489e-04	
108	2.050000e+00	4.181189e-04	
109	2.100000e+00	4.185816e-04	
110	2.150000e+00	4.190374e-04	
111	2.200000e+00	4.194872e-04	
112	2.250000e+00	4.199316e-04	

Index   v-sweep         -i(vds)         
--------------------------------------------------------------------------------
113	2.300000e+00	4.203714e-04	
114	2.350000e+00	4.208073e-04	
115	2.400000e+00	4.212402e-04	
116	2.450000e+00	4.216711e-04	
117	2.500000e+00	4.221010e-04	
118	2.550000e+00	4.225311e-04	
119	2.600000e+00	4.229628e-04	
120	2.650000e+00	4.233975e-04	
121	2.700000e+00	4.238370e-04	
122	2.750000e+00	4.242831e-04	
123	2.800000e+00	4.247380e-04	
124	2.850000e+00	4.252039e-04	
125	2.900000e+00	4.256834e-04	
126	2.950000e+00	4.261794e-04	
127	3.000000e+00	4.266951e-04	
128	3.050000e+00	4.272338e-04	
129	3.100000e+00	4.277992e-04	
130	3.150000e+00	4.283956e-04	
131	3.200000e+00	4.290271e-04	
132	3.250000e+00	4.296987e-04	
133	3.300000e+00	4.304154e-04	
134	0.000000e+00	-2.71263e-24	
135	5.000000e-02	9.308161e-05	
136	1.000000e-01	1.804276e-04	
137	1.500000e-01	2.622503e-04	
138	2.000000e-01	3.387096e-04	
139	2.500000e-01	4.099496e-04	
140	3.000000e-01	4.761069e-04	
141	3.500000e-01	5.373130e-04	
142	4.000000e-01	5.936950e-04	
143	4.500000e-01	6.453753e-04	
144	5.000000e-01	6.924715e-04	
145	5.500000e-01	7.350962e-04	
146	6.000000e-01	7.733559e-04	
147	6.500000e-01	8.073499e-04	
148	7.000000e-01	8.371687e-04	
149	7.500000e-01	8.628934e-04	
150	8.000000e-01	8.846032e-04	
151	8.500000e-01	9.024076e-04	
152	9.000000e-01	9.165279e-04	
153	9.500000e-01	9.273999e-04	
154	1.000000e+00	9.356670e-04	
155	1.050000e+00	9.420162e-04	
156	1.100000e+00	9.470170e-04	
157	1.150000e+00	9.510767e-04	
158	1.200000e+00	9.544686e-04	
159	1.250000e+00	9.573737e-04	
160	1.300000e+00	9.599141e-04	
161	1.350000e+00	9.621738e-04	
162	1.400000e+00	9.642122e-04	
163	1.450000e+00	9.660725e-04	
164	1.500000e+00	9.677870e-04	
165	1.550000e+00	9.693801e-04	
166	1.600000e+00	9.708708e-04	
167	1.650000e+00	9.722739e-04	
168	1.700000e+00	9.736016e-04	
169	1.750000e+00	9.748635e-04	
170	1.800000e+00	9.760677e-04	

Index   v-sweep         -i(vds)         
--------------------------------------------------------------------------------
171	1.850000e+00	9.772207e-04	
172	1.900000e+00	9.783283e-04	
173	1.950000e+00	9.793950e-04	
174	2.000000e+00	9.804251e-04	
175	2.050000e+00	9.814219e-04	
176	2.100000e+00	9.823885e-04	
177	2.150000e+00	9.833275e-04	
178	2.200000e+00	9.842413e-04	
179	2.250000e+00	9.851321e-04	
180	2.300000e+00	9.860016e-04	
181	2.350000e+00	9.868517e-04	
182	2.400000e+00	9.876841e-04	
183	2.450000e+00	9.885003e-04	
184	2.500000e+00	9.893019e-04	
185	2.550000e+00	9.900907e-04	
186	2.600000e+00	9.908682e-04	
187	2.650000e+00	9.916363e-04	
188	2.700000e+00	9.923970e-04	
189	2.750000e+00	9.931524e-04	
190	2.800000e+00	9.939049e-04	
191	2.850000e+00	9.946572e-04	
192	2.900000e+00	9.954125e-04	
193	2.950000e+00	9.961739e-04	
194	3.000000e+00	9.969454e-04	
195	3.050000e+00	9.977313e-04	
196	3.100000e+00	9.985362e-04	
197	3.150000e+00	9.993655e-04	
198	3.200000e+00	1.000225e-03	
199	3.250000e+00	1.001121e-03	
200	3.300000e+00	1.002061e-03	
201	0.000000e+00	2.701699e-24	
202	5.000000e-02	1.192081e-04	
203	1.000000e-01	2.328171e-04	
204	1.500000e-01	3.410155e-04	
205	2.000000e-01	4.439422e-04	
206	2.500000e-01	5.417212e-04	
207	3.000000e-01	6.344704e-04	
208	3.500000e-01	7.223039e-04	
209	4.000000e-01	8.053324e-04	
210	4.500000e-01	8.836636e-04	
211	5.000000e-01	9.574018e-04	
212	5.500000e-01	1.026648e-03	
213	6.000000e-01	1.091501e-03	
214	6.500000e-01	1.152054e-03	
215	7.000000e-01	1.208399e-03	
216	7.500000e-01	1.260620e-03	
217	8.000000e-01	1.308797e-03	
218	8.500000e-01	1.353003e-03	
219	9.000000e-01	1.393301e-03	
220	9.500000e-01	1.429736e-03	
221	1.000000e+00	1.462336e-03	
222	1.050000e+00	1.491103e-03	
223	1.100000e+00	1.516023e-03	
224	1.150000e+00	1.537105e-03	
225	1.200000e+00	1.554470e-03	
226	1.250000e+00	1.568451e-03	
227	1.300000e+00	1.579586e-03	
228	1.350000e+00	1.588492e-03	

Index   v-sweep         -i(vds)         
--------------------------------------------------------------------------------
229	1.400000e+00	1.595725e-03	
230	1.450000e+00	1.601720e-03	
231	1.500000e+00	1.606794e-03	
232	1.550000e+00	1.611174e-03	
233	1.600000e+00	1.615018e-03	
234	1.650000e+00	1.618442e-03	
235	1.700000e+00	1.621530e-03	
236	1.750000e+00	1.624344e-03	
237	1.800000e+00	1.626932e-03	
238	1.850000e+00	1.629330e-03	
239	1.900000e+00	1.631568e-03	
240	1.950000e+00	1.633667e-03	
241	2.000000e+00	1.635647e-03	
242	2.050000e+00	1.637522e-03	
243	2.100000e+00	1.639306e-03	
244	2.150000e+00	1.641008e-03	
245	2.200000e+00	1.642637e-03	
246	2.250000e+00	1.644201e-03	
247	2.300000e+00	1.645706e-03	
248	2.350000e+00	1.647159e-03	
249	2.400000e+00	1.648562e-03	
250	2.450000e+00	1.649922e-03	
251	2.500000e+00	1.651241e-03	
252	2.550000e+00	1.652523e-03	
253	2.600000e+00	1.653772e-03	
254	2.650000e+00	1.654989e-03	
255	2.700000e+00	1.656178e-03	
256	2.750000e+00	1.657341e-03	
257	2.800000e+00	1.658481e-03	
258	2.850000e+00	1.659601e-03	
259	2.900000e+00	1.660703e-03	
260	2.950000e+00	1.661791e-03	
261	3.000000e+00	1.662868e-03	
262	3.050000e+00	1.663937e-03	
263	3.100000e+00	1.665004e-03	
264	3.150000e+00	1.666072e-03	
265	3.200000e+00	1.667146e-03	
266	3.250000e+00	1.668234e-03	
267	3.300000e+00	1.669340e-03	
268	0.000000e+00	-3.59009e-24	
269	5.000000e-02	1.394354e-04	
270	1.000000e-01	2.735235e-04	
271	1.500000e-01	4.024323e-04	
272	2.000000e-01	5.262811e-04	
273	2.500000e-01	6.451758e-04	
274	3.000000e-01	7.592167e-04	
275	3.500000e-01	8.685014e-04	
276	4.000000e-01	9.731251e-04	
277	4.500000e-01	1.073180e-03	
278	5.000000e-01	1.168758e-03	
279	5.500000e-01	1.259946e-03	
280	6.000000e-01	1.346830e-03	
281	6.500000e-01	1.429495e-03	
282	7.000000e-01	1.508021e-03	
283	7.500000e-01	1.582489e-03	
284	8.000000e-01	1.652974e-03	
285	8.500000e-01	1.719550e-03	
286	9.000000e-01	1.782287e-03	

Index   v-sweep         -i(vds)         
--------------------------------------------------------------------------------
287	9.500000e-01	1.841252e-03	
288	1.000000e+00	1.896506e-03	
289	1.050000e+00	1.948105e-03	
290	1.100000e+00	1.996092e-03	
291	1.150000e+00	2.040503e-03	
292	1.200000e+00	2.081351e-03	
293	1.250000e+00	2.118625e-03	
294	1.300000e+00	2.152283e-03	
295	1.350000e+00	2.182248e-03	
296	1.400000e+00	2.208437e-03	
297	1.450000e+00	2.230823e-03	
298	1.500000e+00	2.249542e-03	
299	1.550000e+00	2.264944e-03	
300	1.600000e+00	2.277550e-03	
301	1.650000e+00	2.287921e-03	
302	1.700000e+00	2.296562e-03	
303	1.750000e+00	2.303877e-03	
304	1.800000e+00	2.310172e-03	
305	1.850000e+00	2.315672e-03	
306	1.900000e+00	2.320545e-03	
307	1.950000e+00	2.324915e-03	
308	2.000000e+00	2.328875e-03	
309	2.050000e+00	2.332497e-03	
310	2.100000e+00	2.335835e-03	
311	2.150000e+00	2.338933e-03	
312	2.200000e+00	2.341826e-03	
313	2.250000e+00	2.344542e-03	
314	2.300000e+00	2.347103e-03	
315	2.350000e+00	2.349528e-03	
316	2.400000e+00	2.351834e-03	
317	2.450000e+00	2.354032e-03	
318	2.500000e+00	2.356135e-03	
319	2.550000e+00	2.358152e-03	
320	2.600000e+00	2.360091e-03	
321	2.650000e+00	2.361959e-03	
322	2.700000e+00	2.363763e-03	
323	2.750000e+00	2.365508e-03	
324	2.800000e+00	2.367199e-03	
325	2.850000e+00	2.368841e-03	
326	2.900000e+00	2.370437e-03	
327	2.950000e+00	2.371992e-03	
328	3.000000e+00	2.373510e-03	
329	3.050000e+00	2.374994e-03	
330	3.100000e+00	2.376448e-03	
331	3.150000e+00	2.377876e-03	
332	3.200000e+00	2.379282e-03	
333	3.250000e+00	2.380671e-03	
334	3.300000e+00	2.382048e-03	
335	0.000000e+00	-8.26692e-21	
336	5.000000e-02	1.550821e-04	
337	1.000000e-01	3.051168e-04	
338	1.500000e-01	4.502542e-04	
339	2.000000e-01	5.905974e-04	
340	2.500000e-01	7.262361e-04	
341	3.000000e-01	8.572558e-04	
342	3.500000e-01	9.837392e-04	
343	4.000000e-01	1.105767e-03	
344	4.500000e-01	1.223420e-03	

Index   v-sweep         -i(vds)         
--------------------------------------------------------------------------------
345	5.000000e-01	1.336774e-03	
346	5.500000e-01	1.445907e-03	
347	6.000000e-01	1.550891e-03	
348	6.500000e-01	1.651802e-03	
349	7.000000e-01	1.748708e-03	
350	7.500000e-01	1.841681e-03	
351	8.000000e-01	1.930789e-03	
352	8.500000e-01	2.016096e-03	
353	9.000000e-01	2.097669e-03	
354	9.500000e-01	2.175570e-03	
355	1.000000e+00	2.249859e-03	
356	1.050000e+00	2.320594e-03	
357	1.100000e+00	2.387831e-03	
358	1.150000e+00	2.451622e-03	
359	1.200000e+00	2.512015e-03	
360	1.250000e+00	2.569053e-03	
361	1.300000e+00	2.622771e-03	
362	1.350000e+00	2.673193e-03	
363	1.400000e+00	2.720331e-03	
364	1.450000e+00	2.764172e-03	
365	1.500000e+00	2.804679e-03	
366	1.550000e+00	2.841776e-03	
367	1.600000e+00	2.875350e-03	
368	1.650000e+00	2.905266e-03	
369	1.700000e+00	2.931425e-03	
370	1.750000e+00	2.953847e-03	
371	1.800000e+00	2.972749e-03	
372	1.850000e+00	2.988539e-03	
373	1.900000e+00	3.001726e-03	
374	1.950000e+00	3.012817e-03	
375	2.000000e+00	3.022254e-03	
376	2.050000e+00	3.030391e-03	
377	2.100000e+00	3.037501e-03	
378	2.150000e+00	3.043792e-03	
379	2.200000e+00	3.049422e-03	
380	2.250000e+00	3.054511e-03	
381	2.300000e+00	3.059153e-03	
382	2.350000e+00	3.063420e-03	
383	2.400000e+00	3.067368e-03	
384	2.450000e+00	3.071045e-03	
385	2.500000e+00	3.074487e-03	
386	2.550000e+00	3.077724e-03	
387	2.600000e+00	3.080782e-03	
388	2.650000e+00	3.083681e-03	
389	2.700000e+00	3.086439e-03	
390	2.750000e+00	3.089071e-03	
391	2.800000e+00	3.091589e-03	
392	2.850000e+00	3.094004e-03	
393	2.900000e+00	3.096326e-03	
394	2.950000e+00	3.098564e-03	
395	3.000000e+00	3.100724e-03	
396	3.050000e+00	3.102814e-03	
397	3.100000e+00	3.104838e-03	
398	3.150000e+00	3.106803e-03	
399	3.200000e+00	3.108714e-03	
400	3.250000e+00	3.110575e-03	
401	3.300000e+00	3.112392e-03	
Note: No ".plot", ".print", or ".fourier" lines; no simulations run
