
Note: Compatibility modes selected: hs

Warning: m=xx on .subckt line will override multiplier m hierarchy!


Circuit: ***************************

Doing analysis at TEMP = 25.000000 and TNOM = 25.000000


No. of Data Rows : 402
                          ***************************
                          DC transfer characteristic  Mon Jan  9 13:58:11  2023
--------------------------------------------------------------------------------
Index   v-sweep         -i(vds)         
--------------------------------------------------------------------------------
0	0.000000e+00	2.295114e-33	
1	5.000000e-02	4.712590e-07	
2	1.000000e-01	7.914242e-07	
3	1.500000e-01	9.768402e-07	
4	2.000000e-01	1.063018e-06	
5	2.500000e-01	1.101400e-06	
6	3.000000e-01	1.123268e-06	
7	3.500000e-01	1.138824e-06	
8	4.000000e-01	1.151269e-06	
9	4.500000e-01	1.161865e-06	
10	5.000000e-01	1.171229e-06	
11	5.500000e-01	1.179708e-06	
12	6.000000e-01	1.187518e-06	
13	6.500000e-01	1.194805e-06	
14	7.000000e-01	1.201670e-06	
15	7.500000e-01	1.208187e-06	
16	8.000000e-01	1.214414e-06	
17	8.500000e-01	1.220393e-06	
18	9.000000e-01	1.226160e-06	
19	9.500000e-01	1.231741e-06	
20	1.000000e+00	1.237161e-06	
21	1.050000e+00	1.242438e-06	
22	1.100000e+00	1.247587e-06	
23	1.150000e+00	1.252622e-06	
24	1.200000e+00	1.257554e-06	
25	1.250000e+00	1.262394e-06	
26	1.300000e+00	1.267149e-06	
27	1.350000e+00	1.271827e-06	
28	1.400000e+00	1.276434e-06	
29	1.450000e+00	1.280978e-06	
30	1.500000e+00	1.285461e-06	
31	1.550000e+00	1.289890e-06	
32	1.600000e+00	1.294268e-06	
33	1.650000e+00	1.298600e-06	
34	1.700000e+00	1.302889e-06	
35	1.750000e+00	1.307139e-06	
36	1.800000e+00	1.311353e-06	
37	1.850000e+00	1.315534e-06	
38	1.900000e+00	1.319687e-06	
39	1.950000e+00	1.323815e-06	
40	2.000000e+00	1.327921e-06	
41	2.050000e+00	1.332011e-06	
42	2.100000e+00	1.336088e-06	
43	2.150000e+00	1.340158e-06	
44	2.200000e+00	1.344226e-06	
45	2.250000e+00	1.348298e-06	
46	2.300000e+00	1.352380e-06	
47	2.350000e+00	1.356481e-06	
48	2.400000e+00	1.360608e-06	
49	2.450000e+00	1.364770e-06	
50	2.500000e+00	1.368977e-06	
51	2.550000e+00	1.373239e-06	
52	2.600000e+00	1.377570e-06	
53	2.650000e+00	1.381981e-06	
54	2.700000e+00	1.386486e-06	

Index   v-sweep         -i(vds)         
--------------------------------------------------------------------------------
55	2.750000e+00	1.391101e-06	
56	2.800000e+00	1.395841e-06	
57	2.850000e+00	1.400726e-06	
58	2.900000e+00	1.405773e-06	
59	2.950000e+00	1.411003e-06	
60	3.000000e+00	1.416437e-06	
61	3.050000e+00	1.422100e-06	
62	3.100000e+00	1.428015e-06	
63	3.150000e+00	1.434209e-06	
64	3.200000e+00	1.440709e-06	
65	3.250000e+00	1.447546e-06	
66	3.300000e+00	1.454749e-06	
67	0.000000e+00	3.164568e-32	
68	5.000000e-02	1.970870e-06	
69	1.000000e-01	3.734676e-06	
70	1.500000e-01	5.300064e-06	
71	2.000000e-01	6.675282e-06	
72	2.500000e-01	7.868235e-06	
73	3.000000e-01	8.886573e-06	
74	3.500000e-01	9.737875e-06	
75	4.000000e-01	1.043009e-05	
76	4.500000e-01	1.097274e-05	
77	5.000000e-01	1.137972e-05	
78	5.500000e-01	1.167346e-05	
79	6.000000e-01	1.188401e-05	
80	6.500000e-01	1.203981e-05	
81	7.000000e-01	1.216077e-05	
82	7.500000e-01	1.225901e-05	
83	8.000000e-01	1.234168e-05	
84	8.500000e-01	1.241320e-05	
85	9.000000e-01	1.247638e-05	
86	9.500000e-01	1.253312e-05	
87	1.000000e+00	1.258474e-05	
88	1.050000e+00	1.263221e-05	
89	1.100000e+00	1.267625e-05	
90	1.150000e+00	1.271740e-05	
91	1.200000e+00	1.275609e-05	
92	1.250000e+00	1.279266e-05	
93	1.300000e+00	1.282738e-05	
94	1.350000e+00	1.286049e-05	
95	1.400000e+00	1.289216e-05	
96	1.450000e+00	1.292255e-05	
97	1.500000e+00	1.295180e-05	
98	1.550000e+00	1.298001e-05	
99	1.600000e+00	1.300729e-05	
100	1.650000e+00	1.303372e-05	
101	1.700000e+00	1.305937e-05	
102	1.750000e+00	1.308430e-05	
103	1.800000e+00	1.310858e-05	
104	1.850000e+00	1.313225e-05	
105	1.900000e+00	1.315537e-05	
106	1.950000e+00	1.317797e-05	
107	2.000000e+00	1.320009e-05	
108	2.050000e+00	1.322177e-05	
109	2.100000e+00	1.324305e-05	
110	2.150000e+00	1.326395e-05	
111	2.200000e+00	1.328452e-05	
112	2.250000e+00	1.330479e-05	

Index   v-sweep         -i(vds)         
--------------------------------------------------------------------------------
113	2.300000e+00	1.332480e-05	
114	2.350000e+00	1.334459e-05	
115	2.400000e+00	1.336419e-05	
116	2.450000e+00	1.338365e-05	
117	2.500000e+00	1.340303e-05	
118	2.550000e+00	1.342237e-05	
119	2.600000e+00	1.344174e-05	
120	2.650000e+00	1.346120e-05	
121	2.700000e+00	1.348083e-05	
122	2.750000e+00	1.350070e-05	
123	2.800000e+00	1.352091e-05	
124	2.850000e+00	1.354154e-05	
125	2.900000e+00	1.356271e-05	
126	2.950000e+00	1.358452e-05	
127	3.000000e+00	1.360710e-05	
128	3.050000e+00	1.363059e-05	
129	3.100000e+00	1.365514e-05	
130	3.150000e+00	1.368089e-05	
131	3.200000e+00	1.370801e-05	
132	3.250000e+00	1.373669e-05	
133	3.300000e+00	1.376711e-05	
134	0.000000e+00	-6.01791e-21	
135	5.000000e-02	3.168294e-06	
136	1.000000e-01	6.118925e-06	
137	1.500000e-01	8.859651e-06	
138	2.000000e-01	1.139790e-05	
139	2.500000e-01	1.374077e-05	
140	3.000000e-01	1.589508e-05	
141	3.500000e-01	1.786732e-05	
142	4.000000e-01	1.966372e-05	
143	4.500000e-01	2.129021e-05	
144	5.000000e-01	2.275242e-05	
145	5.500000e-01	2.405565e-05	
146	6.000000e-01	2.520481e-05	
147	6.500000e-01	2.620438e-05	
148	7.000000e-01	2.705841e-05	
149	7.500000e-01	2.777130e-05	
150	8.000000e-01	2.835029e-05	
151	8.500000e-01	2.880947e-05	
152	9.000000e-01	2.917059e-05	
153	9.500000e-01	2.945765e-05	
154	1.000000e+00	2.969104e-05	
155	1.050000e+00	2.988568e-05	
156	1.100000e+00	3.005187e-05	
157	1.150000e+00	3.019663e-05	
158	1.200000e+00	3.032485e-05	
159	1.250000e+00	3.043999e-05	
160	1.300000e+00	3.054458e-05	
161	1.350000e+00	3.064049e-05	
162	1.400000e+00	3.072915e-05	
163	1.450000e+00	3.081168e-05	
164	1.500000e+00	3.088896e-05	
165	1.550000e+00	3.096169e-05	
166	1.600000e+00	3.103045e-05	
167	1.650000e+00	3.109571e-05	
168	1.700000e+00	3.115787e-05	
169	1.750000e+00	3.121725e-05	
170	1.800000e+00	3.127415e-05	

Index   v-sweep         -i(vds)         
--------------------------------------------------------------------------------
171	1.850000e+00	3.132881e-05	
172	1.900000e+00	3.138142e-05	
173	1.950000e+00	3.143218e-05	
174	2.000000e+00	3.148123e-05	
175	2.050000e+00	3.152873e-05	
176	2.100000e+00	3.157480e-05	
177	2.150000e+00	3.161954e-05	
178	2.200000e+00	3.166307e-05	
179	2.250000e+00	3.170546e-05	
180	2.300000e+00	3.174682e-05	
181	2.350000e+00	3.178722e-05	
182	2.400000e+00	3.182674e-05	
183	2.450000e+00	3.186546e-05	
184	2.500000e+00	3.190347e-05	
185	2.550000e+00	3.194084e-05	
186	2.600000e+00	3.197767e-05	
187	2.650000e+00	3.201404e-05	
188	2.700000e+00	3.205007e-05	
189	2.750000e+00	3.208585e-05	
190	2.800000e+00	3.212151e-05	
191	2.850000e+00	3.215719e-05	
192	2.900000e+00	3.219302e-05	
193	2.950000e+00	3.222918e-05	
194	3.000000e+00	3.226584e-05	
195	3.050000e+00	3.230319e-05	
196	3.100000e+00	3.234145e-05	
197	3.150000e+00	3.238086e-05	
198	3.200000e+00	3.242168e-05	
199	3.250000e+00	3.246417e-05	
200	3.300000e+00	3.250865e-05	
201	0.000000e+00	-3.68214e-31	
202	5.000000e-02	4.111895e-06	
203	1.000000e-01	8.006694e-06	
204	1.500000e-01	1.169118e-05	
205	2.000000e-01	1.517189e-05	
206	2.500000e-01	1.845511e-05	
207	3.000000e-01	2.154691e-05	
208	3.500000e-01	2.445310e-05	
209	4.000000e-01	2.717930e-05	
210	4.500000e-01	2.973091e-05	
211	5.000000e-01	3.211308e-05	
212	5.500000e-01	3.433079e-05	
213	6.000000e-01	3.638874e-05	
214	6.500000e-01	3.829141e-05	
215	7.000000e-01	4.004297e-05	
216	7.500000e-01	4.164717e-05	
217	8.000000e-01	4.310726e-05	
218	8.500000e-01	4.442564e-05	
219	9.000000e-01	4.560363e-05	
220	9.500000e-01	4.664114e-05	
221	1.000000e+00	4.753741e-05	
222	1.050000e+00	4.829383e-05	
223	1.100000e+00	4.891866e-05	
224	1.150000e+00	4.942900e-05	
225	1.200000e+00	4.984689e-05	
226	1.250000e+00	5.019357e-05	
227	1.300000e+00	5.048629e-05	
228	1.350000e+00	5.073795e-05	

Index   v-sweep         -i(vds)         
--------------------------------------------------------------------------------
229	1.400000e+00	5.095792e-05	
230	1.450000e+00	5.115300e-05	
231	1.500000e+00	5.132815e-05	
232	1.550000e+00	5.148709e-05	
233	1.600000e+00	5.163260e-05	
234	1.650000e+00	5.176687e-05	
235	1.700000e+00	5.189157e-05	
236	1.750000e+00	5.200808e-05	
237	1.800000e+00	5.211746e-05	
238	1.850000e+00	5.222062e-05	
239	1.900000e+00	5.231829e-05	
240	1.950000e+00	5.241109e-05	
241	2.000000e+00	5.249953e-05	
242	2.050000e+00	5.258407e-05	
243	2.100000e+00	5.266507e-05	
244	2.150000e+00	5.274286e-05	
245	2.200000e+00	5.281774e-05	
246	2.250000e+00	5.288994e-05	
247	2.300000e+00	5.295970e-05	
248	2.350000e+00	5.302720e-05	
249	2.400000e+00	5.309262e-05	
250	2.450000e+00	5.315612e-05	
251	2.500000e+00	5.321785e-05	
252	2.550000e+00	5.327795e-05	
253	2.600000e+00	5.333655e-05	
254	2.650000e+00	5.339378e-05	
255	2.700000e+00	5.344977e-05	
256	2.750000e+00	5.350465e-05	
257	2.800000e+00	5.355856e-05	
258	2.850000e+00	5.361163e-05	
259	2.900000e+00	5.366404e-05	
260	2.950000e+00	5.371593e-05	
261	3.000000e+00	5.376750e-05	
262	3.050000e+00	5.381895e-05	
263	3.100000e+00	5.387049e-05	
264	3.150000e+00	5.392239e-05	
265	3.200000e+00	5.397490e-05	
266	3.250000e+00	5.402833e-05	
267	3.300000e+00	5.408301e-05	
268	0.000000e+00	-4.09648e-31	
269	5.000000e-02	4.864275e-06	
270	1.000000e-01	9.517041e-06	
271	1.500000e-01	1.396418e-05	
272	2.000000e-01	1.821137e-05	
273	2.500000e-01	2.226414e-05	
274	3.000000e-01	2.612779e-05	
275	3.500000e-01	2.980749e-05	
276	4.000000e-01	3.330821e-05	
277	4.500000e-01	3.663478e-05	
278	5.000000e-01	3.979183e-05	
279	5.500000e-01	4.278387e-05	
280	6.000000e-01	4.561524e-05	
281	6.500000e-01	4.829008e-05	
282	7.000000e-01	5.081241e-05	
283	7.500000e-01	5.318605e-05	
284	8.000000e-01	5.541459e-05	
285	8.500000e-01	5.750139e-05	
286	9.000000e-01	5.944949e-05	

Index   v-sweep         -i(vds)         
--------------------------------------------------------------------------------
287	9.500000e-01	6.126148e-05	
288	1.000000e+00	6.293931e-05	
289	1.050000e+00	6.448396e-05	
290	1.100000e+00	6.589500e-05	
291	1.150000e+00	6.717012e-05	
292	1.200000e+00	6.830523e-05	
293	1.250000e+00	6.929623e-05	
294	1.300000e+00	7.014321e-05	
295	1.350000e+00	7.085483e-05	
296	1.400000e+00	7.144834e-05	
297	1.450000e+00	7.194499e-05	
298	1.500000e+00	7.236506e-05	
299	1.550000e+00	7.272539e-05	
300	1.600000e+00	7.303898e-05	
301	1.650000e+00	7.331564e-05	
302	1.700000e+00	7.356269e-05	
303	1.750000e+00	7.378566e-05	
304	1.800000e+00	7.398877e-05	
305	1.850000e+00	7.417526e-05	
306	1.900000e+00	7.434768e-05	
307	1.950000e+00	7.450807e-05	
308	2.000000e+00	7.465806e-05	
309	2.050000e+00	7.479899e-05	
310	2.100000e+00	7.493194e-05	
311	2.150000e+00	7.505784e-05	
312	2.200000e+00	7.517746e-05	
313	2.250000e+00	7.529145e-05	
314	2.300000e+00	7.540036e-05	
315	2.350000e+00	7.550468e-05	
316	2.400000e+00	7.560482e-05	
317	2.450000e+00	7.570116e-05	
318	2.500000e+00	7.579399e-05	
319	2.550000e+00	7.588362e-05	
320	2.600000e+00	7.597030e-05	
321	2.650000e+00	7.605425e-05	
322	2.700000e+00	7.613569e-05	
323	2.750000e+00	7.621482e-05	
324	2.800000e+00	7.629181e-05	
325	2.850000e+00	7.636685e-05	
326	2.900000e+00	7.644012e-05	
327	2.950000e+00	7.651180e-05	
328	3.000000e+00	7.658207e-05	
329	3.050000e+00	7.665112e-05	
330	3.100000e+00	7.671918e-05	
331	3.150000e+00	7.678646e-05	
332	3.200000e+00	7.685321e-05	
333	3.250000e+00	7.691970e-05	
334	3.300000e+00	7.698623e-05	
335	0.000000e+00	3.045948e-31	
336	5.000000e-02	5.470243e-06	
337	1.000000e-01	1.073696e-05	
338	1.500000e-01	1.580523e-05	
339	2.000000e-01	2.068001e-05	
340	2.500000e-01	2.536610e-05	
341	3.000000e-01	2.986815e-05	
342	3.500000e-01	3.419069e-05	
343	4.000000e-01	3.833811e-05	
344	4.500000e-01	4.231469e-05	

Index   v-sweep         -i(vds)         
--------------------------------------------------------------------------------
345	5.000000e-01	4.612456e-05	
346	5.500000e-01	4.977173e-05	
347	6.000000e-01	5.326011e-05	
348	6.500000e-01	5.659347e-05	
349	7.000000e-01	5.977545e-05	
350	7.500000e-01	6.280959e-05	
351	8.000000e-01	6.569930e-05	
352	8.500000e-01	6.844783e-05	
353	9.000000e-01	7.105832e-05	
354	9.500000e-01	7.353372e-05	
355	1.000000e+00	7.587677e-05	
356	1.050000e+00	7.808996e-05	
357	1.100000e+00	8.017543e-05	
358	1.150000e+00	8.213480e-05	
359	1.200000e+00	8.396897e-05	
360	1.250000e+00	8.567774e-05	
361	1.300000e+00	8.725932e-05	
362	1.350000e+00	8.870982e-05	
363	1.400000e+00	9.002317e-05	
364	1.450000e+00	9.119244e-05	
365	1.500000e+00	9.221345e-05	
366	1.550000e+00	9.308932e-05	
367	1.600000e+00	9.383245e-05	
368	1.650000e+00	9.446169e-05	
369	1.700000e+00	9.499753e-05	
370	1.750000e+00	9.545854e-05	
371	1.800000e+00	9.586000e-05	
372	1.850000e+00	9.621387e-05	
373	1.900000e+00	9.652933e-05	
374	1.950000e+00	9.681345e-05	
375	2.000000e+00	9.707165e-05	
376	2.050000e+00	9.730816e-05	
377	2.100000e+00	9.752632e-05	
378	2.150000e+00	9.772879e-05	
379	2.200000e+00	9.791771e-05	
380	2.250000e+00	9.809483e-05	
381	2.300000e+00	9.826159e-05	
382	2.350000e+00	9.841919e-05	
383	2.400000e+00	9.856864e-05	
384	2.450000e+00	9.871079e-05	
385	2.500000e+00	9.884638e-05	
386	2.550000e+00	9.897603e-05	
387	2.600000e+00	9.910029e-05	
388	2.650000e+00	9.921963e-05	
389	2.700000e+00	9.933447e-05	
390	2.750000e+00	9.944518e-05	
391	2.800000e+00	9.955209e-05	
392	2.850000e+00	9.965550e-05	
393	2.900000e+00	9.975567e-05	
394	2.950000e+00	9.985287e-05	
395	3.000000e+00	9.994732e-05	
396	3.050000e+00	1.000393e-04	
397	3.100000e+00	1.001289e-04	
398	3.150000e+00	1.002165e-04	
399	3.200000e+00	1.003023e-04	
400	3.250000e+00	1.003865e-04	
401	3.300000e+00	1.004694e-04	
Note: No ".plot", ".print", or ".fourier" lines; no simulations run
