
Note: Compatibility modes selected: hs

Warning: m=xx on .subckt line will override multiplier m hierarchy!


Circuit: ***************************

Doing analysis at TEMP = -40.000000 and TNOM = -40.000000


No. of Data Rows : 402
                          ***************************
                          DC transfer characteristic  Mon Jan  9 13:58:12  2023
--------------------------------------------------------------------------------
Index   v-sweep         -i(vds)         
--------------------------------------------------------------------------------
0	0.000000e+00	1.606329e-23	
1	5.000000e-02	5.868770e-08	
2	1.000000e-01	7.385275e-08	
3	1.500000e-01	7.493498e-08	
4	2.000000e-01	7.516681e-08	
5	2.500000e-01	7.530334e-08	
6	3.000000e-01	7.541197e-08	
7	3.500000e-01	7.550799e-08	
8	4.000000e-01	7.559687e-08	
9	4.500000e-01	7.568114e-08	
10	5.000000e-01	7.576217e-08	
11	5.500000e-01	7.584079e-08	
12	6.000000e-01	7.591755e-08	
13	6.500000e-01	7.599282e-08	
14	7.000000e-01	7.606687e-08	
15	7.500000e-01	7.613990e-08	
16	8.000000e-01	7.621207e-08	
17	8.500000e-01	7.628350e-08	
18	9.000000e-01	7.635428e-08	
19	9.500000e-01	7.642450e-08	
20	1.000000e+00	7.649422e-08	
21	1.050000e+00	7.656349e-08	
22	1.100000e+00	7.663237e-08	
23	1.150000e+00	7.670088e-08	
24	1.200000e+00	7.676907e-08	
25	1.250000e+00	7.683696e-08	
26	1.300000e+00	7.690459e-08	
27	1.350000e+00	7.697196e-08	
28	1.400000e+00	7.703912e-08	
29	1.450000e+00	7.710607e-08	
30	1.500000e+00	7.717284e-08	
31	1.550000e+00	7.723946e-08	
32	1.600000e+00	7.730595e-08	
33	1.650000e+00	7.737236e-08	
34	1.700000e+00	7.743872e-08	
35	1.750000e+00	7.750510e-08	
36	1.800000e+00	7.757157e-08	
37	1.850000e+00	7.763822e-08	
38	1.900000e+00	7.770517e-08	
39	1.950000e+00	7.777257e-08	
40	2.000000e+00	7.784058e-08	
41	2.050000e+00	7.790943e-08	
42	2.100000e+00	7.797937e-08	
43	2.150000e+00	7.805070e-08	
44	2.200000e+00	7.812379e-08	
45	2.250000e+00	7.819905e-08	
46	2.300000e+00	7.827695e-08	
47	2.350000e+00	7.835803e-08	
48	2.400000e+00	7.844290e-08	
49	2.450000e+00	7.853226e-08	
50	2.500000e+00	7.862685e-08	
51	2.550000e+00	7.872751e-08	
52	2.600000e+00	7.883518e-08	
53	2.650000e+00	7.895085e-08	
54	2.700000e+00	7.907562e-08	

Index   v-sweep         -i(vds)         
--------------------------------------------------------------------------------
55	2.750000e+00	7.921067e-08	
56	2.800000e+00	7.935726e-08	
57	2.850000e+00	7.951673e-08	
58	2.900000e+00	7.969054e-08	
59	2.950000e+00	7.988021e-08	
60	3.000000e+00	8.008734e-08	
61	3.050000e+00	8.031363e-08	
62	3.100000e+00	8.056086e-08	
63	3.150000e+00	8.083088e-08	
64	3.200000e+00	8.112564e-08	
65	3.250000e+00	8.144712e-08	
66	3.300000e+00	8.179743e-08	
67	0.000000e+00	2.941187e-23	
68	5.000000e-02	5.305727e-07	
69	1.000000e-01	9.946924e-07	
70	1.500000e-01	1.392741e-06	
71	2.000000e-01	1.725109e-06	
72	2.500000e-01	1.992224e-06	
73	3.000000e-01	2.194623e-06	
74	3.500000e-01	2.333312e-06	
75	4.000000e-01	2.411710e-06	
76	4.500000e-01	2.443471e-06	
77	5.000000e-01	2.453998e-06	
78	5.500000e-01	2.458548e-06	
79	6.000000e-01	2.461273e-06	
80	6.500000e-01	2.463244e-06	
81	7.000000e-01	2.464825e-06	
82	7.500000e-01	2.466170e-06	
83	8.000000e-01	2.467359e-06	
84	8.500000e-01	2.468437e-06	
85	9.000000e-01	2.469431e-06	
86	9.500000e-01	2.470361e-06	
87	1.000000e+00	2.471239e-06	
88	1.050000e+00	2.472075e-06	
89	1.100000e+00	2.472875e-06	
90	1.150000e+00	2.473646e-06	
91	1.200000e+00	2.474391e-06	
92	1.250000e+00	2.475115e-06	
93	1.300000e+00	2.475818e-06	
94	1.350000e+00	2.476505e-06	
95	1.400000e+00	2.477176e-06	
96	1.450000e+00	2.477834e-06	
97	1.500000e+00	2.478480e-06	
98	1.550000e+00	2.479114e-06	
99	1.600000e+00	2.479739e-06	
100	1.650000e+00	2.480354e-06	
101	1.700000e+00	2.480961e-06	
102	1.750000e+00	2.481560e-06	
103	1.800000e+00	2.482152e-06	
104	1.850000e+00	2.482739e-06	
105	1.900000e+00	2.483320e-06	
106	1.950000e+00	2.483897e-06	
107	2.000000e+00	2.484471e-06	
108	2.050000e+00	2.485043e-06	
109	2.100000e+00	2.485617e-06	
110	2.150000e+00	2.486193e-06	
111	2.200000e+00	2.486775e-06	
112	2.250000e+00	2.487368e-06	

Index   v-sweep         -i(vds)         
--------------------------------------------------------------------------------
113	2.300000e+00	2.487975e-06	
114	2.350000e+00	2.488602e-06	
115	2.400000e+00	2.489257e-06	
116	2.450000e+00	2.489949e-06	
117	2.500000e+00	2.490686e-06	
118	2.550000e+00	2.491481e-06	
119	2.600000e+00	2.492346e-06	
120	2.650000e+00	2.493298e-06	
121	2.700000e+00	2.494353e-06	
122	2.750000e+00	2.495532e-06	
123	2.800000e+00	2.496856e-06	
124	2.850000e+00	2.498349e-06	
125	2.900000e+00	2.500038e-06	
126	2.950000e+00	2.501953e-06	
127	3.000000e+00	2.504126e-06	
128	3.050000e+00	2.506590e-06	
129	3.100000e+00	2.509384e-06	
130	3.150000e+00	2.512547e-06	
131	3.200000e+00	2.516121e-06	
132	3.250000e+00	2.520152e-06	
133	3.300000e+00	2.524688e-06	
134	0.000000e+00	-1.48280e-21	
135	5.000000e-02	9.742163e-07	
136	1.000000e-01	1.884624e-06	
137	1.500000e-01	2.731558e-06	
138	2.000000e-01	3.515353e-06	
139	2.500000e-01	4.236339e-06	
140	3.000000e-01	4.894849e-06	
141	3.500000e-01	5.491210e-06	
142	4.000000e-01	6.025754e-06	
143	4.500000e-01	6.498812e-06	
144	5.000000e-01	6.910721e-06	
145	5.500000e-01	7.261836e-06	
146	6.000000e-01	7.552548e-06	
147	6.500000e-01	7.783366e-06	
148	7.000000e-01	7.955190e-06	
149	7.500000e-01	8.070378e-06	
150	8.000000e-01	8.136272e-06	
151	8.500000e-01	8.168976e-06	
152	9.000000e-01	8.185679e-06	
153	9.500000e-01	8.195667e-06	
154	1.000000e+00	8.202576e-06	
155	1.050000e+00	8.207852e-06	
156	1.100000e+00	8.212151e-06	
157	1.150000e+00	8.215808e-06	
158	1.200000e+00	8.219016e-06	
159	1.250000e+00	8.221892e-06	
160	1.300000e+00	8.224515e-06	
161	1.350000e+00	8.226937e-06	
162	1.400000e+00	8.229198e-06	
163	1.450000e+00	8.231325e-06	
164	1.500000e+00	8.233340e-06	
165	1.550000e+00	8.235260e-06	
166	1.600000e+00	8.237098e-06	
167	1.650000e+00	8.238864e-06	
168	1.700000e+00	8.240568e-06	
169	1.750000e+00	8.242216e-06	
170	1.800000e+00	8.243815e-06	

Index   v-sweep         -i(vds)         
--------------------------------------------------------------------------------
171	1.850000e+00	8.245370e-06	
172	1.900000e+00	8.246884e-06	
173	1.950000e+00	8.248363e-06	
174	2.000000e+00	8.249809e-06	
175	2.050000e+00	8.251225e-06	
176	2.100000e+00	8.252614e-06	
177	2.150000e+00	8.253979e-06	
178	2.200000e+00	8.255321e-06	
179	2.250000e+00	8.256645e-06	
180	2.300000e+00	8.257953e-06	
181	2.350000e+00	8.259249e-06	
182	2.400000e+00	8.260537e-06	
183	2.450000e+00	8.261825e-06	
184	2.500000e+00	8.263119e-06	
185	2.550000e+00	8.264428e-06	
186	2.600000e+00	8.265765e-06	
187	2.650000e+00	8.267144e-06	
188	2.700000e+00	8.268582e-06	
189	2.750000e+00	8.270103e-06	
190	2.800000e+00	8.271732e-06	
191	2.850000e+00	8.273499e-06	
192	2.900000e+00	8.275441e-06	
193	2.950000e+00	8.277599e-06	
194	3.000000e+00	8.280023e-06	
195	3.050000e+00	8.282767e-06	
196	3.100000e+00	8.285893e-06	
197	3.150000e+00	8.289471e-06	
198	3.200000e+00	8.293577e-06	
199	3.250000e+00	8.298298e-06	
200	3.300000e+00	8.303728e-06	
201	0.000000e+00	1.875508e-21	
202	5.000000e-02	1.341327e-06	
203	1.000000e-01	2.623952e-06	
204	1.500000e-01	3.848163e-06	
205	2.000000e-01	5.014247e-06	
206	2.500000e-01	6.122490e-06	
207	3.000000e-01	7.173174e-06	
208	3.500000e-01	8.166583e-06	
209	4.000000e-01	9.102996e-06	
210	4.500000e-01	9.982693e-06	
211	5.000000e-01	1.080595e-05	
212	5.500000e-01	1.157305e-05	
213	6.000000e-01	1.228425e-05	
214	6.500000e-01	1.293984e-05	
215	7.000000e-01	1.354009e-05	
216	7.500000e-01	1.408527e-05	
217	8.000000e-01	1.457565e-05	
218	8.500000e-01	1.501149e-05	
219	9.000000e-01	1.539309e-05	
220	9.500000e-01	1.572072e-05	
221	1.000000e+00	1.599471e-05	
222	1.050000e+00	1.621551e-05	
223	1.100000e+00	1.638400e-05	
224	1.150000e+00	1.650260e-05	
225	1.200000e+00	1.657791e-05	
226	1.250000e+00	1.662242e-05	
227	1.300000e+00	1.664932e-05	
228	1.350000e+00	1.666707e-05	

Index   v-sweep         -i(vds)         
--------------------------------------------------------------------------------
229	1.400000e+00	1.667992e-05	
230	1.450000e+00	1.668989e-05	
231	1.500000e+00	1.669804e-05	
232	1.550000e+00	1.670495e-05	
233	1.600000e+00	1.671098e-05	
234	1.650000e+00	1.671635e-05	
235	1.700000e+00	1.672121e-05	
236	1.750000e+00	1.672566e-05	
237	1.800000e+00	1.672978e-05	
238	1.850000e+00	1.673363e-05	
239	1.900000e+00	1.673725e-05	
240	1.950000e+00	1.674068e-05	
241	2.000000e+00	1.674394e-05	
242	2.050000e+00	1.674705e-05	
243	2.100000e+00	1.675003e-05	
244	2.150000e+00	1.675290e-05	
245	2.200000e+00	1.675567e-05	
246	2.250000e+00	1.675835e-05	
247	2.300000e+00	1.676095e-05	
248	2.350000e+00	1.676347e-05	
249	2.400000e+00	1.676593e-05	
250	2.450000e+00	1.676833e-05	
251	2.500000e+00	1.677067e-05	
252	2.550000e+00	1.677296e-05	
253	2.600000e+00	1.677521e-05	
254	2.650000e+00	1.677742e-05	
255	2.700000e+00	1.677960e-05	
256	2.750000e+00	1.678175e-05	
257	2.800000e+00	1.678389e-05	
258	2.850000e+00	1.678603e-05	
259	2.900000e+00	1.678819e-05	
260	2.950000e+00	1.679039e-05	
261	3.000000e+00	1.679264e-05	
262	3.050000e+00	1.679499e-05	
263	3.100000e+00	1.679746e-05	
264	3.150000e+00	1.680012e-05	
265	3.200000e+00	1.680300e-05	
266	3.250000e+00	1.680618e-05	
267	3.300000e+00	1.680973e-05	
268	0.000000e+00	3.291429e-21	
269	5.000000e-02	1.625571e-06	
270	1.000000e-01	3.198427e-06	
271	1.500000e-01	4.718808e-06	
272	2.000000e-01	6.186953e-06	
273	2.500000e-01	7.603099e-06	
274	3.000000e-01	8.967482e-06	
275	3.500000e-01	1.028034e-05	
276	4.000000e-01	1.154190e-05	
277	4.500000e-01	1.275240e-05	
278	5.000000e-01	1.391208e-05	
279	5.500000e-01	1.502115e-05	
280	6.000000e-01	1.607985e-05	
281	6.500000e-01	1.708841e-05	
282	7.000000e-01	1.804706e-05	
283	7.500000e-01	1.895602e-05	
284	8.000000e-01	1.981551e-05	
285	8.500000e-01	2.062575e-05	
286	9.000000e-01	2.138698e-05	

Index   v-sweep         -i(vds)         
--------------------------------------------------------------------------------
287	9.500000e-01	2.209940e-05	
288	1.000000e+00	2.276324e-05	
289	1.050000e+00	2.337871e-05	
290	1.100000e+00	2.394603e-05	
291	1.150000e+00	2.446541e-05	
292	1.200000e+00	2.493706e-05	
293	1.250000e+00	2.536117e-05	
294	1.300000e+00	2.573795e-05	
295	1.350000e+00	2.606758e-05	
296	1.400000e+00	2.635025e-05	
297	1.450000e+00	2.658617e-05	
298	1.500000e+00	2.677571e-05	
299	1.550000e+00	2.691997e-05	
300	1.600000e+00	2.702238e-05	
301	1.650000e+00	2.709061e-05	
302	1.700000e+00	2.713536e-05	
303	1.750000e+00	2.716589e-05	
304	1.800000e+00	2.718805e-05	
305	1.850000e+00	2.720513e-05	
306	1.900000e+00	2.721891e-05	
307	1.950000e+00	2.723046e-05	
308	2.000000e+00	2.724041e-05	
309	2.050000e+00	2.724917e-05	
310	2.100000e+00	2.725701e-05	
311	2.150000e+00	2.726413e-05	
312	2.200000e+00	2.727066e-05	
313	2.250000e+00	2.727671e-05	
314	2.300000e+00	2.728236e-05	
315	2.350000e+00	2.728767e-05	
316	2.400000e+00	2.729269e-05	
317	2.450000e+00	2.729745e-05	
318	2.500000e+00	2.730199e-05	
319	2.550000e+00	2.730634e-05	
320	2.600000e+00	2.731051e-05	
321	2.650000e+00	2.731453e-05	
322	2.700000e+00	2.731840e-05	
323	2.750000e+00	2.732215e-05	
324	2.800000e+00	2.732579e-05	
325	2.850000e+00	2.732932e-05	
326	2.900000e+00	2.733276e-05	
327	2.950000e+00	2.733612e-05	
328	3.000000e+00	2.733940e-05	
329	3.050000e+00	2.734261e-05	
330	3.100000e+00	2.734577e-05	
331	3.150000e+00	2.734888e-05	
332	3.200000e+00	2.735197e-05	
333	3.250000e+00	2.735505e-05	
334	3.300000e+00	2.735814e-05	
335	0.000000e+00	-8.70713e-21	
336	5.000000e-02	1.831851e-06	
337	1.000000e-01	3.617152e-06	
338	1.500000e-01	5.356096e-06	
339	2.000000e-01	7.048879e-06	
340	2.500000e-01	8.695692e-06	
341	3.000000e-01	1.029673e-05	
342	3.500000e-01	1.185218e-05	
343	4.000000e-01	1.336223e-05	
344	4.500000e-01	1.482708e-05	

Index   v-sweep         -i(vds)         
--------------------------------------------------------------------------------
345	5.000000e-01	1.624691e-05	
346	5.500000e-01	1.762190e-05	
347	6.000000e-01	1.895226e-05	
348	6.500000e-01	2.023815e-05	
349	7.000000e-01	2.147978e-05	
350	7.500000e-01	2.267731e-05	
351	8.000000e-01	2.383094e-05	
352	8.500000e-01	2.494085e-05	
353	9.000000e-01	2.600721e-05	
354	9.500000e-01	2.703021e-05	
355	1.000000e+00	2.801003e-05	
356	1.050000e+00	2.894685e-05	
357	1.100000e+00	2.984084e-05	
358	1.150000e+00	3.069219e-05	
359	1.200000e+00	3.150106e-05	
360	1.250000e+00	3.226763e-05	
361	1.300000e+00	3.299208e-05	
362	1.350000e+00	3.367457e-05	
363	1.400000e+00	3.431528e-05	
364	1.450000e+00	3.491436e-05	
365	1.500000e+00	3.547200e-05	
366	1.550000e+00	3.598834e-05	
367	1.600000e+00	3.646354e-05	
368	1.650000e+00	3.689775e-05	
369	1.700000e+00	3.729109e-05	
370	1.750000e+00	3.764368e-05	
371	1.800000e+00	3.795559e-05	
372	1.850000e+00	3.822686e-05	
373	1.900000e+00	3.845748e-05	
374	1.950000e+00	3.864749e-05	
375	2.000000e+00	3.879745e-05	
376	2.050000e+00	3.890966e-05	
377	2.100000e+00	3.898972e-05	
378	2.150000e+00	3.904589e-05	
379	2.200000e+00	3.908619e-05	
380	2.250000e+00	3.911634e-05	
381	2.300000e+00	3.913995e-05	
382	2.350000e+00	3.915915e-05	
383	2.400000e+00	3.917529e-05	
384	2.450000e+00	3.918919e-05	
385	2.500000e+00	3.920141e-05	
386	2.550000e+00	3.921232e-05	
387	2.600000e+00	3.922220e-05	
388	2.650000e+00	3.923125e-05	
389	2.700000e+00	3.923960e-05	
390	2.750000e+00	3.924737e-05	
391	2.800000e+00	3.925465e-05	
392	2.850000e+00	3.926151e-05	
393	2.900000e+00	3.926800e-05	
394	2.950000e+00	3.927417e-05	
395	3.000000e+00	3.928006e-05	
396	3.050000e+00	3.928570e-05	
397	3.100000e+00	3.929111e-05	
398	3.150000e+00	3.929633e-05	
399	3.200000e+00	3.930136e-05	
400	3.250000e+00	3.930622e-05	
401	3.300000e+00	3.931094e-05	
Note: No ".plot", ".print", or ".fourier" lines; no simulations run
