
Note: Compatibility modes selected: hs

Warning: m=xx on .subckt line will override multiplier m hierarchy!


Circuit: ***************************

Doing analysis at TEMP = 25.000000 and TNOM = 25.000000


No. of Data Rows : 402
                          ***************************
                          DC transfer characteristic  Mon Jan  9 13:58:11  2023
--------------------------------------------------------------------------------
Index   v-sweep         -i(vds)         
--------------------------------------------------------------------------------
0	0.000000e+00	2.272042e-31	
1	5.000000e-02	6.225044e-06	
2	1.000000e-01	9.665304e-06	
3	1.500000e-01	1.103350e-05	
4	2.000000e-01	1.149031e-05	
5	2.500000e-01	1.169952e-05	
6	3.000000e-01	1.183431e-05	
7	3.500000e-01	1.193831e-05	
8	4.000000e-01	1.202621e-05	
9	4.500000e-01	1.210432e-05	
10	5.000000e-01	1.217589e-05	
11	5.500000e-01	1.224278e-05	
12	6.000000e-01	1.230616e-05	
13	6.500000e-01	1.236681e-05	
14	7.000000e-01	1.242527e-05	
15	7.500000e-01	1.248196e-05	
16	8.000000e-01	1.253716e-05	
17	8.500000e-01	1.259111e-05	
18	9.000000e-01	1.264400e-05	
19	9.500000e-01	1.269596e-05	
20	1.000000e+00	1.274712e-05	
21	1.050000e+00	1.279758e-05	
22	1.100000e+00	1.284742e-05	
23	1.150000e+00	1.289670e-05	
24	1.200000e+00	1.294548e-05	
25	1.250000e+00	1.299382e-05	
26	1.300000e+00	1.304177e-05	
27	1.350000e+00	1.308935e-05	
28	1.400000e+00	1.313660e-05	
29	1.450000e+00	1.318355e-05	
30	1.500000e+00	1.323023e-05	
31	1.550000e+00	1.327667e-05	
32	1.600000e+00	1.332288e-05	
33	1.650000e+00	1.336890e-05	
34	1.700000e+00	1.341473e-05	
35	1.750000e+00	1.346041e-05	
36	1.800000e+00	1.350596e-05	
37	1.850000e+00	1.355139e-05	
38	1.900000e+00	1.359675e-05	
39	1.950000e+00	1.364205e-05	
40	2.000000e+00	1.368733e-05	
41	2.050000e+00	1.373263e-05	
42	2.100000e+00	1.377798e-05	
43	2.150000e+00	1.382344e-05	
44	2.200000e+00	1.386905e-05	
45	2.250000e+00	1.391487e-05	
46	2.300000e+00	1.396098e-05	
47	2.350000e+00	1.400744e-05	
48	2.400000e+00	1.405433e-05	
49	2.450000e+00	1.410176e-05	
50	2.500000e+00	1.414981e-05	
51	2.550000e+00	1.419860e-05	
52	2.600000e+00	1.424826e-05	
53	2.650000e+00	1.429891e-05	
54	2.700000e+00	1.435071e-05	

Index   v-sweep         -i(vds)         
--------------------------------------------------------------------------------
55	2.750000e+00	1.440381e-05	
56	2.800000e+00	1.445839e-05	
57	2.850000e+00	1.451462e-05	
58	2.900000e+00	1.457272e-05	
59	2.950000e+00	1.463290e-05	
60	3.000000e+00	1.469538e-05	
61	3.050000e+00	1.476042e-05	
62	3.100000e+00	1.482827e-05	
63	3.150000e+00	1.489922e-05	
64	3.200000e+00	1.497356e-05	
65	3.250000e+00	1.505161e-05	
66	3.300000e+00	1.513369e-05	
67	0.000000e+00	-2.10821e-30	
68	5.000000e-02	3.815740e-05	
69	1.000000e-01	7.193898e-05	
70	1.500000e-01	1.015280e-04	
71	2.000000e-01	1.270988e-04	
72	2.500000e-01	1.488178e-04	
73	3.000000e-01	1.668453e-04	
74	3.500000e-01	1.813407e-04	
75	4.000000e-01	1.924818e-04	
76	4.500000e-01	2.005301e-04	
77	5.000000e-01	2.059611e-04	
78	5.500000e-01	2.095006e-04	
79	6.000000e-01	2.118726e-04	
80	6.500000e-01	2.135693e-04	
81	7.000000e-01	2.148667e-04	
82	7.500000e-01	2.159136e-04	
83	8.000000e-01	2.167934e-04	
84	8.500000e-01	2.175558e-04	
85	9.000000e-01	2.182318e-04	
86	9.500000e-01	2.188422e-04	
87	1.000000e+00	2.194010e-04	
88	1.050000e+00	2.199185e-04	
89	1.100000e+00	2.204022e-04	
90	1.150000e+00	2.208576e-04	
91	1.200000e+00	2.212892e-04	
92	1.250000e+00	2.217004e-04	
93	1.300000e+00	2.220940e-04	
94	1.350000e+00	2.224722e-04	
95	1.400000e+00	2.228369e-04	
96	1.450000e+00	2.231896e-04	
97	1.500000e+00	2.235316e-04	
98	1.550000e+00	2.238640e-04	
99	1.600000e+00	2.241877e-04	
100	1.650000e+00	2.245035e-04	
101	1.700000e+00	2.248122e-04	
102	1.750000e+00	2.251144e-04	
103	1.800000e+00	2.254106e-04	
104	1.850000e+00	2.257013e-04	
105	1.900000e+00	2.259870e-04	
106	1.950000e+00	2.262681e-04	
107	2.000000e+00	2.265450e-04	
108	2.050000e+00	2.268181e-04	
109	2.100000e+00	2.270877e-04	
110	2.150000e+00	2.273544e-04	
111	2.200000e+00	2.276185e-04	
112	2.250000e+00	2.278805e-04	

Index   v-sweep         -i(vds)         
--------------------------------------------------------------------------------
113	2.300000e+00	2.281409e-04	
114	2.350000e+00	2.284001e-04	
115	2.400000e+00	2.286589e-04	
116	2.450000e+00	2.289180e-04	
117	2.500000e+00	2.291780e-04	
118	2.550000e+00	2.294398e-04	
119	2.600000e+00	2.297044e-04	
120	2.650000e+00	2.299729e-04	
121	2.700000e+00	2.302465e-04	
122	2.750000e+00	2.305264e-04	
123	2.800000e+00	2.308142e-04	
124	2.850000e+00	2.311113e-04	
125	2.900000e+00	2.314197e-04	
126	2.950000e+00	2.317412e-04	
127	3.000000e+00	2.320779e-04	
128	3.050000e+00	2.324321e-04	
129	3.100000e+00	2.328063e-04	
130	3.150000e+00	2.332030e-04	
131	3.200000e+00	2.336253e-04	
132	3.250000e+00	2.340760e-04	
133	3.300000e+00	2.345586e-04	
134	0.000000e+00	-1.25038e-21	
135	5.000000e-02	6.239906e-05	
136	1.000000e-01	1.203741e-04	
137	1.500000e-01	1.740756e-04	
138	2.000000e-01	2.236481e-04	
139	2.500000e-01	2.692300e-04	
140	3.000000e-01	3.109537e-04	
141	3.500000e-01	3.489455e-04	
142	4.000000e-01	3.833251e-04	
143	4.500000e-01	4.142049e-04	
144	5.000000e-01	4.416886e-04	
145	5.500000e-01	4.658682e-04	
146	6.000000e-01	4.868201e-04	
147	6.500000e-01	5.046023e-04	
148	7.000000e-01	5.192629e-04	
149	7.500000e-01	5.308925e-04	
150	8.000000e-01	5.397392e-04	
151	8.500000e-01	5.462850e-04	
152	9.000000e-01	5.511330e-04	
153	9.500000e-01	5.548156e-04	
154	1.000000e+00	5.577132e-04	
155	1.050000e+00	5.600736e-04	
156	1.100000e+00	5.620550e-04	
157	1.150000e+00	5.637604e-04	
158	1.200000e+00	5.652581e-04	
159	1.250000e+00	5.665954e-04	
160	1.300000e+00	5.678057e-04	
161	1.350000e+00	5.689134e-04	
162	1.400000e+00	5.699368e-04	
163	1.450000e+00	5.708898e-04	
164	1.500000e+00	5.717832e-04	
165	1.550000e+00	5.726256e-04	
166	1.600000e+00	5.734239e-04	
167	1.650000e+00	5.741838e-04	
168	1.700000e+00	5.749098e-04	
169	1.750000e+00	5.756059e-04	
170	1.800000e+00	5.762752e-04	

Index   v-sweep         -i(vds)         
--------------------------------------------------------------------------------
171	1.850000e+00	5.769205e-04	
172	1.900000e+00	5.775442e-04	
173	1.950000e+00	5.781483e-04	
174	2.000000e+00	5.787347e-04	
175	2.050000e+00	5.793048e-04	
176	2.100000e+00	5.798600e-04	
177	2.150000e+00	5.804017e-04	
178	2.200000e+00	5.809309e-04	
179	2.250000e+00	5.814487e-04	
180	2.300000e+00	5.819561e-04	
181	2.350000e+00	5.824542e-04	
182	2.400000e+00	5.829439e-04	
183	2.450000e+00	5.834263e-04	
184	2.500000e+00	5.839024e-04	
185	2.550000e+00	5.843734e-04	
186	2.600000e+00	5.848406e-04	
187	2.650000e+00	5.853055e-04	
188	2.700000e+00	5.857695e-04	
189	2.750000e+00	5.862344e-04	
190	2.800000e+00	5.867023e-04	
191	2.850000e+00	5.871752e-04	
192	2.900000e+00	5.876558e-04	
193	2.950000e+00	5.881466e-04	
194	3.000000e+00	5.886508e-04	
195	3.050000e+00	5.891718e-04	
196	3.100000e+00	5.897132e-04	
197	3.150000e+00	5.902793e-04	
198	3.200000e+00	5.908744e-04	
199	3.250000e+00	5.915036e-04	
200	3.300000e+00	5.921721e-04	
201	0.000000e+00	-8.73652e-30	
202	5.000000e-02	7.960584e-05	
203	1.000000e-01	1.550141e-04	
204	1.500000e-01	2.263446e-04	
205	2.000000e-01	2.937135e-04	
206	2.500000e-01	3.572330e-04	
207	3.000000e-01	4.170115e-04	
208	3.500000e-01	4.731535e-04	
209	4.000000e-01	5.257599e-04	
210	4.500000e-01	5.749276e-04	
211	5.000000e-01	6.207495e-04	
212	5.500000e-01	6.633141e-04	
213	6.000000e-01	7.027047e-04	
214	6.500000e-01	7.389988e-04	
215	7.000000e-01	7.722658e-04	
216	7.500000e-01	8.025640e-04	
217	8.000000e-01	8.299359e-04	
218	8.500000e-01	8.544012e-04	
219	9.000000e-01	8.759484e-04	
220	9.500000e-01	8.945358e-04	
221	1.000000e+00	9.101247e-04	
222	1.050000e+00	9.227713e-04	
223	1.100000e+00	9.327360e-04	
224	1.150000e+00	9.404816e-04	
225	1.200000e+00	9.465363e-04	
226	1.250000e+00	9.513602e-04	
227	1.300000e+00	9.552982e-04	
228	1.350000e+00	9.585922e-04	

Index   v-sweep         -i(vds)         
--------------------------------------------------------------------------------
229	1.400000e+00	9.614084e-04	
230	1.450000e+00	9.638621e-04	
231	1.500000e+00	9.660344e-04	
232	1.550000e+00	9.679837e-04	
233	1.600000e+00	9.697529e-04	
234	1.650000e+00	9.713741e-04	
235	1.700000e+00	9.728722e-04	
236	1.750000e+00	9.742662e-04	
237	1.800000e+00	9.755715e-04	
238	1.850000e+00	9.768001e-04	
239	1.900000e+00	9.779620e-04	
240	1.950000e+00	9.790655e-04	
241	2.000000e+00	9.801172e-04	
242	2.050000e+00	9.811230e-04	
243	2.100000e+00	9.820876e-04	
244	2.150000e+00	9.830151e-04	
245	2.200000e+00	9.839092e-04	
246	2.250000e+00	9.847729e-04	
247	2.300000e+00	9.856089e-04	
248	2.350000e+00	9.864196e-04	
249	2.400000e+00	9.872072e-04	
250	2.450000e+00	9.879737e-04	
251	2.500000e+00	9.887208e-04	
252	2.550000e+00	9.894503e-04	
253	2.600000e+00	9.901638e-04	
254	2.650000e+00	9.908630e-04	
255	2.700000e+00	9.915497e-04	
256	2.750000e+00	9.922256e-04	
257	2.800000e+00	9.928926e-04	
258	2.850000e+00	9.935528e-04	
259	2.900000e+00	9.942085e-04	
260	2.950000e+00	9.948624e-04	
261	3.000000e+00	9.955171e-04	
262	3.050000e+00	9.961760e-04	
263	3.100000e+00	9.968427e-04	
264	3.150000e+00	9.975211e-04	
265	3.200000e+00	9.982157e-04	
266	3.250000e+00	9.989315e-04	
267	3.300000e+00	9.996741e-04	
268	0.000000e+00	-6.56236e-21	
269	5.000000e-02	9.176939e-05	
270	1.000000e-01	1.796569e-04	
271	1.500000e-01	2.637573e-04	
272	2.000000e-01	3.441629e-04	
273	2.500000e-01	4.209635e-04	
274	3.000000e-01	4.942463e-04	
275	3.500000e-01	5.640962e-04	
276	4.000000e-01	6.305955e-04	
277	4.500000e-01	6.938242e-04	
278	5.000000e-01	7.538598e-04	
279	5.500000e-01	8.107774e-04	
280	6.000000e-01	8.646493e-04	
281	6.500000e-01	9.155454e-04	
282	7.000000e-01	9.635324e-04	
283	7.500000e-01	1.008674e-03	
284	8.000000e-01	1.051028e-03	
285	8.500000e-01	1.090651e-03	
286	9.000000e-01	1.127590e-03	

Index   v-sweep         -i(vds)         
--------------------------------------------------------------------------------
287	9.500000e-01	1.161882e-03	
288	1.000000e+00	1.193552e-03	
289	1.050000e+00	1.222607e-03	
290	1.100000e+00	1.249022e-03	
291	1.150000e+00	1.272739e-03	
292	1.200000e+00	1.293662e-03	
293	1.250000e+00	1.311692e-03	
294	1.300000e+00	1.326802e-03	
295	1.350000e+00	1.339143e-03	
296	1.400000e+00	1.349066e-03	
297	1.450000e+00	1.357033e-03	
298	1.500000e+00	1.363497e-03	
299	1.550000e+00	1.368832e-03	
300	1.600000e+00	1.373320e-03	
301	1.650000e+00	1.377165e-03	
302	1.700000e+00	1.380516e-03	
303	1.750000e+00	1.383478e-03	
304	1.800000e+00	1.386129e-03	
305	1.850000e+00	1.388530e-03	
306	1.900000e+00	1.390723e-03	
307	1.950000e+00	1.392742e-03	
308	2.000000e+00	1.394615e-03	
309	2.050000e+00	1.396364e-03	
310	2.100000e+00	1.398004e-03	
311	2.150000e+00	1.399550e-03	
312	2.200000e+00	1.401013e-03	
313	2.250000e+00	1.402404e-03	
314	2.300000e+00	1.403730e-03	
315	2.350000e+00	1.404998e-03	
316	2.400000e+00	1.406214e-03	
317	2.450000e+00	1.407382e-03	
318	2.500000e+00	1.408508e-03	
319	2.550000e+00	1.409595e-03	
320	2.600000e+00	1.410646e-03	
321	2.650000e+00	1.411665e-03	
322	2.700000e+00	1.412654e-03	
323	2.750000e+00	1.413616e-03	
324	2.800000e+00	1.414553e-03	
325	2.850000e+00	1.415468e-03	
326	2.900000e+00	1.416362e-03	
327	2.950000e+00	1.417239e-03	
328	3.000000e+00	1.418101e-03	
329	3.050000e+00	1.418951e-03	
330	3.100000e+00	1.419790e-03	
331	3.150000e+00	1.420624e-03	
332	3.200000e+00	1.421455e-03	
333	3.250000e+00	1.422287e-03	
334	3.300000e+00	1.423125e-03	
335	0.000000e+00	-1.20059e-20	
336	5.000000e-02	1.003008e-04	
337	1.000000e-01	1.970540e-04	
338	1.500000e-01	2.903347e-04	
339	2.000000e-01	3.802163e-04	
340	2.500000e-01	4.667707e-04	
341	3.000000e-01	5.500678e-04	
342	3.500000e-01	6.301762e-04	
343	4.000000e-01	7.071626e-04	
344	4.500000e-01	7.810922e-04	

Index   v-sweep         -i(vds)         
--------------------------------------------------------------------------------
345	5.000000e-01	8.520285e-04	
346	5.500000e-01	9.200336e-04	
347	6.000000e-01	9.851677e-04	
348	6.500000e-01	1.047490e-03	
349	7.000000e-01	1.107056e-03	
350	7.500000e-01	1.163923e-03	
351	8.000000e-01	1.218143e-03	
352	8.500000e-01	1.269769e-03	
353	9.000000e-01	1.318848e-03	
354	9.500000e-01	1.365428e-03	
355	1.000000e+00	1.409552e-03	
356	1.050000e+00	1.451259e-03	
357	1.100000e+00	1.490582e-03	
358	1.150000e+00	1.527548e-03	
359	1.200000e+00	1.562172e-03	
360	1.250000e+00	1.594454e-03	
361	1.300000e+00	1.624372e-03	
362	1.350000e+00	1.651872e-03	
363	1.400000e+00	1.676863e-03	
364	1.450000e+00	1.699221e-03	
365	1.500000e+00	1.718815e-03	
366	1.550000e+00	1.735580e-03	
367	1.600000e+00	1.749605e-03	
368	1.650000e+00	1.761160e-03	
369	1.700000e+00	1.770640e-03	
370	1.750000e+00	1.778462e-03	
371	1.800000e+00	1.784994e-03	
372	1.850000e+00	1.790533e-03	
373	1.900000e+00	1.795303e-03	
374	1.950000e+00	1.799470e-03	
375	2.000000e+00	1.803158e-03	
376	2.050000e+00	1.806462e-03	
377	2.100000e+00	1.809451e-03	
378	2.150000e+00	1.812179e-03	
379	2.200000e+00	1.814689e-03	
380	2.250000e+00	1.817014e-03	
381	2.300000e+00	1.819180e-03	
382	2.350000e+00	1.821209e-03	
383	2.400000e+00	1.823118e-03	
384	2.450000e+00	1.824922e-03	
385	2.500000e+00	1.826634e-03	
386	2.550000e+00	1.828263e-03	
387	2.600000e+00	1.829817e-03	
388	2.650000e+00	1.831306e-03	
389	2.700000e+00	1.832734e-03	
390	2.750000e+00	1.834107e-03	
391	2.800000e+00	1.835431e-03	
392	2.850000e+00	1.836709e-03	
393	2.900000e+00	1.837946e-03	
394	2.950000e+00	1.839145e-03	
395	3.000000e+00	1.840309e-03	
396	3.050000e+00	1.841442e-03	
397	3.100000e+00	1.842546e-03	
398	3.150000e+00	1.843624e-03	
399	3.200000e+00	1.844680e-03	
400	3.250000e+00	1.845717e-03	
401	3.300000e+00	1.846738e-03	
Note: No ".plot", ".print", or ".fourier" lines; no simulations run
