
Note: Compatibility modes selected: hs

Warning: m=xx on .subckt line will override multiplier m hierarchy!


Circuit: ***************************

Doing analysis at TEMP = -40.000000 and TNOM = -40.000000


No. of Data Rows : 402
                          ***************************
                          DC transfer characteristic  Mon Jan  9 13:58:11  2023
--------------------------------------------------------------------------------
Index   v-sweep         -i(vds)         
--------------------------------------------------------------------------------
0	0.000000e+00	-1.35988e-37	
1	5.000000e-02	1.240888e-05	
2	1.000000e-01	1.851983e-05	
3	1.500000e-01	2.107414e-05	
4	2.000000e-01	2.238154e-05	
5	2.500000e-01	2.330922e-05	
6	3.000000e-01	2.409699e-05	
7	3.500000e-01	2.482172e-05	
8	4.000000e-01	2.551417e-05	
9	4.500000e-01	2.618900e-05	
10	5.000000e-01	2.685411e-05	
11	5.500000e-01	2.751420e-05	
12	6.000000e-01	2.817226e-05	
13	6.500000e-01	2.883030e-05	
14	7.000000e-01	2.948973e-05	
15	7.500000e-01	3.015157e-05	
16	8.000000e-01	3.081658e-05	
17	8.500000e-01	3.148535e-05	
18	9.000000e-01	3.215833e-05	
19	9.500000e-01	3.283589e-05	
20	1.000000e+00	3.351831e-05	
21	1.050000e+00	3.420583e-05	
22	1.100000e+00	3.489865e-05	
23	1.150000e+00	3.559692e-05	
24	1.200000e+00	3.630079e-05	
25	1.250000e+00	3.701036e-05	
26	1.300000e+00	3.772574e-05	
27	1.350000e+00	3.844701e-05	
28	1.400000e+00	3.917423e-05	
29	1.450000e+00	3.990748e-05	
30	1.500000e+00	4.064680e-05	
31	1.550000e+00	4.139226e-05	
32	1.600000e+00	4.214390e-05	
33	1.650000e+00	4.290178e-05	
34	1.700000e+00	4.366595e-05	
35	1.750000e+00	4.443646e-05	
36	1.800000e+00	4.521339e-05	
37	1.850000e+00	4.599683e-05	
38	1.900000e+00	4.678685e-05	
39	1.950000e+00	4.758359e-05	
40	2.000000e+00	4.838718e-05	
41	2.050000e+00	4.919779e-05	
42	2.100000e+00	5.001561e-05	
43	2.150000e+00	5.084089e-05	
44	2.200000e+00	5.167390e-05	
45	2.250000e+00	5.251497e-05	
46	2.300000e+00	5.336450e-05	
47	2.350000e+00	5.422292e-05	
48	2.400000e+00	5.509075e-05	
49	2.450000e+00	5.596858e-05	
50	2.500000e+00	5.685708e-05	
51	2.550000e+00	5.775703e-05	
52	2.600000e+00	5.866927e-05	
53	2.650000e+00	5.959478e-05	
54	2.700000e+00	6.053464e-05	

Index   v-sweep         -i(vds)         
--------------------------------------------------------------------------------
55	2.750000e+00	6.149007e-05	
56	2.800000e+00	6.246240e-05	
57	2.850000e+00	6.345313e-05	
58	2.900000e+00	6.446388e-05	
59	2.950000e+00	6.549647e-05	
60	3.000000e+00	6.655285e-05	
61	3.050000e+00	6.763520e-05	
62	3.100000e+00	6.874584e-05	
63	3.150000e+00	6.988735e-05	
64	3.200000e+00	7.106246e-05	
65	3.250000e+00	7.227417e-05	
66	3.300000e+00	7.352570e-05	
67	0.000000e+00	-3.45918e-36	
68	5.000000e-02	8.024901e-05	
69	1.000000e-01	1.493135e-04	
70	1.500000e-01	2.080455e-04	
71	2.000000e-01	2.571990e-04	
72	2.500000e-01	2.974299e-04	
73	3.000000e-01	3.293178e-04	
74	3.500000e-01	3.534834e-04	
75	4.000000e-01	3.708937e-04	
76	4.500000e-01	3.830871e-04	
77	5.000000e-01	3.917923e-04	
78	5.500000e-01	3.983553e-04	
79	6.000000e-01	4.036141e-04	
80	6.500000e-01	4.080509e-04	
81	7.000000e-01	4.119444e-04	
82	7.500000e-01	4.154620e-04	
83	8.000000e-01	4.187086e-04	
84	8.500000e-01	4.217531e-04	
85	9.000000e-01	4.246423e-04	
86	9.500000e-01	4.274093e-04	
87	1.000000e+00	4.300784e-04	
88	1.050000e+00	4.326674e-04	
89	1.100000e+00	4.351901e-04	
90	1.150000e+00	4.376570e-04	
91	1.200000e+00	4.400767e-04	
92	1.250000e+00	4.424558e-04	
93	1.300000e+00	4.447999e-04	
94	1.350000e+00	4.471135e-04	
95	1.400000e+00	4.494004e-04	
96	1.450000e+00	4.516637e-04	
97	1.500000e+00	4.539062e-04	
98	1.550000e+00	4.561300e-04	
99	1.600000e+00	4.583372e-04	
100	1.650000e+00	4.605296e-04	
101	1.700000e+00	4.627086e-04	
102	1.750000e+00	4.648756e-04	
103	1.800000e+00	4.670318e-04	
104	1.850000e+00	4.691784e-04	
105	1.900000e+00	4.713164e-04	
106	1.950000e+00	4.734468e-04	
107	2.000000e+00	4.755708e-04	
108	2.050000e+00	4.776893e-04	
109	2.100000e+00	4.798035e-04	
110	2.150000e+00	4.819147e-04	
111	2.200000e+00	4.840241e-04	
112	2.250000e+00	4.861332e-04	

Index   v-sweep         -i(vds)         
--------------------------------------------------------------------------------
113	2.300000e+00	4.882438e-04	
114	2.350000e+00	4.903578e-04	
115	2.400000e+00	4.924773e-04	
116	2.450000e+00	4.946049e-04	
117	2.500000e+00	4.967432e-04	
118	2.550000e+00	4.988955e-04	
119	2.600000e+00	5.010654e-04	
120	2.650000e+00	5.032569e-04	
121	2.700000e+00	5.054744e-04	
122	2.750000e+00	5.077230e-04	
123	2.800000e+00	5.100082e-04	
124	2.850000e+00	5.123362e-04	
125	2.900000e+00	5.147139e-04	
126	2.950000e+00	5.171486e-04	
127	3.000000e+00	5.196486e-04	
128	3.050000e+00	5.222227e-04	
129	3.100000e+00	5.248808e-04	
130	3.150000e+00	5.276332e-04	
131	3.200000e+00	5.304914e-04	
132	3.250000e+00	5.334677e-04	
133	3.300000e+00	5.365752e-04	
134	0.000000e+00	-1.53122e-19	
135	5.000000e-02	1.217452e-04	
136	1.000000e-01	2.328118e-04	
137	1.500000e-01	3.338094e-04	
138	2.000000e-01	4.253011e-04	
139	2.500000e-01	5.078017e-04	
140	3.000000e-01	5.817730e-04	
141	3.500000e-01	6.476156e-04	
142	4.000000e-01	7.056545e-04	
143	4.500000e-01	7.561202e-04	
144	5.000000e-01	7.991408e-04	
145	5.500000e-01	8.347946e-04	
146	6.000000e-01	8.633099e-04	
147	6.500000e-01	8.853669e-04	
148	7.000000e-01	9.021675e-04	
149	7.500000e-01	9.150946e-04	
150	8.000000e-01	9.253280e-04	
151	8.500000e-01	9.337160e-04	
152	9.000000e-01	9.408237e-04	
153	9.500000e-01	9.470210e-04	
154	1.000000e+00	9.525525e-04	
155	1.050000e+00	9.575838e-04	
156	1.100000e+00	9.622298e-04	
157	1.150000e+00	9.665723e-04	
158	1.200000e+00	9.706712e-04	
159	1.250000e+00	9.745712e-04	
160	1.300000e+00	9.783063e-04	
161	1.350000e+00	9.819031e-04	
162	1.400000e+00	9.853823e-04	
163	1.450000e+00	9.887606e-04	
164	1.500000e+00	9.920516e-04	
165	1.550000e+00	9.952665e-04	
166	1.600000e+00	9.984143e-04	
167	1.650000e+00	1.001503e-03	
168	1.700000e+00	1.004539e-03	
169	1.750000e+00	1.007527e-03	
170	1.800000e+00	1.010474e-03	

Index   v-sweep         -i(vds)         
--------------------------------------------------------------------------------
171	1.850000e+00	1.013381e-03	
172	1.900000e+00	1.016255e-03	
173	1.950000e+00	1.019096e-03	
174	2.000000e+00	1.021910e-03	
175	2.050000e+00	1.024697e-03	
176	2.100000e+00	1.027461e-03	
177	2.150000e+00	1.030203e-03	
178	2.200000e+00	1.032927e-03	
179	2.250000e+00	1.035635e-03	
180	2.300000e+00	1.038328e-03	
181	2.350000e+00	1.041011e-03	
182	2.400000e+00	1.043684e-03	
183	2.450000e+00	1.046352e-03	
184	2.500000e+00	1.049018e-03	
185	2.550000e+00	1.051686e-03	
186	2.600000e+00	1.054361e-03	
187	2.650000e+00	1.057047e-03	
188	2.700000e+00	1.059750e-03	
189	2.750000e+00	1.062476e-03	
190	2.800000e+00	1.065233e-03	
191	2.850000e+00	1.068028e-03	
192	2.900000e+00	1.070871e-03	
193	2.950000e+00	1.073772e-03	
194	3.000000e+00	1.076741e-03	
195	3.050000e+00	1.079791e-03	
196	3.100000e+00	1.082935e-03	
197	3.150000e+00	1.086188e-03	
198	3.200000e+00	1.089567e-03	
199	3.250000e+00	1.093088e-03	
200	3.300000e+00	1.096771e-03	
201	0.000000e+00	-1.48563e-19	
202	5.000000e-02	1.472511e-04	
203	1.000000e-01	2.849101e-04	
204	1.500000e-01	4.134112e-04	
205	2.000000e-01	5.331651e-04	
206	2.500000e-01	6.445586e-04	
207	3.000000e-01	7.479538e-04	
208	3.500000e-01	8.436862e-04	
209	4.000000e-01	9.320621e-04	
210	4.500000e-01	1.013353e-03	
211	5.000000e-01	1.087788e-03	
212	5.500000e-01	1.155541e-03	
213	6.000000e-01	1.216708e-03	
214	6.500000e-01	1.271295e-03	
215	7.000000e-01	1.319204e-03	
216	7.500000e-01	1.360290e-03	
217	8.000000e-01	1.394528e-03	
218	8.500000e-01	1.422262e-03	
219	9.000000e-01	1.444324e-03	
220	9.500000e-01	1.461849e-03	
221	1.000000e+00	1.475964e-03	
222	1.050000e+00	1.487591e-03	
223	1.100000e+00	1.497411e-03	
224	1.150000e+00	1.505902e-03	
225	1.200000e+00	1.513399e-03	
226	1.250000e+00	1.520139e-03	
227	1.300000e+00	1.526288e-03	
228	1.350000e+00	1.531968e-03	

Index   v-sweep         -i(vds)         
--------------------------------------------------------------------------------
229	1.400000e+00	1.537271e-03	
230	1.450000e+00	1.542264e-03	
231	1.500000e+00	1.547000e-03	
232	1.550000e+00	1.551519e-03	
233	1.600000e+00	1.555854e-03	
234	1.650000e+00	1.560031e-03	
235	1.700000e+00	1.564071e-03	
236	1.750000e+00	1.567991e-03	
237	1.800000e+00	1.571806e-03	
238	1.850000e+00	1.575529e-03	
239	1.900000e+00	1.579168e-03	
240	1.950000e+00	1.582733e-03	
241	2.000000e+00	1.586231e-03	
242	2.050000e+00	1.589669e-03	
243	2.100000e+00	1.593052e-03	
244	2.150000e+00	1.596385e-03	
245	2.200000e+00	1.599674e-03	
246	2.250000e+00	1.602921e-03	
247	2.300000e+00	1.606132e-03	
248	2.350000e+00	1.609308e-03	
249	2.400000e+00	1.612455e-03	
250	2.450000e+00	1.615576e-03	
251	2.500000e+00	1.618674e-03	
252	2.550000e+00	1.621754e-03	
253	2.600000e+00	1.624819e-03	
254	2.650000e+00	1.627876e-03	
255	2.700000e+00	1.630928e-03	
256	2.750000e+00	1.633982e-03	
257	2.800000e+00	1.637045e-03	
258	2.850000e+00	1.640124e-03	
259	2.900000e+00	1.643229e-03	
260	2.950000e+00	1.646368e-03	
261	3.000000e+00	1.649553e-03	
262	3.050000e+00	1.652795e-03	
263	3.100000e+00	1.656110e-03	
264	3.150000e+00	1.659510e-03	
265	3.200000e+00	1.663015e-03	
266	3.250000e+00	1.666641e-03	
267	3.300000e+00	1.670410e-03	
268	0.000000e+00	-1.50947e-37	
269	5.000000e-02	1.636257e-04	
270	1.000000e-01	3.187489e-04	
271	1.500000e-01	4.656860e-04	
272	2.000000e-01	6.047402e-04	
273	2.500000e-01	7.362018e-04	
274	3.000000e-01	8.603473e-04	
275	3.500000e-01	9.774398e-04	
276	4.000000e-01	1.087728e-03	
277	4.500000e-01	1.191444e-03	
278	5.000000e-01	1.288804e-03	
279	5.500000e-01	1.380003e-03	
280	6.000000e-01	1.465212e-03	
281	6.500000e-01	1.544571e-03	
282	7.000000e-01	1.618175e-03	
283	7.500000e-01	1.686067e-03	
284	8.000000e-01	1.748215e-03	
285	8.500000e-01	1.804493e-03	
286	9.000000e-01	1.854692e-03	

Index   v-sweep         -i(vds)         
--------------------------------------------------------------------------------
287	9.500000e-01	1.898566e-03	
288	1.000000e+00	1.935992e-03	
289	1.050000e+00	1.967157e-03	
290	1.100000e+00	1.992672e-03	
291	1.150000e+00	2.013457e-03	
292	1.200000e+00	2.030509e-03	
293	1.250000e+00	2.044712e-03	
294	1.300000e+00	2.056765e-03	
295	1.350000e+00	2.067193e-03	
296	1.400000e+00	2.076380e-03	
297	1.450000e+00	2.084603e-03	
298	1.500000e+00	2.092067e-03	
299	1.550000e+00	2.098924e-03	
300	1.600000e+00	2.105286e-03	
301	1.650000e+00	2.111242e-03	
302	1.700000e+00	2.116858e-03	
303	1.750000e+00	2.122188e-03	
304	1.800000e+00	2.127273e-03	
305	1.850000e+00	2.132149e-03	
306	1.900000e+00	2.136842e-03	
307	1.950000e+00	2.141376e-03	
308	2.000000e+00	2.145769e-03	
309	2.050000e+00	2.150038e-03	
310	2.100000e+00	2.154197e-03	
311	2.150000e+00	2.158255e-03	
312	2.200000e+00	2.162225e-03	
313	2.250000e+00	2.166114e-03	
314	2.300000e+00	2.169930e-03	
315	2.350000e+00	2.173679e-03	
316	2.400000e+00	2.177368e-03	
317	2.450000e+00	2.181002e-03	
318	2.500000e+00	2.184586e-03	
319	2.550000e+00	2.188125e-03	
320	2.600000e+00	2.191624e-03	
321	2.650000e+00	2.195088e-03	
322	2.700000e+00	2.198522e-03	
323	2.750000e+00	2.201931e-03	
324	2.800000e+00	2.205321e-03	
325	2.850000e+00	2.208699e-03	
326	2.900000e+00	2.212072e-03	
327	2.950000e+00	2.215448e-03	
328	3.000000e+00	2.218835e-03	
329	3.050000e+00	2.222245e-03	
330	3.100000e+00	2.225689e-03	
331	3.150000e+00	2.229181e-03	
332	3.200000e+00	2.232734e-03	
333	3.250000e+00	2.236365e-03	
334	3.300000e+00	2.240093e-03	
335	0.000000e+00	1.527216e-35	
336	5.000000e-02	1.743820e-04	
337	1.000000e-01	3.412301e-04	
338	1.500000e-01	5.007810e-04	
339	2.000000e-01	6.532636e-04	
340	2.500000e-01	7.988987e-04	
341	3.000000e-01	9.378993e-04	
342	3.500000e-01	1.070470e-03	
343	4.000000e-01	1.196809e-03	
344	4.500000e-01	1.317102e-03	

Index   v-sweep         -i(vds)         
--------------------------------------------------------------------------------
345	5.000000e-01	1.431531e-03	
346	5.500000e-01	1.540263e-03	
347	6.000000e-01	1.643458e-03	
348	6.500000e-01	1.741263e-03	
349	7.000000e-01	1.833808e-03	
350	7.500000e-01	1.921208e-03	
351	8.000000e-01	2.003553e-03	
352	8.500000e-01	2.080900e-03	
353	9.000000e-01	2.153268e-03	
354	9.500000e-01	2.220617e-03	
355	1.000000e+00	2.282839e-03	
356	1.050000e+00	2.339740e-03	
357	1.100000e+00	2.391055e-03	
358	1.150000e+00	2.436503e-03	
359	1.200000e+00	2.475913e-03	
360	1.250000e+00	2.509387e-03	
361	1.300000e+00	2.537383e-03	
362	1.350000e+00	2.560647e-03	
363	1.400000e+00	2.580041e-03	
364	1.450000e+00	2.596377e-03	
365	1.500000e+00	2.610337e-03	
366	1.550000e+00	2.622457e-03	
367	1.600000e+00	2.633142e-03	
368	1.650000e+00	2.642698e-03	
369	1.700000e+00	2.651352e-03	
370	1.750000e+00	2.659280e-03	
371	1.800000e+00	2.666612e-03	
372	1.850000e+00	2.673451e-03	
373	1.900000e+00	2.679876e-03	
374	1.950000e+00	2.685952e-03	
375	2.000000e+00	2.691728e-03	
376	2.050000e+00	2.697246e-03	
377	2.100000e+00	2.702540e-03	
378	2.150000e+00	2.707638e-03	
379	2.200000e+00	2.712562e-03	
380	2.250000e+00	2.717333e-03	
381	2.300000e+00	2.721966e-03	
382	2.350000e+00	2.726477e-03	
383	2.400000e+00	2.730877e-03	
384	2.450000e+00	2.735177e-03	
385	2.500000e+00	2.739387e-03	
386	2.550000e+00	2.743514e-03	
387	2.600000e+00	2.747566e-03	
388	2.650000e+00	2.751550e-03	
389	2.700000e+00	2.755473e-03	
390	2.750000e+00	2.759339e-03	
391	2.800000e+00	2.763156e-03	
392	2.850000e+00	2.766930e-03	
393	2.900000e+00	2.770666e-03	
394	2.950000e+00	2.774371e-03	
395	3.000000e+00	2.778054e-03	
396	3.050000e+00	2.781721e-03	
397	3.100000e+00	2.785383e-03	
398	3.150000e+00	2.789048e-03	
399	3.200000e+00	2.792730e-03	
400	3.250000e+00	2.796440e-03	
401	3.300000e+00	2.800193e-03	
Note: No ".plot", ".print", or ".fourier" lines; no simulations run
