
Note: Compatibility modes selected: hs

Warning: m=xx on .subckt line will override multiplier m hierarchy!


Circuit: ***************************

Doing analysis at TEMP = 25.000000 and TNOM = 25.000000


No. of Data Rows : 402
                          ***************************
                          DC transfer characteristic  Mon Jan  9 13:58:11  2023
--------------------------------------------------------------------------------
Index   v-sweep         -i(vds)         
--------------------------------------------------------------------------------
0	0.000000e+00	-3.40961e-24	
1	5.000000e-02	2.440282e-08	
2	1.000000e-01	3.995662e-08	
3	1.500000e-01	4.700508e-08	
4	2.000000e-01	4.837376e-08	
5	2.500000e-01	4.855489e-08	
6	3.000000e-01	4.861856e-08	
7	3.500000e-01	4.865904e-08	
8	4.000000e-01	4.869137e-08	
9	4.500000e-01	4.871977e-08	
10	5.000000e-01	4.874590e-08	
11	5.500000e-01	4.877054e-08	
12	6.000000e-01	4.879413e-08	
13	6.500000e-01	4.881694e-08	
14	7.000000e-01	4.883914e-08	
15	7.500000e-01	4.886085e-08	
16	8.000000e-01	4.888216e-08	
17	8.500000e-01	4.890313e-08	
18	9.000000e-01	4.892383e-08	
19	9.500000e-01	4.894427e-08	
20	1.000000e+00	4.896451e-08	
21	1.050000e+00	4.898456e-08	
22	1.100000e+00	4.900444e-08	
23	1.150000e+00	4.902417e-08	
24	1.200000e+00	4.904377e-08	
25	1.250000e+00	4.906325e-08	
26	1.300000e+00	4.908262e-08	
27	1.350000e+00	4.910189e-08	
28	1.400000e+00	4.912107e-08	
29	1.450000e+00	4.914017e-08	
30	1.500000e+00	4.915919e-08	
31	1.550000e+00	4.917815e-08	
32	1.600000e+00	4.919704e-08	
33	1.650000e+00	4.921589e-08	
34	1.700000e+00	4.923469e-08	
35	1.750000e+00	4.925347e-08	
36	1.800000e+00	4.927224e-08	
37	1.850000e+00	4.929102e-08	
38	1.900000e+00	4.930984e-08	
39	1.950000e+00	4.932873e-08	
40	2.000000e+00	4.934774e-08	
41	2.050000e+00	4.936692e-08	
42	2.100000e+00	4.938634e-08	
43	2.150000e+00	4.940609e-08	
44	2.200000e+00	4.942625e-08	
45	2.250000e+00	4.944695e-08	
46	2.300000e+00	4.946833e-08	
47	2.350000e+00	4.949054e-08	
48	2.400000e+00	4.951377e-08	
49	2.450000e+00	4.953823e-08	
50	2.500000e+00	4.956415e-08	
51	2.550000e+00	4.959179e-08	
52	2.600000e+00	4.962147e-08	
53	2.650000e+00	4.965350e-08	
54	2.700000e+00	4.968824e-08	

Index   v-sweep         -i(vds)         
--------------------------------------------------------------------------------
55	2.750000e+00	4.972609e-08	
56	2.800000e+00	4.976748e-08	
57	2.850000e+00	4.981286e-08	
58	2.900000e+00	4.986274e-08	
59	2.950000e+00	4.991765e-08	
60	3.000000e+00	4.997816e-08	
61	3.050000e+00	5.004486e-08	
62	3.100000e+00	5.011840e-08	
63	3.150000e+00	5.019944e-08	
64	3.200000e+00	5.028870e-08	
65	3.250000e+00	5.038689e-08	
66	3.300000e+00	5.049480e-08	
67	0.000000e+00	-1.25083e-23	
68	5.000000e-02	9.895434e-08	
69	1.000000e-01	1.878880e-07	
70	1.500000e-01	2.668248e-07	
71	2.000000e-01	3.357895e-07	
72	2.500000e-01	3.948077e-07	
73	3.000000e-01	4.439082e-07	
74	3.500000e-01	4.831278e-07	
75	4.000000e-01	5.125299e-07	
76	4.500000e-01	5.322824e-07	
77	5.000000e-01	5.430518e-07	
78	5.500000e-01	5.472327e-07	
79	6.000000e-01	5.485955e-07	
80	6.500000e-01	5.491770e-07	
81	7.000000e-01	5.495217e-07	
82	7.500000e-01	5.497710e-07	
83	8.000000e-01	5.499722e-07	
84	8.500000e-01	5.501449e-07	
85	9.000000e-01	5.502990e-07	
86	9.500000e-01	5.504400e-07	
87	1.000000e+00	5.505711e-07	
88	1.050000e+00	5.506948e-07	
89	1.100000e+00	5.508123e-07	
90	1.150000e+00	5.509250e-07	
91	1.200000e+00	5.510336e-07	
92	1.250000e+00	5.511387e-07	
93	1.300000e+00	5.512409e-07	
94	1.350000e+00	5.513404e-07	
95	1.400000e+00	5.514377e-07	
96	1.450000e+00	5.515331e-07	
97	1.500000e+00	5.516266e-07	
98	1.550000e+00	5.517186e-07	
99	1.600000e+00	5.518091e-07	
100	1.650000e+00	5.518983e-07	
101	1.700000e+00	5.519863e-07	
102	1.750000e+00	5.520733e-07	
103	1.800000e+00	5.521593e-07	
104	1.850000e+00	5.522443e-07	
105	1.900000e+00	5.523286e-07	
106	1.950000e+00	5.524122e-07	
107	2.000000e+00	5.524951e-07	
108	2.050000e+00	5.525776e-07	
109	2.100000e+00	5.526597e-07	
110	2.150000e+00	5.527417e-07	
111	2.200000e+00	5.528237e-07	
112	2.250000e+00	5.529060e-07	

Index   v-sweep         -i(vds)         
--------------------------------------------------------------------------------
113	2.300000e+00	5.529892e-07	
114	2.350000e+00	5.530735e-07	
115	2.400000e+00	5.531597e-07	
116	2.450000e+00	5.532484e-07	
117	2.500000e+00	5.533406e-07	
118	2.550000e+00	5.534372e-07	
119	2.600000e+00	5.535397e-07	
120	2.650000e+00	5.536494e-07	
121	2.700000e+00	5.537682e-07	
122	2.750000e+00	5.538980e-07	
123	2.800000e+00	5.540411e-07	
124	2.850000e+00	5.542001e-07	
125	2.900000e+00	5.543779e-07	
126	2.950000e+00	5.545778e-07	
127	3.000000e+00	5.548034e-07	
128	3.050000e+00	5.550585e-07	
129	3.100000e+00	5.553476e-07	
130	3.150000e+00	5.556754e-07	
131	3.200000e+00	5.560468e-07	
132	3.250000e+00	5.564674e-07	
133	3.300000e+00	5.569431e-07	
134	0.000000e+00	-8.90085e-23	
135	5.000000e-02	1.680825e-07	
136	1.000000e-01	3.265706e-07	
137	1.500000e-01	4.754859e-07	
138	2.000000e-01	6.148496e-07	
139	2.500000e-01	7.446831e-07	
140	3.000000e-01	8.650078e-07	
141	3.500000e-01	9.758451e-07	
142	4.000000e-01	1.077217e-06	
143	4.500000e-01	1.169144e-06	
144	5.000000e-01	1.251649e-06	
145	5.500000e-01	1.324756e-06	
146	6.000000e-01	1.388488e-06	
147	6.500000e-01	1.442875e-06	
148	7.000000e-01	1.487952e-06	
149	7.500000e-01	1.523778e-06	
150	8.000000e-01	1.550478e-06	
151	8.500000e-01	1.568396e-06	
152	9.000000e-01	1.578587e-06	
153	9.500000e-01	1.583430e-06	
154	1.000000e+00	1.585686e-06	
155	1.050000e+00	1.586924e-06	
156	1.100000e+00	1.587739e-06	
157	1.150000e+00	1.588347e-06	
158	1.200000e+00	1.588838e-06	
159	1.250000e+00	1.589256e-06	
160	1.300000e+00	1.589624e-06	
161	1.350000e+00	1.589955e-06	
162	1.400000e+00	1.590260e-06	
163	1.450000e+00	1.590543e-06	
164	1.500000e+00	1.590809e-06	
165	1.550000e+00	1.591061e-06	
166	1.600000e+00	1.591301e-06	
167	1.650000e+00	1.591531e-06	
168	1.700000e+00	1.591753e-06	
169	1.750000e+00	1.591967e-06	
170	1.800000e+00	1.592175e-06	

Index   v-sweep         -i(vds)         
--------------------------------------------------------------------------------
171	1.850000e+00	1.592377e-06	
172	1.900000e+00	1.592574e-06	
173	1.950000e+00	1.592766e-06	
174	2.000000e+00	1.592954e-06	
175	2.050000e+00	1.593139e-06	
176	2.100000e+00	1.593319e-06	
177	2.150000e+00	1.593497e-06	
178	2.200000e+00	1.593672e-06	
179	2.250000e+00	1.593845e-06	
180	2.300000e+00	1.594015e-06	
181	2.350000e+00	1.594183e-06	
182	2.400000e+00	1.594349e-06	
183	2.450000e+00	1.594514e-06	
184	2.500000e+00	1.594678e-06	
185	2.550000e+00	1.594842e-06	
186	2.600000e+00	1.595006e-06	
187	2.650000e+00	1.595171e-06	
188	2.700000e+00	1.595339e-06	
189	2.750000e+00	1.595511e-06	
190	2.800000e+00	1.595689e-06	
191	2.850000e+00	1.595874e-06	
192	2.900000e+00	1.596071e-06	
193	2.950000e+00	1.596281e-06	
194	3.000000e+00	1.596509e-06	
195	3.050000e+00	1.596760e-06	
196	3.100000e+00	1.597038e-06	
197	3.150000e+00	1.597349e-06	
198	3.200000e+00	1.597701e-06	
199	3.250000e+00	1.598101e-06	
200	3.300000e+00	1.598558e-06	
201	0.000000e+00	2.557828e-22	
202	5.000000e-02	2.273775e-07	
203	1.000000e-01	4.458927e-07	
204	1.500000e-01	6.555643e-07	
205	2.000000e-01	8.564112e-07	
206	2.500000e-01	1.048452e-06	
207	3.000000e-01	1.231705e-06	
208	3.500000e-01	1.406189e-06	
209	4.000000e-01	1.571923e-06	
210	4.500000e-01	1.728926e-06	
211	5.000000e-01	1.877215e-06	
212	5.500000e-01	2.016809e-06	
213	6.000000e-01	2.147727e-06	
214	6.500000e-01	2.269987e-06	
215	7.000000e-01	2.383608e-06	
216	7.500000e-01	2.488609e-06	
217	8.000000e-01	2.585008e-06	
218	8.500000e-01	2.672825e-06	
219	9.000000e-01	2.752079e-06	
220	9.500000e-01	2.822791e-06	
221	1.000000e+00	2.884984e-06	
222	1.050000e+00	2.938685e-06	
223	1.100000e+00	2.983930e-06	
224	1.150000e+00	3.020778e-06	
225	1.200000e+00	3.049343e-06	
226	1.250000e+00	3.069912e-06	
227	1.300000e+00	3.083224e-06	
228	1.350000e+00	3.090886e-06	

Index   v-sweep         -i(vds)         
--------------------------------------------------------------------------------
229	1.400000e+00	3.095096e-06	
230	1.450000e+00	3.097576e-06	
231	1.500000e+00	3.099223e-06	
232	1.550000e+00	3.100435e-06	
233	1.600000e+00	3.101395e-06	
234	1.650000e+00	3.102196e-06	
235	1.700000e+00	3.102889e-06	
236	1.750000e+00	3.103503e-06	
237	1.800000e+00	3.104058e-06	
238	1.850000e+00	3.104568e-06	
239	1.900000e+00	3.105042e-06	
240	1.950000e+00	3.105485e-06	
241	2.000000e+00	3.105904e-06	
242	2.050000e+00	3.106302e-06	
243	2.100000e+00	3.106682e-06	
244	2.150000e+00	3.107047e-06	
245	2.200000e+00	3.107398e-06	
246	2.250000e+00	3.107737e-06	
247	2.300000e+00	3.108065e-06	
248	2.350000e+00	3.108384e-06	
249	2.400000e+00	3.108695e-06	
250	2.450000e+00	3.108997e-06	
251	2.500000e+00	3.109293e-06	
252	2.550000e+00	3.109583e-06	
253	2.600000e+00	3.109866e-06	
254	2.650000e+00	3.110145e-06	
255	2.700000e+00	3.110418e-06	
256	2.750000e+00	3.110687e-06	
257	2.800000e+00	3.110953e-06	
258	2.850000e+00	3.111216e-06	
259	2.900000e+00	3.111477e-06	
260	2.950000e+00	3.111737e-06	
261	3.000000e+00	3.111997e-06	
262	3.050000e+00	3.112259e-06	
263	3.100000e+00	3.112525e-06	
264	3.150000e+00	3.112798e-06	
265	3.200000e+00	3.113081e-06	
266	3.250000e+00	3.113378e-06	
267	3.300000e+00	3.113695e-06	
268	0.000000e+00	-6.38171e-22	
269	5.000000e-02	2.755795e-07	
270	1.000000e-01	5.431420e-07	
271	1.500000e-01	8.027034e-07	
272	2.000000e-01	1.054280e-06	
273	2.500000e-01	1.297887e-06	
274	3.000000e-01	1.533540e-06	
275	3.500000e-01	1.761257e-06	
276	4.000000e-01	1.981051e-06	
277	4.500000e-01	2.192940e-06	
278	5.000000e-01	2.396938e-06	
279	5.500000e-01	2.593062e-06	
280	6.000000e-01	2.781328e-06	
281	6.500000e-01	2.961750e-06	
282	7.000000e-01	3.134345e-06	
283	7.500000e-01	3.299127e-06	
284	8.000000e-01	3.456114e-06	
285	8.500000e-01	3.605320e-06	
286	9.000000e-01	3.746761e-06	

Index   v-sweep         -i(vds)         
--------------------------------------------------------------------------------
287	9.500000e-01	3.880452e-06	
288	1.000000e+00	4.006409e-06	
289	1.050000e+00	4.124647e-06	
290	1.100000e+00	4.235183e-06	
291	1.150000e+00	4.338031e-06	
292	1.200000e+00	4.433208e-06	
293	1.250000e+00	4.520730e-06	
294	1.300000e+00	4.600612e-06	
295	1.350000e+00	4.672873e-06	
296	1.400000e+00	4.737531e-06	
297	1.450000e+00	4.794606e-06	
298	1.500000e+00	4.844124e-06	
299	1.550000e+00	4.886123e-06	
300	1.600000e+00	4.920663e-06	
301	1.650000e+00	4.947871e-06	
302	1.700000e+00	4.968038e-06	
303	1.750000e+00	4.981846e-06	
304	1.800000e+00	4.990600e-06	
305	1.850000e+00	4.996006e-06	
306	1.900000e+00	4.999499e-06	
307	1.950000e+00	5.001942e-06	
308	2.000000e+00	5.003784e-06	
309	2.050000e+00	5.005257e-06	
310	2.100000e+00	5.006488e-06	
311	2.150000e+00	5.007550e-06	
312	2.200000e+00	5.008489e-06	
313	2.250000e+00	5.009334e-06	
314	2.300000e+00	5.010105e-06	
315	2.350000e+00	5.010818e-06	
316	2.400000e+00	5.011482e-06	
317	2.450000e+00	5.012107e-06	
318	2.500000e+00	5.012697e-06	
319	2.550000e+00	5.013258e-06	
320	2.600000e+00	5.013794e-06	
321	2.650000e+00	5.014308e-06	
322	2.700000e+00	5.014803e-06	
323	2.750000e+00	5.015280e-06	
324	2.800000e+00	5.015742e-06	
325	2.850000e+00	5.016190e-06	
326	2.900000e+00	5.016625e-06	
327	2.950000e+00	5.017049e-06	
328	3.000000e+00	5.017463e-06	
329	3.050000e+00	5.017867e-06	
330	3.100000e+00	5.018263e-06	
331	3.150000e+00	5.018651e-06	
332	3.200000e+00	5.019032e-06	
333	3.250000e+00	5.019407e-06	
334	3.300000e+00	5.019778e-06	
335	0.000000e+00	-1.89917e-21	
336	5.000000e-02	3.127924e-07	
337	1.000000e-01	6.184395e-07	
338	1.500000e-01	9.169546e-07	
339	2.000000e-01	1.208351e-06	
340	2.500000e-01	1.492642e-06	
341	3.000000e-01	1.769840e-06	
342	3.500000e-01	2.039960e-06	
343	4.000000e-01	2.303014e-06	
344	4.500000e-01	2.559015e-06	

Index   v-sweep         -i(vds)         
--------------------------------------------------------------------------------
345	5.000000e-01	2.807976e-06	
346	5.500000e-01	3.049911e-06	
347	6.000000e-01	3.284832e-06	
348	6.500000e-01	3.512753e-06	
349	7.000000e-01	3.733687e-06	
350	7.500000e-01	3.947646e-06	
351	8.000000e-01	4.154644e-06	
352	8.500000e-01	4.354694e-06	
353	9.000000e-01	4.547807e-06	
354	9.500000e-01	4.733999e-06	
355	1.000000e+00	4.913280e-06	
356	1.050000e+00	5.085665e-06	
357	1.100000e+00	5.251165e-06	
358	1.150000e+00	5.409794e-06	
359	1.200000e+00	5.561565e-06	
360	1.250000e+00	5.706490e-06	
361	1.300000e+00	5.844582e-06	
362	1.350000e+00	5.975854e-06	
363	1.400000e+00	6.100318e-06	
364	1.450000e+00	6.217988e-06	
365	1.500000e+00	6.328876e-06	
366	1.550000e+00	6.432994e-06	
367	1.600000e+00	6.530356e-06	
368	1.650000e+00	6.620975e-06	
369	1.700000e+00	6.704863e-06	
370	1.750000e+00	6.782035e-06	
371	1.800000e+00	6.852503e-06	
372	1.850000e+00	6.916283e-06	
373	1.900000e+00	6.973391e-06	
374	1.950000e+00	7.023845e-06	
375	2.000000e+00	7.067670e-06	
376	2.050000e+00	7.104906e-06	
377	2.100000e+00	7.135622e-06	
378	2.150000e+00	7.159966e-06	
379	2.200000e+00	7.178268e-06	
380	2.250000e+00	7.191220e-06	
381	2.300000e+00	7.199967e-06	
382	2.350000e+00	7.205844e-06	
383	2.400000e+00	7.209949e-06	
384	2.450000e+00	7.212984e-06	
385	2.500000e+00	7.215354e-06	
386	2.550000e+00	7.217291e-06	
387	2.600000e+00	7.218929e-06	
388	2.650000e+00	7.220352e-06	
389	2.700000e+00	7.221614e-06	
390	2.750000e+00	7.222752e-06	
391	2.800000e+00	7.223792e-06	
392	2.850000e+00	7.224751e-06	
393	2.900000e+00	7.225645e-06	
394	2.950000e+00	7.226484e-06	
395	3.000000e+00	7.227275e-06	
396	3.050000e+00	7.228026e-06	
397	3.100000e+00	7.228742e-06	
398	3.150000e+00	7.229427e-06	
399	3.200000e+00	7.230084e-06	
400	3.250000e+00	7.230718e-06	
401	3.300000e+00	7.231330e-06	
Note: No ".plot", ".print", or ".fourier" lines; no simulations run
