
Note: Compatibility modes selected: hs

Warning: m=xx on .subckt line will override multiplier m hierarchy!


Circuit: ***************************

Doing analysis at TEMP = -40.000000 and TNOM = -40.000000


No. of Data Rows : 402
                          ***************************
                          DC transfer characteristic  Mon Jan  9 13:58:11  2023
--------------------------------------------------------------------------------
Index   v-sweep         -i(vds)         
--------------------------------------------------------------------------------
0	0.000000e+00	-4.86098e-24	
1	5.000000e-02	6.716788e-08	
2	1.000000e-01	8.441917e-08	
3	1.500000e-01	8.549264e-08	
4	2.000000e-01	8.569031e-08	
5	2.500000e-01	8.580149e-08	
6	3.000000e-01	8.588964e-08	
7	3.500000e-01	8.596813e-08	
8	4.000000e-01	8.604146e-08	
9	4.500000e-01	8.611159e-08	
10	5.000000e-01	8.617954e-08	
11	5.500000e-01	8.624590e-08	
12	6.000000e-01	8.631106e-08	
13	6.500000e-01	8.637527e-08	
14	7.000000e-01	8.643872e-08	
15	7.500000e-01	8.650152e-08	
16	8.000000e-01	8.656379e-08	
17	8.500000e-01	8.662559e-08	
18	9.000000e-01	8.668701e-08	
19	9.500000e-01	8.674807e-08	
20	1.000000e+00	8.680883e-08	
21	1.050000e+00	8.686932e-08	
22	1.100000e+00	8.692956e-08	
23	1.150000e+00	8.698959e-08	
24	1.200000e+00	8.704941e-08	
25	1.250000e+00	8.710906e-08	
26	1.300000e+00	8.716854e-08	
27	1.350000e+00	8.722788e-08	
28	1.400000e+00	8.728708e-08	
29	1.450000e+00	8.734615e-08	
30	1.500000e+00	8.740512e-08	
31	1.550000e+00	8.746400e-08	
32	1.600000e+00	8.752279e-08	
33	1.650000e+00	8.758154e-08	
34	1.700000e+00	8.764026e-08	
35	1.750000e+00	8.769898e-08	
36	1.800000e+00	8.775776e-08	
37	1.850000e+00	8.781664e-08	
38	1.900000e+00	8.787570e-08	
39	1.950000e+00	8.793502e-08	
40	2.000000e+00	8.799472e-08	
41	2.050000e+00	8.805491e-08	
42	2.100000e+00	8.811576e-08	
43	2.150000e+00	8.817745e-08	
44	2.200000e+00	8.824020e-08	
45	2.250000e+00	8.830425e-08	
46	2.300000e+00	8.836991e-08	
47	2.350000e+00	8.843749e-08	
48	2.400000e+00	8.850737e-08	
49	2.450000e+00	8.857998e-08	
50	2.500000e+00	8.865577e-08	
51	2.550000e+00	8.873526e-08	
52	2.600000e+00	8.881903e-08	
53	2.650000e+00	8.890768e-08	
54	2.700000e+00	8.900189e-08	

Index   v-sweep         -i(vds)         
--------------------------------------------------------------------------------
55	2.750000e+00	8.910239e-08	
56	2.800000e+00	8.920996e-08	
57	2.850000e+00	8.932543e-08	
58	2.900000e+00	8.944969e-08	
59	2.950000e+00	8.958368e-08	
60	3.000000e+00	8.972841e-08	
61	3.050000e+00	8.988491e-08	
62	3.100000e+00	9.005430e-08	
63	3.150000e+00	9.023772e-08	
64	3.200000e+00	9.043637e-08	
65	3.250000e+00	9.065149e-08	
66	3.300000e+00	9.088439e-08	
67	0.000000e+00	-1.97813e-22	
68	5.000000e-02	5.824221e-07	
69	1.000000e-01	1.091483e-06	
70	1.500000e-01	1.527406e-06	
71	2.000000e-01	1.890428e-06	
72	2.500000e-01	2.180825e-06	
73	3.000000e-01	2.398999e-06	
74	3.500000e-01	2.545903e-06	
75	4.000000e-01	2.625469e-06	
76	4.500000e-01	2.654535e-06	
77	5.000000e-01	2.662850e-06	
78	5.500000e-01	2.666103e-06	
79	6.000000e-01	2.667968e-06	
80	6.500000e-01	2.669302e-06	
81	7.000000e-01	2.670374e-06	
82	7.500000e-01	2.671293e-06	
83	8.000000e-01	2.672115e-06	
84	8.500000e-01	2.672869e-06	
85	9.000000e-01	2.673572e-06	
86	9.500000e-01	2.674236e-06	
87	1.000000e+00	2.674869e-06	
88	1.050000e+00	2.675478e-06	
89	1.100000e+00	2.676066e-06	
90	1.150000e+00	2.676637e-06	
91	1.200000e+00	2.677192e-06	
92	1.250000e+00	2.677735e-06	
93	1.300000e+00	2.678267e-06	
94	1.350000e+00	2.678789e-06	
95	1.400000e+00	2.679302e-06	
96	1.450000e+00	2.679807e-06	
97	1.500000e+00	2.680305e-06	
98	1.550000e+00	2.680797e-06	
99	1.600000e+00	2.681282e-06	
100	1.650000e+00	2.681763e-06	
101	1.700000e+00	2.682239e-06	
102	1.750000e+00	2.682710e-06	
103	1.800000e+00	2.683178e-06	
104	1.850000e+00	2.683642e-06	
105	1.900000e+00	2.684103e-06	
106	1.950000e+00	2.684562e-06	
107	2.000000e+00	2.685019e-06	
108	2.050000e+00	2.685475e-06	
109	2.100000e+00	2.685932e-06	
110	2.150000e+00	2.686390e-06	
111	2.200000e+00	2.686852e-06	
112	2.250000e+00	2.687320e-06	

Index   v-sweep         -i(vds)         
--------------------------------------------------------------------------------
113	2.300000e+00	2.687796e-06	
114	2.350000e+00	2.688285e-06	
115	2.400000e+00	2.688789e-06	
116	2.450000e+00	2.689315e-06	
117	2.500000e+00	2.689867e-06	
118	2.550000e+00	2.690454e-06	
119	2.600000e+00	2.691081e-06	
120	2.650000e+00	2.691760e-06	
121	2.700000e+00	2.692499e-06	
122	2.750000e+00	2.693311e-06	
123	2.800000e+00	2.694208e-06	
124	2.850000e+00	2.695205e-06	
125	2.900000e+00	2.696317e-06	
126	2.950000e+00	2.697563e-06	
127	3.000000e+00	2.698961e-06	
128	3.050000e+00	2.700532e-06	
129	3.100000e+00	2.702297e-06	
130	3.150000e+00	2.704280e-06	
131	3.200000e+00	2.706508e-06	
132	3.250000e+00	2.709006e-06	
133	3.300000e+00	2.711804e-06	
134	0.000000e+00	2.878243e-22	
135	5.000000e-02	1.062112e-06	
136	1.000000e-01	2.055026e-06	
137	1.500000e-01	2.978930e-06	
138	2.000000e-01	3.834011e-06	
139	2.500000e-01	4.620459e-06	
140	3.000000e-01	5.338461e-06	
141	3.500000e-01	5.988206e-06	
142	4.000000e-01	6.569886e-06	
143	4.500000e-01	7.083698e-06	
144	5.000000e-01	7.529846e-06	
145	5.500000e-01	7.908560e-06	
146	6.000000e-01	8.220121e-06	
147	6.500000e-01	8.464962e-06	
148	7.000000e-01	8.644008e-06	
149	7.500000e-01	8.760018e-06	
150	8.000000e-01	8.821970e-06	
151	8.500000e-01	8.849397e-06	
152	9.000000e-01	8.861859e-06	
153	9.500000e-01	8.868773e-06	
154	1.000000e+00	8.873382e-06	
155	1.050000e+00	8.876852e-06	
156	1.100000e+00	8.879671e-06	
157	1.150000e+00	8.882077e-06	
158	1.200000e+00	8.884201e-06	
159	1.250000e+00	8.886121e-06	
160	1.300000e+00	8.887886e-06	
161	1.350000e+00	8.889530e-06	
162	1.400000e+00	8.891078e-06	
163	1.450000e+00	8.892546e-06	
164	1.500000e+00	8.893947e-06	
165	1.550000e+00	8.895293e-06	
166	1.600000e+00	8.896590e-06	
167	1.650000e+00	8.897846e-06	
168	1.700000e+00	8.899064e-06	
169	1.750000e+00	8.900251e-06	
170	1.800000e+00	8.901409e-06	

Index   v-sweep         -i(vds)         
--------------------------------------------------------------------------------
171	1.850000e+00	8.902541e-06	
172	1.900000e+00	8.903649e-06	
173	1.950000e+00	8.904737e-06	
174	2.000000e+00	8.905806e-06	
175	2.050000e+00	8.906857e-06	
176	2.100000e+00	8.907893e-06	
177	2.150000e+00	8.908915e-06	
178	2.200000e+00	8.909924e-06	
179	2.250000e+00	8.910921e-06	
180	2.300000e+00	8.911910e-06	
181	2.350000e+00	8.912891e-06	
182	2.400000e+00	8.913869e-06	
183	2.450000e+00	8.914845e-06	
184	2.500000e+00	8.915824e-06	
185	2.550000e+00	8.916813e-06	
186	2.600000e+00	8.917816e-06	
187	2.650000e+00	8.918844e-06	
188	2.700000e+00	8.919906e-06	
189	2.750000e+00	8.921014e-06	
190	2.800000e+00	8.922185e-06	
191	2.850000e+00	8.923435e-06	
192	2.900000e+00	8.924786e-06	
193	2.950000e+00	8.926262e-06	
194	3.000000e+00	8.927892e-06	
195	3.050000e+00	8.929707e-06	
196	3.100000e+00	8.931744e-06	
197	3.150000e+00	8.934044e-06	
198	3.200000e+00	8.936652e-06	
199	3.250000e+00	8.939618e-06	
200	3.300000e+00	8.942998e-06	
201	0.000000e+00	-5.61567e-21	
202	5.000000e-02	1.453712e-06	
203	1.000000e-01	2.844904e-06	
204	1.500000e-01	4.173735e-06	
205	2.000000e-01	5.440362e-06	
206	2.500000e-01	6.644944e-06	
207	3.000000e-01	7.787637e-06	
208	3.500000e-01	8.868599e-06	
209	4.000000e-01	9.887986e-06	
210	4.500000e-01	1.084595e-05	
211	5.000000e-01	1.174266e-05	
212	5.500000e-01	1.257826e-05	
213	6.000000e-01	1.335291e-05	
214	6.500000e-01	1.406677e-05	
215	7.000000e-01	1.471999e-05	
216	7.500000e-01	1.531274e-05	
217	8.000000e-01	1.584517e-05	
218	8.500000e-01	1.631746e-05	
219	9.000000e-01	1.672978e-05	
220	9.500000e-01	1.708235e-05	
221	1.000000e+00	1.737545e-05	
222	1.050000e+00	1.760955e-05	
223	1.100000e+00	1.778565e-05	
224	1.150000e+00	1.790650e-05	
225	1.200000e+00	1.797953e-05	
226	1.250000e+00	1.801906e-05	
227	1.300000e+00	1.804058e-05	
228	1.350000e+00	1.805366e-05	

Index   v-sweep         -i(vds)         
--------------------------------------------------------------------------------
229	1.400000e+00	1.806264e-05	
230	1.450000e+00	1.806942e-05	
231	1.500000e+00	1.807487e-05	
232	1.550000e+00	1.807947e-05	
233	1.600000e+00	1.808348e-05	
234	1.650000e+00	1.808705e-05	
235	1.700000e+00	1.809029e-05	
236	1.750000e+00	1.809328e-05	
237	1.800000e+00	1.809606e-05	
238	1.850000e+00	1.809867e-05	
239	1.900000e+00	1.810114e-05	
240	1.950000e+00	1.810349e-05	
241	2.000000e+00	1.810573e-05	
242	2.050000e+00	1.810789e-05	
243	2.100000e+00	1.810998e-05	
244	2.150000e+00	1.811199e-05	
245	2.200000e+00	1.811394e-05	
246	2.250000e+00	1.811584e-05	
247	2.300000e+00	1.811769e-05	
248	2.350000e+00	1.811950e-05	
249	2.400000e+00	1.812126e-05	
250	2.450000e+00	1.812299e-05	
251	2.500000e+00	1.812469e-05	
252	2.550000e+00	1.812636e-05	
253	2.600000e+00	1.812800e-05	
254	2.650000e+00	1.812962e-05	
255	2.700000e+00	1.813122e-05	
256	2.750000e+00	1.813280e-05	
257	2.800000e+00	1.813437e-05	
258	2.850000e+00	1.813594e-05	
259	2.900000e+00	1.813752e-05	
260	2.950000e+00	1.813912e-05	
261	3.000000e+00	1.814074e-05	
262	3.050000e+00	1.814242e-05	
263	3.100000e+00	1.814416e-05	
264	3.150000e+00	1.814600e-05	
265	3.200000e+00	1.814796e-05	
266	3.250000e+00	1.815009e-05	
267	3.300000e+00	1.815242e-05	
268	0.000000e+00	8.183933e-21	
269	5.000000e-02	1.751039e-06	
270	1.000000e-01	3.446926e-06	
271	1.500000e-01	5.087790e-06	
272	2.000000e-01	6.673761e-06	
273	2.500000e-01	8.204966e-06	
274	3.000000e-01	9.681535e-06	
275	3.500000e-01	1.110359e-05	
276	4.000000e-01	1.247127e-05	
277	4.500000e-01	1.378470e-05	
278	5.000000e-01	1.504399e-05	
279	5.500000e-01	1.624929e-05	
280	6.000000e-01	1.740071e-05	
281	6.500000e-01	1.849839e-05	
282	7.000000e-01	1.954244e-05	
283	7.500000e-01	2.053300e-05	
284	8.000000e-01	2.147019e-05	
285	8.500000e-01	2.235414e-05	
286	9.000000e-01	2.318497e-05	

Index   v-sweep         -i(vds)         
--------------------------------------------------------------------------------
287	9.500000e-01	2.396280e-05	
288	1.000000e+00	2.468776e-05	
289	1.050000e+00	2.535999e-05	
290	1.100000e+00	2.597959e-05	
291	1.150000e+00	2.654671e-05	
292	1.200000e+00	2.706146e-05	
293	1.250000e+00	2.752398e-05	
294	1.300000e+00	2.793442e-05	
295	1.350000e+00	2.829293e-05	
296	1.400000e+00	2.859969e-05	
297	1.450000e+00	2.885501e-05	
298	1.500000e+00	2.905940e-05	
299	1.550000e+00	2.921415e-05	
300	1.600000e+00	2.932250e-05	
301	1.650000e+00	2.939188e-05	
302	1.700000e+00	2.943396e-05	
303	1.750000e+00	2.946008e-05	
304	1.800000e+00	2.947759e-05	
305	1.850000e+00	2.949033e-05	
306	1.900000e+00	2.950025e-05	
307	1.950000e+00	2.950835e-05	
308	2.000000e+00	2.951524e-05	
309	2.050000e+00	2.952124e-05	
310	2.100000e+00	2.952660e-05	
311	2.150000e+00	2.953145e-05	
312	2.200000e+00	2.953590e-05	
313	2.250000e+00	2.954003e-05	
314	2.300000e+00	2.954389e-05	
315	2.350000e+00	2.954753e-05	
316	2.400000e+00	2.955098e-05	
317	2.450000e+00	2.955427e-05	
318	2.500000e+00	2.955742e-05	
319	2.550000e+00	2.956044e-05	
320	2.600000e+00	2.956335e-05	
321	2.650000e+00	2.956617e-05	
322	2.700000e+00	2.956889e-05	
323	2.750000e+00	2.957154e-05	
324	2.800000e+00	2.957412e-05	
325	2.850000e+00	2.957663e-05	
326	2.900000e+00	2.957909e-05	
327	2.950000e+00	2.958149e-05	
328	3.000000e+00	2.958385e-05	
329	3.050000e+00	2.958616e-05	
330	3.100000e+00	2.958843e-05	
331	3.150000e+00	2.959068e-05	
332	3.200000e+00	2.959290e-05	
333	3.250000e+00	2.959511e-05	
334	3.300000e+00	2.959733e-05	
335	0.000000e+00	2.046919e-21	
336	5.000000e-02	1.961130e-06	
337	1.000000e-01	3.874384e-06	
338	1.500000e-01	5.739864e-06	
339	2.000000e-01	7.557673e-06	
340	2.500000e-01	9.327913e-06	
341	3.000000e-01	1.105069e-05	
342	3.500000e-01	1.272609e-05	
343	4.000000e-01	1.435424e-05	
344	4.500000e-01	1.593522e-05	

Index   v-sweep         -i(vds)         
--------------------------------------------------------------------------------
345	5.000000e-01	1.746914e-05	
346	5.500000e-01	1.895610e-05	
347	6.000000e-01	2.039620e-05	
348	6.500000e-01	2.178954e-05	
349	7.000000e-01	2.313623e-05	
350	7.500000e-01	2.443636e-05	
351	8.000000e-01	2.569002e-05	
352	8.500000e-01	2.689734e-05	
353	9.000000e-01	2.805839e-05	
354	9.500000e-01	2.917328e-05	
355	1.000000e+00	3.024212e-05	
356	1.050000e+00	3.126499e-05	
357	1.100000e+00	3.224200e-05	
358	1.150000e+00	3.317325e-05	
359	1.200000e+00	3.405884e-05	
360	1.250000e+00	3.489886e-05	
361	1.300000e+00	3.569341e-05	
362	1.350000e+00	3.644259e-05	
363	1.400000e+00	3.714650e-05	
364	1.450000e+00	3.780523e-05	
365	1.500000e+00	3.841889e-05	
366	1.550000e+00	3.898757e-05	
367	1.600000e+00	3.951137e-05	
368	1.650000e+00	3.999038e-05	
369	1.700000e+00	4.042471e-05	
370	1.750000e+00	4.081445e-05	
371	1.800000e+00	4.115973e-05	
372	1.850000e+00	4.146067e-05	
373	1.900000e+00	4.171744e-05	
374	1.950000e+00	4.193035e-05	
375	2.000000e+00	4.210011e-05	
376	2.050000e+00	4.222841e-05	
377	2.100000e+00	4.231929e-05	
378	2.150000e+00	4.238018e-05	
379	2.200000e+00	4.242041e-05	
380	2.250000e+00	4.244794e-05	
381	2.300000e+00	4.246790e-05	
382	2.350000e+00	4.248324e-05	
383	2.400000e+00	4.249560e-05	
384	2.450000e+00	4.250593e-05	
385	2.500000e+00	4.251483e-05	
386	2.550000e+00	4.252267e-05	
387	2.600000e+00	4.252969e-05	
388	2.650000e+00	4.253607e-05	
389	2.700000e+00	4.254194e-05	
390	2.750000e+00	4.254739e-05	
391	2.800000e+00	4.255249e-05	
392	2.850000e+00	4.255728e-05	
393	2.900000e+00	4.256183e-05	
394	2.950000e+00	4.256615e-05	
395	3.000000e+00	4.257028e-05	
396	3.050000e+00	4.257425e-05	
397	3.100000e+00	4.257806e-05	
398	3.150000e+00	4.258174e-05	
399	3.200000e+00	4.258529e-05	
400	3.250000e+00	4.258874e-05	
401	3.300000e+00	4.259210e-05	
Note: No ".plot", ".print", or ".fourier" lines; no simulations run
