
Note: Compatibility modes selected: hs

Warning: m=xx on .subckt line will override multiplier m hierarchy!


Circuit: ***************************

Doing analysis at TEMP = 125.000000 and TNOM = 125.000000


No. of Data Rows : 402
                          ***************************
                          DC transfer characteristic  Mon Jan  9 13:58:12  2023
--------------------------------------------------------------------------------
Index   v-sweep         -i(vds)         
--------------------------------------------------------------------------------
0	0.000000e+00	-8.58637e-25	
1	5.000000e-02	1.933582e-05	
2	1.000000e-01	3.471549e-05	
3	1.500000e-01	4.644744e-05	
4	2.000000e-01	5.486936e-05	
5	2.500000e-01	6.047238e-05	
6	3.000000e-01	6.400609e-05	
7	3.500000e-01	6.631015e-05	
8	4.000000e-01	6.798359e-05	
9	4.500000e-01	6.933619e-05	
10	5.000000e-01	7.051290e-05	
11	5.500000e-01	7.158436e-05	
12	6.000000e-01	7.258795e-05	
13	6.500000e-01	7.354519e-05	
14	7.000000e-01	7.446933e-05	
15	7.500000e-01	7.536907e-05	
16	8.000000e-01	7.625034e-05	
17	8.500000e-01	7.711740e-05	
18	9.000000e-01	7.797335e-05	
19	9.500000e-01	7.882054e-05	
20	1.000000e+00	7.966080e-05	
21	1.050000e+00	8.049556e-05	
22	1.100000e+00	8.132596e-05	
23	1.150000e+00	8.215293e-05	
24	1.200000e+00	8.297724e-05	
25	1.250000e+00	8.379952e-05	
26	1.300000e+00	8.462030e-05	
27	1.350000e+00	8.544004e-05	
28	1.400000e+00	8.625913e-05	
29	1.450000e+00	8.707789e-05	
30	1.500000e+00	8.789662e-05	
31	1.550000e+00	8.871557e-05	
32	1.600000e+00	8.953497e-05	
33	1.650000e+00	9.035502e-05	
34	1.700000e+00	9.117591e-05	
35	1.750000e+00	9.199781e-05	
36	1.800000e+00	9.282089e-05	
37	1.850000e+00	9.364533e-05	
38	1.900000e+00	9.447130e-05	
39	1.950000e+00	9.529899e-05	
40	2.000000e+00	9.612859e-05	
41	2.050000e+00	9.696033e-05	
42	2.100000e+00	9.779448e-05	
43	2.150000e+00	9.863132e-05	
44	2.200000e+00	9.947120e-05	
45	2.250000e+00	1.003145e-04	
46	2.300000e+00	1.011617e-04	
47	2.350000e+00	1.020132e-04	
48	2.400000e+00	1.028698e-04	
49	2.450000e+00	1.037320e-04	
50	2.500000e+00	1.046006e-04	
51	2.550000e+00	1.054766e-04	
52	2.600000e+00	1.063609e-04	
53	2.650000e+00	1.072545e-04	
54	2.700000e+00	1.081589e-04	

Index   v-sweep         -i(vds)         
--------------------------------------------------------------------------------
55	2.750000e+00	1.090753e-04	
56	2.800000e+00	1.100053e-04	
57	2.850000e+00	1.109507e-04	
58	2.900000e+00	1.119132e-04	
59	2.950000e+00	1.128950e-04	
60	3.000000e+00	1.138983e-04	
61	3.050000e+00	1.149257e-04	
62	3.100000e+00	1.159797e-04	
63	3.150000e+00	1.170634e-04	
64	3.200000e+00	1.181798e-04	
65	3.250000e+00	1.193324e-04	
66	3.300000e+00	1.205249e-04	
67	0.000000e+00	-1.17698e-24	
68	5.000000e-02	5.119642e-05	
69	1.000000e-01	9.755089e-05	
70	1.500000e-01	1.393173e-04	
71	2.000000e-01	1.767136e-04	
72	2.500000e-01	2.099401e-04	
73	3.000000e-01	2.391846e-04	
74	3.500000e-01	2.646238e-04	
75	4.000000e-01	2.864257e-04	
76	4.500000e-01	3.047561e-04	
77	5.000000e-01	3.197980e-04	
78	5.500000e-01	3.317985e-04	
79	6.000000e-01	3.411365e-04	
80	6.500000e-01	3.483386e-04	
81	7.000000e-01	3.539772e-04	
82	7.500000e-01	3.585375e-04	
83	8.000000e-01	3.623664e-04	
84	8.500000e-01	3.656924e-04	
85	9.000000e-01	3.686628e-04	
86	9.500000e-01	3.713742e-04	
87	1.000000e+00	3.738910e-04	
88	1.050000e+00	3.762579e-04	
89	1.100000e+00	3.785064e-04	
90	1.150000e+00	3.806598e-04	
91	1.200000e+00	3.827353e-04	
92	1.250000e+00	3.847461e-04	
93	1.300000e+00	3.867024e-04	
94	1.350000e+00	3.886125e-04	
95	1.400000e+00	3.904827e-04	
96	1.450000e+00	3.923184e-04	
97	1.500000e+00	3.941241e-04	
98	1.550000e+00	3.959032e-04	
99	1.600000e+00	3.976590e-04	
100	1.650000e+00	3.993939e-04	
101	1.700000e+00	4.011103e-04	
102	1.750000e+00	4.028101e-04	
103	1.800000e+00	4.044948e-04	
104	1.850000e+00	4.061660e-04	
105	1.900000e+00	4.078250e-04	
106	1.950000e+00	4.094729e-04	
107	2.000000e+00	4.111108e-04	
108	2.050000e+00	4.127396e-04	
109	2.100000e+00	4.143604e-04	
110	2.150000e+00	4.159741e-04	
111	2.200000e+00	4.175814e-04	
112	2.250000e+00	4.191835e-04	

Index   v-sweep         -i(vds)         
--------------------------------------------------------------------------------
113	2.300000e+00	4.207812e-04	
114	2.350000e+00	4.223757e-04	
115	2.400000e+00	4.239682e-04	
116	2.450000e+00	4.255599e-04	
117	2.500000e+00	4.271524e-04	
118	2.550000e+00	4.287474e-04	
119	2.600000e+00	4.303466e-04	
120	2.650000e+00	4.319524e-04	
121	2.700000e+00	4.335671e-04	
122	2.750000e+00	4.351935e-04	
123	2.800000e+00	4.368346e-04	
124	2.850000e+00	4.384940e-04	
125	2.900000e+00	4.401756e-04	
126	2.950000e+00	4.418836e-04	
127	3.000000e+00	4.436228e-04	
128	3.050000e+00	4.453986e-04	
129	3.100000e+00	4.472168e-04	
130	3.150000e+00	4.490837e-04	
131	3.200000e+00	4.510064e-04	
132	3.250000e+00	4.529925e-04	
133	3.300000e+00	4.550503e-04	
134	0.000000e+00	1.612608e-19	
135	5.000000e-02	7.440021e-05	
136	1.000000e-01	1.439288e-04	
137	1.500000e-01	2.087996e-04	
138	2.000000e-01	2.691955e-04	
139	2.500000e-01	3.252858e-04	
140	3.000000e-01	3.772302e-04	
141	3.500000e-01	4.251800e-04	
142	4.000000e-01	4.692783e-04	
143	4.500000e-01	5.096593e-04	
144	5.000000e-01	5.464472e-04	
145	5.500000e-01	5.797546e-04	
146	6.000000e-01	6.096803e-04	
147	6.500000e-01	6.363061e-04	
148	7.000000e-01	6.596972e-04	
149	7.500000e-01	6.799124e-04	
150	8.000000e-01	6.970385e-04	
151	8.500000e-01	7.112537e-04	
152	9.000000e-01	7.228811e-04	
153	9.500000e-01	7.323682e-04	
154	1.000000e+00	7.401929e-04	
155	1.050000e+00	7.467743e-04	
156	1.100000e+00	7.524374e-04	
157	1.150000e+00	7.574183e-04	
158	1.200000e+00	7.618851e-04	
159	1.250000e+00	7.659571e-04	
160	1.300000e+00	7.697200e-04	
161	1.350000e+00	7.732366e-04	
162	1.400000e+00	7.765533e-04	
163	1.450000e+00	7.797056e-04	
164	1.500000e+00	7.827207e-04	
165	1.550000e+00	7.856198e-04	
166	1.600000e+00	7.884199e-04	
167	1.650000e+00	7.911348e-04	
168	1.700000e+00	7.937754e-04	
169	1.750000e+00	7.963511e-04	
170	1.800000e+00	7.988695e-04	

Index   v-sweep         -i(vds)         
--------------------------------------------------------------------------------
171	1.850000e+00	8.013369e-04	
172	1.900000e+00	8.037590e-04	
173	1.950000e+00	8.061402e-04	
174	2.000000e+00	8.084847e-04	
175	2.050000e+00	8.107960e-04	
176	2.100000e+00	8.130770e-04	
177	2.150000e+00	8.153306e-04	
178	2.200000e+00	8.175591e-04	
179	2.250000e+00	8.197648e-04	
180	2.300000e+00	8.219496e-04	
181	2.350000e+00	8.241156e-04	
182	2.400000e+00	8.262646e-04	
183	2.450000e+00	8.283983e-04	
184	2.500000e+00	8.305189e-04	
185	2.550000e+00	8.326281e-04	
186	2.600000e+00	8.347282e-04	
187	2.650000e+00	8.368215e-04	
188	2.700000e+00	8.389105e-04	
189	2.750000e+00	8.409983e-04	
190	2.800000e+00	8.430879e-04	
191	2.850000e+00	8.451831e-04	
192	2.900000e+00	8.472880e-04	
193	2.950000e+00	8.494073e-04	
194	3.000000e+00	8.515463e-04	
195	3.050000e+00	8.537108e-04	
196	3.100000e+00	8.559075e-04	
197	3.150000e+00	8.581436e-04	
198	3.200000e+00	8.604275e-04	
199	3.250000e+00	8.627681e-04	
200	3.300000e+00	8.651755e-04	
201	0.000000e+00	-1.31067e-19	
202	5.000000e-02	9.147285e-05	
203	1.000000e-01	1.782716e-04	
204	1.500000e-01	2.605749e-04	
205	2.000000e-01	3.385338e-04	
206	2.500000e-01	4.122885e-04	
207	3.000000e-01	4.819724e-04	
208	3.500000e-01	5.477134e-04	
209	4.000000e-01	6.096341e-04	
210	4.500000e-01	6.678517e-04	
211	5.000000e-01	7.224780e-04	
212	5.500000e-01	7.736188e-04	
213	6.000000e-01	8.213733e-04	
214	6.500000e-01	8.658333e-04	
215	7.000000e-01	9.070811e-04	
216	7.500000e-01	9.451874e-04	
217	8.000000e-01	9.802075e-04	
218	8.500000e-01	1.012177e-03	
219	9.000000e-01	1.041108e-03	
220	9.500000e-01	1.066990e-03	
221	1.000000e+00	1.089805e-03	
222	1.050000e+00	1.109572e-03	
223	1.100000e+00	1.126406e-03	
224	1.150000e+00	1.140566e-03	
225	1.200000e+00	1.152435e-03	
226	1.250000e+00	1.162443e-03	
227	1.300000e+00	1.170990e-03	
228	1.350000e+00	1.178409e-03	

Index   v-sweep         -i(vds)         
--------------------------------------------------------------------------------
229	1.400000e+00	1.184958e-03	
230	1.450000e+00	1.190830e-03	
231	1.500000e+00	1.196169e-03	
232	1.550000e+00	1.201082e-03	
233	1.600000e+00	1.205651e-03	
234	1.650000e+00	1.209937e-03	
235	1.700000e+00	1.213987e-03	
236	1.750000e+00	1.217840e-03	
237	1.800000e+00	1.221524e-03	
238	1.850000e+00	1.225063e-03	
239	1.900000e+00	1.228477e-03	
240	1.950000e+00	1.231781e-03	
241	2.000000e+00	1.234989e-03	
242	2.050000e+00	1.238112e-03	
243	2.100000e+00	1.241158e-03	
244	2.150000e+00	1.244137e-03	
245	2.200000e+00	1.247054e-03	
246	2.250000e+00	1.249917e-03	
247	2.300000e+00	1.252729e-03	
248	2.350000e+00	1.255495e-03	
249	2.400000e+00	1.258219e-03	
250	2.450000e+00	1.260906e-03	
251	2.500000e+00	1.263558e-03	
252	2.550000e+00	1.266178e-03	
253	2.600000e+00	1.268769e-03	
254	2.650000e+00	1.271335e-03	
255	2.700000e+00	1.273877e-03	
256	2.750000e+00	1.276400e-03	
257	2.800000e+00	1.278905e-03	
258	2.850000e+00	1.281397e-03	
259	2.900000e+00	1.283878e-03	
260	2.950000e+00	1.286354e-03	
261	3.000000e+00	1.288829e-03	
262	3.050000e+00	1.291307e-03	
263	3.100000e+00	1.293795e-03	
264	3.150000e+00	1.296299e-03	
265	3.200000e+00	1.298826e-03	
266	3.250000e+00	1.301386e-03	
267	3.300000e+00	1.303986e-03	
268	0.000000e+00	-5.05961e-19	
269	5.000000e-02	1.042983e-04	
270	1.000000e-01	2.041936e-04	
271	1.500000e-01	2.998364e-04	
272	2.000000e-01	3.913517e-04	
273	2.500000e-01	4.788553e-04	
274	3.000000e-01	5.624579e-04	
275	3.500000e-01	6.422665e-04	
276	4.000000e-01	7.183844e-04	
277	4.500000e-01	7.909112e-04	
278	5.000000e-01	8.599433e-04	
279	5.500000e-01	9.255732e-04	
280	6.000000e-01	9.878898e-04	
281	6.500000e-01	1.046978e-03	
282	7.000000e-01	1.102918e-03	
283	7.500000e-01	1.155786e-03	
284	8.000000e-01	1.205651e-03	
285	8.500000e-01	1.252577e-03	
286	9.000000e-01	1.296615e-03	

Index   v-sweep         -i(vds)         
--------------------------------------------------------------------------------
287	9.500000e-01	1.337809e-03	
288	1.000000e+00	1.376184e-03	
289	1.050000e+00	1.411746e-03	
290	1.100000e+00	1.444475e-03	
291	1.150000e+00	1.474324e-03	
292	1.200000e+00	1.501228e-03	
293	1.250000e+00	1.525132e-03	
294	1.300000e+00	1.546040e-03	
295	1.350000e+00	1.564073e-03	
296	1.400000e+00	1.579488e-03	
297	1.450000e+00	1.592645e-03	
298	1.500000e+00	1.603935e-03	
299	1.550000e+00	1.613723e-03	
300	1.600000e+00	1.622320e-03	
301	1.650000e+00	1.629971e-03	
302	1.700000e+00	1.636869e-03	
303	1.750000e+00	1.643162e-03	
304	1.800000e+00	1.648962e-03	
305	1.850000e+00	1.654356e-03	
306	1.900000e+00	1.659413e-03	
307	1.950000e+00	1.664186e-03	
308	2.000000e+00	1.668718e-03	
309	2.050000e+00	1.673043e-03	
310	2.100000e+00	1.677189e-03	
311	2.150000e+00	1.681179e-03	
312	2.200000e+00	1.685032e-03	
313	2.250000e+00	1.688764e-03	
314	2.300000e+00	1.692388e-03	
315	2.350000e+00	1.695916e-03	
316	2.400000e+00	1.699357e-03	
317	2.450000e+00	1.702720e-03	
318	2.500000e+00	1.706012e-03	
319	2.550000e+00	1.709240e-03	
320	2.600000e+00	1.712409e-03	
321	2.650000e+00	1.715524e-03	
322	2.700000e+00	1.718590e-03	
323	2.750000e+00	1.721612e-03	
324	2.800000e+00	1.724592e-03	
325	2.850000e+00	1.727536e-03	
326	2.900000e+00	1.730446e-03	
327	2.950000e+00	1.733328e-03	
328	3.000000e+00	1.736184e-03	
329	3.050000e+00	1.739019e-03	
330	3.100000e+00	1.741839e-03	
331	3.150000e+00	1.744647e-03	
332	3.200000e+00	1.747451e-03	
333	3.250000e+00	1.750257e-03	
334	3.300000e+00	1.753071e-03	
335	0.000000e+00	-2.11984e-19	
336	5.000000e-02	1.140871e-04	
337	1.000000e-01	2.240586e-04	
338	1.500000e-01	3.300426e-04	
339	2.000000e-01	4.321435e-04	
340	2.500000e-01	5.304575e-04	
341	3.000000e-01	6.250768e-04	
342	3.500000e-01	7.160907e-04	
343	4.000000e-01	8.035861e-04	
344	4.500000e-01	8.876475e-04	

Index   v-sweep         -i(vds)         
--------------------------------------------------------------------------------
345	5.000000e-01	9.683567e-04	
346	5.500000e-01	1.045793e-03	
347	6.000000e-01	1.120034e-03	
348	6.500000e-01	1.191154e-03	
349	7.000000e-01	1.259224e-03	
350	7.500000e-01	1.324315e-03	
351	8.000000e-01	1.386491e-03	
352	8.500000e-01	1.445815e-03	
353	9.000000e-01	1.502347e-03	
354	9.500000e-01	1.556142e-03	
355	1.000000e+00	1.607247e-03	
356	1.050000e+00	1.655705e-03	
357	1.100000e+00	1.701549e-03	
358	1.150000e+00	1.744801e-03	
359	1.200000e+00	1.785466e-03	
360	1.250000e+00	1.823528e-03	
361	1.300000e+00	1.858948e-03	
362	1.350000e+00	1.891659e-03	
363	1.400000e+00	1.921570e-03	
364	1.450000e+00	1.948588e-03	
365	1.500000e+00	1.972657e-03	
366	1.550000e+00	1.993811e-03	
367	1.600000e+00	2.012207e-03	
368	1.650000e+00	2.028118e-03	
369	1.700000e+00	2.041890e-03	
370	1.750000e+00	2.053879e-03	
371	1.800000e+00	2.064412e-03	
372	1.850000e+00	2.073767e-03	
373	1.900000e+00	2.082169e-03	
374	1.950000e+00	2.089796e-03	
375	2.000000e+00	2.096789e-03	
376	2.050000e+00	2.103257e-03	
377	2.100000e+00	2.109289e-03	
378	2.150000e+00	2.114951e-03	
379	2.200000e+00	2.120300e-03	
380	2.250000e+00	2.125380e-03	
381	2.300000e+00	2.130227e-03	
382	2.350000e+00	2.134872e-03	
383	2.400000e+00	2.139338e-03	
384	2.450000e+00	2.143648e-03	
385	2.500000e+00	2.147817e-03	
386	2.550000e+00	2.151862e-03	
387	2.600000e+00	2.155795e-03	
388	2.650000e+00	2.159626e-03	
389	2.700000e+00	2.163366e-03	
390	2.750000e+00	2.167023e-03	
391	2.800000e+00	2.170604e-03	
392	2.850000e+00	2.174115e-03	
393	2.900000e+00	2.177563e-03	
394	2.950000e+00	2.180953e-03	
395	3.000000e+00	2.184290e-03	
396	3.050000e+00	2.187579e-03	
397	3.100000e+00	2.190825e-03	
398	3.150000e+00	2.194033e-03	
399	3.200000e+00	2.197207e-03	
400	3.250000e+00	2.200354e-03	
401	3.300000e+00	2.203478e-03	
Note: No ".plot", ".print", or ".fourier" lines; no simulations run
