
Note: Compatibility modes selected: hs

Warning: m=xx on .subckt line will override multiplier m hierarchy!


Circuit: ***************************

Doing analysis at TEMP = -40.000000 and TNOM = -40.000000


No. of Data Rows : 402
                          ***************************
                          DC transfer characteristic  Mon Jan  9 13:58:12  2023
--------------------------------------------------------------------------------
Index   v-sweep         -i(vds)         
--------------------------------------------------------------------------------
0	0.000000e+00	-4.52521e-23	
1	5.000000e-02	4.716079e-07	
2	1.000000e-01	6.603528e-07	
3	1.500000e-01	7.123866e-07	
4	2.000000e-01	7.323626e-07	
5	2.500000e-01	7.447267e-07	
6	3.000000e-01	7.542480e-07	
7	3.500000e-01	7.623213e-07	
8	4.000000e-01	7.695154e-07	
9	4.500000e-01	7.761166e-07	
10	5.000000e-01	7.822899e-07	
11	5.500000e-01	7.881394e-07	
12	6.000000e-01	7.937352e-07	
13	6.500000e-01	7.991270e-07	
14	7.000000e-01	8.043514e-07	
15	7.500000e-01	8.094360e-07	
16	8.000000e-01	8.144023e-07	
17	8.500000e-01	8.192673e-07	
18	9.000000e-01	8.240447e-07	
19	9.500000e-01	8.287458e-07	
20	1.000000e+00	8.333797e-07	
21	1.050000e+00	8.379544e-07	
22	1.100000e+00	8.424763e-07	
23	1.150000e+00	8.469512e-07	
24	1.200000e+00	8.513839e-07	
25	1.250000e+00	8.557786e-07	
26	1.300000e+00	8.601389e-07	
27	1.350000e+00	8.644681e-07	
28	1.400000e+00	8.687692e-07	
29	1.450000e+00	8.730447e-07	
30	1.500000e+00	8.772970e-07	
31	1.550000e+00	8.815284e-07	
32	1.600000e+00	8.857410e-07	
33	1.650000e+00	8.899368e-07	
34	1.700000e+00	8.941179e-07	
35	1.750000e+00	8.982865e-07	
36	1.800000e+00	9.024446e-07	
37	1.850000e+00	9.065946e-07	
38	1.900000e+00	9.107390e-07	
39	1.950000e+00	9.148807e-07	
40	2.000000e+00	9.190226e-07	
41	2.050000e+00	9.231682e-07	
42	2.100000e+00	9.273212e-07	
43	2.150000e+00	9.314860e-07	
44	2.200000e+00	9.356672e-07	
45	2.250000e+00	9.398700e-07	
46	2.300000e+00	9.441004e-07	
47	2.350000e+00	9.483647e-07	
48	2.400000e+00	9.526701e-07	
49	2.450000e+00	9.570245e-07	
50	2.500000e+00	9.614364e-07	
51	2.550000e+00	9.659152e-07	
52	2.600000e+00	9.704713e-07	
53	2.650000e+00	9.751156e-07	
54	2.700000e+00	9.798603e-07	

Index   v-sweep         -i(vds)         
--------------------------------------------------------------------------------
55	2.750000e+00	9.847183e-07	
56	2.800000e+00	9.897036e-07	
57	2.850000e+00	9.948313e-07	
58	2.900000e+00	1.000117e-06	
59	2.950000e+00	1.005579e-06	
60	3.000000e+00	1.011235e-06	
61	3.050000e+00	1.017104e-06	
62	3.100000e+00	1.023207e-06	
63	3.150000e+00	1.029566e-06	
64	3.200000e+00	1.036204e-06	
65	3.250000e+00	1.043145e-06	
66	3.300000e+00	1.050416e-06	
67	0.000000e+00	3.173367e-21	
68	5.000000e-02	4.375466e-06	
69	1.000000e-01	8.208586e-06	
70	1.500000e-01	1.152434e-05	
71	2.000000e-01	1.434654e-05	
72	2.500000e-01	1.669809e-05	
73	3.000000e-01	1.860167e-05	
74	3.500000e-01	2.008174e-05	
75	4.000000e-01	2.117062e-05	
76	4.500000e-01	2.192244e-05	
77	5.000000e-01	2.242243e-05	
78	5.500000e-01	2.276247e-05	
79	6.000000e-01	2.300860e-05	
80	6.500000e-01	2.319861e-05	
81	7.000000e-01	2.335301e-05	
82	7.500000e-01	2.348339e-05	
83	8.000000e-01	2.359666e-05	
84	8.500000e-01	2.369721e-05	
85	9.000000e-01	2.378797e-05	
86	9.500000e-01	2.387098e-05	
87	1.000000e+00	2.394772e-05	
88	1.050000e+00	2.401927e-05	
89	1.100000e+00	2.408648e-05	
90	1.150000e+00	2.415000e-05	
91	1.200000e+00	2.421033e-05	
92	1.250000e+00	2.426790e-05	
93	1.300000e+00	2.432305e-05	
94	1.350000e+00	2.437605e-05	
95	1.400000e+00	2.442715e-05	
96	1.450000e+00	2.447654e-05	
97	1.500000e+00	2.452439e-05	
98	1.550000e+00	2.457085e-05	
99	1.600000e+00	2.461604e-05	
100	1.650000e+00	2.466008e-05	
101	1.700000e+00	2.470306e-05	
102	1.750000e+00	2.474508e-05	
103	1.800000e+00	2.478620e-05	
104	1.850000e+00	2.482650e-05	
105	1.900000e+00	2.486604e-05	
106	1.950000e+00	2.490490e-05	
107	2.000000e+00	2.494312e-05	
108	2.050000e+00	2.498077e-05	
109	2.100000e+00	2.501792e-05	
110	2.150000e+00	2.505461e-05	
111	2.200000e+00	2.509093e-05	
112	2.250000e+00	2.512694e-05	

Index   v-sweep         -i(vds)         
--------------------------------------------------------------------------------
113	2.300000e+00	2.516271e-05	
114	2.350000e+00	2.519834e-05	
115	2.400000e+00	2.523391e-05	
116	2.450000e+00	2.526954e-05	
117	2.500000e+00	2.530532e-05	
118	2.550000e+00	2.534139e-05	
119	2.600000e+00	2.537789e-05	
120	2.650000e+00	2.541497e-05	
121	2.700000e+00	2.545279e-05	
122	2.750000e+00	2.549155e-05	
123	2.800000e+00	2.553143e-05	
124	2.850000e+00	2.557267e-05	
125	2.900000e+00	2.561549e-05	
126	2.950000e+00	2.566016e-05	
127	3.000000e+00	2.570695e-05	
128	3.050000e+00	2.575615e-05	
129	3.100000e+00	2.580810e-05	
130	3.150000e+00	2.586312e-05	
131	3.200000e+00	2.592159e-05	
132	3.250000e+00	2.598389e-05	
133	3.300000e+00	2.605044e-05	
134	0.000000e+00	4.741489e-22	
135	5.000000e-02	7.400426e-06	
136	1.000000e-01	1.424477e-05	
137	1.500000e-01	2.055391e-05	
138	2.000000e-01	2.634778e-05	
139	2.500000e-01	3.164541e-05	
140	3.000000e-01	3.646493e-05	
141	3.500000e-01	4.082358e-05	
142	4.000000e-01	4.473767e-05	
143	4.500000e-01	4.822245e-05	
144	5.000000e-01	5.129195e-05	
145	5.500000e-01	5.395854e-05	
146	6.000000e-01	5.623261e-05	
147	6.500000e-01	5.812306e-05	
148	7.000000e-01	5.964222e-05	
149	7.500000e-01	6.081849e-05	
150	8.000000e-01	6.170730e-05	
151	8.500000e-01	6.238028e-05	
152	9.000000e-01	6.290229e-05	
153	9.500000e-01	6.332059e-05	
154	1.000000e+00	6.366650e-05	
155	1.050000e+00	6.396037e-05	
156	1.100000e+00	6.421564e-05	
157	1.150000e+00	6.444140e-05	
158	1.200000e+00	6.464402e-05	
159	1.250000e+00	6.482808e-05	
160	1.300000e+00	6.499698e-05	
161	1.350000e+00	6.515326e-05	
162	1.400000e+00	6.529893e-05	
163	1.450000e+00	6.543552e-05	
164	1.500000e+00	6.556428e-05	
165	1.550000e+00	6.568623e-05	
166	1.600000e+00	6.580219e-05	
167	1.650000e+00	6.591285e-05	
168	1.700000e+00	6.601879e-05	
169	1.750000e+00	6.612050e-05	
170	1.800000e+00	6.621840e-05	

Index   v-sweep         -i(vds)         
--------------------------------------------------------------------------------
171	1.850000e+00	6.631285e-05	
172	1.900000e+00	6.640415e-05	
173	1.950000e+00	6.649260e-05	
174	2.000000e+00	6.657842e-05	
175	2.050000e+00	6.666183e-05	
176	2.100000e+00	6.674303e-05	
177	2.150000e+00	6.682220e-05	
178	2.200000e+00	6.689951e-05	
179	2.250000e+00	6.697511e-05	
180	2.300000e+00	6.704917e-05	
181	2.350000e+00	6.712184e-05	
182	2.400000e+00	6.719327e-05	
183	2.450000e+00	6.726364e-05	
184	2.500000e+00	6.733312e-05	
185	2.550000e+00	6.740191e-05	
186	2.600000e+00	6.747021e-05	
187	2.650000e+00	6.753826e-05	
188	2.700000e+00	6.760630e-05	
189	2.750000e+00	6.767461e-05	
190	2.800000e+00	6.774351e-05	
191	2.850000e+00	6.781334e-05	
192	2.900000e+00	6.788447e-05	
193	2.950000e+00	6.795732e-05	
194	3.000000e+00	6.803235e-05	
195	3.050000e+00	6.811006e-05	
196	3.100000e+00	6.819099e-05	
197	3.150000e+00	6.827573e-05	
198	3.200000e+00	6.836493e-05	
199	3.250000e+00	6.845928e-05	
200	3.300000e+00	6.855952e-05	
201	0.000000e+00	1.672278e-20	
202	5.000000e-02	9.591606e-06	
203	1.000000e-01	1.864832e-05	
204	1.500000e-01	2.718712e-05	
205	2.000000e-01	3.522438e-05	
206	2.500000e-01	4.277583e-05	
207	3.000000e-01	4.985663e-05	
208	3.500000e-01	5.648134e-05	
209	4.000000e-01	6.266394e-05	
210	4.500000e-01	6.841782e-05	
211	5.000000e-01	7.375574e-05	
212	5.500000e-01	7.868980e-05	
213	6.000000e-01	8.323130e-05	
214	6.500000e-01	8.739055e-05	
215	7.000000e-01	9.117653e-05	
216	7.500000e-01	9.459626e-05	
217	8.000000e-01	9.765383e-05	
218	8.500000e-01	1.003493e-04	
219	9.000000e-01	1.026788e-04	
220	9.500000e-01	1.046386e-04	
221	1.000000e+00	1.062381e-04	
222	1.050000e+00	1.075129e-04	
223	1.100000e+00	1.085215e-04	
224	1.150000e+00	1.093274e-04	
225	1.200000e+00	1.099842e-04	
226	1.250000e+00	1.105319e-04	
227	1.300000e+00	1.109985e-04	
228	1.350000e+00	1.114037e-04	

Index   v-sweep         -i(vds)         
--------------------------------------------------------------------------------
229	1.400000e+00	1.117613e-04	
230	1.450000e+00	1.120812e-04	
231	1.500000e+00	1.123707e-04	
232	1.550000e+00	1.126353e-04	
233	1.600000e+00	1.128791e-04	
234	1.650000e+00	1.131053e-04	
235	1.700000e+00	1.133165e-04	
236	1.750000e+00	1.135148e-04	
237	1.800000e+00	1.137019e-04	
238	1.850000e+00	1.138790e-04	
239	1.900000e+00	1.140474e-04	
240	1.950000e+00	1.142080e-04	
241	2.000000e+00	1.143615e-04	
242	2.050000e+00	1.145088e-04	
243	2.100000e+00	1.146505e-04	
244	2.150000e+00	1.147869e-04	
245	2.200000e+00	1.149186e-04	
246	2.250000e+00	1.150460e-04	
247	2.300000e+00	1.151694e-04	
248	2.350000e+00	1.152892e-04	
249	2.400000e+00	1.154056e-04	
250	2.450000e+00	1.155190e-04	
251	2.500000e+00	1.156296e-04	
252	2.550000e+00	1.157377e-04	
253	2.600000e+00	1.158435e-04	
254	2.650000e+00	1.159473e-04	
255	2.700000e+00	1.160494e-04	
256	2.750000e+00	1.161500e-04	
257	2.800000e+00	1.162496e-04	
258	2.850000e+00	1.163484e-04	
259	2.900000e+00	1.164468e-04	
260	2.950000e+00	1.165453e-04	
261	3.000000e+00	1.166444e-04	
262	3.050000e+00	1.167445e-04	
263	3.100000e+00	1.168463e-04	
264	3.150000e+00	1.169504e-04	
265	3.200000e+00	1.170576e-04	
266	3.250000e+00	1.171685e-04	
267	3.300000e+00	1.172840e-04	
268	0.000000e+00	2.290930e-20	
269	5.000000e-02	1.118779e-05	
270	1.000000e-01	2.187419e-05	
271	1.500000e-01	3.207292e-05	
272	2.000000e-01	4.179728e-05	
273	2.500000e-01	5.106015e-05	
274	3.000000e-01	5.987399e-05	
275	3.500000e-01	6.825088e-05	
276	4.000000e-01	7.620250e-05	
277	4.500000e-01	8.374014e-05	
278	5.000000e-01	9.087471e-05	
279	5.500000e-01	9.761672e-05	
280	6.000000e-01	1.039763e-04	
281	6.500000e-01	1.099630e-04	
282	7.000000e-01	1.155862e-04	
283	7.500000e-01	1.208543e-04	
284	8.000000e-01	1.257754e-04	
285	8.500000e-01	1.303564e-04	
286	9.000000e-01	1.346029e-04	

Index   v-sweep         -i(vds)         
--------------------------------------------------------------------------------
287	9.500000e-01	1.385187e-04	
288	1.000000e+00	1.421046e-04	
289	1.050000e+00	1.453570e-04	
290	1.100000e+00	1.482673e-04	
291	1.150000e+00	1.508223e-04	
292	1.200000e+00	1.530112e-04	
293	1.250000e+00	1.548387e-04	
294	1.300000e+00	1.563355e-04	
295	1.350000e+00	1.575537e-04	
296	1.400000e+00	1.585517e-04	
297	1.450000e+00	1.593811e-04	
298	1.500000e+00	1.600824e-04	
299	1.550000e+00	1.606859e-04	
300	1.600000e+00	1.612134e-04	
301	1.650000e+00	1.616810e-04	
302	1.700000e+00	1.621005e-04	
303	1.750000e+00	1.624808e-04	
304	1.800000e+00	1.628285e-04	
305	1.850000e+00	1.631491e-04	
306	1.900000e+00	1.634465e-04	
307	1.950000e+00	1.637240e-04	
308	2.000000e+00	1.639843e-04	
309	2.050000e+00	1.642296e-04	
310	2.100000e+00	1.644616e-04	
311	2.150000e+00	1.646819e-04	
312	2.200000e+00	1.648917e-04	
313	2.250000e+00	1.650922e-04	
314	2.300000e+00	1.652841e-04	
315	2.350000e+00	1.654684e-04	
316	2.400000e+00	1.656457e-04	
317	2.450000e+00	1.658166e-04	
318	2.500000e+00	1.659816e-04	
319	2.550000e+00	1.661413e-04	
320	2.600000e+00	1.662961e-04	
321	2.650000e+00	1.664464e-04	
322	2.700000e+00	1.665925e-04	
323	2.750000e+00	1.667349e-04	
324	2.800000e+00	1.668739e-04	
325	2.850000e+00	1.670099e-04	
326	2.900000e+00	1.671432e-04	
327	2.950000e+00	1.672743e-04	
328	3.000000e+00	1.674036e-04	
329	3.050000e+00	1.675316e-04	
330	3.100000e+00	1.676587e-04	
331	3.150000e+00	1.677856e-04	
332	3.200000e+00	1.679129e-04	
333	3.250000e+00	1.680412e-04	
334	3.300000e+00	1.681714e-04	
335	0.000000e+00	3.494120e-20	
336	5.000000e-02	1.235320e-05	
337	1.000000e-01	2.424211e-05	
338	1.500000e-01	3.567783e-05	
339	2.000000e-01	4.667117e-05	
340	2.500000e-01	5.723266e-05	
341	3.000000e-01	6.737252e-05	
342	3.500000e-01	7.710071e-05	
343	4.000000e-01	8.642693e-05	
344	4.500000e-01	9.536058e-05	

Index   v-sweep         -i(vds)         
--------------------------------------------------------------------------------
345	5.000000e-01	1.039108e-04	
346	5.500000e-01	1.120865e-04	
347	6.000000e-01	1.198963e-04	
348	6.500000e-01	1.273486e-04	
349	7.000000e-01	1.344513e-04	
350	7.500000e-01	1.412124e-04	
351	8.000000e-01	1.476392e-04	
352	8.500000e-01	1.537390e-04	
353	9.000000e-01	1.595184e-04	
354	9.500000e-01	1.649837e-04	
355	1.000000e+00	1.701404e-04	
356	1.050000e+00	1.749932e-04	
357	1.100000e+00	1.795457e-04	
358	1.150000e+00	1.837995e-04	
359	1.200000e+00	1.877534e-04	
360	1.250000e+00	1.914026e-04	
361	1.300000e+00	1.947367e-04	
362	1.350000e+00	1.977401e-04	
363	1.400000e+00	2.003946e-04	
364	1.450000e+00	2.026882e-04	
365	1.500000e+00	2.046279e-04	
366	1.550000e+00	2.062449e-04	
367	1.600000e+00	2.075879e-04	
368	1.650000e+00	2.087100e-04	
369	1.700000e+00	2.096585e-04	
370	1.750000e+00	2.104717e-04	
371	1.800000e+00	2.111789e-04	
372	1.850000e+00	2.118023e-04	
373	1.900000e+00	2.123582e-04	
374	1.950000e+00	2.128594e-04	
375	2.000000e+00	2.133152e-04	
376	2.050000e+00	2.137333e-04	
377	2.100000e+00	2.141193e-04	
378	2.150000e+00	2.144780e-04	
379	2.200000e+00	2.148131e-04	
380	2.250000e+00	2.151277e-04	
381	2.300000e+00	2.154242e-04	
382	2.350000e+00	2.157047e-04	
383	2.400000e+00	2.159710e-04	
384	2.450000e+00	2.162247e-04	
385	2.500000e+00	2.164669e-04	
386	2.550000e+00	2.166989e-04	
387	2.600000e+00	2.169214e-04	
388	2.650000e+00	2.171354e-04	
389	2.700000e+00	2.173416e-04	
390	2.750000e+00	2.175407e-04	
391	2.800000e+00	2.177332e-04	
392	2.850000e+00	2.179196e-04	
393	2.900000e+00	2.181006e-04	
394	2.950000e+00	2.182765e-04	
395	3.000000e+00	2.184479e-04	
396	3.050000e+00	2.186152e-04	
397	3.100000e+00	2.187788e-04	
398	3.150000e+00	2.189393e-04	
399	3.200000e+00	2.190972e-04	
400	3.250000e+00	2.192531e-04	
401	3.300000e+00	2.194077e-04	
Note: No ".plot", ".print", or ".fourier" lines; no simulations run
