
Note: Compatibility modes selected: hs

Warning: m=xx on .subckt line will override multiplier m hierarchy!


Circuit: ***************************

Doing analysis at TEMP = -40.000000 and TNOM = -40.000000


No. of Data Rows : 402
                          ***************************
                          DC transfer characteristic  Mon Jan  9 13:58:11  2023
--------------------------------------------------------------------------------
Index   v-sweep         -i(vds)         
--------------------------------------------------------------------------------
0	0.000000e+00	-1.12733e-23	
1	5.000000e-02	7.051408e-07	
2	1.000000e-01	9.357132e-07	
3	1.500000e-01	9.923454e-07	
4	2.000000e-01	1.016448e-06	
5	2.500000e-01	1.032499e-06	
6	3.000000e-01	1.045335e-06	
7	3.500000e-01	1.056474e-06	
8	4.000000e-01	1.066562e-06	
9	4.500000e-01	1.075935e-06	
10	5.000000e-01	1.084788e-06	
11	5.500000e-01	1.093248e-06	
12	6.000000e-01	1.101398e-06	
13	6.500000e-01	1.109299e-06	
14	7.000000e-01	1.116997e-06	
15	7.500000e-01	1.124525e-06	
16	8.000000e-01	1.131910e-06	
17	8.500000e-01	1.139172e-06	
18	9.000000e-01	1.146328e-06	
19	9.500000e-01	1.153392e-06	
20	1.000000e+00	1.160376e-06	
21	1.050000e+00	1.167289e-06	
22	1.100000e+00	1.174140e-06	
23	1.150000e+00	1.180935e-06	
24	1.200000e+00	1.187680e-06	
25	1.250000e+00	1.194382e-06	
26	1.300000e+00	1.201043e-06	
27	1.350000e+00	1.207668e-06	
28	1.400000e+00	1.214262e-06	
29	1.450000e+00	1.220826e-06	
30	1.500000e+00	1.227365e-06	
31	1.550000e+00	1.233880e-06	
32	1.600000e+00	1.240375e-06	
33	1.650000e+00	1.246852e-06	
34	1.700000e+00	1.253314e-06	
35	1.750000e+00	1.259764e-06	
36	1.800000e+00	1.266204e-06	
37	1.850000e+00	1.272638e-06	
38	1.900000e+00	1.279068e-06	
39	1.950000e+00	1.285499e-06	
40	2.000000e+00	1.291935e-06	
41	2.050000e+00	1.298380e-06	
42	2.100000e+00	1.304839e-06	
43	2.150000e+00	1.311319e-06	
44	2.200000e+00	1.317826e-06	
45	2.250000e+00	1.324366e-06	
46	2.300000e+00	1.330949e-06	
47	2.350000e+00	1.337582e-06	
48	2.400000e+00	1.344277e-06	
49	2.450000e+00	1.351044e-06	
50	2.500000e+00	1.357894e-06	
51	2.550000e+00	1.364842e-06	
52	2.600000e+00	1.371902e-06	
53	2.650000e+00	1.379088e-06	
54	2.700000e+00	1.386419e-06	

Index   v-sweep         -i(vds)         
--------------------------------------------------------------------------------
55	2.750000e+00	1.393913e-06	
56	2.800000e+00	1.401589e-06	
57	2.850000e+00	1.409469e-06	
58	2.900000e+00	1.417576e-06	
59	2.950000e+00	1.425934e-06	
60	3.000000e+00	1.434569e-06	
61	3.050000e+00	1.443510e-06	
62	3.100000e+00	1.452786e-06	
63	3.150000e+00	1.462428e-06	
64	3.200000e+00	1.472469e-06	
65	3.250000e+00	1.482946e-06	
66	3.300000e+00	1.493893e-06	
67	0.000000e+00	7.292424e-22	
68	5.000000e-02	8.619867e-06	
69	1.000000e-01	1.611967e-05	
70	1.500000e-01	2.255489e-05	
71	2.000000e-01	2.797812e-05	
72	2.500000e-01	3.243973e-05	
73	3.000000e-01	3.598967e-05	
74	3.500000e-01	3.868319e-05	
75	4.000000e-01	4.059915e-05	
76	4.500000e-01	4.187487e-05	
77	5.000000e-01	4.270625e-05	
78	5.500000e-01	4.327236e-05	
79	6.000000e-01	4.368646e-05	
80	6.500000e-01	4.400962e-05	
81	7.000000e-01	4.427460e-05	
82	7.500000e-01	4.449995e-05	
83	8.000000e-01	4.469687e-05	
84	8.500000e-01	4.487252e-05	
85	9.000000e-01	4.503174e-05	
86	9.500000e-01	4.517790e-05	
87	1.000000e+00	4.531345e-05	
88	1.050000e+00	4.544021e-05	
89	1.100000e+00	4.555960e-05	
90	1.150000e+00	4.567270e-05	
91	1.200000e+00	4.578039e-05	
92	1.250000e+00	4.588337e-05	
93	1.300000e+00	4.598221e-05	
94	1.350000e+00	4.607739e-05	
95	1.400000e+00	4.616931e-05	
96	1.450000e+00	4.625831e-05	
97	1.500000e+00	4.634469e-05	
98	1.550000e+00	4.642868e-05	
99	1.600000e+00	4.651050e-05	
100	1.650000e+00	4.659035e-05	
101	1.700000e+00	4.666839e-05	
102	1.750000e+00	4.674477e-05	
103	1.800000e+00	4.681962e-05	
104	1.850000e+00	4.689307e-05	
105	1.900000e+00	4.696523e-05	
106	1.950000e+00	4.703621e-05	
107	2.000000e+00	4.710611e-05	
108	2.050000e+00	4.717506e-05	
109	2.100000e+00	4.724314e-05	
110	2.150000e+00	4.731048e-05	
111	2.200000e+00	4.737720e-05	
112	2.250000e+00	4.744342e-05	

Index   v-sweep         -i(vds)         
--------------------------------------------------------------------------------
113	2.300000e+00	4.750928e-05	
114	2.350000e+00	4.757495e-05	
115	2.400000e+00	4.764059e-05	
116	2.450000e+00	4.770639e-05	
117	2.500000e+00	4.777256e-05	
118	2.550000e+00	4.783933e-05	
119	2.600000e+00	4.790697e-05	
120	2.650000e+00	4.797575e-05	
121	2.700000e+00	4.804600e-05	
122	2.750000e+00	4.811804e-05	
123	2.800000e+00	4.819227e-05	
124	2.850000e+00	4.826908e-05	
125	2.900000e+00	4.834892e-05	
126	2.950000e+00	4.843228e-05	
127	3.000000e+00	4.851967e-05	
128	3.050000e+00	4.861165e-05	
129	3.100000e+00	4.870882e-05	
130	3.150000e+00	4.881183e-05	
131	3.200000e+00	4.892136e-05	
132	3.250000e+00	4.903814e-05	
133	3.300000e+00	4.916296e-05	
134	0.000000e+00	2.924103e-21	
135	5.000000e-02	1.470767e-05	
136	1.000000e-01	2.827077e-05	
137	1.500000e-01	4.073483e-05	
138	2.000000e-01	5.214325e-05	
139	2.500000e-01	6.253728e-05	
140	3.000000e-01	7.195610e-05	
141	3.500000e-01	8.043672e-05	
142	4.000000e-01	8.801387e-05	
143	4.500000e-01	9.471959e-05	
144	5.000000e-01	1.005825e-04	
145	5.500000e-01	1.056269e-04	
146	6.000000e-01	1.098714e-04	
147	6.500000e-01	1.133333e-04	
148	7.000000e-01	1.160463e-04	
149	7.500000e-01	1.180937e-04	
150	8.000000e-01	1.196149e-04	
151	8.500000e-01	1.207614e-04	
152	9.000000e-01	1.216532e-04	
153	9.500000e-01	1.223719e-04	
154	1.000000e+00	1.229698e-04	
155	1.050000e+00	1.234804e-04	
156	1.100000e+00	1.239260e-04	
157	1.150000e+00	1.243216e-04	
158	1.200000e+00	1.246779e-04	
159	1.250000e+00	1.250026e-04	
160	1.300000e+00	1.253012e-04	
161	1.350000e+00	1.255783e-04	
162	1.400000e+00	1.258370e-04	
163	1.450000e+00	1.260801e-04	
164	1.500000e+00	1.263097e-04	
165	1.550000e+00	1.265275e-04	
166	1.600000e+00	1.267349e-04	
167	1.650000e+00	1.269332e-04	
168	1.700000e+00	1.271232e-04	
169	1.750000e+00	1.273059e-04	
170	1.800000e+00	1.274820e-04	

Index   v-sweep         -i(vds)         
--------------------------------------------------------------------------------
171	1.850000e+00	1.276521e-04	
172	1.900000e+00	1.278168e-04	
173	1.950000e+00	1.279764e-04	
174	2.000000e+00	1.281315e-04	
175	2.050000e+00	1.282824e-04	
176	2.100000e+00	1.284295e-04	
177	2.150000e+00	1.285730e-04	
178	2.200000e+00	1.287133e-04	
179	2.250000e+00	1.288506e-04	
180	2.300000e+00	1.289853e-04	
181	2.350000e+00	1.291176e-04	
182	2.400000e+00	1.292478e-04	
183	2.450000e+00	1.293763e-04	
184	2.500000e+00	1.295033e-04	
185	2.550000e+00	1.296292e-04	
186	2.600000e+00	1.297544e-04	
187	2.650000e+00	1.298793e-04	
188	2.700000e+00	1.300044e-04	
189	2.750000e+00	1.301303e-04	
190	2.800000e+00	1.302575e-04	
191	2.850000e+00	1.303867e-04	
192	2.900000e+00	1.305185e-04	
193	2.950000e+00	1.306539e-04	
194	3.000000e+00	1.307937e-04	
195	3.050000e+00	1.309387e-04	
196	3.100000e+00	1.310902e-04	
197	3.150000e+00	1.312491e-04	
198	3.200000e+00	1.314168e-04	
199	3.250000e+00	1.315946e-04	
200	3.300000e+00	1.317838e-04	
201	0.000000e+00	1.851413e-21	
202	5.000000e-02	1.900698e-05	
203	1.000000e-01	3.692230e-05	
204	1.500000e-01	5.378229e-05	
205	2.000000e-01	6.962190e-05	
206	2.500000e-01	8.447473e-05	
207	3.000000e-01	9.837303e-05	
208	3.500000e-01	1.113477e-04	
209	4.000000e-01	1.234284e-04	
210	4.500000e-01	1.346433e-04	
211	5.000000e-01	1.450193e-04	
212	5.500000e-01	1.545814e-04	
213	6.000000e-01	1.633529e-04	
214	6.500000e-01	1.713545e-04	
215	7.000000e-01	1.786032e-04	
216	7.500000e-01	1.851107e-04	
217	8.000000e-01	1.908810e-04	
218	8.500000e-01	1.959081e-04	
219	9.000000e-01	2.001796e-04	
220	9.500000e-01	2.036954e-04	
221	1.000000e+00	2.064999e-04	
222	1.050000e+00	2.086973e-04	
223	1.100000e+00	2.104221e-04	
224	1.150000e+00	2.117995e-04	
225	1.200000e+00	2.129257e-04	
226	1.250000e+00	2.138690e-04	
227	1.300000e+00	2.146764e-04	
228	1.350000e+00	2.153805e-04	

Index   v-sweep         -i(vds)         
--------------------------------------------------------------------------------
229	1.400000e+00	2.160041e-04	
230	1.450000e+00	2.165639e-04	
231	1.500000e+00	2.170719e-04	
232	1.550000e+00	2.175374e-04	
233	1.600000e+00	2.179672e-04	
234	1.650000e+00	2.183670e-04	
235	1.700000e+00	2.187409e-04	
236	1.750000e+00	2.190925e-04	
237	1.800000e+00	2.194247e-04	
238	1.850000e+00	2.197397e-04	
239	1.900000e+00	2.200396e-04	
240	1.950000e+00	2.203259e-04	
241	2.000000e+00	2.206001e-04	
242	2.050000e+00	2.208634e-04	
243	2.100000e+00	2.211168e-04	
244	2.150000e+00	2.213612e-04	
245	2.200000e+00	2.215974e-04	
246	2.250000e+00	2.218260e-04	
247	2.300000e+00	2.220478e-04	
248	2.350000e+00	2.222632e-04	
249	2.400000e+00	2.224728e-04	
250	2.450000e+00	2.226771e-04	
251	2.500000e+00	2.228766e-04	
252	2.550000e+00	2.230718e-04	
253	2.600000e+00	2.232631e-04	
254	2.650000e+00	2.234509e-04	
255	2.700000e+00	2.236360e-04	
256	2.750000e+00	2.238187e-04	
257	2.800000e+00	2.239997e-04	
258	2.850000e+00	2.241797e-04	
259	2.900000e+00	2.243594e-04	
260	2.950000e+00	2.245396e-04	
261	3.000000e+00	2.247213e-04	
262	3.050000e+00	2.249054e-04	
263	3.100000e+00	2.250932e-04	
264	3.150000e+00	2.252857e-04	
265	3.200000e+00	2.254844e-04	
266	3.250000e+00	2.256908e-04	
267	3.300000e+00	2.259066e-04	
268	0.000000e+00	-8.24786e-20	
269	5.000000e-02	2.205977e-05	
270	1.000000e-01	4.310575e-05	
271	1.500000e-01	6.316675e-05	
272	2.000000e-01	8.227068e-05	
273	2.500000e-01	1.004445e-04	
274	3.000000e-01	1.177145e-04	
275	3.500000e-01	1.341057e-04	
276	4.000000e-01	1.496427e-04	
277	4.500000e-01	1.643489e-04	
278	5.000000e-01	1.782471e-04	
279	5.500000e-01	1.913591e-04	
280	6.000000e-01	2.037058e-04	
281	6.500000e-01	2.153071e-04	
282	7.000000e-01	2.261817e-04	
283	7.500000e-01	2.363472e-04	
284	8.000000e-01	2.458190e-04	
285	8.500000e-01	2.546106e-04	
286	9.000000e-01	2.627316e-04	

Index   v-sweep         -i(vds)         
--------------------------------------------------------------------------------
287	9.500000e-01	2.701868e-04	
288	1.000000e+00	2.769730e-04	
289	1.050000e+00	2.830768e-04	
290	1.100000e+00	2.884729e-04	
291	1.150000e+00	2.931327e-04	
292	1.200000e+00	2.970458e-04	
293	1.250000e+00	3.002499e-04	
294	1.300000e+00	3.028374e-04	
295	1.350000e+00	3.049287e-04	
296	1.400000e+00	3.066397e-04	
297	1.450000e+00	3.080644e-04	
298	1.500000e+00	3.092733e-04	
299	1.550000e+00	3.103173e-04	
300	1.600000e+00	3.112331e-04	
301	1.650000e+00	3.120476e-04	
302	1.700000e+00	3.127804e-04	
303	1.750000e+00	3.134464e-04	
304	1.800000e+00	3.140569e-04	
305	1.850000e+00	3.146207e-04	
306	1.900000e+00	3.151448e-04	
307	1.950000e+00	3.156348e-04	
308	2.000000e+00	3.160950e-04	
309	2.050000e+00	3.165293e-04	
310	2.100000e+00	3.169407e-04	
311	2.150000e+00	3.173318e-04	
312	2.200000e+00	3.177047e-04	
313	2.250000e+00	3.180612e-04	
314	2.300000e+00	3.184031e-04	
315	2.350000e+00	3.187316e-04	
316	2.400000e+00	3.190479e-04	
317	2.450000e+00	3.193531e-04	
318	2.500000e+00	3.196482e-04	
319	2.550000e+00	3.199339e-04	
320	2.600000e+00	3.202111e-04	
321	2.650000e+00	3.204805e-04	
322	2.700000e+00	3.207427e-04	
323	2.750000e+00	3.209984e-04	
324	2.800000e+00	3.212484e-04	
325	2.850000e+00	3.214931e-04	
326	2.900000e+00	3.217335e-04	
327	2.950000e+00	3.219701e-04	
328	3.000000e+00	3.222039e-04	
329	3.050000e+00	3.224357e-04	
330	3.100000e+00	3.226665e-04	
331	3.150000e+00	3.228974e-04	
332	3.200000e+00	3.231296e-04	
333	3.250000e+00	3.233644e-04	
334	3.300000e+00	3.236033e-04	
335	0.000000e+00	8.444135e-20	
336	5.000000e-02	2.422932e-05	
337	1.000000e-01	4.752831e-05	
338	1.500000e-01	6.991992e-05	
339	2.000000e-01	9.142646e-05	
340	2.500000e-01	1.120697e-04	
341	3.000000e-01	1.318706e-04	
342	3.500000e-01	1.508499e-04	
343	4.000000e-01	1.690273e-04	
344	4.500000e-01	1.864224e-04	

Index   v-sweep         -i(vds)         
--------------------------------------------------------------------------------
345	5.000000e-01	2.030539e-04	
346	5.500000e-01	2.189401e-04	
347	6.000000e-01	2.340986e-04	
348	6.500000e-01	2.485466e-04	
349	7.000000e-01	2.623005e-04	
350	7.500000e-01	2.753763e-04	
351	8.000000e-01	2.877890e-04	
352	8.500000e-01	2.995530e-04	
353	9.000000e-01	3.106818e-04	
354	9.500000e-01	3.211877e-04	
355	1.000000e+00	3.310811e-04	
356	1.050000e+00	3.403706e-04	
357	1.100000e+00	3.490615e-04	
358	1.150000e+00	3.571544e-04	
359	1.200000e+00	3.646429e-04	
360	1.250000e+00	3.715112e-04	
361	1.300000e+00	3.777315e-04	
362	1.350000e+00	3.832667e-04	
363	1.400000e+00	3.880824e-04	
364	1.450000e+00	3.921716e-04	
365	1.500000e+00	3.955760e-04	
366	1.550000e+00	3.983833e-04	
367	1.600000e+00	4.007024e-04	
368	1.650000e+00	4.026375e-04	
369	1.700000e+00	4.042754e-04	
370	1.750000e+00	4.056830e-04	
371	1.800000e+00	4.069106e-04	
372	1.850000e+00	4.079956e-04	
373	1.900000e+00	4.089659e-04	
374	1.950000e+00	4.098426e-04	
375	2.000000e+00	4.106419e-04	
376	2.050000e+00	4.113762e-04	
377	2.100000e+00	4.120556e-04	
378	2.150000e+00	4.126878e-04	
379	2.200000e+00	4.132793e-04	
380	2.250000e+00	4.138352e-04	
381	2.300000e+00	4.143599e-04	
382	2.350000e+00	4.148569e-04	
383	2.400000e+00	4.153293e-04	
384	2.450000e+00	4.157796e-04	
385	2.500000e+00	4.162100e-04	
386	2.550000e+00	4.166225e-04	
387	2.600000e+00	4.170187e-04	
388	2.650000e+00	4.174000e-04	
389	2.700000e+00	4.177676e-04	
390	2.750000e+00	4.181228e-04	
391	2.800000e+00	4.184666e-04	
392	2.850000e+00	4.187999e-04	
393	2.900000e+00	4.191236e-04	
394	2.950000e+00	4.194386e-04	
395	3.000000e+00	4.197458e-04	
396	3.050000e+00	4.200458e-04	
397	3.100000e+00	4.203398e-04	
398	3.150000e+00	4.206285e-04	
399	3.200000e+00	4.209130e-04	
400	3.250000e+00	4.211944e-04	
401	3.300000e+00	4.214738e-04	
Note: No ".plot", ".print", or ".fourier" lines; no simulations run
