
Note: Compatibility modes selected: hs

Warning: m=xx on .subckt line will override multiplier m hierarchy!


Circuit: ***************************

Doing analysis at TEMP = -40.000000 and TNOM = -40.000000


No. of Data Rows : 402
                          ***************************
                          DC transfer characteristic  Mon Jan  9 13:58:11  2023
--------------------------------------------------------------------------------
Index   v-sweep         -i(vds)         
--------------------------------------------------------------------------------
0	0.000000e+00	3.564491e-23	
1	5.000000e-02	1.262366e-07	
2	1.000000e-01	1.585888e-07	
3	1.500000e-01	1.608957e-07	
4	2.000000e-01	1.614003e-07	
5	2.500000e-01	1.616995e-07	
6	3.000000e-01	1.619375e-07	
7	3.500000e-01	1.621476e-07	
8	4.000000e-01	1.623419e-07	
9	4.500000e-01	1.625257e-07	
10	5.000000e-01	1.627023e-07	
11	5.500000e-01	1.628735e-07	
12	6.000000e-01	1.630405e-07	
13	6.500000e-01	1.632040e-07	
14	7.000000e-01	1.633649e-07	
15	7.500000e-01	1.635234e-07	
16	8.000000e-01	1.636799e-07	
17	8.500000e-01	1.638348e-07	
18	9.000000e-01	1.639882e-07	
19	9.500000e-01	1.641404e-07	
20	1.000000e+00	1.642913e-07	
21	1.050000e+00	1.644413e-07	
22	1.100000e+00	1.645904e-07	
23	1.150000e+00	1.647387e-07	
24	1.200000e+00	1.648862e-07	
25	1.250000e+00	1.650330e-07	
26	1.300000e+00	1.651792e-07	
27	1.350000e+00	1.653249e-07	
28	1.400000e+00	1.654701e-07	
29	1.450000e+00	1.656148e-07	
30	1.500000e+00	1.657591e-07	
31	1.550000e+00	1.659030e-07	
32	1.600000e+00	1.660467e-07	
33	1.650000e+00	1.661902e-07	
34	1.700000e+00	1.663336e-07	
35	1.750000e+00	1.664770e-07	
36	1.800000e+00	1.666207e-07	
37	1.850000e+00	1.667648e-07	
38	1.900000e+00	1.669097e-07	
39	1.950000e+00	1.670556e-07	
40	2.000000e+00	1.672030e-07	
41	2.050000e+00	1.673523e-07	
42	2.100000e+00	1.675042e-07	
43	2.150000e+00	1.676594e-07	
44	2.200000e+00	1.678186e-07	
45	2.250000e+00	1.679830e-07	
46	2.300000e+00	1.681534e-07	
47	2.350000e+00	1.683312e-07	
48	2.400000e+00	1.685178e-07	
49	2.450000e+00	1.687147e-07	
50	2.500000e+00	1.689236e-07	
51	2.550000e+00	1.691465e-07	
52	2.600000e+00	1.693855e-07	
53	2.650000e+00	1.696428e-07	
54	2.700000e+00	1.699208e-07	

Index   v-sweep         -i(vds)         
--------------------------------------------------------------------------------
55	2.750000e+00	1.702224e-07	
56	2.800000e+00	1.705502e-07	
57	2.850000e+00	1.709073e-07	
58	2.900000e+00	1.712970e-07	
59	2.950000e+00	1.717226e-07	
60	3.000000e+00	1.721878e-07	
61	3.050000e+00	1.726964e-07	
62	3.100000e+00	1.732523e-07	
63	3.150000e+00	1.738597e-07	
64	3.200000e+00	1.745228e-07	
65	3.250000e+00	1.752461e-07	
66	3.300000e+00	1.760342e-07	
67	0.000000e+00	2.654819e-22	
68	5.000000e-02	1.136297e-06	
69	1.000000e-01	2.129946e-06	
70	1.500000e-01	2.981785e-06	
71	2.000000e-01	3.692678e-06	
72	2.500000e-01	4.263559e-06	
73	3.000000e-01	4.695608e-06	
74	3.500000e-01	4.991031e-06	
75	4.000000e-01	5.157363e-06	
76	4.500000e-01	5.224510e-06	
77	5.000000e-01	5.246990e-06	
78	5.500000e-01	5.256877e-06	
79	6.000000e-01	5.262860e-06	
80	6.500000e-01	5.267209e-06	
81	7.000000e-01	5.270703e-06	
82	7.500000e-01	5.273677e-06	
83	8.000000e-01	5.276305e-06	
84	8.500000e-01	5.278684e-06	
85	9.000000e-01	5.280878e-06	
86	9.500000e-01	5.282927e-06	
87	1.000000e+00	5.284860e-06	
88	1.050000e+00	5.286698e-06	
89	1.100000e+00	5.288457e-06	
90	1.150000e+00	5.290150e-06	
91	1.200000e+00	5.291785e-06	
92	1.250000e+00	5.293370e-06	
93	1.300000e+00	5.294911e-06	
94	1.350000e+00	5.296414e-06	
95	1.400000e+00	5.297882e-06	
96	1.450000e+00	5.299320e-06	
97	1.500000e+00	5.300730e-06	
98	1.550000e+00	5.302115e-06	
99	1.600000e+00	5.303477e-06	
100	1.650000e+00	5.304818e-06	
101	1.700000e+00	5.306141e-06	
102	1.750000e+00	5.307446e-06	
103	1.800000e+00	5.308736e-06	
104	1.850000e+00	5.310013e-06	
105	1.900000e+00	5.311278e-06	
106	1.950000e+00	5.312534e-06	
107	2.000000e+00	5.313784e-06	
108	2.050000e+00	5.315031e-06	
109	2.100000e+00	5.316280e-06	
110	2.150000e+00	5.317536e-06	
111	2.200000e+00	5.318808e-06	
112	2.250000e+00	5.320104e-06	

Index   v-sweep         -i(vds)         
--------------------------------------------------------------------------------
113	2.300000e+00	5.321435e-06	
114	2.350000e+00	5.322815e-06	
115	2.400000e+00	5.324260e-06	
116	2.450000e+00	5.325789e-06	
117	2.500000e+00	5.327426e-06	
118	2.550000e+00	5.329197e-06	
119	2.600000e+00	5.331132e-06	
120	2.650000e+00	5.333267e-06	
121	2.700000e+00	5.335642e-06	
122	2.750000e+00	5.338301e-06	
123	2.800000e+00	5.341293e-06	
124	2.850000e+00	5.344675e-06	
125	2.900000e+00	5.348506e-06	
126	2.950000e+00	5.352853e-06	
127	3.000000e+00	5.357788e-06	
128	3.050000e+00	5.363387e-06	
129	3.100000e+00	5.369736e-06	
130	3.150000e+00	5.376923e-06	
131	3.200000e+00	5.385044e-06	
132	3.250000e+00	5.394199e-06	
133	3.300000e+00	5.404495e-06	
134	0.000000e+00	-1.39382e-21	
135	5.000000e-02	2.068037e-06	
136	1.000000e-01	4.000405e-06	
137	1.500000e-01	5.797830e-06	
138	2.000000e-01	7.461032e-06	
139	2.500000e-01	8.990726e-06	
140	3.000000e-01	1.038763e-05	
141	3.500000e-01	1.165245e-05	
142	4.000000e-01	1.278590e-05	
143	4.500000e-01	1.378870e-05	
144	5.000000e-01	1.466158e-05	
145	5.500000e-01	1.540529e-05	
146	6.000000e-01	1.602069e-05	
147	6.500000e-01	1.650887e-05	
148	7.000000e-01	1.687178e-05	
149	7.500000e-01	1.711454e-05	
150	8.000000e-01	1.725318e-05	
151	8.500000e-01	1.732228e-05	
152	9.000000e-01	1.735799e-05	
153	9.500000e-01	1.737959e-05	
154	1.000000e+00	1.739464e-05	
155	1.050000e+00	1.740618e-05	
156	1.100000e+00	1.741561e-05	
157	1.150000e+00	1.742363e-05	
158	1.200000e+00	1.743068e-05	
159	1.250000e+00	1.743700e-05	
160	1.300000e+00	1.744276e-05	
161	1.350000e+00	1.744807e-05	
162	1.400000e+00	1.745303e-05	
163	1.450000e+00	1.745770e-05	
164	1.500000e+00	1.746211e-05	
165	1.550000e+00	1.746631e-05	
166	1.600000e+00	1.747034e-05	
167	1.650000e+00	1.747420e-05	
168	1.700000e+00	1.747792e-05	
169	1.750000e+00	1.748152e-05	
170	1.800000e+00	1.748501e-05	

Index   v-sweep         -i(vds)         
--------------------------------------------------------------------------------
171	1.850000e+00	1.748840e-05	
172	1.900000e+00	1.749171e-05	
173	1.950000e+00	1.749493e-05	
174	2.000000e+00	1.749808e-05	
175	2.050000e+00	1.750116e-05	
176	2.100000e+00	1.750418e-05	
177	2.150000e+00	1.750715e-05	
178	2.200000e+00	1.751007e-05	
179	2.250000e+00	1.751295e-05	
180	2.300000e+00	1.751579e-05	
181	2.350000e+00	1.751861e-05	
182	2.400000e+00	1.752141e-05	
183	2.450000e+00	1.752422e-05	
184	2.500000e+00	1.752704e-05	
185	2.550000e+00	1.752990e-05	
186	2.600000e+00	1.753282e-05	
187	2.650000e+00	1.753585e-05	
188	2.700000e+00	1.753902e-05	
189	2.750000e+00	1.754238e-05	
190	2.800000e+00	1.754599e-05	
191	2.850000e+00	1.754993e-05	
192	2.900000e+00	1.755427e-05	
193	2.950000e+00	1.755911e-05	
194	3.000000e+00	1.756457e-05	
195	3.050000e+00	1.757076e-05	
196	3.100000e+00	1.757783e-05	
197	3.150000e+00	1.758593e-05	
198	3.200000e+00	1.759524e-05	
199	3.250000e+00	1.760594e-05	
200	3.300000e+00	1.761826e-05	
201	0.000000e+00	9.823800e-21	
202	5.000000e-02	2.822159e-06	
203	1.000000e-01	5.520723e-06	
204	1.500000e-01	8.096303e-06	
205	2.000000e-01	1.054951e-05	
206	2.500000e-01	1.288094e-05	
207	3.000000e-01	1.509120e-05	
208	3.500000e-01	1.718090e-05	
209	4.000000e-01	1.915061e-05	
210	4.500000e-01	2.100094e-05	
211	5.000000e-01	2.273248e-05	
212	5.500000e-01	2.434580e-05	
213	6.000000e-01	2.584150e-05	
214	6.500000e-01	2.722016e-05	
215	7.000000e-01	2.848234e-05	
216	7.500000e-01	2.962863e-05	
217	8.000000e-01	3.065959e-05	
218	8.500000e-01	3.157582e-05	
219	9.000000e-01	3.237789e-05	
220	9.500000e-01	3.306640e-05	
221	1.000000e+00	3.364205e-05	
222	1.050000e+00	3.410579e-05	
223	1.100000e+00	3.445948e-05	
224	1.150000e+00	3.470829e-05	
225	1.200000e+00	3.486641e-05	
226	1.250000e+00	3.496029e-05	
227	1.300000e+00	3.501749e-05	
228	1.350000e+00	3.505557e-05	

Index   v-sweep         -i(vds)         
--------------------------------------------------------------------------------
229	1.400000e+00	3.508327e-05	
230	1.450000e+00	3.510487e-05	
231	1.500000e+00	3.512257e-05	
232	1.550000e+00	3.513762e-05	
233	1.600000e+00	3.515074e-05	
234	1.650000e+00	3.516244e-05	
235	1.700000e+00	3.517302e-05	
236	1.750000e+00	3.518273e-05	
237	1.800000e+00	3.519171e-05	
238	1.850000e+00	3.520010e-05	
239	1.900000e+00	3.520798e-05	
240	1.950000e+00	3.521544e-05	
241	2.000000e+00	3.522253e-05	
242	2.050000e+00	3.522931e-05	
243	2.100000e+00	3.523579e-05	
244	2.150000e+00	3.524203e-05	
245	2.200000e+00	3.524805e-05	
246	2.250000e+00	3.525387e-05	
247	2.300000e+00	3.525951e-05	
248	2.350000e+00	3.526499e-05	
249	2.400000e+00	3.527031e-05	
250	2.450000e+00	3.527551e-05	
251	2.500000e+00	3.528058e-05	
252	2.550000e+00	3.528555e-05	
253	2.600000e+00	3.529041e-05	
254	2.650000e+00	3.529520e-05	
255	2.700000e+00	3.529992e-05	
256	2.750000e+00	3.530459e-05	
257	2.800000e+00	3.530923e-05	
258	2.850000e+00	3.531388e-05	
259	2.900000e+00	3.531857e-05	
260	2.950000e+00	3.532336e-05	
261	3.000000e+00	3.532828e-05	
262	3.050000e+00	3.533343e-05	
263	3.100000e+00	3.533888e-05	
264	3.150000e+00	3.534474e-05	
265	3.200000e+00	3.535114e-05	
266	3.250000e+00	3.535822e-05	
267	3.300000e+00	3.536616e-05	
268	0.000000e+00	8.223832e-21	
269	5.000000e-02	3.392188e-06	
270	1.000000e-01	6.674422e-06	
271	1.500000e-01	9.847201e-06	
272	2.000000e-01	1.291102e-05	
273	2.500000e-01	1.586638e-05	
274	3.000000e-01	1.871377e-05	
275	3.500000e-01	2.145368e-05	
276	4.000000e-01	2.408660e-05	
277	4.500000e-01	2.661302e-05	
278	5.000000e-01	2.903341e-05	
279	5.500000e-01	3.134826e-05	
280	6.000000e-01	3.355804e-05	
281	6.500000e-01	3.566323e-05	
282	7.000000e-01	3.766431e-05	
283	7.500000e-01	3.956175e-05	
284	8.000000e-01	4.135600e-05	
285	8.500000e-01	4.304755e-05	
286	9.000000e-01	4.463684e-05	

Index   v-sweep         -i(vds)         
--------------------------------------------------------------------------------
287	9.500000e-01	4.612435e-05	
288	1.000000e+00	4.751052e-05	
289	1.050000e+00	4.879581e-05	
290	1.100000e+00	4.998067e-05	
291	1.150000e+00	5.106554e-05	
292	1.200000e+00	5.205084e-05	
293	1.250000e+00	5.293702e-05	
294	1.300000e+00	5.372447e-05	
295	1.350000e+00	5.441358e-05	
296	1.400000e+00	5.500474e-05	
297	1.450000e+00	5.549836e-05	
298	1.500000e+00	5.589522e-05	
299	1.550000e+00	5.619760e-05	
300	1.600000e+00	5.641262e-05	
301	1.650000e+00	5.655639e-05	
302	1.700000e+00	5.665118e-05	
303	1.750000e+00	5.671621e-05	
304	1.800000e+00	5.676367e-05	
305	1.850000e+00	5.680036e-05	
306	1.900000e+00	5.683007e-05	
307	1.950000e+00	5.685501e-05	
308	2.000000e+00	5.687651e-05	
309	2.050000e+00	5.689546e-05	
310	2.100000e+00	5.691243e-05	
311	2.150000e+00	5.692785e-05	
312	2.200000e+00	5.694200e-05	
313	2.250000e+00	5.695511e-05	
314	2.300000e+00	5.696734e-05	
315	2.350000e+00	5.697884e-05	
316	2.400000e+00	5.698970e-05	
317	2.450000e+00	5.700001e-05	
318	2.500000e+00	5.700983e-05	
319	2.550000e+00	5.701923e-05	
320	2.600000e+00	5.702825e-05	
321	2.650000e+00	5.703693e-05	
322	2.700000e+00	5.704531e-05	
323	2.750000e+00	5.705341e-05	
324	2.800000e+00	5.706126e-05	
325	2.850000e+00	5.706889e-05	
326	2.900000e+00	5.707631e-05	
327	2.950000e+00	5.708355e-05	
328	3.000000e+00	5.709062e-05	
329	3.050000e+00	5.709755e-05	
330	3.100000e+00	5.710436e-05	
331	3.150000e+00	5.711108e-05	
332	3.200000e+00	5.711774e-05	
333	3.250000e+00	5.712440e-05	
334	3.300000e+00	5.713111e-05	
335	0.000000e+00	-1.83333e-20	
336	5.000000e-02	3.794973e-06	
337	1.000000e-01	7.493676e-06	
338	1.500000e-01	1.109651e-05	
339	2.000000e-01	1.460387e-05	
340	2.500000e-01	1.801615e-05	
341	3.000000e-01	2.133375e-05	
342	3.500000e-01	2.455706e-05	
343	4.000000e-01	2.768647e-05	
344	4.500000e-01	3.072237e-05	

Index   v-sweep         -i(vds)         
--------------------------------------------------------------------------------
345	5.000000e-01	3.366515e-05	
346	5.500000e-01	3.651519e-05	
347	6.000000e-01	3.927288e-05	
348	6.500000e-01	4.193860e-05	
349	7.000000e-01	4.451273e-05	
350	7.500000e-01	4.699565e-05	
351	8.000000e-01	4.938773e-05	
352	8.500000e-01	5.168935e-05	
353	9.000000e-01	5.390089e-05	
354	9.500000e-01	5.602271e-05	
355	1.000000e+00	5.805519e-05	
356	1.050000e+00	5.999869e-05	
357	1.100000e+00	6.185358e-05	
358	1.150000e+00	6.362023e-05	
359	1.200000e+00	6.529899e-05	
360	1.250000e+00	6.689023e-05	
361	1.300000e+00	6.839429e-05	
362	1.350000e+00	6.981155e-05	
363	1.400000e+00	7.114234e-05	
364	1.450000e+00	7.238701e-05	
365	1.500000e+00	7.354590e-05	
366	1.550000e+00	7.461934e-05	
367	1.600000e+00	7.560764e-05	
368	1.650000e+00	7.651111e-05	
369	1.700000e+00	7.733003e-05	
370	1.750000e+00	7.806460e-05	
371	1.800000e+00	7.871501e-05	
372	1.850000e+00	7.928131e-05	
373	1.900000e+00	7.976348e-05	
374	1.950000e+00	8.016159e-05	
375	2.000000e+00	8.047668e-05	
376	2.050000e+00	8.071336e-05	
377	2.100000e+00	8.088294e-05	
378	2.150000e+00	8.100247e-05	
379	2.200000e+00	8.108852e-05	
380	2.250000e+00	8.115311e-05	
381	2.300000e+00	8.120378e-05	
382	2.350000e+00	8.124508e-05	
383	2.400000e+00	8.127982e-05	
384	2.450000e+00	8.130977e-05	
385	2.500000e+00	8.133611e-05	
386	2.550000e+00	8.135965e-05	
387	2.600000e+00	8.138097e-05	
388	2.650000e+00	8.140048e-05	
389	2.700000e+00	8.141850e-05	
390	2.750000e+00	8.143526e-05	
391	2.800000e+00	8.145096e-05	
392	2.850000e+00	8.146575e-05	
393	2.900000e+00	8.147975e-05	
394	2.950000e+00	8.149305e-05	
395	3.000000e+00	8.150574e-05	
396	3.050000e+00	8.151789e-05	
397	3.100000e+00	8.152954e-05	
398	3.150000e+00	8.154076e-05	
399	3.200000e+00	8.155159e-05	
400	3.250000e+00	8.156206e-05	
401	3.300000e+00	8.157220e-05	
Note: No ".plot", ".print", or ".fourier" lines; no simulations run
