
Note: Compatibility modes selected: hs

Warning: m=xx on .subckt line will override multiplier m hierarchy!


Circuit: ***************************

Doing analysis at TEMP = -40.000000 and TNOM = -40.000000


No. of Data Rows : 402
                          ***************************
                          DC transfer characteristic  Mon Jan  9 13:58:11  2023
--------------------------------------------------------------------------------
Index   v-sweep         -i(vds)         
--------------------------------------------------------------------------------
0	0.000000e+00	2.928964e-38	
1	5.000000e-02	2.615516e-06	
2	1.000000e-01	3.403292e-06	
3	1.500000e-01	3.518666e-06	
4	2.000000e-01	3.552906e-06	
5	2.500000e-01	3.573524e-06	
6	3.000000e-01	3.589615e-06	
7	3.500000e-01	3.603550e-06	
8	4.000000e-01	3.616237e-06	
9	4.500000e-01	3.628112e-06	
10	5.000000e-01	3.639415e-06	
11	5.500000e-01	3.650295e-06	
12	6.000000e-01	3.660846e-06	
13	6.500000e-01	3.671137e-06	
14	7.000000e-01	3.681216e-06	
15	7.500000e-01	3.691117e-06	
16	8.000000e-01	3.700870e-06	
17	8.500000e-01	3.710495e-06	
18	9.000000e-01	3.720010e-06	
19	9.500000e-01	3.729429e-06	
20	1.000000e+00	3.738762e-06	
21	1.050000e+00	3.748021e-06	
22	1.100000e+00	3.757212e-06	
23	1.150000e+00	3.766342e-06	
24	1.200000e+00	3.775418e-06	
25	1.250000e+00	3.784444e-06	
26	1.300000e+00	3.793425e-06	
27	1.350000e+00	3.802365e-06	
28	1.400000e+00	3.811267e-06	
29	1.450000e+00	3.820135e-06	
30	1.500000e+00	3.828972e-06	
31	1.550000e+00	3.837782e-06	
32	1.600000e+00	3.846567e-06	
33	1.650000e+00	3.855330e-06	
34	1.700000e+00	3.864077e-06	
35	1.750000e+00	3.872810e-06	
36	1.800000e+00	3.881535e-06	
37	1.850000e+00	3.890257e-06	
38	1.900000e+00	3.898984e-06	
39	1.950000e+00	3.907722e-06	
40	2.000000e+00	3.916481e-06	
41	2.050000e+00	3.925270e-06	
42	2.100000e+00	3.934101e-06	
43	2.150000e+00	3.942988e-06	
44	2.200000e+00	3.951946e-06	
45	2.250000e+00	3.960992e-06	
46	2.300000e+00	3.970145e-06	
47	2.350000e+00	3.979425e-06	
48	2.400000e+00	3.988857e-06	
49	2.450000e+00	3.998467e-06	
50	2.500000e+00	4.008283e-06	
51	2.550000e+00	4.018335e-06	
52	2.600000e+00	4.028658e-06	
53	2.650000e+00	4.039287e-06	
54	2.700000e+00	4.050261e-06	

Index   v-sweep         -i(vds)         
--------------------------------------------------------------------------------
55	2.750000e+00	4.061623e-06	
56	2.800000e+00	4.073416e-06	
57	2.850000e+00	4.085688e-06	
58	2.900000e+00	4.098490e-06	
59	2.950000e+00	4.111875e-06	
60	3.000000e+00	4.125899e-06	
61	3.050000e+00	4.140622e-06	
62	3.100000e+00	4.156105e-06	
63	3.150000e+00	4.172414e-06	
64	3.200000e+00	4.189616e-06	
65	3.250000e+00	4.207783e-06	
66	3.300000e+00	4.226989e-06	
67	0.000000e+00	1.938262e-20	
68	5.000000e-02	2.760140e-05	
69	1.000000e-01	5.182507e-05	
70	1.500000e-01	7.277174e-05	
71	2.000000e-01	9.053845e-05	
72	2.500000e-01	1.052188e-04	
73	3.000000e-01	1.169035e-04	
74	3.500000e-01	1.256864e-04	
75	4.000000e-01	1.316979e-04	
76	4.500000e-01	1.352611e-04	
77	5.000000e-01	1.371190e-04	
78	5.500000e-01	1.381134e-04	
79	6.000000e-01	1.387244e-04	
80	6.500000e-01	1.391518e-04	
81	7.000000e-01	1.394793e-04	
82	7.500000e-01	1.397464e-04	
83	8.000000e-01	1.399737e-04	
84	8.500000e-01	1.401730e-04	
85	9.000000e-01	1.403519e-04	
86	9.500000e-01	1.405151e-04	
87	1.000000e+00	1.406661e-04	
88	1.050000e+00	1.408072e-04	
89	1.100000e+00	1.409401e-04	
90	1.150000e+00	1.410663e-04	
91	1.200000e+00	1.411867e-04	
92	1.250000e+00	1.413023e-04	
93	1.300000e+00	1.414135e-04	
94	1.350000e+00	1.415211e-04	
95	1.400000e+00	1.416253e-04	
96	1.450000e+00	1.417267e-04	
97	1.500000e+00	1.418254e-04	
98	1.550000e+00	1.419218e-04	
99	1.600000e+00	1.420161e-04	
100	1.650000e+00	1.421085e-04	
101	1.700000e+00	1.421992e-04	
102	1.750000e+00	1.422882e-04	
103	1.800000e+00	1.423758e-04	
104	1.850000e+00	1.424621e-04	
105	1.900000e+00	1.425473e-04	
106	1.950000e+00	1.426314e-04	
107	2.000000e+00	1.427145e-04	
108	2.050000e+00	1.427969e-04	
109	2.100000e+00	1.428787e-04	
110	2.150000e+00	1.429601e-04	
111	2.200000e+00	1.430413e-04	
112	2.250000e+00	1.431225e-04	

Index   v-sweep         -i(vds)         
--------------------------------------------------------------------------------
113	2.300000e+00	1.432040e-04	
114	2.350000e+00	1.432861e-04	
115	2.400000e+00	1.433691e-04	
116	2.450000e+00	1.434536e-04	
117	2.500000e+00	1.435399e-04	
118	2.550000e+00	1.436286e-04	
119	2.600000e+00	1.437203e-04	
120	2.650000e+00	1.438156e-04	
121	2.700000e+00	1.439153e-04	
122	2.750000e+00	1.440202e-04	
123	2.800000e+00	1.441312e-04	
124	2.850000e+00	1.442493e-04	
125	2.900000e+00	1.443755e-04	
126	2.950000e+00	1.445109e-04	
127	3.000000e+00	1.446569e-04	
128	3.050000e+00	1.448148e-04	
129	3.100000e+00	1.449858e-04	
130	3.150000e+00	1.451717e-04	
131	3.200000e+00	1.453739e-04	
132	3.250000e+00	1.455942e-04	
133	3.300000e+00	1.458343e-04	
134	0.000000e+00	1.308235e-35	
135	5.000000e-02	4.769969e-05	
136	1.000000e-01	9.206498e-05	
137	1.500000e-01	1.331795e-04	
138	2.000000e-01	1.711244e-04	
139	2.500000e-01	2.059782e-04	
140	3.000000e-01	2.378169e-04	
141	3.500000e-01	2.667135e-04	
142	4.000000e-01	2.927382e-04	
143	4.500000e-01	3.159576e-04	
144	5.000000e-01	3.364332e-04	
145	5.500000e-01	3.542197e-04	
146	6.000000e-01	3.693600e-04	
147	6.500000e-01	3.818786e-04	
148	7.000000e-01	3.917784e-04	
149	7.500000e-01	3.990866e-04	
150	8.000000e-01	4.040328e-04	
151	8.500000e-01	4.071949e-04	
152	9.000000e-01	4.092471e-04	
153	9.500000e-01	4.106646e-04	
154	1.000000e+00	4.117125e-04	
155	1.050000e+00	4.125326e-04	
156	1.100000e+00	4.132033e-04	
157	1.150000e+00	4.137706e-04	
158	1.200000e+00	4.142631e-04	
159	1.250000e+00	4.146994e-04	
160	1.300000e+00	4.150923e-04	
161	1.350000e+00	4.154506e-04	
162	1.400000e+00	4.157810e-04	
163	1.450000e+00	4.160884e-04	
164	1.500000e+00	4.163764e-04	
165	1.550000e+00	4.166481e-04	
166	1.600000e+00	4.169057e-04	
167	1.650000e+00	4.171511e-04	
168	1.700000e+00	4.173858e-04	
169	1.750000e+00	4.176111e-04	
170	1.800000e+00	4.178282e-04	

Index   v-sweep         -i(vds)         
--------------------------------------------------------------------------------
171	1.850000e+00	4.180377e-04	
172	1.900000e+00	4.182406e-04	
173	1.950000e+00	4.184374e-04	
174	2.000000e+00	4.186288e-04	
175	2.050000e+00	4.188152e-04	
176	2.100000e+00	4.189972e-04	
177	2.150000e+00	4.191750e-04	
178	2.200000e+00	4.193492e-04	
179	2.250000e+00	4.195200e-04	
180	2.300000e+00	4.196880e-04	
181	2.350000e+00	4.198535e-04	
182	2.400000e+00	4.200169e-04	
183	2.450000e+00	4.201788e-04	
184	2.500000e+00	4.203398e-04	
185	2.550000e+00	4.205005e-04	
186	2.600000e+00	4.206615e-04	
187	2.650000e+00	4.208239e-04	
188	2.700000e+00	4.209886e-04	
189	2.750000e+00	4.211566e-04	
190	2.800000e+00	4.213294e-04	
191	2.850000e+00	4.215082e-04	
192	2.900000e+00	4.216949e-04	
193	2.950000e+00	4.218911e-04	
194	3.000000e+00	4.220991e-04	
195	3.050000e+00	4.223209e-04	
196	3.100000e+00	4.225591e-04	
197	3.150000e+00	4.228164e-04	
198	3.200000e+00	4.230957e-04	
199	3.250000e+00	4.234003e-04	
200	3.300000e+00	4.237337e-04	
201	0.000000e+00	6.048735e-21	
202	5.000000e-02	6.202098e-05	
203	1.000000e-01	1.209380e-04	
204	1.500000e-01	1.768178e-04	
205	2.000000e-01	2.297253e-04	
206	2.500000e-01	2.797238e-04	
207	3.000000e-01	3.268752e-04	
208	3.500000e-01	3.712396e-04	
209	4.000000e-01	4.128753e-04	
210	4.500000e-01	4.518392e-04	
211	5.000000e-01	4.881864e-04	
212	5.500000e-01	5.219699e-04	
213	6.000000e-01	5.532406e-04	
214	6.500000e-01	5.820469e-04	
215	7.000000e-01	6.084336e-04	
216	7.500000e-01	6.324407e-04	
217	8.000000e-01	6.541008e-04	
218	8.500000e-01	6.734343e-04	
219	9.000000e-01	6.904415e-04	
220	9.500000e-01	7.050890e-04	
221	1.000000e+00	7.172998e-04	
222	1.050000e+00	7.269838e-04	
223	1.100000e+00	7.341833e-04	
224	1.150000e+00	7.392546e-04	
225	1.200000e+00	7.427827e-04	
226	1.250000e+00	7.453060e-04	
227	1.300000e+00	7.471930e-04	
228	1.350000e+00	7.486681e-04	

Index   v-sweep         -i(vds)         
--------------------------------------------------------------------------------
229	1.400000e+00	7.498659e-04	
230	1.450000e+00	7.508693e-04	
231	1.500000e+00	7.517310e-04	
232	1.550000e+00	7.524861e-04	
233	1.600000e+00	7.531586e-04	
234	1.650000e+00	7.537658e-04	
235	1.700000e+00	7.543200e-04	
236	1.750000e+00	7.548307e-04	
237	1.800000e+00	7.553051e-04	
238	1.850000e+00	7.557487e-04	
239	1.900000e+00	7.561660e-04	
240	1.950000e+00	7.565606e-04	
241	2.000000e+00	7.569353e-04	
242	2.050000e+00	7.572926e-04	
243	2.100000e+00	7.576344e-04	
244	2.150000e+00	7.579624e-04	
245	2.200000e+00	7.582781e-04	
246	2.250000e+00	7.585827e-04	
247	2.300000e+00	7.588773e-04	
248	2.350000e+00	7.591628e-04	
249	2.400000e+00	7.594401e-04	
250	2.450000e+00	7.597099e-04	
251	2.500000e+00	7.599729e-04	
252	2.550000e+00	7.602299e-04	
253	2.600000e+00	7.604816e-04	
254	2.650000e+00	7.607288e-04	
255	2.700000e+00	7.609722e-04	
256	2.750000e+00	7.612127e-04	
257	2.800000e+00	7.614514e-04	
258	2.850000e+00	7.616894e-04	
259	2.900000e+00	7.619281e-04	
260	2.950000e+00	7.621689e-04	
261	3.000000e+00	7.624135e-04	
262	3.050000e+00	7.626641e-04	
263	3.100000e+00	7.629228e-04	
264	3.150000e+00	7.631923e-04	
265	3.200000e+00	7.634754e-04	
266	3.250000e+00	7.637754e-04	
267	3.300000e+00	7.640960e-04	
268	0.000000e+00	7.904774e-20	
269	5.000000e-02	7.183871e-05	
270	1.000000e-01	1.408655e-04	
271	1.500000e-01	2.071326e-04	
272	2.000000e-01	2.706911e-04	
273	2.500000e-01	3.315908e-04	
274	3.000000e-01	3.898807e-04	
275	3.500000e-01	4.456088e-04	
276	4.000000e-01	4.988218e-04	
277	4.500000e-01	5.495655e-04	
278	5.000000e-01	5.978847e-04	
279	5.500000e-01	6.438232e-04	
280	6.000000e-01	6.874234e-04	
281	6.500000e-01	7.287270e-04	
282	7.000000e-01	7.677743e-04	
283	7.500000e-01	8.046042e-04	
284	8.000000e-01	8.392543e-04	
285	8.500000e-01	8.717604e-04	
286	9.000000e-01	9.021559e-04	

Index   v-sweep         -i(vds)         
--------------------------------------------------------------------------------
287	9.500000e-01	9.304715e-04	
288	1.000000e+00	9.567333e-04	
289	1.050000e+00	9.809612e-04	
290	1.100000e+00	1.003165e-03	
291	1.150000e+00	1.023338e-03	
292	1.200000e+00	1.041447e-03	
293	1.250000e+00	1.057416e-03	
294	1.300000e+00	1.071119e-03	
295	1.350000e+00	1.082407e-03	
296	1.400000e+00	1.091230e-03	
297	1.450000e+00	1.097812e-03	
298	1.500000e+00	1.102623e-03	
299	1.550000e+00	1.106179e-03	
300	1.600000e+00	1.108887e-03	
301	1.650000e+00	1.111020e-03	
302	1.700000e+00	1.112756e-03	
303	1.750000e+00	1.114208e-03	
304	1.800000e+00	1.115450e-03	
305	1.850000e+00	1.116534e-03	
306	1.900000e+00	1.117495e-03	
307	1.950000e+00	1.118358e-03	
308	2.000000e+00	1.119142e-03	
309	2.050000e+00	1.119861e-03	
310	2.100000e+00	1.120525e-03	
311	2.150000e+00	1.121143e-03	
312	2.200000e+00	1.121722e-03	
313	2.250000e+00	1.122266e-03	
314	2.300000e+00	1.122782e-03	
315	2.350000e+00	1.123271e-03	
316	2.400000e+00	1.123737e-03	
317	2.450000e+00	1.124182e-03	
318	2.500000e+00	1.124609e-03	
319	2.550000e+00	1.125020e-03	
320	2.600000e+00	1.125416e-03	
321	2.650000e+00	1.125798e-03	
322	2.700000e+00	1.126168e-03	
323	2.750000e+00	1.126527e-03	
324	2.800000e+00	1.126876e-03	
325	2.850000e+00	1.127216e-03	
326	2.900000e+00	1.127548e-03	
327	2.950000e+00	1.127874e-03	
328	3.000000e+00	1.128194e-03	
329	3.050000e+00	1.128509e-03	
330	3.100000e+00	1.128822e-03	
331	3.150000e+00	1.129134e-03	
332	3.200000e+00	1.129446e-03	
333	3.250000e+00	1.129762e-03	
334	3.300000e+00	1.130083e-03	
335	0.000000e+00	2.689790e-19	
336	5.000000e-02	7.828830e-05	
337	1.000000e-01	1.540655e-04	
338	1.500000e-01	2.273721e-04	
339	2.000000e-01	2.982480e-04	
340	2.500000e-01	3.667322e-04	
341	3.000000e-01	4.328631e-04	
342	3.500000e-01	4.966785e-04	
343	4.000000e-01	5.582154e-04	
344	4.500000e-01	6.175101e-04	

Index   v-sweep         -i(vds)         
--------------------------------------------------------------------------------
345	5.000000e-01	6.745983e-04	
346	5.500000e-01	7.295149e-04	
347	6.000000e-01	7.822943e-04	
348	6.500000e-01	8.329702e-04	
349	7.000000e-01	8.815755e-04	
350	7.500000e-01	9.281424e-04	
351	8.000000e-01	9.727026e-04	
352	8.500000e-01	1.015287e-03	
353	9.000000e-01	1.055925e-03	
354	9.500000e-01	1.094646e-03	
355	1.000000e+00	1.131479e-03	
356	1.050000e+00	1.166450e-03	
357	1.100000e+00	1.199585e-03	
358	1.150000e+00	1.230908e-03	
359	1.200000e+00	1.260440e-03	
360	1.250000e+00	1.288200e-03	
361	1.300000e+00	1.314200e-03	
362	1.350000e+00	1.338447e-03	
363	1.400000e+00	1.360935e-03	
364	1.450000e+00	1.381640e-03	
365	1.500000e+00	1.400510e-03	
366	1.550000e+00	1.417449e-03	
367	1.600000e+00	1.432312e-03	
368	1.650000e+00	1.444921e-03	
369	1.700000e+00	1.455167e-03	
370	1.750000e+00	1.463148e-03	
371	1.800000e+00	1.469213e-03	
372	1.850000e+00	1.473819e-03	
373	1.900000e+00	1.477381e-03	
374	1.950000e+00	1.480206e-03	
375	2.000000e+00	1.482510e-03	
376	2.050000e+00	1.484435e-03	
377	2.100000e+00	1.486079e-03	
378	2.150000e+00	1.487508e-03	
379	2.200000e+00	1.488771e-03	
380	2.250000e+00	1.489900e-03	
381	2.300000e+00	1.490921e-03	
382	2.350000e+00	1.491854e-03	
383	2.400000e+00	1.492713e-03	
384	2.450000e+00	1.493510e-03	
385	2.500000e+00	1.494253e-03	
386	2.550000e+00	1.494950e-03	
387	2.600000e+00	1.495607e-03	
388	2.650000e+00	1.496228e-03	
389	2.700000e+00	1.496819e-03	
390	2.750000e+00	1.497382e-03	
391	2.800000e+00	1.497920e-03	
392	2.850000e+00	1.498436e-03	
393	2.900000e+00	1.498932e-03	
394	2.950000e+00	1.499409e-03	
395	3.000000e+00	1.499871e-03	
396	3.050000e+00	1.500317e-03	
397	3.100000e+00	1.500750e-03	
398	3.150000e+00	1.501171e-03	
399	3.200000e+00	1.501581e-03	
400	3.250000e+00	1.501983e-03	
401	3.300000e+00	1.502376e-03	
Note: No ".plot", ".print", or ".fourier" lines; no simulations run
