
Note: Compatibility modes selected: hs

Warning: m=xx on .subckt line will override multiplier m hierarchy!


Circuit: ***************************

Doing analysis at TEMP = -40.000000 and TNOM = -40.000000


No. of Data Rows : 402
                          ***************************
                          DC transfer characteristic  Mon Jan  9 13:58:12  2023
--------------------------------------------------------------------------------
Index   v-sweep         -i(vds)         
--------------------------------------------------------------------------------
0	0.000000e+00	2.295371e-38	
1	5.000000e-02	1.016803e-06	
2	1.000000e-01	1.640931e-06	
3	1.500000e-01	1.975785e-06	
4	2.000000e-01	2.154646e-06	
5	2.500000e-01	2.270390e-06	
6	3.000000e-01	2.360350e-06	
7	3.500000e-01	2.437834e-06	
8	4.000000e-01	2.508302e-06	
9	4.500000e-01	2.574400e-06	
10	5.000000e-01	2.637583e-06	
11	5.500000e-01	2.698733e-06	
12	6.000000e-01	2.758420e-06	
13	6.500000e-01	2.817035e-06	
14	7.000000e-01	2.874855e-06	
15	7.500000e-01	2.932087e-06	
16	8.000000e-01	2.988883e-06	
17	8.500000e-01	3.045365e-06	
18	9.000000e-01	3.101626e-06	
19	9.500000e-01	3.157742e-06	
20	1.000000e+00	3.213774e-06	
21	1.050000e+00	3.269772e-06	
22	1.100000e+00	3.325778e-06	
23	1.150000e+00	3.381828e-06	
24	1.200000e+00	3.437950e-06	
25	1.250000e+00	3.494169e-06	
26	1.300000e+00	3.550508e-06	
27	1.350000e+00	3.606984e-06	
28	1.400000e+00	3.663614e-06	
29	1.450000e+00	3.720412e-06	
30	1.500000e+00	3.777389e-06	
31	1.550000e+00	3.834558e-06	
32	1.600000e+00	3.891928e-06	
33	1.650000e+00	3.949508e-06	
34	1.700000e+00	4.007308e-06	
35	1.750000e+00	4.065335e-06	
36	1.800000e+00	4.123600e-06	
37	1.850000e+00	4.182111e-06	
38	1.900000e+00	4.240879e-06	
39	1.950000e+00	4.299914e-06	
40	2.000000e+00	4.359229e-06	
41	2.050000e+00	4.418838e-06	
42	2.100000e+00	4.478758e-06	
43	2.150000e+00	4.539008e-06	
44	2.200000e+00	4.599609e-06	
45	2.250000e+00	4.660587e-06	
46	2.300000e+00	4.721971e-06	
47	2.350000e+00	4.783795e-06	
48	2.400000e+00	4.846097e-06	
49	2.450000e+00	4.908921e-06	
50	2.500000e+00	4.972316e-06	
51	2.550000e+00	5.036340e-06	
52	2.600000e+00	5.101055e-06	
53	2.650000e+00	5.166532e-06	
54	2.700000e+00	5.232851e-06	

Index   v-sweep         -i(vds)         
--------------------------------------------------------------------------------
55	2.750000e+00	5.300101e-06	
56	2.800000e+00	5.368379e-06	
57	2.850000e+00	5.437793e-06	
58	2.900000e+00	5.508464e-06	
59	2.950000e+00	5.580522e-06	
60	3.000000e+00	5.654110e-06	
61	3.050000e+00	5.729386e-06	
62	3.100000e+00	5.806518e-06	
63	3.150000e+00	5.885693e-06	
64	3.200000e+00	5.967109e-06	
65	3.250000e+00	6.050983e-06	
66	3.300000e+00	6.137546e-06	
67	0.000000e+00	9.585671e-37	
68	5.000000e-02	4.387194e-06	
69	1.000000e-01	8.195591e-06	
70	1.500000e-01	1.147144e-05	
71	2.000000e-01	1.425642e-05	
72	2.500000e-01	1.658796e-05	
73	3.000000e-01	1.849974e-05	
74	3.500000e-01	2.002401e-05	
75	4.000000e-01	2.119924e-05	
76	4.500000e-01	2.208228e-05	
77	5.000000e-01	2.274687e-05	
78	5.500000e-01	2.326266e-05	
79	6.000000e-01	2.368031e-05	
80	6.500000e-01	2.403230e-05	
81	7.000000e-01	2.433880e-05	
82	7.500000e-01	2.461257e-05	
83	8.000000e-01	2.486196e-05	
84	8.500000e-01	2.509261e-05	
85	9.000000e-01	2.530852e-05	
86	9.500000e-01	2.551254e-05	
87	1.000000e+00	2.570682e-05	
88	1.050000e+00	2.589299e-05	
89	1.100000e+00	2.607230e-05	
90	1.150000e+00	2.624577e-05	
91	1.200000e+00	2.641418e-05	
92	1.250000e+00	2.657820e-05	
93	1.300000e+00	2.673837e-05	
94	1.350000e+00	2.689512e-05	
95	1.400000e+00	2.704885e-05	
96	1.450000e+00	2.719986e-05	
97	1.500000e+00	2.734844e-05	
98	1.550000e+00	2.749483e-05	
99	1.600000e+00	2.763922e-05	
100	1.650000e+00	2.778179e-05	
101	1.700000e+00	2.792272e-05	
102	1.750000e+00	2.806213e-05	
103	1.800000e+00	2.820016e-05	
104	1.850000e+00	2.833691e-05	
105	1.900000e+00	2.847251e-05	
106	1.950000e+00	2.860704e-05	
107	2.000000e+00	2.874060e-05	
108	2.050000e+00	2.887328e-05	
109	2.100000e+00	2.900518e-05	
110	2.150000e+00	2.913639e-05	
111	2.200000e+00	2.926700e-05	
112	2.250000e+00	2.939713e-05	

Index   v-sweep         -i(vds)         
--------------------------------------------------------------------------------
113	2.300000e+00	2.952689e-05	
114	2.350000e+00	2.965639e-05	
115	2.400000e+00	2.978578e-05	
116	2.450000e+00	2.991520e-05	
117	2.500000e+00	3.004481e-05	
118	2.550000e+00	3.017481e-05	
119	2.600000e+00	3.030540e-05	
120	2.650000e+00	3.043681e-05	
121	2.700000e+00	3.056930e-05	
122	2.750000e+00	3.070315e-05	
123	2.800000e+00	3.083868e-05	
124	2.850000e+00	3.097623e-05	
125	2.900000e+00	3.111618e-05	
126	2.950000e+00	3.125897e-05	
127	3.000000e+00	3.140504e-05	
128	3.050000e+00	3.155490e-05	
129	3.100000e+00	3.170910e-05	
130	3.150000e+00	3.186823e-05	
131	3.200000e+00	3.203293e-05	
132	3.250000e+00	3.220390e-05	
133	3.300000e+00	3.238188e-05	
134	0.000000e+00	-1.10644e-22	
135	5.000000e-02	6.556067e-06	
136	1.000000e-01	1.253928e-05	
137	1.500000e-01	1.798495e-05	
138	2.000000e-01	2.292569e-05	
139	2.500000e-01	2.739148e-05	
140	3.000000e-01	3.140960e-05	
141	3.500000e-01	3.500440e-05	
142	4.000000e-01	3.819676e-05	
143	4.500000e-01	4.100324e-05	
144	5.000000e-01	4.343516e-05	
145	5.500000e-01	4.549966e-05	
146	6.000000e-01	4.720666e-05	
147	6.500000e-01	4.858259e-05	
148	7.000000e-01	4.967766e-05	
149	7.500000e-01	5.055469e-05	
150	8.000000e-01	5.127154e-05	
151	8.500000e-01	5.187274e-05	
152	9.000000e-01	5.238975e-05	
153	9.500000e-01	5.284427e-05	
154	1.000000e+00	5.325131e-05	
155	1.050000e+00	5.362142e-05	
156	1.100000e+00	5.396221e-05	
157	1.150000e+00	5.427927e-05	
158	1.200000e+00	5.457680e-05	
159	1.250000e+00	5.485802e-05	
160	1.300000e+00	5.512545e-05	
161	1.350000e+00	5.538108e-05	
162	1.400000e+00	5.562652e-05	
163	1.450000e+00	5.586307e-05	
164	1.500000e+00	5.609182e-05	
165	1.550000e+00	5.631365e-05	
166	1.600000e+00	5.652934e-05	
167	1.650000e+00	5.673951e-05	
168	1.700000e+00	5.694472e-05	
169	1.750000e+00	5.714544e-05	
170	1.800000e+00	5.734209e-05	

Index   v-sweep         -i(vds)         
--------------------------------------------------------------------------------
171	1.850000e+00	5.753502e-05	
172	1.900000e+00	5.772454e-05	
173	1.950000e+00	5.791095e-05	
174	2.000000e+00	5.809450e-05	
175	2.050000e+00	5.827540e-05	
176	2.100000e+00	5.845389e-05	
177	2.150000e+00	5.863014e-05	
178	2.200000e+00	5.880436e-05	
179	2.250000e+00	5.897673e-05	
180	2.300000e+00	5.914743e-05	
181	2.350000e+00	5.931666e-05	
182	2.400000e+00	5.948459e-05	
183	2.450000e+00	5.965146e-05	
184	2.500000e+00	5.981746e-05	
185	2.550000e+00	5.998286e-05	
186	2.600000e+00	6.014792e-05	
187	2.650000e+00	6.031292e-05	
188	2.700000e+00	6.047821e-05	
189	2.750000e+00	6.064415e-05	
190	2.800000e+00	6.081113e-05	
191	2.850000e+00	6.097962e-05	
192	2.900000e+00	6.115011e-05	
193	2.950000e+00	6.132316e-05	
194	3.000000e+00	6.149938e-05	
195	3.050000e+00	6.167944e-05	
196	3.100000e+00	6.186409e-05	
197	3.150000e+00	6.205413e-05	
198	3.200000e+00	6.225045e-05	
199	3.250000e+00	6.245401e-05	
200	3.300000e+00	6.266586e-05	
201	0.000000e+00	-1.54179e-20	
202	5.000000e-02	8.014701e-06	
203	1.000000e-01	1.549400e-05	
204	1.500000e-01	2.246480e-05	
205	2.000000e-01	2.895245e-05	
206	2.500000e-01	3.498071e-05	
207	3.000000e-01	4.057178e-05	
208	3.500000e-01	4.574630e-05	
209	4.000000e-01	5.052323e-05	
210	4.500000e-01	5.491961e-05	
211	5.000000e-01	5.895018e-05	
212	5.500000e-01	6.262666e-05	
213	6.000000e-01	6.595669e-05	
214	6.500000e-01	6.894253e-05	
215	7.000000e-01	7.158061e-05	
216	7.500000e-01	7.386464e-05	
217	8.000000e-01	7.579527e-05	
218	8.500000e-01	7.739292e-05	
219	9.000000e-01	7.870132e-05	
220	9.500000e-01	7.977646e-05	
221	1.000000e+00	8.067220e-05	
222	1.050000e+00	8.143252e-05	
223	1.100000e+00	8.209051e-05	
224	1.150000e+00	8.267020e-05	
225	1.200000e+00	8.318901e-05	
226	1.250000e+00	8.365963e-05	
227	1.300000e+00	8.409145e-05	
228	1.350000e+00	8.449151e-05	

Index   v-sweep         -i(vds)         
--------------------------------------------------------------------------------
229	1.400000e+00	8.486522e-05	
230	1.450000e+00	8.521678e-05	
231	1.500000e+00	8.554949e-05	
232	1.550000e+00	8.586601e-05	
233	1.600000e+00	8.616848e-05	
234	1.650000e+00	8.645867e-05	
235	1.700000e+00	8.673803e-05	
236	1.750000e+00	8.700779e-05	
237	1.800000e+00	8.726899e-05	
238	1.850000e+00	8.752249e-05	
239	1.900000e+00	8.776906e-05	
240	1.950000e+00	8.800934e-05	
241	2.000000e+00	8.824391e-05	
242	2.050000e+00	8.847326e-05	
243	2.100000e+00	8.869783e-05	
244	2.150000e+00	8.891802e-05	
245	2.200000e+00	8.913417e-05	
246	2.250000e+00	8.934662e-05	
247	2.300000e+00	8.955566e-05	
248	2.350000e+00	8.976157e-05	
249	2.400000e+00	8.996463e-05	
250	2.450000e+00	9.016511e-05	
251	2.500000e+00	9.036328e-05	
252	2.550000e+00	9.055942e-05	
253	2.600000e+00	9.075382e-05	
254	2.650000e+00	9.094680e-05	
255	2.700000e+00	9.113870e-05	
256	2.750000e+00	9.132990e-05	
257	2.800000e+00	9.152080e-05	
258	2.850000e+00	9.171186e-05	
259	2.900000e+00	9.190360e-05	
260	2.950000e+00	9.209657e-05	
261	3.000000e+00	9.229141e-05	
262	3.050000e+00	9.248881e-05	
263	3.100000e+00	9.268956e-05	
264	3.150000e+00	9.289450e-05	
265	3.200000e+00	9.310459e-05	
266	3.250000e+00	9.332085e-05	
267	3.300000e+00	9.354443e-05	
268	0.000000e+00	3.272468e-21	
269	5.000000e-02	9.048160e-06	
270	1.000000e-01	1.760360e-05	
271	1.500000e-01	2.568720e-05	
272	2.000000e-01	3.331884e-05	
273	2.500000e-01	4.051741e-05	
274	3.000000e-01	4.730084e-05	
275	3.500000e-01	5.368608e-05	
276	4.000000e-01	5.968910e-05	
277	4.500000e-01	6.532485e-05	
278	5.000000e-01	7.060715e-05	
279	5.500000e-01	7.554854e-05	
280	6.000000e-01	8.015999e-05	
281	6.500000e-01	8.445047e-05	
282	7.000000e-01	8.842617e-05	
283	7.500000e-01	9.208953e-05	
284	8.000000e-01	9.543793e-05	
285	8.500000e-01	9.846289e-05	
286	9.000000e-01	1.011516e-04	

Index   v-sweep         -i(vds)         
--------------------------------------------------------------------------------
287	9.500000e-01	1.034930e-04	
288	1.000000e+00	1.054893e-04	
289	1.050000e+00	1.071643e-04	
290	1.100000e+00	1.085611e-04	
291	1.150000e+00	1.097311e-04	
292	1.200000e+00	1.107226e-04	
293	1.250000e+00	1.115756e-04	
294	1.300000e+00	1.123211e-04	
295	1.350000e+00	1.129823e-04	
296	1.400000e+00	1.135766e-04	
297	1.450000e+00	1.141171e-04	
298	1.500000e+00	1.146135e-04	
299	1.550000e+00	1.150736e-04	
300	1.600000e+00	1.155032e-04	
301	1.650000e+00	1.159068e-04	
302	1.700000e+00	1.162884e-04	
303	1.750000e+00	1.166508e-04	
304	1.800000e+00	1.169965e-04	
305	1.850000e+00	1.173275e-04	
306	1.900000e+00	1.176456e-04	
307	1.950000e+00	1.179521e-04	
308	2.000000e+00	1.182483e-04	
309	2.050000e+00	1.185352e-04	
310	2.100000e+00	1.188136e-04	
311	2.150000e+00	1.190845e-04	
312	2.200000e+00	1.193484e-04	
313	2.250000e+00	1.196060e-04	
314	2.300000e+00	1.198577e-04	
315	2.350000e+00	1.201041e-04	
316	2.400000e+00	1.203455e-04	
317	2.450000e+00	1.205825e-04	
318	2.500000e+00	1.208152e-04	
319	2.550000e+00	1.210442e-04	
320	2.600000e+00	1.212698e-04	
321	2.650000e+00	1.214923e-04	
322	2.700000e+00	1.217120e-04	
323	2.750000e+00	1.219294e-04	
324	2.800000e+00	1.221448e-04	
325	2.850000e+00	1.223587e-04	
326	2.900000e+00	1.225715e-04	
327	2.950000e+00	1.227837e-04	
328	3.000000e+00	1.229960e-04	
329	3.050000e+00	1.232090e-04	
330	3.100000e+00	1.234233e-04	
331	3.150000e+00	1.236398e-04	
332	3.200000e+00	1.238594e-04	
333	3.250000e+00	1.240830e-04	
334	3.300000e+00	1.243117e-04	
335	0.000000e+00	-1.01209e-21	
336	5.000000e-02	9.808297e-06	
337	1.000000e-01	1.916454e-05	
338	1.500000e-01	2.808527e-05	
339	2.000000e-01	3.658635e-05	
340	2.500000e-01	4.468300e-05	
341	3.000000e-01	5.238978e-05	
342	3.500000e-01	5.972061e-05	
343	4.000000e-01	6.668880e-05	
344	4.500000e-01	7.330699e-05	

Index   v-sweep         -i(vds)         
--------------------------------------------------------------------------------
345	5.000000e-01	7.958715e-05	
346	5.500000e-01	8.554054e-05	
347	6.000000e-01	9.117767e-05	
348	6.500000e-01	9.650810e-05	
349	7.000000e-01	1.015403e-04	
350	7.500000e-01	1.062815e-04	
351	8.000000e-01	1.107369e-04	
352	8.500000e-01	1.149091e-04	
353	9.000000e-01	1.187975e-04	
354	9.500000e-01	1.223967e-04	
355	1.000000e+00	1.256958e-04	
356	1.050000e+00	1.286792e-04	
357	1.100000e+00	1.313306e-04	
358	1.150000e+00	1.336417e-04	
359	1.200000e+00	1.356216e-04	
360	1.250000e+00	1.372997e-04	
361	1.300000e+00	1.387190e-04	
362	1.350000e+00	1.399265e-04	
363	1.400000e+00	1.409646e-04	
364	1.450000e+00	1.418689e-04	
365	1.500000e+00	1.426670e-04	
366	1.550000e+00	1.433802e-04	
367	1.600000e+00	1.440250e-04	
368	1.650000e+00	1.446138e-04	
369	1.700000e+00	1.451562e-04	
370	1.750000e+00	1.456599e-04	
371	1.800000e+00	1.461308e-04	
372	1.850000e+00	1.465736e-04	
373	1.900000e+00	1.469923e-04	
374	1.950000e+00	1.473899e-04	
375	2.000000e+00	1.477690e-04	
376	2.050000e+00	1.481320e-04	
377	2.100000e+00	1.484804e-04	
378	2.150000e+00	1.488160e-04	
379	2.200000e+00	1.491399e-04	
380	2.250000e+00	1.494534e-04	
381	2.300000e+00	1.497574e-04	
382	2.350000e+00	1.500528e-04	
383	2.400000e+00	1.503404e-04	
384	2.450000e+00	1.506207e-04	
385	2.500000e+00	1.508944e-04	
386	2.550000e+00	1.511620e-04	
387	2.600000e+00	1.514240e-04	
388	2.650000e+00	1.516809e-04	
389	2.700000e+00	1.519332e-04	
390	2.750000e+00	1.521811e-04	
391	2.800000e+00	1.524252e-04	
392	2.850000e+00	1.526659e-04	
393	2.900000e+00	1.529037e-04	
394	2.950000e+00	1.531389e-04	
395	3.000000e+00	1.533722e-04	
396	3.050000e+00	1.536040e-04	
397	3.100000e+00	1.538351e-04	
398	3.150000e+00	1.540660e-04	
399	3.200000e+00	1.542975e-04	
400	3.250000e+00	1.545305e-04	
401	3.300000e+00	1.547659e-04	
Note: No ".plot", ".print", or ".fourier" lines; no simulations run
