
Note: Compatibility modes selected: hs

Warning: m=xx on .subckt line will override multiplier m hierarchy!


Circuit: ***************************

Doing analysis at TEMP = 25.000000 and TNOM = 25.000000


No. of Data Rows : 402
                          ***************************
                          DC transfer characteristic  Mon Jan  9 13:58:11  2023
--------------------------------------------------------------------------------
Index   v-sweep         -i(vds)         
--------------------------------------------------------------------------------
0	0.000000e+00	-7.03231e-33	
1	5.000000e-02	9.054343e-07	
2	1.000000e-01	1.535268e-06	
3	1.500000e-01	1.931340e-06	
4	2.000000e-01	2.159159e-06	
5	2.500000e-01	2.296038e-06	
6	3.000000e-01	2.392817e-06	
7	3.500000e-01	2.471279e-06	
8	4.000000e-01	2.540085e-06	
9	4.500000e-01	2.603113e-06	
10	5.000000e-01	2.662362e-06	
11	5.500000e-01	2.718986e-06	
12	6.000000e-01	2.773706e-06	
13	6.500000e-01	2.827007e-06	
14	7.000000e-01	2.879225e-06	
15	7.500000e-01	2.930608e-06	
16	8.000000e-01	2.981340e-06	
17	8.500000e-01	3.031562e-06	
18	9.000000e-01	3.081386e-06	
19	9.500000e-01	3.130901e-06	
20	1.000000e+00	3.180178e-06	
21	1.050000e+00	3.229277e-06	
22	1.100000e+00	3.278246e-06	
23	1.150000e+00	3.327128e-06	
24	1.200000e+00	3.375955e-06	
25	1.250000e+00	3.424759e-06	
26	1.300000e+00	3.473565e-06	
27	1.350000e+00	3.522394e-06	
28	1.400000e+00	3.571265e-06	
29	1.450000e+00	3.620196e-06	
30	1.500000e+00	3.669201e-06	
31	1.550000e+00	3.718294e-06	
32	1.600000e+00	3.767486e-06	
33	1.650000e+00	3.816788e-06	
34	1.700000e+00	3.866211e-06	
35	1.750000e+00	3.915765e-06	
36	1.800000e+00	3.965458e-06	
37	1.850000e+00	4.015302e-06	
38	1.900000e+00	4.065306e-06	
39	1.950000e+00	4.115481e-06	
40	2.000000e+00	4.165839e-06	
41	2.050000e+00	4.216393e-06	
42	2.100000e+00	4.267158e-06	
43	2.150000e+00	4.318151e-06	
44	2.200000e+00	4.369391e-06	
45	2.250000e+00	4.420900e-06	
46	2.300000e+00	4.472705e-06	
47	2.350000e+00	4.524833e-06	
48	2.400000e+00	4.577317e-06	
49	2.450000e+00	4.630195e-06	
50	2.500000e+00	4.683511e-06	
51	2.550000e+00	4.737310e-06	
52	2.600000e+00	4.791648e-06	
53	2.650000e+00	4.846586e-06	
54	2.700000e+00	4.902190e-06	

Index   v-sweep         -i(vds)         
--------------------------------------------------------------------------------
55	2.750000e+00	4.958536e-06	
56	2.800000e+00	5.015708e-06	
57	2.850000e+00	5.073797e-06	
58	2.900000e+00	5.132905e-06	
59	2.950000e+00	5.193144e-06	
60	3.000000e+00	5.254636e-06	
61	3.050000e+00	5.317514e-06	
62	3.100000e+00	5.381924e-06	
63	3.150000e+00	5.448021e-06	
64	3.200000e+00	5.515978e-06	
65	3.250000e+00	5.585977e-06	
66	3.300000e+00	5.658217e-06	
67	0.000000e+00	1.463484e-31	
68	5.000000e-02	3.368626e-06	
69	1.000000e-01	6.349706e-06	
70	1.500000e-01	8.967911e-06	
71	2.000000e-01	1.124616e-05	
72	2.500000e-01	1.320587e-05	
73	3.000000e-01	1.486727e-05	
74	3.500000e-01	1.625005e-05	
75	4.000000e-01	1.737501e-05	
76	4.500000e-01	1.826758e-05	
77	5.000000e-01	1.896270e-05	
78	5.500000e-01	1.950433e-05	
79	6.000000e-01	1.993600e-05	
80	6.500000e-01	2.029195e-05	
81	7.000000e-01	2.059557e-05	
82	7.500000e-01	2.086210e-05	
83	8.000000e-01	2.110150e-05	
84	8.500000e-01	2.132041e-05	
85	9.000000e-01	2.152342e-05	
86	9.500000e-01	2.171381e-05	
87	1.000000e+00	2.189396e-05	
88	1.050000e+00	2.206566e-05	
89	1.100000e+00	2.223029e-05	
90	1.150000e+00	2.238891e-05	
91	1.200000e+00	2.254240e-05	
92	1.250000e+00	2.269143e-05	
93	1.300000e+00	2.283657e-05	
94	1.350000e+00	2.297829e-05	
95	1.400000e+00	2.311698e-05	
96	1.450000e+00	2.325297e-05	
97	1.500000e+00	2.338654e-05	
98	1.550000e+00	2.351794e-05	
99	1.600000e+00	2.364737e-05	
100	1.650000e+00	2.377501e-05	
101	1.700000e+00	2.390102e-05	
102	1.750000e+00	2.402556e-05	
103	1.800000e+00	2.414873e-05	
104	1.850000e+00	2.427065e-05	
105	1.900000e+00	2.439143e-05	
106	1.950000e+00	2.451116e-05	
107	2.000000e+00	2.462993e-05	
108	2.050000e+00	2.474782e-05	
109	2.100000e+00	2.486491e-05	
110	2.150000e+00	2.498129e-05	
111	2.200000e+00	2.509703e-05	
112	2.250000e+00	2.521221e-05	

Index   v-sweep         -i(vds)         
--------------------------------------------------------------------------------
113	2.300000e+00	2.532694e-05	
114	2.350000e+00	2.544129e-05	
115	2.400000e+00	2.555539e-05	
116	2.450000e+00	2.566933e-05	
117	2.500000e+00	2.578325e-05	
118	2.550000e+00	2.589728e-05	
119	2.600000e+00	2.601158e-05	
120	2.650000e+00	2.612632e-05	
121	2.700000e+00	2.624169e-05	
122	2.750000e+00	2.635792e-05	
123	2.800000e+00	2.647523e-05	
124	2.850000e+00	2.659389e-05	
125	2.900000e+00	2.671418e-05	
126	2.950000e+00	2.683644e-05	
127	3.000000e+00	2.696101e-05	
128	3.050000e+00	2.708828e-05	
129	3.100000e+00	2.721867e-05	
130	3.150000e+00	2.735264e-05	
131	3.200000e+00	2.749068e-05	
132	3.250000e+00	2.763335e-05	
133	3.300000e+00	2.778122e-05	
134	0.000000e+00	-1.27860e-20	
135	5.000000e-02	5.144328e-06	
136	1.000000e-01	9.888657e-06	
137	1.500000e-01	1.425352e-05	
138	2.000000e-01	1.825818e-05	
139	2.500000e-01	2.192074e-05	
140	3.000000e-01	2.525811e-05	
141	3.500000e-01	2.828607e-05	
142	4.000000e-01	3.101917e-05	
143	4.500000e-01	3.347067e-05	
144	5.000000e-01	3.565228e-05	
145	5.500000e-01	3.757386e-05	
146	6.000000e-01	3.924356e-05	
147	6.500000e-01	4.066939e-05	
148	7.000000e-01	4.186375e-05	
149	7.500000e-01	4.284941e-05	
150	8.000000e-01	4.366000e-05	
151	8.500000e-01	4.433304e-05	
152	9.000000e-01	4.490200e-05	
153	9.500000e-01	4.539302e-05	
154	1.000000e+00	4.582522e-05	
155	1.050000e+00	4.621228e-05	
156	1.100000e+00	4.656406e-05	
157	1.150000e+00	4.688770e-05	
158	1.200000e+00	4.718853e-05	
159	1.250000e+00	4.747055e-05	
160	1.300000e+00	4.773685e-05	
161	1.350000e+00	4.798983e-05	
162	1.400000e+00	4.823142e-05	
163	1.450000e+00	4.846316e-05	
164	1.500000e+00	4.868631e-05	
165	1.550000e+00	4.890190e-05	
166	1.600000e+00	4.911080e-05	
167	1.650000e+00	4.931374e-05	
168	1.700000e+00	4.951134e-05	
169	1.750000e+00	4.970414e-05	
170	1.800000e+00	4.989258e-05	

Index   v-sweep         -i(vds)         
--------------------------------------------------------------------------------
171	1.850000e+00	5.007707e-05	
172	1.900000e+00	5.025795e-05	
173	1.950000e+00	5.043552e-05	
174	2.000000e+00	5.061007e-05	
175	2.050000e+00	5.078183e-05	
176	2.100000e+00	5.095102e-05	
177	2.150000e+00	5.111784e-05	
178	2.200000e+00	5.128247e-05	
179	2.250000e+00	5.144510e-05	
180	2.300000e+00	5.160589e-05	
181	2.350000e+00	5.176500e-05	
182	2.400000e+00	5.192261e-05	
183	2.450000e+00	5.207888e-05	
184	2.500000e+00	5.223399e-05	
185	2.550000e+00	5.238812e-05	
186	2.600000e+00	5.254148e-05	
187	2.650000e+00	5.269430e-05	
188	2.700000e+00	5.284682e-05	
189	2.750000e+00	5.299930e-05	
190	2.800000e+00	5.315204e-05	
191	2.850000e+00	5.330538e-05	
192	2.900000e+00	5.345969e-05	
193	2.950000e+00	5.361537e-05	
194	3.000000e+00	5.377289e-05	
195	3.050000e+00	5.393273e-05	
196	3.100000e+00	5.409546e-05	
197	3.150000e+00	5.426168e-05	
198	3.200000e+00	5.443206e-05	
199	3.250000e+00	5.460734e-05	
200	3.300000e+00	5.478831e-05	
201	0.000000e+00	-4.64063e-21	
202	5.000000e-02	6.450500e-06	
203	1.000000e-01	1.251151e-05	
204	1.500000e-01	1.819988e-05	
205	2.000000e-01	2.353161e-05	
206	2.500000e-01	2.852189e-05	
207	3.000000e-01	3.318510e-05	
208	3.500000e-01	3.753489e-05	
209	4.000000e-01	4.158407e-05	
210	4.500000e-01	4.534470e-05	
211	5.000000e-01	4.882794e-05	
212	5.500000e-01	5.204398e-05	
213	6.000000e-01	5.500180e-05	
214	6.500000e-01	5.770878e-05	
215	7.000000e-01	6.017020e-05	
216	7.500000e-01	6.238870e-05	
217	8.000000e-01	6.436422e-05	
218	8.500000e-01	6.609596e-05	
219	9.000000e-01	6.758738e-05	
220	9.500000e-01	6.885261e-05	
221	1.000000e+00	6.991834e-05	
222	1.050000e+00	7.081861e-05	
223	1.100000e+00	7.158728e-05	
224	1.150000e+00	7.225328e-05	
225	1.200000e+00	7.283931e-05	
226	1.250000e+00	7.336259e-05	
227	1.300000e+00	7.383598e-05	
228	1.350000e+00	7.426913e-05	

Index   v-sweep         -i(vds)         
--------------------------------------------------------------------------------
229	1.400000e+00	7.466936e-05	
230	1.450000e+00	7.504229e-05	
231	1.500000e+00	7.539227e-05	
232	1.550000e+00	7.572277e-05	
233	1.600000e+00	7.603653e-05	
234	1.650000e+00	7.633580e-05	
235	1.700000e+00	7.662240e-05	
236	1.750000e+00	7.689786e-05	
237	1.800000e+00	7.716343e-05	
238	1.850000e+00	7.742018e-05	
239	1.900000e+00	7.766903e-05	
240	1.950000e+00	7.791075e-05	
241	2.000000e+00	7.814602e-05	
242	2.050000e+00	7.837543e-05	
243	2.100000e+00	7.859947e-05	
244	2.150000e+00	7.881860e-05	
245	2.200000e+00	7.903323e-05	
246	2.250000e+00	7.924371e-05	
247	2.300000e+00	7.945037e-05	
248	2.350000e+00	7.965349e-05	
249	2.400000e+00	7.985337e-05	
250	2.450000e+00	8.005026e-05	
251	2.500000e+00	8.024440e-05	
252	2.550000e+00	8.043606e-05	
253	2.600000e+00	8.062547e-05	
254	2.650000e+00	8.081291e-05	
255	2.700000e+00	8.099862e-05	
256	2.750000e+00	8.118291e-05	
257	2.800000e+00	8.136609e-05	
258	2.850000e+00	8.154848e-05	
259	2.900000e+00	8.173048e-05	
260	2.950000e+00	8.191248e-05	
261	3.000000e+00	8.209496e-05	
262	3.050000e+00	8.227842e-05	
263	3.100000e+00	8.246342e-05	
264	3.150000e+00	8.265059e-05	
265	3.200000e+00	8.284064e-05	
266	3.250000e+00	8.303433e-05	
267	3.300000e+00	8.323251e-05	
268	0.000000e+00	2.148438e-20	
269	5.000000e-02	7.447303e-06	
270	1.000000e-01	1.452310e-05	
271	1.500000e-01	2.124129e-05	
272	2.000000e-01	2.761517e-05	
273	2.500000e-01	3.365746e-05	
274	3.000000e-01	3.938036e-05	
275	3.500000e-01	4.479549e-05	
276	4.000000e-01	4.991396e-05	
277	4.500000e-01	5.474633e-05	
278	5.000000e-01	5.930262e-05	
279	5.500000e-01	6.359227e-05	
280	6.000000e-01	6.762412e-05	
281	6.500000e-01	7.140625e-05	
282	7.000000e-01	7.494589e-05	
283	7.500000e-01	7.824913e-05	
284	8.000000e-01	8.132053e-05	
285	8.500000e-01	8.416258e-05	
286	9.000000e-01	8.677499e-05	

Index   v-sweep         -i(vds)         
--------------------------------------------------------------------------------
287	9.500000e-01	8.915428e-05	
288	1.000000e+00	9.129442e-05	
289	1.050000e+00	9.318993e-05	
290	1.100000e+00	9.484171e-05	
291	1.150000e+00	9.626248e-05	
292	1.200000e+00	9.747724e-05	
293	1.250000e+00	9.851791e-05	
294	1.300000e+00	9.941676e-05	
295	1.350000e+00	1.002022e-04	
296	1.400000e+00	1.008972e-04	
297	1.450000e+00	1.015198e-04	
298	1.500000e+00	1.020839e-04	
299	1.550000e+00	1.026003e-04	
300	1.600000e+00	1.030771e-04	
301	1.650000e+00	1.035209e-04	
302	1.700000e+00	1.039366e-04	
303	1.750000e+00	1.043284e-04	
304	1.800000e+00	1.046996e-04	
305	1.850000e+00	1.050528e-04	
306	1.900000e+00	1.053902e-04	
307	1.950000e+00	1.057138e-04	
308	2.000000e+00	1.060249e-04	
309	2.050000e+00	1.063251e-04	
310	2.100000e+00	1.066152e-04	
311	2.150000e+00	1.068965e-04	
312	2.200000e+00	1.071696e-04	
313	2.250000e+00	1.074352e-04	
314	2.300000e+00	1.076941e-04	
315	2.350000e+00	1.079468e-04	
316	2.400000e+00	1.081938e-04	
317	2.450000e+00	1.084355e-04	
318	2.500000e+00	1.086724e-04	
319	2.550000e+00	1.089048e-04	
320	2.600000e+00	1.091331e-04	
321	2.650000e+00	1.093576e-04	
322	2.700000e+00	1.095787e-04	
323	2.750000e+00	1.097966e-04	
324	2.800000e+00	1.100117e-04	
325	2.850000e+00	1.102244e-04	
326	2.900000e+00	1.104350e-04	
327	2.950000e+00	1.106440e-04	
328	3.000000e+00	1.108516e-04	
329	3.050000e+00	1.110585e-04	
330	3.100000e+00	1.112651e-04	
331	3.150000e+00	1.114721e-04	
332	3.200000e+00	1.116799e-04	
333	3.250000e+00	1.118894e-04	
334	3.300000e+00	1.121014e-04	
335	0.000000e+00	1.959604e-20	
336	5.000000e-02	8.230376e-06	
337	1.000000e-01	1.610921e-05	
338	1.500000e-01	2.364807e-05	
339	2.000000e-01	3.085811e-05	
340	2.500000e-01	3.775006e-05	
341	3.000000e-01	4.433427e-05	
342	3.500000e-01	5.062068e-05	
343	4.000000e-01	5.661886e-05	
344	4.500000e-01	6.233798e-05	

Index   v-sweep         -i(vds)         
--------------------------------------------------------------------------------
345	5.000000e-01	6.778684e-05	
346	5.500000e-01	7.297385e-05	
347	6.000000e-01	7.790703e-05	
348	6.500000e-01	8.259396e-05	
349	7.000000e-01	8.704176e-05	
350	7.500000e-01	9.125703e-05	
351	8.000000e-01	9.524571e-05	
352	8.500000e-01	9.901293e-05	
353	9.000000e-01	1.025627e-04	
354	9.500000e-01	1.058977e-04	
355	1.000000e+00	1.090184e-04	
356	1.050000e+00	1.119228e-04	
357	1.100000e+00	1.146054e-04	
358	1.150000e+00	1.170579e-04	
359	1.200000e+00	1.192705e-04	
360	1.250000e+00	1.212368e-04	
361	1.300000e+00	1.229595e-04	
362	1.350000e+00	1.244535e-04	
363	1.400000e+00	1.257445e-04	
364	1.450000e+00	1.268632e-04	
365	1.500000e+00	1.278397e-04	
366	1.550000e+00	1.287007e-04	
367	1.600000e+00	1.294681e-04	
368	1.650000e+00	1.301593e-04	
369	1.700000e+00	1.307880e-04	
370	1.750000e+00	1.313651e-04	
371	1.800000e+00	1.318989e-04	
372	1.850000e+00	1.323962e-04	
373	1.900000e+00	1.328624e-04	
374	1.950000e+00	1.333018e-04	
375	2.000000e+00	1.337179e-04	
376	2.050000e+00	1.341136e-04	
377	2.100000e+00	1.344915e-04	
378	2.150000e+00	1.348535e-04	
379	2.200000e+00	1.352013e-04	
380	2.250000e+00	1.355364e-04	
381	2.300000e+00	1.358601e-04	
382	2.350000e+00	1.361734e-04	
383	2.400000e+00	1.364772e-04	
384	2.450000e+00	1.367725e-04	
385	2.500000e+00	1.370599e-04	
386	2.550000e+00	1.373401e-04	
387	2.600000e+00	1.376137e-04	
388	2.650000e+00	1.378811e-04	
389	2.700000e+00	1.381428e-04	
390	2.750000e+00	1.383994e-04	
391	2.800000e+00	1.386512e-04	
392	2.850000e+00	1.388986e-04	
393	2.900000e+00	1.391420e-04	
394	2.950000e+00	1.393818e-04	
395	3.000000e+00	1.396185e-04	
396	3.050000e+00	1.398525e-04	
397	3.100000e+00	1.400843e-04	
398	3.150000e+00	1.403143e-04	
399	3.200000e+00	1.405431e-04	
400	3.250000e+00	1.407714e-04	
401	3.300000e+00	1.409997e-04	
Note: No ".plot", ".print", or ".fourier" lines; no simulations run
