
Note: Compatibility modes selected: hs

Warning: m=xx on .subckt line will override multiplier m hierarchy!


Circuit: ***************************

Doing analysis at TEMP = -40.000000 and TNOM = -40.000000


No. of Data Rows : 402
                          ***************************
                          DC transfer characteristic  Mon Jan  9 13:58:12  2023
--------------------------------------------------------------------------------
Index   v-sweep         -i(vds)         
--------------------------------------------------------------------------------
0	0.000000e+00	-1.78296e-24	
1	5.000000e-02	3.313366e-08	
2	1.000000e-01	4.244575e-08	
3	1.500000e-01	4.308000e-08	
4	2.000000e-01	4.318370e-08	
5	2.500000e-01	4.323909e-08	
6	3.000000e-01	4.328227e-08	
7	3.500000e-01	4.332048e-08	
8	4.000000e-01	4.335609e-08	
9	4.500000e-01	4.339011e-08	
10	5.000000e-01	4.342306e-08	
11	5.500000e-01	4.345523e-08	
12	6.000000e-01	4.348683e-08	
13	6.500000e-01	4.351796e-08	
14	7.000000e-01	4.354872e-08	
15	7.500000e-01	4.357918e-08	
16	8.000000e-01	4.360937e-08	
17	8.500000e-01	4.363935e-08	
18	9.000000e-01	4.366914e-08	
19	9.500000e-01	4.369877e-08	
20	1.000000e+00	4.372825e-08	
21	1.050000e+00	4.375760e-08	
22	1.100000e+00	4.378683e-08	
23	1.150000e+00	4.381596e-08	
24	1.200000e+00	4.384500e-08	
25	1.250000e+00	4.387395e-08	
26	1.300000e+00	4.390283e-08	
27	1.350000e+00	4.393163e-08	
28	1.400000e+00	4.396037e-08	
29	1.450000e+00	4.398905e-08	
30	1.500000e+00	4.401768e-08	
31	1.550000e+00	4.404627e-08	
32	1.600000e+00	4.407481e-08	
33	1.650000e+00	4.410333e-08	
34	1.700000e+00	4.413184e-08	
35	1.750000e+00	4.416034e-08	
36	1.800000e+00	4.418887e-08	
37	1.850000e+00	4.421744e-08	
38	1.900000e+00	4.424609e-08	
39	1.950000e+00	4.427486e-08	
40	2.000000e+00	4.430379e-08	
41	2.050000e+00	4.433294e-08	
42	2.100000e+00	4.436240e-08	
43	2.150000e+00	4.439223e-08	
44	2.200000e+00	4.442255e-08	
45	2.250000e+00	4.445347e-08	
46	2.300000e+00	4.448512e-08	
47	2.350000e+00	4.451766e-08	
48	2.400000e+00	4.455126e-08	
49	2.450000e+00	4.458613e-08	
50	2.500000e+00	4.462248e-08	
51	2.550000e+00	4.466055e-08	
52	2.600000e+00	4.470062e-08	
53	2.650000e+00	4.474297e-08	
54	2.700000e+00	4.478793e-08	

Index   v-sweep         -i(vds)         
--------------------------------------------------------------------------------
55	2.750000e+00	4.483584e-08	
56	2.800000e+00	4.488708e-08	
57	2.850000e+00	4.494205e-08	
58	2.900000e+00	4.500116e-08	
59	2.950000e+00	4.506488e-08	
60	3.000000e+00	4.513369e-08	
61	3.050000e+00	4.520808e-08	
62	3.100000e+00	4.528860e-08	
63	3.150000e+00	4.537579e-08	
64	3.200000e+00	4.547023e-08	
65	3.250000e+00	4.557254e-08	
66	3.300000e+00	4.568333e-08	
67	0.000000e+00	-1.03024e-23	
68	5.000000e-02	2.729695e-07	
69	1.000000e-01	5.119400e-07	
70	1.500000e-01	7.170113e-07	
71	2.000000e-01	8.882895e-07	
72	2.500000e-01	1.025897e-06	
73	3.000000e-01	1.130010e-06	
74	3.500000e-01	1.201029e-06	
75	4.000000e-01	1.240545e-06	
76	4.500000e-01	1.255580e-06	
77	5.000000e-01	1.259868e-06	
78	5.500000e-01	1.261469e-06	
79	6.000000e-01	1.262355e-06	
80	6.500000e-01	1.262978e-06	
81	7.000000e-01	1.263474e-06	
82	7.500000e-01	1.263898e-06	
83	8.000000e-01	1.264276e-06	
84	8.500000e-01	1.264622e-06	
85	9.000000e-01	1.264945e-06	
86	9.500000e-01	1.265250e-06	
87	1.000000e+00	1.265541e-06	
88	1.050000e+00	1.265821e-06	
89	1.100000e+00	1.266091e-06	
90	1.150000e+00	1.266354e-06	
91	1.200000e+00	1.266610e-06	
92	1.250000e+00	1.266860e-06	
93	1.300000e+00	1.267105e-06	
94	1.350000e+00	1.267345e-06	
95	1.400000e+00	1.267582e-06	
96	1.450000e+00	1.267815e-06	
97	1.500000e+00	1.268045e-06	
98	1.550000e+00	1.268273e-06	
99	1.600000e+00	1.268497e-06	
100	1.650000e+00	1.268719e-06	
101	1.700000e+00	1.268939e-06	
102	1.750000e+00	1.269158e-06	
103	1.800000e+00	1.269374e-06	
104	1.850000e+00	1.269589e-06	
105	1.900000e+00	1.269802e-06	
106	1.950000e+00	1.270015e-06	
107	2.000000e+00	1.270226e-06	
108	2.050000e+00	1.270437e-06	
109	2.100000e+00	1.270648e-06	
110	2.150000e+00	1.270860e-06	
111	2.200000e+00	1.271074e-06	
112	2.250000e+00	1.271289e-06	

Index   v-sweep         -i(vds)         
--------------------------------------------------------------------------------
113	2.300000e+00	1.271508e-06	
114	2.350000e+00	1.271733e-06	
115	2.400000e+00	1.271964e-06	
116	2.450000e+00	1.272204e-06	
117	2.500000e+00	1.272455e-06	
118	2.550000e+00	1.272721e-06	
119	2.600000e+00	1.273004e-06	
120	2.650000e+00	1.273310e-06	
121	2.700000e+00	1.273641e-06	
122	2.750000e+00	1.274004e-06	
123	2.800000e+00	1.274404e-06	
124	2.850000e+00	1.274848e-06	
125	2.900000e+00	1.275342e-06	
126	2.950000e+00	1.275895e-06	
127	3.000000e+00	1.276514e-06	
128	3.050000e+00	1.277209e-06	
129	3.100000e+00	1.277990e-06	
130	3.150000e+00	1.278867e-06	
131	3.200000e+00	1.279852e-06	
132	3.250000e+00	1.280958e-06	
133	3.300000e+00	1.282196e-06	
134	0.000000e+00	-2.12532e-22	
135	5.000000e-02	4.999424e-07	
136	1.000000e-01	9.674635e-07	
137	1.500000e-01	1.402649e-06	
138	2.000000e-01	1.805586e-06	
139	2.500000e-01	2.176360e-06	
140	3.000000e-01	2.515056e-06	
141	3.500000e-01	2.821762e-06	
142	4.000000e-01	3.096566e-06	
143	4.500000e-01	3.339557e-06	
144	5.000000e-01	3.550829e-06	
145	5.500000e-01	3.730486e-06	
146	6.000000e-01	3.878657e-06	
147	6.500000e-01	3.995536e-06	
148	7.000000e-01	4.081529e-06	
149	7.500000e-01	4.137826e-06	
150	8.000000e-01	4.168326e-06	
151	8.500000e-01	4.181888e-06	
152	9.000000e-01	4.187940e-06	
153	9.500000e-01	4.191221e-06	
154	1.000000e+00	4.193372e-06	
155	1.050000e+00	4.194975e-06	
156	1.100000e+00	4.196270e-06	
157	1.150000e+00	4.197372e-06	
158	1.200000e+00	4.198343e-06	
159	1.250000e+00	4.199220e-06	
160	1.300000e+00	4.200026e-06	
161	1.350000e+00	4.200777e-06	
162	1.400000e+00	4.201483e-06	
163	1.450000e+00	4.202154e-06	
164	1.500000e+00	4.202795e-06	
165	1.550000e+00	4.203411e-06	
166	1.600000e+00	4.204005e-06	
167	1.650000e+00	4.204580e-06	
168	1.700000e+00	4.205139e-06	
169	1.750000e+00	4.205683e-06	
170	1.800000e+00	4.206214e-06	

Index   v-sweep         -i(vds)         
--------------------------------------------------------------------------------
171	1.850000e+00	4.206734e-06	
172	1.900000e+00	4.207243e-06	
173	1.950000e+00	4.207743e-06	
174	2.000000e+00	4.208235e-06	
175	2.050000e+00	4.208719e-06	
176	2.100000e+00	4.209196e-06	
177	2.150000e+00	4.209666e-06	
178	2.200000e+00	4.210131e-06	
179	2.250000e+00	4.210591e-06	
180	2.300000e+00	4.211046e-06	
181	2.350000e+00	4.211498e-06	
182	2.400000e+00	4.211949e-06	
183	2.450000e+00	4.212398e-06	
184	2.500000e+00	4.212848e-06	
185	2.550000e+00	4.213302e-06	
186	2.600000e+00	4.213762e-06	
187	2.650000e+00	4.214233e-06	
188	2.700000e+00	4.214717e-06	
189	2.750000e+00	4.215221e-06	
190	2.800000e+00	4.215751e-06	
191	2.850000e+00	4.216315e-06	
192	2.900000e+00	4.216922e-06	
193	2.950000e+00	4.217583e-06	
194	3.000000e+00	4.218310e-06	
195	3.050000e+00	4.219117e-06	
196	3.100000e+00	4.220020e-06	
197	3.150000e+00	4.221037e-06	
198	3.200000e+00	4.222189e-06	
199	3.250000e+00	4.223497e-06	
200	3.300000e+00	4.224986e-06	
201	0.000000e+00	8.428805e-22	
202	5.000000e-02	6.896766e-07	
203	1.000000e-01	1.349721e-06	
204	1.500000e-01	1.980208e-06	
205	2.000000e-01	2.581210e-06	
206	2.500000e-01	3.152803e-06	
207	3.000000e-01	3.695058e-06	
208	3.500000e-01	4.208049e-06	
209	4.000000e-01	4.691850e-06	
210	4.500000e-01	5.146533e-06	
211	5.000000e-01	5.572172e-06	
212	5.500000e-01	5.968840e-06	
213	6.000000e-01	6.336609e-06	
214	6.500000e-01	6.675552e-06	
215	7.000000e-01	6.985744e-06	
216	7.500000e-01	7.267258e-06	
217	8.000000e-01	7.520171e-06	
218	8.500000e-01	7.744561e-06	
219	9.000000e-01	7.940514e-06	
220	9.500000e-01	8.108128e-06	
221	1.000000e+00	8.247534e-06	
222	1.050000e+00	8.358949e-06	
223	1.100000e+00	8.442846e-06	
224	1.150000e+00	8.500496e-06	
225	1.200000e+00	8.535349e-06	
226	1.250000e+00	8.554145e-06	
227	1.300000e+00	8.564281e-06	
228	1.350000e+00	8.570373e-06	

Index   v-sweep         -i(vds)         
--------------------------------------------------------------------------------
229	1.400000e+00	8.574522e-06	
230	1.450000e+00	8.577634e-06	
231	1.500000e+00	8.580132e-06	
232	1.550000e+00	8.582233e-06	
233	1.600000e+00	8.584061e-06	
234	1.650000e+00	8.585691e-06	
235	1.700000e+00	8.587170e-06	
236	1.750000e+00	8.588533e-06	
237	1.800000e+00	8.589802e-06	
238	1.850000e+00	8.590994e-06	
239	1.900000e+00	8.592122e-06	
240	1.950000e+00	8.593197e-06	
241	2.000000e+00	8.594226e-06	
242	2.050000e+00	8.595214e-06	
243	2.100000e+00	8.596168e-06	
244	2.150000e+00	8.597092e-06	
245	2.200000e+00	8.597988e-06	
246	2.250000e+00	8.598859e-06	
247	2.300000e+00	8.599709e-06	
248	2.350000e+00	8.600539e-06	
249	2.400000e+00	8.601351e-06	
250	2.450000e+00	8.602147e-06	
251	2.500000e+00	8.602928e-06	
252	2.550000e+00	8.603696e-06	
253	2.600000e+00	8.604452e-06	
254	2.650000e+00	8.605197e-06	
255	2.700000e+00	8.605934e-06	
256	2.750000e+00	8.606664e-06	
257	2.800000e+00	8.607389e-06	
258	2.850000e+00	8.608113e-06	
259	2.900000e+00	8.608839e-06	
260	2.950000e+00	8.609571e-06	
261	3.000000e+00	8.610317e-06	
262	3.050000e+00	8.611083e-06	
263	3.100000e+00	8.611879e-06	
264	3.150000e+00	8.612715e-06	
265	3.200000e+00	8.613604e-06	
266	3.250000e+00	8.614564e-06	
267	3.300000e+00	8.615612e-06	
268	0.000000e+00	3.214265e-21	
269	5.000000e-02	8.375265e-07	
270	1.000000e-01	1.648619e-06	
271	1.500000e-01	2.433340e-06	
272	2.000000e-01	3.191750e-06	
273	2.500000e-01	3.923910e-06	
274	3.000000e-01	4.629881e-06	
275	3.500000e-01	5.309725e-06	
276	4.000000e-01	5.963501e-06	
277	4.500000e-01	6.591272e-06	
278	5.000000e-01	7.193096e-06	
279	5.500000e-01	7.769035e-06	
280	6.000000e-01	8.319149e-06	
281	6.500000e-01	8.843498e-06	
282	7.000000e-01	9.342141e-06	
283	7.500000e-01	9.815140e-06	
284	8.000000e-01	1.026255e-05	
285	8.500000e-01	1.068444e-05	
286	9.000000e-01	1.108086e-05	

Index   v-sweep         -i(vds)         
--------------------------------------------------------------------------------
287	9.500000e-01	1.145187e-05	
288	1.000000e+00	1.179754e-05	
289	1.050000e+00	1.211792e-05	
290	1.100000e+00	1.241307e-05	
291	1.150000e+00	1.268305e-05	
292	1.200000e+00	1.292793e-05	
293	1.250000e+00	1.314777e-05	
294	1.300000e+00	1.334263e-05	
295	1.350000e+00	1.351258e-05	
296	1.400000e+00	1.365774e-05	
297	1.450000e+00	1.377823e-05	
298	1.500000e+00	1.387432e-05	
299	1.550000e+00	1.394666e-05	
300	1.600000e+00	1.399692e-05	
301	1.650000e+00	1.402879e-05	
302	1.700000e+00	1.404798e-05	
303	1.750000e+00	1.405985e-05	
304	1.800000e+00	1.406779e-05	
305	1.850000e+00	1.407357e-05	
306	1.900000e+00	1.407806e-05	
307	1.950000e+00	1.408174e-05	
308	2.000000e+00	1.408486e-05	
309	2.050000e+00	1.408759e-05	
310	2.100000e+00	1.409003e-05	
311	2.150000e+00	1.409223e-05	
312	2.200000e+00	1.409426e-05	
313	2.250000e+00	1.409614e-05	
314	2.300000e+00	1.409790e-05	
315	2.350000e+00	1.409957e-05	
316	2.400000e+00	1.410114e-05	
317	2.450000e+00	1.410265e-05	
318	2.500000e+00	1.410409e-05	
319	2.550000e+00	1.410547e-05	
320	2.600000e+00	1.410681e-05	
321	2.650000e+00	1.410810e-05	
322	2.700000e+00	1.410935e-05	
323	2.750000e+00	1.411057e-05	
324	2.800000e+00	1.411175e-05	
325	2.850000e+00	1.411291e-05	
326	2.900000e+00	1.411404e-05	
327	2.950000e+00	1.411515e-05	
328	3.000000e+00	1.411623e-05	
329	3.050000e+00	1.411730e-05	
330	3.100000e+00	1.411835e-05	
331	3.150000e+00	1.411938e-05	
332	3.200000e+00	1.412041e-05	
333	3.250000e+00	1.412143e-05	
334	3.300000e+00	1.412245e-05	
335	0.000000e+00	-5.32590e-21	
336	5.000000e-02	9.450690e-07	
337	1.000000e-01	1.866951e-06	
338	1.500000e-01	2.765697e-06	
339	2.000000e-01	3.641355e-06	
340	2.500000e-01	4.493975e-06	
341	3.000000e-01	5.323607e-06	
342	3.500000e-01	6.130299e-06	
343	4.000000e-01	6.914102e-06	
344	4.500000e-01	7.675064e-06	

Index   v-sweep         -i(vds)         
--------------------------------------------------------------------------------
345	5.000000e-01	8.413235e-06	
346	5.500000e-01	9.128663e-06	
347	6.000000e-01	9.821396e-06	
348	6.500000e-01	1.049148e-05	
349	7.000000e-01	1.113898e-05	
350	7.500000e-01	1.176392e-05	
351	8.000000e-01	1.236636e-05	
352	8.500000e-01	1.294636e-05	
353	9.000000e-01	1.350394e-05	
354	9.500000e-01	1.403918e-05	
355	1.000000e+00	1.455210e-05	
356	1.050000e+00	1.504277e-05	
357	1.100000e+00	1.551123e-05	
358	1.150000e+00	1.595752e-05	
359	1.200000e+00	1.638169e-05	
360	1.250000e+00	1.678380e-05	
361	1.300000e+00	1.716388e-05	
362	1.350000e+00	1.752199e-05	
363	1.400000e+00	1.785818e-05	
364	1.450000e+00	1.817248e-05	
365	1.500000e+00	1.846495e-05	
366	1.550000e+00	1.873564e-05	
367	1.600000e+00	1.898459e-05	
368	1.650000e+00	1.921184e-05	
369	1.700000e+00	1.941745e-05	
370	1.750000e+00	1.960147e-05	
371	1.800000e+00	1.976396e-05	
372	1.850000e+00	1.990496e-05	
373	1.900000e+00	2.002459e-05	
374	1.950000e+00	2.012302e-05	
375	2.000000e+00	2.020063e-05	
376	2.050000e+00	2.025844e-05	
377	2.100000e+00	2.029870e-05	
378	2.150000e+00	2.032533e-05	
379	2.200000e+00	2.034286e-05	
380	2.250000e+00	2.035491e-05	
381	2.300000e+00	2.036370e-05	
382	2.350000e+00	2.037049e-05	
383	2.400000e+00	2.037599e-05	
384	2.450000e+00	2.038061e-05	
385	2.500000e+00	2.038460e-05	
386	2.550000e+00	2.038813e-05	
387	2.600000e+00	2.039129e-05	
388	2.650000e+00	2.039418e-05	
389	2.700000e+00	2.039684e-05	
390	2.750000e+00	2.039931e-05	
391	2.800000e+00	2.040162e-05	
392	2.850000e+00	2.040381e-05	
393	2.900000e+00	2.040588e-05	
394	2.950000e+00	2.040785e-05	
395	3.000000e+00	2.040973e-05	
396	3.050000e+00	2.041155e-05	
397	3.100000e+00	2.041329e-05	
398	3.150000e+00	2.041498e-05	
399	3.200000e+00	2.041661e-05	
400	3.250000e+00	2.041819e-05	
401	3.300000e+00	2.041973e-05	
Note: No ".plot", ".print", or ".fourier" lines; no simulations run
