
Note: Compatibility modes selected: hs

Warning: m=xx on .subckt line will override multiplier m hierarchy!


Circuit: ***************************

Doing analysis at TEMP = 25.000000 and TNOM = 25.000000


No. of Data Rows : 402
                          ***************************
                          DC transfer characteristic  Mon Jan  9 13:58:11  2023
--------------------------------------------------------------------------------
Index   v-sweep         -i(vds)         
--------------------------------------------------------------------------------
0	0.000000e+00	-5.11254e-33	
1	5.000000e-02	1.552247e-06	
2	1.000000e-01	2.609315e-06	
3	1.500000e-01	3.249386e-06	
4	2.000000e-01	3.600355e-06	
5	2.500000e-01	3.805136e-06	
6	3.000000e-01	3.949302e-06	
7	3.500000e-01	4.067005e-06	
8	4.000000e-01	4.171300e-06	
9	4.500000e-01	4.267868e-06	
10	5.000000e-01	4.359561e-06	
11	5.500000e-01	4.447986e-06	
12	6.000000e-01	4.534130e-06	
13	6.500000e-01	4.618639e-06	
14	7.000000e-01	4.701960e-06	
15	7.500000e-01	4.784413e-06	
16	8.000000e-01	4.866235e-06	
17	8.500000e-01	4.947608e-06	
18	9.000000e-01	5.028672e-06	
19	9.500000e-01	5.109538e-06	
20	1.000000e+00	5.190297e-06	
21	1.050000e+00	5.271021e-06	
22	1.100000e+00	5.351770e-06	
23	1.150000e+00	5.432595e-06	
24	1.200000e+00	5.513539e-06	
25	1.250000e+00	5.594637e-06	
26	1.300000e+00	5.675920e-06	
27	1.350000e+00	5.757415e-06	
28	1.400000e+00	5.839145e-06	
29	1.450000e+00	5.921130e-06	
30	1.500000e+00	6.003388e-06	
31	1.550000e+00	6.085936e-06	
32	1.600000e+00	6.168787e-06	
33	1.650000e+00	6.251956e-06	
34	1.700000e+00	6.335456e-06	
35	1.750000e+00	6.419300e-06	
36	1.800000e+00	6.503503e-06	
37	1.850000e+00	6.588078e-06	
38	1.900000e+00	6.673041e-06	
39	1.950000e+00	6.758409e-06	
40	2.000000e+00	6.844204e-06	
41	2.050000e+00	6.930446e-06	
42	2.100000e+00	7.017163e-06	
43	2.150000e+00	7.104385e-06	
44	2.200000e+00	7.192146e-06	
45	2.250000e+00	7.280486e-06	
46	2.300000e+00	7.369453e-06	
47	2.350000e+00	7.459099e-06	
48	2.400000e+00	7.549485e-06	
49	2.450000e+00	7.640679e-06	
50	2.500000e+00	7.732760e-06	
51	2.550000e+00	7.825816e-06	
52	2.600000e+00	7.919944e-06	
53	2.650000e+00	8.015257e-06	
54	2.700000e+00	8.111875e-06	

Index   v-sweep         -i(vds)         
--------------------------------------------------------------------------------
55	2.750000e+00	8.209936e-06	
56	2.800000e+00	8.309591e-06	
57	2.850000e+00	8.411005e-06	
58	2.900000e+00	8.514362e-06	
59	2.950000e+00	8.619860e-06	
60	3.000000e+00	8.727718e-06	
61	3.050000e+00	8.838174e-06	
62	3.100000e+00	8.951485e-06	
63	3.150000e+00	9.067931e-06	
64	3.200000e+00	9.187814e-06	
65	3.250000e+00	9.311458e-06	
66	3.300000e+00	9.439214e-06	
67	0.000000e+00	-2.45546e-31	
68	5.000000e-02	6.186162e-06	
69	1.000000e-01	1.167516e-05	
70	1.500000e-01	1.650714e-05	
71	2.000000e-01	2.071968e-05	
72	2.500000e-01	2.434804e-05	
73	3.000000e-01	2.742569e-05	
74	3.500000e-01	2.998530e-05	
75	4.000000e-01	3.206149e-05	
76	4.500000e-01	3.369737e-05	
77	5.000000e-01	3.495442e-05	
78	5.500000e-01	3.591456e-05	
79	6.000000e-01	3.666316e-05	
80	6.500000e-01	3.726903e-05	
81	7.000000e-01	3.777913e-05	
82	7.500000e-01	3.822343e-05	
83	8.000000e-01	3.862094e-05	
84	8.500000e-01	3.898405e-05	
85	9.000000e-01	3.932103e-05	
86	9.500000e-01	3.963765e-05	
87	1.000000e+00	3.993803e-05	
88	1.050000e+00	4.022522e-05	
89	1.100000e+00	4.050150e-05	
90	1.150000e+00	4.076864e-05	
91	1.200000e+00	4.102802e-05	
92	1.250000e+00	4.128075e-05	
93	1.300000e+00	4.152772e-05	
94	1.350000e+00	4.176967e-05	
95	1.400000e+00	4.200721e-05	
96	1.450000e+00	4.224085e-05	
97	1.500000e+00	4.247101e-05	
98	1.550000e+00	4.269807e-05	
99	1.600000e+00	4.292234e-05	
100	1.650000e+00	4.314411e-05	
101	1.700000e+00	4.336360e-05	
102	1.750000e+00	4.358103e-05	
103	1.800000e+00	4.379659e-05	
104	1.850000e+00	4.401044e-05	
105	1.900000e+00	4.422275e-05	
106	1.950000e+00	4.443364e-05	
107	2.000000e+00	4.464326e-05	
108	2.050000e+00	4.485174e-05	
109	2.100000e+00	4.505920e-05	
110	2.150000e+00	4.526578e-05	
111	2.200000e+00	4.547161e-05	
112	2.250000e+00	4.567682e-05	

Index   v-sweep         -i(vds)         
--------------------------------------------------------------------------------
113	2.300000e+00	4.588159e-05	
114	2.350000e+00	4.608607e-05	
115	2.400000e+00	4.629045e-05	
116	2.450000e+00	4.649494e-05	
117	2.500000e+00	4.669977e-05	
118	2.550000e+00	4.690520e-05	
119	2.600000e+00	4.711152e-05	
120	2.650000e+00	4.731906e-05	
121	2.700000e+00	4.752818e-05	
122	2.750000e+00	4.773929e-05	
123	2.800000e+00	4.795283e-05	
124	2.850000e+00	4.816931e-05	
125	2.900000e+00	4.838927e-05	
126	2.950000e+00	4.861333e-05	
127	3.000000e+00	4.884213e-05	
128	3.050000e+00	4.907642e-05	
129	3.100000e+00	4.931698e-05	
130	3.150000e+00	4.956468e-05	
131	3.200000e+00	4.982044e-05	
132	3.250000e+00	5.008529e-05	
133	3.300000e+00	5.036030e-05	
134	0.000000e+00	-6.09342e-21	
135	5.000000e-02	9.501179e-06	
136	1.000000e-01	1.829223e-05	
137	1.500000e-01	2.640595e-05	
138	2.000000e-01	3.387336e-05	
139	2.500000e-01	4.072371e-05	
140	3.000000e-01	4.698455e-05	
141	3.500000e-01	5.268170e-05	
142	4.000000e-01	5.783920e-05	
143	4.500000e-01	6.247910e-05	
144	5.000000e-01	6.662115e-05	
145	5.500000e-01	7.028238e-05	
146	6.000000e-01	7.347699e-05	
147	6.500000e-01	7.621783e-05	
148	7.000000e-01	7.852202e-05	
149	7.500000e-01	8.042123e-05	
150	8.000000e-01	8.196883e-05	
151	8.500000e-01	8.323321e-05	
152	9.000000e-01	8.428209e-05	
153	9.500000e-01	8.517133e-05	
154	1.000000e+00	8.594253e-05	
155	1.050000e+00	8.662533e-05	
156	1.100000e+00	8.724069e-05	
157	1.150000e+00	8.780354e-05	
158	1.200000e+00	8.832467e-05	
159	1.250000e+00	8.881207e-05	
160	1.300000e+00	8.927175e-05	
161	1.350000e+00	8.970833e-05	
162	1.400000e+00	9.012538e-05	
163	1.450000e+00	9.052578e-05	
164	1.500000e+00	9.091180e-05	
165	1.550000e+00	9.128531e-05	
166	1.600000e+00	9.164785e-05	
167	1.650000e+00	9.200070e-05	
168	1.700000e+00	9.234494e-05	
169	1.750000e+00	9.268147e-05	
170	1.800000e+00	9.301108e-05	

Index   v-sweep         -i(vds)         
--------------------------------------------------------------------------------
171	1.850000e+00	9.333443e-05	
172	1.900000e+00	9.365212e-05	
173	1.950000e+00	9.396464e-05	
174	2.000000e+00	9.427246e-05	
175	2.050000e+00	9.457596e-05	
176	2.100000e+00	9.487552e-05	
177	2.150000e+00	9.517145e-05	
178	2.200000e+00	9.546407e-05	
179	2.250000e+00	9.575366e-05	
180	2.300000e+00	9.604050e-05	
181	2.350000e+00	9.632488e-05	
182	2.400000e+00	9.660706e-05	
183	2.450000e+00	9.688735e-05	
184	2.500000e+00	9.716605e-05	
185	2.550000e+00	9.744350e-05	
186	2.600000e+00	9.772005e-05	
187	2.650000e+00	9.799612e-05	
188	2.700000e+00	9.827214e-05	
189	2.750000e+00	9.854860e-05	
190	2.800000e+00	9.882608e-05	
191	2.850000e+00	9.910517e-05	
192	2.900000e+00	9.938657e-05	
193	2.950000e+00	9.967105e-05	
194	3.000000e+00	9.995945e-05	
195	3.050000e+00	1.002527e-04	
196	3.100000e+00	1.005519e-04	
197	3.150000e+00	1.008581e-04	
198	3.200000e+00	1.011726e-04	
199	3.250000e+00	1.014967e-04	
200	3.300000e+00	1.018320e-04	
201	0.000000e+00	5.549929e-21	
202	5.000000e-02	1.191064e-05	
203	1.000000e-01	2.313699e-05	
204	1.500000e-01	3.370557e-05	
205	2.000000e-01	4.364172e-05	
206	2.500000e-01	5.296962e-05	
207	3.000000e-01	6.171233e-05	
208	3.500000e-01	6.989180e-05	
209	4.000000e-01	7.752886e-05	
210	4.500000e-01	8.464318e-05	
211	5.000000e-01	9.125319e-05	
212	5.500000e-01	9.737598e-05	
213	6.000000e-01	1.030270e-04	
214	6.500000e-01	1.082195e-04	
215	7.000000e-01	1.129643e-04	
216	7.500000e-01	1.172685e-04	
217	8.000000e-01	1.211351e-04	
218	8.500000e-01	1.245632e-04	
219	9.000000e-01	1.275528e-04	
220	9.500000e-01	1.301129e-04	
221	1.000000e+00	1.322725e-04	
222	1.050000e+00	1.340817e-04	
223	1.100000e+00	1.356027e-04	
224	1.150000e+00	1.368963e-04	
225	1.200000e+00	1.380139e-04	
226	1.250000e+00	1.389955e-04	
227	1.300000e+00	1.398715e-04	
228	1.350000e+00	1.406640e-04	

Index   v-sweep         -i(vds)         
--------------------------------------------------------------------------------
229	1.400000e+00	1.413899e-04	
230	1.450000e+00	1.420616e-04	
231	1.500000e+00	1.426887e-04	
232	1.550000e+00	1.432785e-04	
233	1.600000e+00	1.438370e-04	
234	1.650000e+00	1.443686e-04	
235	1.700000e+00	1.448771e-04	
236	1.750000e+00	1.453654e-04	
237	1.800000e+00	1.458362e-04	
238	1.850000e+00	1.462914e-04	
239	1.900000e+00	1.467327e-04	
240	1.950000e+00	1.471618e-04	
241	2.000000e+00	1.475797e-04	
242	2.050000e+00	1.479876e-04	
243	2.100000e+00	1.483864e-04	
244	2.150000e+00	1.487770e-04	
245	2.200000e+00	1.491600e-04	
246	2.250000e+00	1.495361e-04	
247	2.300000e+00	1.499059e-04	
248	2.350000e+00	1.502699e-04	
249	2.400000e+00	1.506286e-04	
250	2.450000e+00	1.509823e-04	
251	2.500000e+00	1.513317e-04	
252	2.550000e+00	1.516770e-04	
253	2.600000e+00	1.520187e-04	
254	2.650000e+00	1.523573e-04	
255	2.700000e+00	1.526933e-04	
256	2.750000e+00	1.530271e-04	
257	2.800000e+00	1.533592e-04	
258	2.850000e+00	1.536904e-04	
259	2.900000e+00	1.540213e-04	
260	2.950000e+00	1.543525e-04	
261	3.000000e+00	1.546850e-04	
262	3.050000e+00	1.550197e-04	
263	3.100000e+00	1.553576e-04	
264	3.150000e+00	1.556998e-04	
265	3.200000e+00	1.560476e-04	
266	3.250000e+00	1.564025e-04	
267	3.300000e+00	1.567659e-04	
268	0.000000e+00	-1.58501e-20	
269	5.000000e-02	1.372731e-05	
270	1.000000e-01	2.680754e-05	
271	1.500000e-01	3.926226e-05	
272	2.000000e-01	5.111229e-05	
273	2.500000e-01	6.237761e-05	
274	3.000000e-01	7.307745e-05	
275	3.500000e-01	8.323028e-05	
276	4.000000e-01	9.285383e-05	
277	4.500000e-01	1.019651e-04	
278	5.000000e-01	1.105802e-04	
279	5.500000e-01	1.187146e-04	
280	6.000000e-01	1.263829e-04	
281	6.500000e-01	1.335986e-04	
282	7.000000e-01	1.403744e-04	
283	7.500000e-01	1.467213e-04	
284	8.000000e-01	1.526488e-04	
285	8.500000e-01	1.581639e-04	
286	9.000000e-01	1.632706e-04	

Index   v-sweep         -i(vds)         
--------------------------------------------------------------------------------
287	9.500000e-01	1.679687e-04	
288	1.000000e+00	1.722531e-04	
289	1.050000e+00	1.761148e-04	
290	1.100000e+00	1.795445e-04	
291	1.150000e+00	1.825412e-04	
292	1.200000e+00	1.851220e-04	
293	1.250000e+00	1.873253e-04	
294	1.300000e+00	1.892050e-04	
295	1.350000e+00	1.908190e-04	
296	1.400000e+00	1.922201e-04	
297	1.450000e+00	1.934524e-04	
298	1.500000e+00	1.945506e-04	
299	1.550000e+00	1.955414e-04	
300	1.600000e+00	1.964455e-04	
301	1.650000e+00	1.972784e-04	
302	1.700000e+00	1.980523e-04	
303	1.750000e+00	1.987770e-04	
304	1.800000e+00	1.994597e-04	
305	1.850000e+00	2.001067e-04	
306	1.900000e+00	2.007227e-04	
307	1.950000e+00	2.013118e-04	
308	2.000000e+00	2.018773e-04	
309	2.050000e+00	2.024219e-04	
310	2.100000e+00	2.029479e-04	
311	2.150000e+00	2.034574e-04	
312	2.200000e+00	2.039519e-04	
313	2.250000e+00	2.044330e-04	
314	2.300000e+00	2.049019e-04	
315	2.350000e+00	2.053596e-04	
316	2.400000e+00	2.058072e-04	
317	2.450000e+00	2.062456e-04	
318	2.500000e+00	2.066754e-04	
319	2.550000e+00	2.070973e-04	
320	2.600000e+00	2.075121e-04	
321	2.650000e+00	2.079204e-04	
322	2.700000e+00	2.083226e-04	
323	2.750000e+00	2.087194e-04	
324	2.800000e+00	2.091115e-04	
325	2.850000e+00	2.094993e-04	
326	2.900000e+00	2.098835e-04	
327	2.950000e+00	2.102648e-04	
328	3.000000e+00	2.106439e-04	
329	3.050000e+00	2.110217e-04	
330	3.100000e+00	2.113991e-04	
331	3.150000e+00	2.117770e-04	
332	3.200000e+00	2.121567e-04	
333	3.250000e+00	2.125393e-04	
334	3.300000e+00	2.129262e-04	
335	0.000000e+00	6.477586e-20	
336	5.000000e-02	1.513664e-05	
337	1.000000e-01	2.966551e-05	
338	1.500000e-01	4.360441e-05	
339	2.000000e-01	5.697055e-05	
340	2.500000e-01	6.978060e-05	
341	3.000000e-01	8.205069e-05	
342	3.500000e-01	9.379640e-05	
343	4.000000e-01	1.050328e-04	
344	4.500000e-01	1.157744e-04	

Index   v-sweep         -i(vds)         
--------------------------------------------------------------------------------
345	5.000000e-01	1.260351e-04	
346	5.500000e-01	1.358286e-04	
347	6.000000e-01	1.451676e-04	
348	6.500000e-01	1.540646e-04	
349	7.000000e-01	1.625314e-04	
350	7.500000e-01	1.705789e-04	
351	8.000000e-01	1.782177e-04	
352	8.500000e-01	1.854569e-04	
353	9.000000e-01	1.923051e-04	
354	9.500000e-01	1.987688e-04	
355	1.000000e+00	2.048529e-04	
356	1.050000e+00	2.105595e-04	
357	1.100000e+00	2.158871e-04	
358	1.150000e+00	2.208297e-04	
359	1.200000e+00	2.253761e-04	
360	1.250000e+00	2.295118e-04	
361	1.300000e+00	2.332226e-04	
362	1.350000e+00	2.365033e-04	
363	1.400000e+00	2.393658e-04	
364	1.450000e+00	2.418427e-04	
365	1.500000e+00	2.439817e-04	
366	1.550000e+00	2.458363e-04	
367	1.600000e+00	2.474579e-04	
368	1.650000e+00	2.488905e-04	
369	1.700000e+00	2.501704e-04	
370	1.750000e+00	2.513261e-04	
371	1.800000e+00	2.523804e-04	
372	1.850000e+00	2.533506e-04	
373	1.900000e+00	2.542508e-04	
374	1.950000e+00	2.550920e-04	
375	2.000000e+00	2.558828e-04	
376	2.050000e+00	2.566304e-04	
377	2.100000e+00	2.573405e-04	
378	2.150000e+00	2.580180e-04	
379	2.200000e+00	2.586666e-04	
380	2.250000e+00	2.592899e-04	
381	2.300000e+00	2.598905e-04	
382	2.350000e+00	2.604708e-04	
383	2.400000e+00	2.610328e-04	
384	2.450000e+00	2.615784e-04	
385	2.500000e+00	2.621090e-04	
386	2.550000e+00	2.626259e-04	
387	2.600000e+00	2.631304e-04	
388	2.650000e+00	2.636234e-04	
389	2.700000e+00	2.641060e-04	
390	2.750000e+00	2.645789e-04	
391	2.800000e+00	2.650431e-04	
392	2.850000e+00	2.654991e-04	
393	2.900000e+00	2.659479e-04	
394	2.950000e+00	2.663900e-04	
395	3.000000e+00	2.668262e-04	
396	3.050000e+00	2.672573e-04	
397	3.100000e+00	2.676840e-04	
398	3.150000e+00	2.681073e-04	
399	3.200000e+00	2.685281e-04	
400	3.250000e+00	2.689473e-04	
401	3.300000e+00	2.693663e-04	
Note: No ".plot", ".print", or ".fourier" lines; no simulations run
