
Note: Compatibility modes selected: hs

Warning: m=xx on .subckt line will override multiplier m hierarchy!


Circuit: ***************************

Doing analysis at TEMP = -40.000000 and TNOM = -40.000000


No. of Data Rows : 402
                          ***************************
                          DC transfer characteristic  Mon Jan  9 13:58:11  2023
--------------------------------------------------------------------------------
Index   v-sweep         -i(vds)         
--------------------------------------------------------------------------------
0	0.000000e+00	-1.76743e-39	
1	5.000000e-02	5.070547e-06	
2	1.000000e-01	6.541602e-06	
3	1.500000e-01	6.750092e-06	
4	2.000000e-01	6.812650e-06	
5	2.500000e-01	6.850648e-06	
6	3.000000e-01	6.880512e-06	
7	3.500000e-01	6.906531e-06	
8	4.000000e-01	6.930342e-06	
9	4.500000e-01	6.952721e-06	
10	5.000000e-01	6.974100e-06	
11	5.500000e-01	6.994739e-06	
12	6.000000e-01	7.014808e-06	
13	6.500000e-01	7.034425e-06	
14	7.000000e-01	7.053674e-06	
15	7.500000e-01	7.072617e-06	
16	8.000000e-01	7.091304e-06	
17	8.500000e-01	7.109770e-06	
18	9.000000e-01	7.128047e-06	
19	9.500000e-01	7.146158e-06	
20	1.000000e+00	7.164124e-06	
21	1.050000e+00	7.181959e-06	
22	1.100000e+00	7.199680e-06	
23	1.150000e+00	7.217296e-06	
24	1.200000e+00	7.234819e-06	
25	1.250000e+00	7.252258e-06	
26	1.300000e+00	7.269619e-06	
27	1.350000e+00	7.286909e-06	
28	1.400000e+00	7.304136e-06	
29	1.450000e+00	7.321304e-06	
30	1.500000e+00	7.338420e-06	
31	1.550000e+00	7.355489e-06	
32	1.600000e+00	7.372517e-06	
33	1.650000e+00	7.389510e-06	
34	1.700000e+00	7.406474e-06	
35	1.750000e+00	7.423419e-06	
36	1.800000e+00	7.440352e-06	
37	1.850000e+00	7.457286e-06	
38	1.900000e+00	7.474231e-06	
39	1.950000e+00	7.491202e-06	
40	2.000000e+00	7.508216e-06	
41	2.050000e+00	7.525293e-06	
42	2.100000e+00	7.542455e-06	
43	2.150000e+00	7.559727e-06	
44	2.200000e+00	7.577137e-06	
45	2.250000e+00	7.594720e-06	
46	2.300000e+00	7.612511e-06	
47	2.350000e+00	7.630551e-06	
48	2.400000e+00	7.648884e-06	
49	2.450000e+00	7.667562e-06	
50	2.500000e+00	7.686637e-06	
51	2.550000e+00	7.706169e-06	
52	2.600000e+00	7.726223e-06	
53	2.650000e+00	7.746868e-06	
54	2.700000e+00	7.768179e-06	

Index   v-sweep         -i(vds)         
--------------------------------------------------------------------------------
55	2.750000e+00	7.790235e-06	
56	2.800000e+00	7.813123e-06	
57	2.850000e+00	7.836933e-06	
58	2.900000e+00	7.861763e-06	
59	2.950000e+00	7.887714e-06	
60	3.000000e+00	7.914895e-06	
61	3.050000e+00	7.943419e-06	
62	3.100000e+00	7.973407e-06	
63	3.150000e+00	8.004982e-06	
64	3.200000e+00	8.038276e-06	
65	3.250000e+00	8.073425e-06	
66	3.300000e+00	8.110571e-06	
67	0.000000e+00	4.170512e-20	
68	5.000000e-02	5.577454e-05	
69	1.000000e-01	1.047001e-04	
70	1.500000e-01	1.469838e-04	
71	2.000000e-01	1.828246e-04	
72	2.500000e-01	2.124136e-04	
73	3.000000e-01	2.359350e-04	
74	3.500000e-01	2.535761e-04	
75	4.000000e-01	2.655975e-04	
76	4.500000e-01	2.726623e-04	
77	5.000000e-01	2.763030e-04	
78	5.500000e-01	2.782311e-04	
79	6.000000e-01	2.794062e-04	
80	6.500000e-01	2.802235e-04	
81	7.000000e-01	2.808477e-04	
82	7.500000e-01	2.813554e-04	
83	8.000000e-01	2.817870e-04	
84	8.500000e-01	2.821656e-04	
85	9.000000e-01	2.825053e-04	
86	9.500000e-01	2.828155e-04	
87	1.000000e+00	2.831026e-04	
88	1.050000e+00	2.833712e-04	
89	1.100000e+00	2.836247e-04	
90	1.150000e+00	2.838655e-04	
91	1.200000e+00	2.840957e-04	
92	1.250000e+00	2.843167e-04	
93	1.300000e+00	2.845299e-04	
94	1.350000e+00	2.847361e-04	
95	1.400000e+00	2.849363e-04	
96	1.450000e+00	2.851311e-04	
97	1.500000e+00	2.853212e-04	
98	1.550000e+00	2.855069e-04	
99	1.600000e+00	2.856888e-04	
100	1.650000e+00	2.858671e-04	
101	1.700000e+00	2.860423e-04	
102	1.750000e+00	2.862145e-04	
103	1.800000e+00	2.863842e-04	
104	1.850000e+00	2.865514e-04	
105	1.900000e+00	2.867165e-04	
106	1.950000e+00	2.868798e-04	
107	2.000000e+00	2.870414e-04	
108	2.050000e+00	2.872016e-04	
109	2.100000e+00	2.873608e-04	
110	2.150000e+00	2.875194e-04	
111	2.200000e+00	2.876776e-04	
112	2.250000e+00	2.878361e-04	

Index   v-sweep         -i(vds)         
--------------------------------------------------------------------------------
113	2.300000e+00	2.879953e-04	
114	2.350000e+00	2.881559e-04	
115	2.400000e+00	2.883186e-04	
116	2.450000e+00	2.884842e-04	
117	2.500000e+00	2.886536e-04	
118	2.550000e+00	2.888280e-04	
119	2.600000e+00	2.890084e-04	
120	2.650000e+00	2.891964e-04	
121	2.700000e+00	2.893932e-04	
122	2.750000e+00	2.896006e-04	
123	2.800000e+00	2.898203e-04	
124	2.850000e+00	2.900544e-04	
125	2.900000e+00	2.903049e-04	
126	2.950000e+00	2.905741e-04	
127	3.000000e+00	2.908646e-04	
128	3.050000e+00	2.911790e-04	
129	3.100000e+00	2.915201e-04	
130	3.150000e+00	2.918910e-04	
131	3.200000e+00	2.922948e-04	
132	3.250000e+00	2.927350e-04	
133	3.300000e+00	2.932153e-04	
134	0.000000e+00	3.098303e-36	
135	5.000000e-02	9.634042e-05	
136	1.000000e-01	1.859355e-04	
137	1.500000e-01	2.689561e-04	
138	2.000000e-01	3.455679e-04	
139	2.500000e-01	4.159311e-04	
140	3.000000e-01	4.802005e-04	
141	3.500000e-01	5.385250e-04	
142	4.000000e-01	5.910470e-04	
143	4.500000e-01	6.379011e-04	
144	5.000000e-01	6.792112e-04	
145	5.500000e-01	7.150856e-04	
146	6.000000e-01	7.456069e-04	
147	6.500000e-01	7.708162e-04	
148	7.000000e-01	7.907073e-04	
149	7.500000e-01	8.053250e-04	
150	8.000000e-01	8.151453e-04	
151	8.500000e-01	8.213662e-04	
152	9.000000e-01	8.253682e-04	
153	9.500000e-01	8.281115e-04	
154	1.000000e+00	8.301273e-04	
155	1.050000e+00	8.316974e-04	
156	1.100000e+00	8.329769e-04	
157	1.150000e+00	8.340563e-04	
158	1.200000e+00	8.349915e-04	
159	1.250000e+00	8.358189e-04	
160	1.300000e+00	8.365633e-04	
161	1.350000e+00	8.372420e-04	
162	1.400000e+00	8.378675e-04	
163	1.450000e+00	8.384495e-04	
164	1.500000e+00	8.389950e-04	
165	1.550000e+00	8.395096e-04	
166	1.600000e+00	8.399978e-04	
167	1.650000e+00	8.404631e-04	
168	1.700000e+00	8.409084e-04	
169	1.750000e+00	8.413362e-04	
170	1.800000e+00	8.417485e-04	

Index   v-sweep         -i(vds)         
--------------------------------------------------------------------------------
171	1.850000e+00	8.421468e-04	
172	1.900000e+00	8.425328e-04	
173	1.950000e+00	8.429075e-04	
174	2.000000e+00	8.432721e-04	
175	2.050000e+00	8.436275e-04	
176	2.100000e+00	8.439746e-04	
177	2.150000e+00	8.443142e-04	
178	2.200000e+00	8.446469e-04	
179	2.250000e+00	8.449737e-04	
180	2.300000e+00	8.452952e-04	
181	2.350000e+00	8.456122e-04	
182	2.400000e+00	8.459256e-04	
183	2.450000e+00	8.462365e-04	
184	2.500000e+00	8.465458e-04	
185	2.550000e+00	8.468549e-04	
186	2.600000e+00	8.471653e-04	
187	2.650000e+00	8.474787e-04	
188	2.700000e+00	8.477970e-04	
189	2.750000e+00	8.481225e-04	
190	2.800000e+00	8.484578e-04	
191	2.850000e+00	8.488058e-04	
192	2.900000e+00	8.491697e-04	
193	2.950000e+00	8.495532e-04	
194	3.000000e+00	8.499604e-04	
195	3.050000e+00	8.503959e-04	
196	3.100000e+00	8.508647e-04	
197	3.150000e+00	8.513721e-04	
198	3.200000e+00	8.519242e-04	
199	3.250000e+00	8.525273e-04	
200	3.300000e+00	8.531885e-04	
201	0.000000e+00	1.830000e-20	
202	5.000000e-02	1.249756e-04	
203	1.000000e-01	2.436916e-04	
204	1.500000e-01	3.562834e-04	
205	2.000000e-01	4.628826e-04	
206	2.500000e-01	5.636179e-04	
207	3.000000e-01	6.586144e-04	
208	3.500000e-01	7.479938e-04	
209	4.000000e-01	8.318745e-04	
210	4.500000e-01	9.103716e-04	
211	5.000000e-01	9.835962e-04	
212	5.500000e-01	1.051656e-03	
213	6.000000e-01	1.114652e-03	
214	6.500000e-01	1.172684e-03	
215	7.000000e-01	1.225839e-03	
216	7.500000e-01	1.274197e-03	
217	8.000000e-01	1.317822e-03	
218	8.500000e-01	1.356750e-03	
219	9.000000e-01	1.390975e-03	
220	9.500000e-01	1.420419e-03	
221	1.000000e+00	1.444912e-03	
222	1.050000e+00	1.464264e-03	
223	1.100000e+00	1.478565e-03	
224	1.150000e+00	1.488565e-03	
225	1.200000e+00	1.495467e-03	
226	1.250000e+00	1.500368e-03	
227	1.300000e+00	1.504010e-03	
228	1.350000e+00	1.506843e-03	

Index   v-sweep         -i(vds)         
--------------------------------------------------------------------------------
229	1.400000e+00	1.509133e-03	
230	1.450000e+00	1.511045e-03	
231	1.500000e+00	1.512682e-03	
232	1.550000e+00	1.514114e-03	
233	1.600000e+00	1.515387e-03	
234	1.650000e+00	1.516535e-03	
235	1.700000e+00	1.517581e-03	
236	1.750000e+00	1.518545e-03	
237	1.800000e+00	1.519440e-03	
238	1.850000e+00	1.520276e-03	
239	1.900000e+00	1.521063e-03	
240	1.950000e+00	1.521807e-03	
241	2.000000e+00	1.522514e-03	
242	2.050000e+00	1.523188e-03	
243	2.100000e+00	1.523832e-03	
244	2.150000e+00	1.524451e-03	
245	2.200000e+00	1.525047e-03	
246	2.250000e+00	1.525623e-03	
247	2.300000e+00	1.526179e-03	
248	2.350000e+00	1.526719e-03	
249	2.400000e+00	1.527243e-03	
250	2.450000e+00	1.527754e-03	
251	2.500000e+00	1.528252e-03	
252	2.550000e+00	1.528739e-03	
253	2.600000e+00	1.529216e-03	
254	2.650000e+00	1.529685e-03	
255	2.700000e+00	1.530147e-03	
256	2.750000e+00	1.530604e-03	
257	2.800000e+00	1.531059e-03	
258	2.850000e+00	1.531513e-03	
259	2.900000e+00	1.531968e-03	
260	2.950000e+00	1.532429e-03	
261	3.000000e+00	1.532898e-03	
262	3.050000e+00	1.533379e-03	
263	3.100000e+00	1.533877e-03	
264	3.150000e+00	1.534398e-03	
265	3.200000e+00	1.534946e-03	
266	3.250000e+00	1.535529e-03	
267	3.300000e+00	1.536154e-03	
268	0.000000e+00	1.864072e-19	
269	5.000000e-02	1.444202e-04	
270	1.000000e-01	2.831869e-04	
271	1.500000e-01	4.164053e-04	
272	2.000000e-01	5.441781e-04	
273	2.500000e-01	6.666063e-04	
274	3.000000e-01	7.837882e-04	
275	3.500000e-01	8.958205e-04	
276	4.000000e-01	1.002797e-03	
277	4.500000e-01	1.104811e-03	
278	5.000000e-01	1.201952e-03	
279	5.500000e-01	1.294308e-03	
280	6.000000e-01	1.381965e-03	
281	6.500000e-01	1.465006e-03	
282	7.000000e-01	1.543513e-03	
283	7.500000e-01	1.617563e-03	
284	8.000000e-01	1.687232e-03	
285	8.500000e-01	1.752591e-03	
286	9.000000e-01	1.813707e-03	

Index   v-sweep         -i(vds)         
--------------------------------------------------------------------------------
287	9.500000e-01	1.870641e-03	
288	1.000000e+00	1.923442e-03	
289	1.050000e+00	1.972150e-03	
290	1.100000e+00	2.016780e-03	
291	1.150000e+00	2.057313e-03	
292	1.200000e+00	2.093675e-03	
293	1.250000e+00	2.125704e-03	
294	1.300000e+00	2.153132e-03	
295	1.350000e+00	2.175649e-03	
296	1.400000e+00	2.193167e-03	
297	1.450000e+00	2.206150e-03	
298	1.500000e+00	2.215577e-03	
299	1.550000e+00	2.222498e-03	
300	1.600000e+00	2.227735e-03	
301	1.650000e+00	2.231840e-03	
302	1.700000e+00	2.235164e-03	
303	1.750000e+00	2.237933e-03	
304	1.800000e+00	2.240296e-03	
305	1.850000e+00	2.242352e-03	
306	1.900000e+00	2.244170e-03	
307	1.950000e+00	2.245801e-03	
308	2.000000e+00	2.247279e-03	
309	2.050000e+00	2.248633e-03	
310	2.100000e+00	2.249883e-03	
311	2.150000e+00	2.251046e-03	
312	2.200000e+00	2.252134e-03	
313	2.250000e+00	2.253158e-03	
314	2.300000e+00	2.254126e-03	
315	2.350000e+00	2.255045e-03	
316	2.400000e+00	2.255920e-03	
317	2.450000e+00	2.256757e-03	
318	2.500000e+00	2.257560e-03	
319	2.550000e+00	2.258331e-03	
320	2.600000e+00	2.259075e-03	
321	2.650000e+00	2.259794e-03	
322	2.700000e+00	2.260490e-03	
323	2.750000e+00	2.261165e-03	
324	2.800000e+00	2.261822e-03	
325	2.850000e+00	2.262462e-03	
326	2.900000e+00	2.263088e-03	
327	2.950000e+00	2.263702e-03	
328	3.000000e+00	2.264305e-03	
329	3.050000e+00	2.264901e-03	
330	3.100000e+00	2.265493e-03	
331	3.150000e+00	2.266083e-03	
332	3.200000e+00	2.266677e-03	
333	3.250000e+00	2.267277e-03	
334	3.300000e+00	2.267889e-03	
335	0.000000e+00	-9.85742e-20	
336	5.000000e-02	1.570607e-04	
337	1.000000e-01	3.090858e-04	
338	1.500000e-01	4.561568e-04	
339	2.000000e-01	5.983533e-04	
340	2.500000e-01	7.357538e-04	
341	3.000000e-01	8.684353e-04	
342	3.500000e-01	9.964734e-04	
343	4.000000e-01	1.119942e-03	
344	4.500000e-01	1.238915e-03	

Index   v-sweep         -i(vds)         
--------------------------------------------------------------------------------
345	5.000000e-01	1.353463e-03	
346	5.500000e-01	1.463656e-03	
347	6.000000e-01	1.569563e-03	
348	6.500000e-01	1.671252e-03	
349	7.000000e-01	1.768788e-03	
350	7.500000e-01	1.862237e-03	
351	8.000000e-01	1.951661e-03	
352	8.500000e-01	2.037122e-03	
353	9.000000e-01	2.118680e-03	
354	9.500000e-01	2.196394e-03	
355	1.000000e+00	2.270319e-03	
356	1.050000e+00	2.340509e-03	
357	1.100000e+00	2.407015e-03	
358	1.150000e+00	2.469884e-03	
359	1.200000e+00	2.529159e-03	
360	1.250000e+00	2.584874e-03	
361	1.300000e+00	2.637053e-03	
362	1.350000e+00	2.685707e-03	
363	1.400000e+00	2.730819e-03	
364	1.450000e+00	2.772339e-03	
365	1.500000e+00	2.810152e-03	
366	1.550000e+00	2.844060e-03	
367	1.600000e+00	2.873758e-03	
368	1.650000e+00	2.898884e-03	
369	1.700000e+00	2.919221e-03	
370	1.750000e+00	2.934983e-03	
371	1.800000e+00	2.946887e-03	
372	1.850000e+00	2.955871e-03	
373	1.900000e+00	2.962774e-03	
374	1.950000e+00	2.968223e-03	
375	2.000000e+00	2.972643e-03	
376	2.050000e+00	2.976321e-03	
377	2.100000e+00	2.979451e-03	
378	2.150000e+00	2.982164e-03	
379	2.200000e+00	2.984553e-03	
380	2.250000e+00	2.986687e-03	
381	2.300000e+00	2.988613e-03	
382	2.350000e+00	2.990370e-03	
383	2.400000e+00	2.991986e-03	
384	2.450000e+00	2.993482e-03	
385	2.500000e+00	2.994877e-03	
386	2.550000e+00	2.996184e-03	
387	2.600000e+00	2.997415e-03	
388	2.650000e+00	2.998580e-03	
389	2.700000e+00	2.999687e-03	
390	2.750000e+00	3.000741e-03	
391	2.800000e+00	3.001749e-03	
392	2.850000e+00	3.002715e-03	
393	2.900000e+00	3.003644e-03	
394	2.950000e+00	3.004539e-03	
395	3.000000e+00	3.005403e-03	
396	3.050000e+00	3.006239e-03	
397	3.100000e+00	3.007051e-03	
398	3.150000e+00	3.007840e-03	
399	3.200000e+00	3.008609e-03	
400	3.250000e+00	3.009362e-03	
401	3.300000e+00	3.010101e-03	
Note: No ".plot", ".print", or ".fourier" lines; no simulations run
