
Note: Compatibility modes selected: hs

Warning: m=xx on .subckt line will override multiplier m hierarchy!


Circuit: ***************************

Doing analysis at TEMP = -40.000000 and TNOM = -40.000000


No. of Data Rows : 402
                          ***************************
                          DC transfer characteristic  Mon Jan  9 13:58:12  2023
--------------------------------------------------------------------------------
Index   v-sweep         -i(vds)         
--------------------------------------------------------------------------------
0	0.000000e+00	-5.16008e-22	
1	5.000000e-02	8.964519e-07	
2	1.000000e-01	1.310757e-06	
3	1.500000e-01	1.482103e-06	
4	2.000000e-01	1.577892e-06	
5	2.500000e-01	1.650926e-06	
6	3.000000e-01	1.715159e-06	
7	3.500000e-01	1.775226e-06	
8	4.000000e-01	1.833084e-06	
9	4.500000e-01	1.889719e-06	
10	5.000000e-01	1.945690e-06	
11	5.500000e-01	2.001345e-06	
12	6.000000e-01	2.056912e-06	
13	6.500000e-01	2.112552e-06	
14	7.000000e-01	2.168378e-06	
15	7.500000e-01	2.224478e-06	
16	8.000000e-01	2.280917e-06	
17	8.500000e-01	2.337746e-06	
18	9.000000e-01	2.395006e-06	
19	9.500000e-01	2.452731e-06	
20	1.000000e+00	2.510947e-06	
21	1.050000e+00	2.569678e-06	
22	1.100000e+00	2.628941e-06	
23	1.150000e+00	2.688753e-06	
24	1.200000e+00	2.749128e-06	
25	1.250000e+00	2.810077e-06	
26	1.300000e+00	2.871610e-06	
27	1.350000e+00	2.933737e-06	
28	1.400000e+00	2.996464e-06	
29	1.450000e+00	3.059800e-06	
30	1.500000e+00	3.123750e-06	
31	1.550000e+00	3.188321e-06	
32	1.600000e+00	3.253518e-06	
33	1.650000e+00	3.319347e-06	
34	1.700000e+00	3.385814e-06	
35	1.750000e+00	3.452927e-06	
36	1.800000e+00	3.520691e-06	
37	1.850000e+00	3.589116e-06	
38	1.900000e+00	3.658211e-06	
39	1.950000e+00	3.727987e-06	
40	2.000000e+00	3.798458e-06	
41	2.050000e+00	3.869639e-06	
42	2.100000e+00	3.941548e-06	
43	2.150000e+00	4.014208e-06	
44	2.200000e+00	4.087644e-06	
45	2.250000e+00	4.161885e-06	
46	2.300000e+00	4.236965e-06	
47	2.350000e+00	4.312924e-06	
48	2.400000e+00	4.389808e-06	
49	2.450000e+00	4.467666e-06	
50	2.500000e+00	4.546559e-06	
51	2.550000e+00	4.626553e-06	
52	2.600000e+00	4.707721e-06	
53	2.650000e+00	4.790149e-06	
54	2.700000e+00	4.873928e-06	

Index   v-sweep         -i(vds)         
--------------------------------------------------------------------------------
55	2.750000e+00	4.959164e-06	
56	2.800000e+00	5.045972e-06	
57	2.850000e+00	5.134479e-06	
58	2.900000e+00	5.224825e-06	
59	2.950000e+00	5.317166e-06	
60	3.000000e+00	5.411670e-06	
61	3.050000e+00	5.508522e-06	
62	3.100000e+00	5.607922e-06	
63	3.150000e+00	5.710090e-06	
64	3.200000e+00	5.815262e-06	
65	3.250000e+00	5.923693e-06	
66	3.300000e+00	6.035660e-06	
67	0.000000e+00	5.279030e-37	
68	5.000000e-02	7.202748e-06	
69	1.000000e-01	1.342152e-05	
70	1.500000e-01	1.872793e-05	
71	2.000000e-01	2.318745e-05	
72	2.500000e-01	2.686030e-05	
73	3.000000e-01	2.980384e-05	
74	3.500000e-01	3.208018e-05	
75	4.000000e-01	3.377429e-05	
76	4.500000e-01	3.500915e-05	
77	5.000000e-01	3.592423e-05	
78	5.500000e-01	3.663390e-05	
79	6.000000e-01	3.721334e-05	
80	6.500000e-01	3.770777e-05	
81	7.000000e-01	3.814425e-05	
82	7.500000e-01	3.853952e-05	
83	8.000000e-01	3.890435e-05	
84	8.500000e-01	3.924599e-05	
85	9.000000e-01	3.956946e-05	
86	9.500000e-01	3.987840e-05	
87	1.000000e+00	4.017548e-05	
88	1.050000e+00	4.046274e-05	
89	1.100000e+00	4.074175e-05	
90	1.150000e+00	4.101374e-05	
91	1.200000e+00	4.127972e-05	
92	1.250000e+00	4.154049e-05	
93	1.300000e+00	4.179670e-05	
94	1.350000e+00	4.204891e-05	
95	1.400000e+00	4.229759e-05	
96	1.450000e+00	4.254313e-05	
97	1.500000e+00	4.278585e-05	
98	1.550000e+00	4.302606e-05	
99	1.600000e+00	4.326400e-05	
100	1.650000e+00	4.349989e-05	
101	1.700000e+00	4.373392e-05	
102	1.750000e+00	4.396627e-05	
103	1.800000e+00	4.419710e-05	
104	1.850000e+00	4.442655e-05	
105	1.900000e+00	4.465476e-05	
106	1.950000e+00	4.488185e-05	
107	2.000000e+00	4.510796e-05	
108	2.050000e+00	4.533320e-05	
109	2.100000e+00	4.555773e-05	
110	2.150000e+00	4.578167e-05	
111	2.200000e+00	4.600517e-05	
112	2.250000e+00	4.622841e-05	

Index   v-sweep         -i(vds)         
--------------------------------------------------------------------------------
113	2.300000e+00	4.645156e-05	
114	2.350000e+00	4.667482e-05	
115	2.400000e+00	4.689843e-05	
116	2.450000e+00	4.712264e-05	
117	2.500000e+00	4.734772e-05	
118	2.550000e+00	4.757401e-05	
119	2.600000e+00	4.780186e-05	
120	2.650000e+00	4.803166e-05	
121	2.700000e+00	4.826387e-05	
122	2.750000e+00	4.849897e-05	
123	2.800000e+00	4.873751e-05	
124	2.850000e+00	4.898010e-05	
125	2.900000e+00	4.922739e-05	
126	2.950000e+00	4.948010e-05	
127	3.000000e+00	4.973903e-05	
128	3.050000e+00	5.000504e-05	
129	3.100000e+00	5.027905e-05	
130	3.150000e+00	5.056209e-05	
131	3.200000e+00	5.085525e-05	
132	3.250000e+00	5.115969e-05	
133	3.300000e+00	5.147669e-05	
134	0.000000e+00	-1.38866e-20	
135	5.000000e-02	1.147297e-05	
136	1.000000e-01	2.195916e-05	
137	1.500000e-01	3.151359e-05	
138	2.000000e-01	4.018747e-05	
139	2.500000e-01	4.802824e-05	
140	3.000000e-01	5.507949e-05	
141	3.500000e-01	6.138063e-05	
142	4.000000e-01	6.696623e-05	
143	4.500000e-01	7.186500e-05	
144	5.000000e-01	7.609878e-05	
145	5.500000e-01	7.968413e-05	
146	6.000000e-01	8.264176e-05	
147	6.500000e-01	8.501677e-05	
148	7.000000e-01	8.689331e-05	
149	7.500000e-01	8.838084e-05	
150	8.000000e-01	8.958389e-05	
151	8.500000e-01	9.058416e-05	
152	9.000000e-01	9.143936e-05	
153	9.500000e-01	9.218879e-05	
154	1.000000e+00	9.285924e-05	
155	1.050000e+00	9.346924e-05	
156	1.100000e+00	9.403190e-05	
157	1.150000e+00	9.455674e-05	
158	1.200000e+00	9.505079e-05	
159	1.250000e+00	9.551940e-05	
160	1.300000e+00	9.596667e-05	
161	1.350000e+00	9.639585e-05	
162	1.400000e+00	9.680950e-05	
163	1.450000e+00	9.720972e-05	
164	1.500000e+00	9.759819e-05	
165	1.550000e+00	9.797634e-05	
166	1.600000e+00	9.834534e-05	
167	1.650000e+00	9.870619e-05	
168	1.700000e+00	9.905973e-05	
169	1.750000e+00	9.940670e-05	
170	1.800000e+00	9.974771e-05	

Index   v-sweep         -i(vds)         
--------------------------------------------------------------------------------
171	1.850000e+00	1.000833e-04	
172	1.900000e+00	1.004140e-04	
173	1.950000e+00	1.007402e-04	
174	2.000000e+00	1.010623e-04	
175	2.050000e+00	1.013806e-04	
176	2.100000e+00	1.016955e-04	
177	2.150000e+00	1.020073e-04	
178	2.200000e+00	1.023162e-04	
179	2.250000e+00	1.026226e-04	
180	2.300000e+00	1.029267e-04	
181	2.350000e+00	1.032290e-04	
182	2.400000e+00	1.035296e-04	
183	2.450000e+00	1.038289e-04	
184	2.500000e+00	1.041274e-04	
185	2.550000e+00	1.044255e-04	
186	2.600000e+00	1.047236e-04	
187	2.650000e+00	1.050223e-04	
188	2.700000e+00	1.053222e-04	
189	2.750000e+00	1.056239e-04	
190	2.800000e+00	1.059281e-04	
191	2.850000e+00	1.062358e-04	
192	2.900000e+00	1.065477e-04	
193	2.950000e+00	1.068649e-04	
194	3.000000e+00	1.071886e-04	
195	3.050000e+00	1.075199e-04	
196	3.100000e+00	1.078601e-04	
197	3.150000e+00	1.082109e-04	
198	3.200000e+00	1.085736e-04	
199	3.250000e+00	1.089502e-04	
200	3.300000e+00	1.093425e-04	
201	0.000000e+00	-2.98331e-20	
202	5.000000e-02	1.434373e-05	
203	1.000000e-01	2.776176e-05	
204	1.500000e-01	4.029606e-05	
205	2.000000e-01	5.198642e-05	
206	2.500000e-01	6.287038e-05	
207	3.000000e-01	7.298331e-05	
208	3.500000e-01	8.235834e-05	
209	4.000000e-01	9.102625e-05	
210	4.500000e-01	9.901519e-05	
211	5.000000e-01	1.063502e-04	
212	5.500000e-01	1.130526e-04	
213	6.000000e-01	1.191382e-04	
214	6.500000e-01	1.246164e-04	
215	7.000000e-01	1.294881e-04	
216	7.500000e-01	1.337476e-04	
217	8.000000e-01	1.373914e-04	
218	8.500000e-01	1.404363e-04	
219	9.000000e-01	1.429363e-04	
220	9.500000e-01	1.449781e-04	
221	1.000000e+00	1.466594e-04	
222	1.050000e+00	1.480670e-04	
223	1.100000e+00	1.492697e-04	
224	1.150000e+00	1.503179e-04	
225	1.200000e+00	1.512481e-04	
226	1.250000e+00	1.520865e-04	
227	1.300000e+00	1.528524e-04	
228	1.350000e+00	1.535598e-04	

Index   v-sweep         -i(vds)         
--------------------------------------------------------------------------------
229	1.400000e+00	1.542194e-04	
230	1.450000e+00	1.548394e-04	
231	1.500000e+00	1.554260e-04	
232	1.550000e+00	1.559844e-04	
233	1.600000e+00	1.565184e-04	
234	1.650000e+00	1.570314e-04	
235	1.700000e+00	1.575259e-04	
236	1.750000e+00	1.580042e-04	
237	1.800000e+00	1.584682e-04	
238	1.850000e+00	1.589194e-04	
239	1.900000e+00	1.593590e-04	
240	1.950000e+00	1.597883e-04	
241	2.000000e+00	1.602083e-04	
242	2.050000e+00	1.606197e-04	
243	2.100000e+00	1.610234e-04	
244	2.150000e+00	1.614201e-04	
245	2.200000e+00	1.618102e-04	
246	2.250000e+00	1.621944e-04	
247	2.300000e+00	1.625731e-04	
248	2.350000e+00	1.629469e-04	
249	2.400000e+00	1.633163e-04	
250	2.450000e+00	1.636815e-04	
251	2.500000e+00	1.640433e-04	
252	2.550000e+00	1.644019e-04	
253	2.600000e+00	1.647580e-04	
254	2.650000e+00	1.651120e-04	
255	2.700000e+00	1.654647e-04	
256	2.750000e+00	1.658166e-04	
257	2.800000e+00	1.661685e-04	
258	2.850000e+00	1.665213e-04	
259	2.900000e+00	1.668757e-04	
260	2.950000e+00	1.672330e-04	
261	3.000000e+00	1.675942e-04	
262	3.050000e+00	1.679606e-04	
263	3.100000e+00	1.683336e-04	
264	3.150000e+00	1.687148e-04	
265	3.200000e+00	1.691059e-04	
266	3.250000e+00	1.695087e-04	
267	3.300000e+00	1.699255e-04	
268	0.000000e+00	1.062300e-20	
269	5.000000e-02	1.636985e-05	
270	1.000000e-01	3.188709e-05	
271	1.500000e-01	4.658426e-05	
272	2.000000e-01	6.049249e-05	
273	2.500000e-01	7.364152e-05	
274	3.000000e-01	8.605975e-05	
275	3.500000e-01	9.777422e-05	
276	4.000000e-01	1.088106e-04	
277	4.500000e-01	1.191931e-04	
278	5.000000e-01	1.289445e-04	
279	5.500000e-01	1.380859e-04	
280	6.000000e-01	1.466362e-04	
281	6.500000e-01	1.546120e-04	
282	7.000000e-01	1.620269e-04	
283	7.500000e-01	1.688898e-04	
284	8.000000e-01	1.752040e-04	
285	8.500000e-01	1.809651e-04	
286	9.000000e-01	1.861605e-04	

Index   v-sweep         -i(vds)         
--------------------------------------------------------------------------------
287	9.500000e-01	1.907716e-04	
288	1.000000e+00	1.947846e-04	
289	1.050000e+00	1.982068e-04	
290	1.100000e+00	2.010799e-04	
291	1.150000e+00	2.034773e-04	
292	1.200000e+00	2.054858e-04	
293	1.250000e+00	2.071880e-04	
294	1.300000e+00	2.086527e-04	
295	1.350000e+00	2.099334e-04	
296	1.400000e+00	2.110705e-04	
297	1.450000e+00	2.120940e-04	
298	1.500000e+00	2.130265e-04	
299	1.550000e+00	2.138850e-04	
300	1.600000e+00	2.146824e-04	
301	1.650000e+00	2.154288e-04	
302	1.700000e+00	2.161323e-04	
303	1.750000e+00	2.167990e-04	
304	1.800000e+00	2.174341e-04	
305	1.850000e+00	2.180417e-04	
306	1.900000e+00	2.186253e-04	
307	1.950000e+00	2.191876e-04	
308	2.000000e+00	2.197311e-04	
309	2.050000e+00	2.202578e-04	
310	2.100000e+00	2.207694e-04	
311	2.150000e+00	2.212673e-04	
312	2.200000e+00	2.217529e-04	
313	2.250000e+00	2.222273e-04	
314	2.300000e+00	2.226915e-04	
315	2.350000e+00	2.231463e-04	
316	2.400000e+00	2.235926e-04	
317	2.450000e+00	2.240310e-04	
318	2.500000e+00	2.244622e-04	
319	2.550000e+00	2.248870e-04	
320	2.600000e+00	2.253058e-04	
321	2.650000e+00	2.257193e-04	
322	2.700000e+00	2.261282e-04	
323	2.750000e+00	2.265330e-04	
324	2.800000e+00	2.269346e-04	
325	2.850000e+00	2.273336e-04	
326	2.900000e+00	2.277309e-04	
327	2.950000e+00	2.281275e-04	
328	3.000000e+00	2.285242e-04	
329	3.050000e+00	2.289224e-04	
330	3.100000e+00	2.293232e-04	
331	3.150000e+00	2.297281e-04	
332	3.200000e+00	2.301386e-04	
333	3.250000e+00	2.305566e-04	
334	3.300000e+00	2.309839e-04	
335	0.000000e+00	1.734045e-20	
336	5.000000e-02	1.785058e-05	
337	1.000000e-01	3.491938e-05	
338	1.500000e-01	5.123209e-05	
339	2.000000e-01	6.681345e-05	
340	2.500000e-01	8.168732e-05	
341	3.000000e-01	9.587666e-05	
342	3.500000e-01	1.094035e-04	
343	4.000000e-01	1.222891e-04	
344	4.500000e-01	1.345537e-04	

Index   v-sweep         -i(vds)         
--------------------------------------------------------------------------------
345	5.000000e-01	1.462167e-04	
346	5.500000e-01	1.572964e-04	
347	6.000000e-01	1.678104e-04	
348	6.500000e-01	1.777749e-04	
349	7.000000e-01	1.872048e-04	
350	7.500000e-01	1.961134e-04	
351	8.000000e-01	2.045122e-04	
352	8.500000e-01	2.124097e-04	
353	9.000000e-01	2.198110e-04	
354	9.500000e-01	2.267162e-04	
355	1.000000e+00	2.331191e-04	
356	1.050000e+00	2.390054e-04	
357	1.100000e+00	2.443533e-04	
358	1.150000e+00	2.491381e-04	
359	1.200000e+00	2.533427e-04	
360	1.250000e+00	2.569729e-04	
361	1.300000e+00	2.600664e-04	
362	1.350000e+00	2.626885e-04	
363	1.400000e+00	2.649172e-04	
364	1.450000e+00	2.668282e-04	
365	1.500000e+00	2.684869e-04	
366	1.550000e+00	2.699458e-04	
367	1.600000e+00	2.712457e-04	
368	1.650000e+00	2.724180e-04	
369	1.700000e+00	2.734866e-04	
370	1.750000e+00	2.744700e-04	
371	1.800000e+00	2.753826e-04	
372	1.850000e+00	2.762356e-04	
373	1.900000e+00	2.770382e-04	
374	1.950000e+00	2.777973e-04	
375	2.000000e+00	2.785190e-04	
376	2.050000e+00	2.792079e-04	
377	2.100000e+00	2.798681e-04	
378	2.150000e+00	2.805030e-04	
379	2.200000e+00	2.811152e-04	
380	2.250000e+00	2.817072e-04	
381	2.300000e+00	2.822811e-04	
382	2.350000e+00	2.828385e-04	
383	2.400000e+00	2.833810e-04	
384	2.450000e+00	2.839100e-04	
385	2.500000e+00	2.844266e-04	
386	2.550000e+00	2.849320e-04	
387	2.600000e+00	2.854269e-04	
388	2.650000e+00	2.859124e-04	
389	2.700000e+00	2.863892e-04	
390	2.750000e+00	2.868581e-04	
391	2.800000e+00	2.873199e-04	
392	2.850000e+00	2.877754e-04	
393	2.900000e+00	2.882254e-04	
394	2.950000e+00	2.886706e-04	
395	3.000000e+00	2.891121e-04	
396	3.050000e+00	2.895507e-04	
397	3.100000e+00	2.899875e-04	
398	3.150000e+00	2.904237e-04	
399	3.200000e+00	2.908608e-04	
400	3.250000e+00	2.913000e-04	
401	3.300000e+00	2.917431e-04	
Note: No ".plot", ".print", or ".fourier" lines; no simulations run
