
Note: Compatibility modes selected: hs

Warning: m=xx on .subckt line will override multiplier m hierarchy!


Circuit: ***************************

Doing analysis at TEMP = 125.000000 and TNOM = 125.000000


No. of Data Rows : 402
                          ***************************
                          DC transfer characteristic  Mon Jan  9 13:58:12  2023
--------------------------------------------------------------------------------
Index   v-sweep         -i(vds)         
--------------------------------------------------------------------------------
0	0.000000e+00	2.327590e-27	
1	5.000000e-02	4.598631e-07	
2	1.000000e-01	8.155908e-07	
3	1.500000e-01	1.073680e-06	
4	2.000000e-01	1.242060e-06	
5	2.500000e-01	1.336410e-06	
6	3.000000e-01	1.384318e-06	
7	3.500000e-01	1.411444e-06	
8	4.000000e-01	1.430097e-06	
9	4.500000e-01	1.444698e-06	
10	5.000000e-01	1.456967e-06	
11	5.500000e-01	1.467707e-06	
12	6.000000e-01	1.477356e-06	
13	6.500000e-01	1.486183e-06	
14	7.000000e-01	1.494366e-06	
15	7.500000e-01	1.502028e-06	
16	8.000000e-01	1.509261e-06	
17	8.500000e-01	1.516134e-06	
18	9.000000e-01	1.522699e-06	
19	9.500000e-01	1.529000e-06	
20	1.000000e+00	1.535069e-06	
21	1.050000e+00	1.540935e-06	
22	1.100000e+00	1.546621e-06	
23	1.150000e+00	1.552147e-06	
24	1.200000e+00	1.557528e-06	
25	1.250000e+00	1.562779e-06	
26	1.300000e+00	1.567912e-06	
27	1.350000e+00	1.572938e-06	
28	1.400000e+00	1.577866e-06	
29	1.450000e+00	1.582703e-06	
30	1.500000e+00	1.587458e-06	
31	1.550000e+00	1.592136e-06	
32	1.600000e+00	1.596743e-06	
33	1.650000e+00	1.601286e-06	
34	1.700000e+00	1.605767e-06	
35	1.750000e+00	1.610193e-06	
36	1.800000e+00	1.614567e-06	
37	1.850000e+00	1.618894e-06	
38	1.900000e+00	1.623178e-06	
39	1.950000e+00	1.627423e-06	
40	2.000000e+00	1.631634e-06	
41	2.050000e+00	1.635814e-06	
42	2.100000e+00	1.639970e-06	
43	2.150000e+00	1.644107e-06	
44	2.200000e+00	1.648229e-06	
45	2.250000e+00	1.652344e-06	
46	2.300000e+00	1.656459e-06	
47	2.350000e+00	1.660582e-06	
48	2.400000e+00	1.664720e-06	
49	2.450000e+00	1.668885e-06	
50	2.500000e+00	1.673085e-06	
51	2.550000e+00	1.677332e-06	
52	2.600000e+00	1.681639e-06	
53	2.650000e+00	1.686021e-06	
54	2.700000e+00	1.690490e-06	

Index   v-sweep         -i(vds)         
--------------------------------------------------------------------------------
55	2.750000e+00	1.695065e-06	
56	2.800000e+00	1.699763e-06	
57	2.850000e+00	1.704602e-06	
58	2.900000e+00	1.709603e-06	
59	2.950000e+00	1.714790e-06	
60	3.000000e+00	1.720184e-06	
61	3.050000e+00	1.725812e-06	
62	3.100000e+00	1.731700e-06	
63	3.150000e+00	1.737879e-06	
64	3.200000e+00	1.744377e-06	
65	3.250000e+00	1.751228e-06	
66	3.300000e+00	1.758465e-06	
67	0.000000e+00	-8.03258e-27	
68	5.000000e-02	1.463085e-06	
69	1.000000e-01	2.793860e-06	
70	1.500000e-01	3.997827e-06	
71	2.000000e-01	5.079267e-06	
72	2.500000e-01	6.042082e-06	
73	3.000000e-01	6.890016e-06	
74	3.500000e-01	7.626752e-06	
75	4.000000e-01	8.256017e-06	
76	4.500000e-01	8.781798e-06	
77	5.000000e-01	9.208825e-06	
78	5.500000e-01	9.543684e-06	
79	6.000000e-01	9.796784e-06	
80	6.500000e-01	9.983818e-06	
81	7.000000e-01	1.012328e-05	
82	7.500000e-01	1.023109e-05	
83	8.000000e-01	1.031807e-05	
84	8.500000e-01	1.039087e-05	
85	9.000000e-01	1.045360e-05	
86	9.500000e-01	1.050885e-05	
87	1.000000e+00	1.055836e-05	
88	1.050000e+00	1.060331e-05	
89	1.100000e+00	1.064457e-05	
90	1.150000e+00	1.068279e-05	
91	1.200000e+00	1.071845e-05	
92	1.250000e+00	1.075192e-05	
93	1.300000e+00	1.078353e-05	
94	1.350000e+00	1.081349e-05	
95	1.400000e+00	1.084203e-05	
96	1.450000e+00	1.086929e-05	
97	1.500000e+00	1.089542e-05	
98	1.550000e+00	1.092053e-05	
99	1.600000e+00	1.094473e-05	
100	1.650000e+00	1.096809e-05	
101	1.700000e+00	1.099070e-05	
102	1.750000e+00	1.101263e-05	
103	1.800000e+00	1.103391e-05	
104	1.850000e+00	1.105462e-05	
105	1.900000e+00	1.107478e-05	
106	1.950000e+00	1.109445e-05	
107	2.000000e+00	1.111366e-05	
108	2.050000e+00	1.113244e-05	
109	2.100000e+00	1.115082e-05	
110	2.150000e+00	1.116884e-05	
111	2.200000e+00	1.118652e-05	
112	2.250000e+00	1.120389e-05	

Index   v-sweep         -i(vds)         
--------------------------------------------------------------------------------
113	2.300000e+00	1.122099e-05	
114	2.350000e+00	1.123783e-05	
115	2.400000e+00	1.125446e-05	
116	2.450000e+00	1.127090e-05	
117	2.500000e+00	1.128719e-05	
118	2.550000e+00	1.130337e-05	
119	2.600000e+00	1.131948e-05	
120	2.650000e+00	1.133557e-05	
121	2.700000e+00	1.135169e-05	
122	2.750000e+00	1.136789e-05	
123	2.800000e+00	1.138423e-05	
124	2.850000e+00	1.140080e-05	
125	2.900000e+00	1.141765e-05	
126	2.950000e+00	1.143487e-05	
127	3.000000e+00	1.145256e-05	
128	3.050000e+00	1.147081e-05	
129	3.100000e+00	1.148972e-05	
130	3.150000e+00	1.150941e-05	
131	3.200000e+00	1.153000e-05	
132	3.250000e+00	1.155164e-05	
133	3.300000e+00	1.157445e-05	
134	0.000000e+00	-2.24263e-26	
135	5.000000e-02	2.300529e-06	
136	1.000000e-01	4.461475e-06	
137	1.500000e-01	6.488023e-06	
138	2.000000e-01	8.384172e-06	
139	2.500000e-01	1.015355e-05	
140	3.000000e-01	1.179959e-05	
141	3.500000e-01	1.332562e-05	
142	4.000000e-01	1.473486e-05	
143	4.500000e-01	1.603041e-05	
144	5.000000e-01	1.721530e-05	
145	5.500000e-01	1.829246e-05	
146	6.000000e-01	1.926474e-05	
147	6.500000e-01	2.013495e-05	
148	7.000000e-01	2.090585e-05	
149	7.500000e-01	2.158028e-05	
150	8.000000e-01	2.216129e-05	
151	8.500000e-01	2.265268e-05	
152	9.000000e-01	2.306001e-05	
153	9.500000e-01	2.339196e-05	
154	1.000000e+00	2.366068e-05	
155	1.050000e+00	2.387977e-05	
156	1.100000e+00	2.406151e-05	
157	1.150000e+00	2.421541e-05	
158	1.200000e+00	2.434838e-05	
159	1.250000e+00	2.446529e-05	
160	1.300000e+00	2.456960e-05	
161	1.350000e+00	2.466384e-05	
162	1.400000e+00	2.474985e-05	
163	1.450000e+00	2.482905e-05	
164	1.500000e+00	2.490251e-05	
165	1.550000e+00	2.497108e-05	
166	1.600000e+00	2.503544e-05	
167	1.650000e+00	2.509613e-05	
168	1.700000e+00	2.515361e-05	
169	1.750000e+00	2.520823e-05	
170	1.800000e+00	2.526032e-05	

Index   v-sweep         -i(vds)         
--------------------------------------------------------------------------------
171	1.850000e+00	2.531014e-05	
172	1.900000e+00	2.535792e-05	
173	1.950000e+00	2.540384e-05	
174	2.000000e+00	2.544807e-05	
175	2.050000e+00	2.549076e-05	
176	2.100000e+00	2.553204e-05	
177	2.150000e+00	2.557202e-05	
178	2.200000e+00	2.561081e-05	
179	2.250000e+00	2.564848e-05	
180	2.300000e+00	2.568514e-05	
181	2.350000e+00	2.572084e-05	
182	2.400000e+00	2.575566e-05	
183	2.450000e+00	2.578968e-05	
184	2.500000e+00	2.582294e-05	
185	2.550000e+00	2.585553e-05	
186	2.600000e+00	2.588749e-05	
187	2.650000e+00	2.591890e-05	
188	2.700000e+00	2.594983e-05	
189	2.750000e+00	2.598034e-05	
190	2.800000e+00	2.601053e-05	
191	2.850000e+00	2.604047e-05	
192	2.900000e+00	2.607026e-05	
193	2.950000e+00	2.610001e-05	
194	3.000000e+00	2.612982e-05	
195	3.050000e+00	2.615983e-05	
196	3.100000e+00	2.619017e-05	
197	3.150000e+00	2.622100e-05	
198	3.200000e+00	2.625249e-05	
199	3.250000e+00	2.628482e-05	
200	3.300000e+00	2.631819e-05	
201	0.000000e+00	-5.95437e-27	
202	5.000000e-02	3.002103e-06	
203	1.000000e-01	5.862712e-06	
204	1.500000e-01	8.586663e-06	
205	2.000000e-01	1.117764e-05	
206	2.500000e-01	1.363899e-05	
207	3.000000e-01	1.597388e-05	
208	3.500000e-01	1.818539e-05	
209	4.000000e-01	2.027648e-05	
210	4.500000e-01	2.225006e-05	
211	5.000000e-01	2.410891e-05	
212	5.500000e-01	2.585576e-05	
213	6.000000e-01	2.749325e-05	
214	6.500000e-01	2.902394e-05	
215	7.000000e-01	3.045029e-05	
216	7.500000e-01	3.177470e-05	
217	8.000000e-01	3.299947e-05	
218	8.500000e-01	3.412678e-05	
219	9.000000e-01	3.515870e-05	
220	9.500000e-01	3.609713e-05	
221	1.000000e+00	3.694375e-05	
222	1.050000e+00	3.770001e-05	
223	1.100000e+00	3.836721e-05	
224	1.150000e+00	3.894707e-05	
225	1.200000e+00	3.944296e-05	
226	1.250000e+00	3.986153e-05	
227	1.300000e+00	4.021299e-05	
228	1.350000e+00	4.050930e-05	

Index   v-sweep         -i(vds)         
--------------------------------------------------------------------------------
229	1.400000e+00	4.076186e-05	
230	1.450000e+00	4.098017e-05	
231	1.500000e+00	4.117158e-05	
232	1.550000e+00	4.134164e-05	
233	1.600000e+00	4.149450e-05	
234	1.650000e+00	4.163332e-05	
235	1.700000e+00	4.176047e-05	
236	1.750000e+00	4.187783e-05	
237	1.800000e+00	4.198687e-05	
238	1.850000e+00	4.208873e-05	
239	1.900000e+00	4.218438e-05	
240	1.950000e+00	4.227459e-05	
241	2.000000e+00	4.235999e-05	
242	2.050000e+00	4.244113e-05	
243	2.100000e+00	4.251845e-05	
244	2.150000e+00	4.259234e-05	
245	2.200000e+00	4.266313e-05	
246	2.250000e+00	4.273110e-05	
247	2.300000e+00	4.279651e-05	
248	2.350000e+00	4.285956e-05	
249	2.400000e+00	4.292046e-05	
250	2.450000e+00	4.297937e-05	
251	2.500000e+00	4.303645e-05	
252	2.550000e+00	4.309183e-05	
253	2.600000e+00	4.314564e-05	
254	2.650000e+00	4.319800e-05	
255	2.700000e+00	4.324901e-05	
256	2.750000e+00	4.329878e-05	
257	2.800000e+00	4.334742e-05	
258	2.850000e+00	4.339503e-05	
259	2.900000e+00	4.344171e-05	
260	2.950000e+00	4.348758e-05	
261	3.000000e+00	4.353275e-05	
262	3.050000e+00	4.357736e-05	
263	3.100000e+00	4.362153e-05	
264	3.150000e+00	4.366541e-05	
265	3.200000e+00	4.370918e-05	
266	3.250000e+00	4.375301e-05	
267	3.300000e+00	4.379711e-05	
268	0.000000e+00	-1.30271e-25	
269	5.000000e-02	3.599407e-06	
270	1.000000e-01	7.057854e-06	
271	1.500000e-01	1.037984e-05	
272	2.000000e-01	1.356876e-05	
273	2.500000e-01	1.662767e-05	
274	3.000000e-01	1.955948e-05	
275	3.500000e-01	2.236701e-05	
276	4.000000e-01	2.505300e-05	
277	4.500000e-01	2.762013e-05	
278	5.000000e-01	3.007098e-05	
279	5.500000e-01	3.240810e-05	
280	6.000000e-01	3.463393e-05	
281	6.500000e-01	3.675087e-05	
282	7.000000e-01	3.876125e-05	
283	7.500000e-01	4.066733e-05	
284	8.000000e-01	4.247130e-05	
285	8.500000e-01	4.417528e-05	
286	9.000000e-01	4.578133e-05	

Index   v-sweep         -i(vds)         
--------------------------------------------------------------------------------
287	9.500000e-01	4.729140e-05	
288	1.000000e+00	4.870737e-05	
289	1.050000e+00	5.003100e-05	
290	1.100000e+00	5.126386e-05	
291	1.150000e+00	5.240734e-05	
292	1.200000e+00	5.346247e-05	
293	1.250000e+00	5.442988e-05	
294	1.300000e+00	5.530958e-05	
295	1.350000e+00	5.610104e-05	
296	1.400000e+00	5.680371e-05	
297	1.450000e+00	5.741840e-05	
298	1.500000e+00	5.794914e-05	
299	1.550000e+00	5.840398e-05	
300	1.600000e+00	5.879379e-05	
301	1.650000e+00	5.912999e-05	
302	1.700000e+00	5.942288e-05	
303	1.750000e+00	5.968094e-05	
304	1.800000e+00	5.991087e-05	
305	1.850000e+00	6.011784e-05	
306	1.900000e+00	6.030588e-05	
307	1.950000e+00	6.047811e-05	
308	2.000000e+00	6.063700e-05	
309	2.050000e+00	6.078449e-05	
310	2.100000e+00	6.092215e-05	
311	2.150000e+00	6.105127e-05	
312	2.200000e+00	6.117289e-05	
313	2.250000e+00	6.128790e-05	
314	2.300000e+00	6.139702e-05	
315	2.350000e+00	6.150087e-05	
316	2.400000e+00	6.159999e-05	
317	2.450000e+00	6.169482e-05	
318	2.500000e+00	6.178576e-05	
319	2.550000e+00	6.187316e-05	
320	2.600000e+00	6.195731e-05	
321	2.650000e+00	6.203847e-05	
322	2.700000e+00	6.211688e-05	
323	2.750000e+00	6.219276e-05	
324	2.800000e+00	6.226630e-05	
325	2.850000e+00	6.233766e-05	
326	2.900000e+00	6.240701e-05	
327	2.950000e+00	6.247451e-05	
328	3.000000e+00	6.254030e-05	
329	3.050000e+00	6.260453e-05	
330	3.100000e+00	6.266734e-05	
331	3.150000e+00	6.272889e-05	
332	3.200000e+00	6.278933e-05	
333	3.250000e+00	6.284882e-05	
334	3.300000e+00	6.290755e-05	
335	0.000000e+00	7.519696e-26	
336	5.000000e-02	4.115420e-06	
337	1.000000e-01	8.091681e-06	
338	1.500000e-01	1.193299e-05	
339	2.000000e-01	1.564245e-05	
340	2.500000e-01	1.922287e-05	
341	3.000000e-01	2.267691e-05	
342	3.500000e-01	2.600717e-05	
343	4.000000e-01	2.921616e-05	
344	4.500000e-01	3.230634e-05	

Index   v-sweep         -i(vds)         
--------------------------------------------------------------------------------
345	5.000000e-01	3.528012e-05	
346	5.500000e-01	3.813983e-05	
347	6.000000e-01	4.088777e-05	
348	6.500000e-01	4.352615e-05	
349	7.000000e-01	4.605716e-05	
350	7.500000e-01	4.848291e-05	
351	8.000000e-01	5.080546e-05	
352	8.500000e-01	5.302683e-05	
353	9.000000e-01	5.514898e-05	
354	9.500000e-01	5.717379e-05	
355	1.000000e+00	5.910313e-05	
356	1.050000e+00	6.093875e-05	
357	1.100000e+00	6.268238e-05	
358	1.150000e+00	6.433564e-05	
359	1.200000e+00	6.590005e-05	
360	1.250000e+00	6.737700e-05	
361	1.300000e+00	6.876772e-05	
362	1.350000e+00	7.007317e-05	
363	1.400000e+00	7.129393e-05	
364	1.450000e+00	7.243008e-05	
365	1.500000e+00	7.348095e-05	
366	1.550000e+00	7.444501e-05	
367	1.600000e+00	7.532002e-05	
368	1.650000e+00	7.610390e-05	
369	1.700000e+00	7.679647e-05	
370	1.750000e+00	7.740132e-05	
371	1.800000e+00	7.792622e-05	
372	1.850000e+00	7.838174e-05	
373	1.900000e+00	7.877908e-05	
374	1.950000e+00	7.912853e-05	
375	2.000000e+00	7.943877e-05	
376	2.050000e+00	7.971684e-05	
377	2.100000e+00	7.996830e-05	
378	2.150000e+00	8.019757e-05	
379	2.200000e+00	8.040814e-05	
380	2.250000e+00	8.060279e-05	
381	2.300000e+00	8.078376e-05	
382	2.350000e+00	8.095288e-05	
383	2.400000e+00	8.111164e-05	
384	2.450000e+00	8.126127e-05	
385	2.500000e+00	8.140283e-05	
386	2.550000e+00	8.153717e-05	
387	2.600000e+00	8.166504e-05	
388	2.650000e+00	8.178709e-05	
389	2.700000e+00	8.190385e-05	
390	2.750000e+00	8.201581e-05	
391	2.800000e+00	8.212337e-05	
392	2.850000e+00	8.222691e-05	
393	2.900000e+00	8.232676e-05	
394	2.950000e+00	8.242319e-05	
395	3.000000e+00	8.251647e-05	
396	3.050000e+00	8.260683e-05	
397	3.100000e+00	8.269450e-05	
398	3.150000e+00	8.277968e-05	
399	3.200000e+00	8.286255e-05	
400	3.250000e+00	8.294332e-05	
401	3.300000e+00	8.302216e-05	
Note: No ".plot", ".print", or ".fourier" lines; no simulations run
