
Note: Compatibility modes selected: hs

Warning: m=xx on .subckt line will override multiplier m hierarchy!


Circuit: ***************************

Doing analysis at TEMP = 25.000000 and TNOM = 25.000000


No. of Data Rows : 402
                          ***************************
                          DC transfer characteristic  Mon Jan  9 13:58:11  2023
--------------------------------------------------------------------------------
Index   v-sweep         -i(vds)         
--------------------------------------------------------------------------------
0	0.000000e+00	-1.31909e-31	
1	5.000000e-02	2.769996e-06	
2	1.000000e-01	4.575080e-06	
3	1.500000e-01	5.597710e-06	
4	2.000000e-01	6.128067e-06	
5	2.500000e-01	6.438692e-06	
6	3.000000e-01	6.664206e-06	
7	3.500000e-01	6.853157e-06	
8	4.000000e-01	7.023722e-06	
9	4.500000e-01	7.183837e-06	
10	5.000000e-01	7.337495e-06	
11	5.500000e-01	7.486950e-06	
12	6.000000e-01	7.633578e-06	
13	6.500000e-01	7.778282e-06	
14	7.000000e-01	7.921680e-06	
15	7.500000e-01	8.064216e-06	
16	8.000000e-01	8.206217e-06	
17	8.500000e-01	8.347930e-06	
18	9.000000e-01	8.489547e-06	
19	9.500000e-01	8.631220e-06	
20	1.000000e+00	8.773070e-06	
21	1.050000e+00	8.915196e-06	
22	1.100000e+00	9.057680e-06	
23	1.150000e+00	9.200589e-06	
24	1.200000e+00	9.343981e-06	
25	1.250000e+00	9.487902e-06	
26	1.300000e+00	9.632395e-06	
27	1.350000e+00	9.777494e-06	
28	1.400000e+00	9.923229e-06	
29	1.450000e+00	1.006963e-05	
30	1.500000e+00	1.021672e-05	
31	1.550000e+00	1.036451e-05	
32	1.600000e+00	1.051304e-05	
33	1.650000e+00	1.066232e-05	
34	1.700000e+00	1.081236e-05	
35	1.750000e+00	1.096319e-05	
36	1.800000e+00	1.111483e-05	
37	1.850000e+00	1.126730e-05	
38	1.900000e+00	1.142063e-05	
39	1.950000e+00	1.157484e-05	
40	2.000000e+00	1.172997e-05	
41	2.050000e+00	1.188606e-05	
42	2.100000e+00	1.204315e-05	
43	2.150000e+00	1.220130e-05	
44	2.200000e+00	1.236057e-05	
45	2.250000e+00	1.252104e-05	
46	2.300000e+00	1.268278e-05	
47	2.350000e+00	1.284590e-05	
48	2.400000e+00	1.301050e-05	
49	2.450000e+00	1.317670e-05	
50	2.500000e+00	1.334466e-05	
51	2.550000e+00	1.351454e-05	
52	2.600000e+00	1.368650e-05	
53	2.650000e+00	1.386076e-05	
54	2.700000e+00	1.403753e-05	

Index   v-sweep         -i(vds)         
--------------------------------------------------------------------------------
55	2.750000e+00	1.421707e-05	
56	2.800000e+00	1.439966e-05	
57	2.850000e+00	1.458559e-05	
58	2.900000e+00	1.477521e-05	
59	2.950000e+00	1.496887e-05	
60	3.000000e+00	1.516697e-05	
61	3.050000e+00	1.536996e-05	
62	3.100000e+00	1.557829e-05	
63	3.150000e+00	1.579249e-05	
64	3.200000e+00	1.601310e-05	
65	3.250000e+00	1.624072e-05	
66	3.300000e+00	1.647599e-05	
67	0.000000e+00	5.252005e-31	
68	5.000000e-02	1.212908e-05	
69	1.000000e-01	2.285698e-05	
70	1.500000e-01	3.226490e-05	
71	2.000000e-01	4.042851e-05	
72	2.500000e-01	4.741839e-05	
73	3.000000e-01	5.330085e-05	
74	3.500000e-01	5.814023e-05	
75	4.000000e-01	6.200600e-05	
76	4.500000e-01	6.499051e-05	
77	5.000000e-01	6.723270e-05	
78	5.500000e-01	6.891383e-05	
79	6.000000e-01	7.021062e-05	
80	6.500000e-01	7.125607e-05	
81	7.000000e-01	7.213655e-05	
82	7.500000e-01	7.290542e-05	
83	8.000000e-01	7.359587e-05	
84	8.500000e-01	7.422920e-05	
85	9.000000e-01	7.481953e-05	
86	9.500000e-01	7.537659e-05	
87	1.000000e+00	7.590730e-05	
88	1.050000e+00	7.641671e-05	
89	1.100000e+00	7.690863e-05	
90	1.150000e+00	7.738596e-05	
91	1.200000e+00	7.785097e-05	
92	1.250000e+00	7.830547e-05	
93	1.300000e+00	7.875091e-05	
94	1.350000e+00	7.918848e-05	
95	1.400000e+00	7.961918e-05	
96	1.450000e+00	8.004381e-05	
97	1.500000e+00	8.046308e-05	
98	1.550000e+00	8.087757e-05	
99	1.600000e+00	8.128778e-05	
100	1.650000e+00	8.169416e-05	
101	1.700000e+00	8.209709e-05	
102	1.750000e+00	8.249691e-05	
103	1.800000e+00	8.289390e-05	
104	1.850000e+00	8.328835e-05	
105	1.900000e+00	8.368050e-05	
106	1.950000e+00	8.407058e-05	
107	2.000000e+00	8.445881e-05	
108	2.050000e+00	8.484541e-05	
109	2.100000e+00	8.523060e-05	
110	2.150000e+00	8.561461e-05	
111	2.200000e+00	8.599766e-05	
112	2.250000e+00	8.638003e-05	

Index   v-sweep         -i(vds)         
--------------------------------------------------------------------------------
113	2.300000e+00	8.676199e-05	
114	2.350000e+00	8.714386e-05	
115	2.400000e+00	8.752599e-05	
116	2.450000e+00	8.790877e-05	
117	2.500000e+00	8.829266e-05	
118	2.550000e+00	8.867816e-05	
119	2.600000e+00	8.906582e-05	
120	2.650000e+00	8.945629e-05	
121	2.700000e+00	8.985027e-05	
122	2.750000e+00	9.024855e-05	
123	2.800000e+00	9.065203e-05	
124	2.850000e+00	9.106166e-05	
125	2.900000e+00	9.147853e-05	
126	2.950000e+00	9.190383e-05	
127	3.000000e+00	9.233885e-05	
128	3.050000e+00	9.278502e-05	
129	3.100000e+00	9.324388e-05	
130	3.150000e+00	9.371713e-05	
131	3.200000e+00	9.420659e-05	
132	3.250000e+00	9.471422e-05	
133	3.300000e+00	9.524216e-05	
134	0.000000e+00	-3.73633e-20	
135	5.000000e-02	1.862871e-05	
136	1.000000e-01	3.585356e-05	
137	1.500000e-01	5.173869e-05	
138	2.000000e-01	6.634472e-05	
139	2.500000e-01	7.972877e-05	
140	3.000000e-01	9.194450e-05	
141	3.500000e-01	1.030420e-04	
142	4.000000e-01	1.130673e-04	
143	4.500000e-01	1.220621e-04	
144	5.000000e-01	1.300625e-04	
145	5.500000e-01	1.370982e-04	
146	6.000000e-01	1.431924e-04	
147	6.500000e-01	1.483667e-04	
148	7.000000e-01	1.526565e-04	
149	7.500000e-01	1.561353e-04	
150	8.000000e-01	1.589254e-04	
151	8.500000e-01	1.611757e-04	
152	9.000000e-01	1.630256e-04	
153	9.500000e-01	1.645849e-04	
154	1.000000e+00	1.659331e-04	
155	1.050000e+00	1.671253e-04	
156	1.100000e+00	1.681999e-04	
157	1.150000e+00	1.691837e-04	
158	1.200000e+00	1.700960e-04	
159	1.250000e+00	1.709510e-04	
160	1.300000e+00	1.717592e-04	
161	1.350000e+00	1.725286e-04	
162	1.400000e+00	1.732654e-04	
163	1.450000e+00	1.739745e-04	
164	1.500000e+00	1.746599e-04	
165	1.550000e+00	1.753246e-04	
166	1.600000e+00	1.759714e-04	
167	1.650000e+00	1.766024e-04	
168	1.700000e+00	1.772193e-04	
169	1.750000e+00	1.778237e-04	
170	1.800000e+00	1.784170e-04	

Index   v-sweep         -i(vds)         
--------------------------------------------------------------------------------
171	1.850000e+00	1.790001e-04	
172	1.900000e+00	1.795742e-04	
173	1.950000e+00	1.801399e-04	
174	2.000000e+00	1.806982e-04	
175	2.050000e+00	1.812496e-04	
176	2.100000e+00	1.817947e-04	
177	2.150000e+00	1.823341e-04	
178	2.200000e+00	1.828683e-04	
179	2.250000e+00	1.833978e-04	
180	2.300000e+00	1.839230e-04	
181	2.350000e+00	1.844445e-04	
182	2.400000e+00	1.849628e-04	
183	2.450000e+00	1.854783e-04	
184	2.500000e+00	1.859916e-04	
185	2.550000e+00	1.865034e-04	
186	2.600000e+00	1.870144e-04	
187	2.650000e+00	1.875252e-04	
188	2.700000e+00	1.880369e-04	
189	2.750000e+00	1.885502e-04	
190	2.800000e+00	1.890663e-04	
191	2.850000e+00	1.895865e-04	
192	2.900000e+00	1.901119e-04	
193	2.950000e+00	1.906442e-04	
194	3.000000e+00	1.911850e-04	
195	3.050000e+00	1.917362e-04	
196	3.100000e+00	1.922997e-04	
197	3.150000e+00	1.928779e-04	
198	3.200000e+00	1.934731e-04	
199	3.250000e+00	1.940882e-04	
200	3.300000e+00	1.947260e-04	
201	0.000000e+00	-6.57338e-20	
202	5.000000e-02	2.317421e-05	
203	1.000000e-01	4.502045e-05	
204	1.500000e-01	6.558886e-05	
205	2.000000e-01	8.492742e-05	
206	2.500000e-01	1.030820e-04	
207	3.000000e-01	1.200963e-04	
208	3.500000e-01	1.360119e-04	
209	4.000000e-01	1.508682e-04	
210	4.500000e-01	1.647025e-04	
211	5.000000e-01	1.775492e-04	
212	5.500000e-01	1.894403e-04	
213	6.000000e-01	2.004037e-04	
214	6.500000e-01	2.104633e-04	
215	7.000000e-01	2.196367e-04	
216	7.500000e-01	2.279338e-04	
217	8.000000e-01	2.353556e-04	
218	8.500000e-01	2.418962e-04	
219	9.000000e-01	2.475528e-04	
220	9.500000e-01	2.523463e-04	
221	1.000000e+00	2.563419e-04	
222	1.050000e+00	2.596494e-04	
223	1.100000e+00	2.623999e-04	
224	1.150000e+00	2.647181e-04	
225	1.200000e+00	2.667070e-04	
226	1.250000e+00	2.684451e-04	
227	1.300000e+00	2.699905e-04	
228	1.350000e+00	2.713857e-04	

Index   v-sweep         -i(vds)         
--------------------------------------------------------------------------------
229	1.400000e+00	2.726620e-04	
230	1.450000e+00	2.738427e-04	
231	1.500000e+00	2.749451e-04	
232	1.550000e+00	2.759828e-04	
233	1.600000e+00	2.769663e-04	
234	1.650000e+00	2.779036e-04	
235	1.700000e+00	2.788015e-04	
236	1.750000e+00	2.796652e-04	
237	1.800000e+00	2.804991e-04	
238	1.850000e+00	2.813068e-04	
239	1.900000e+00	2.820914e-04	
240	1.950000e+00	2.828554e-04	
241	2.000000e+00	2.836009e-04	
242	2.050000e+00	2.843298e-04	
243	2.100000e+00	2.850437e-04	
244	2.150000e+00	2.857440e-04	
245	2.200000e+00	2.864320e-04	
246	2.250000e+00	2.871086e-04	
247	2.300000e+00	2.877749e-04	
248	2.350000e+00	2.884318e-04	
249	2.400000e+00	2.890801e-04	
250	2.450000e+00	2.897205e-04	
251	2.500000e+00	2.903538e-04	
252	2.550000e+00	2.909808e-04	
253	2.600000e+00	2.916023e-04	
254	2.650000e+00	2.922189e-04	
255	2.700000e+00	2.928317e-04	
256	2.750000e+00	2.934415e-04	
257	2.800000e+00	2.940493e-04	
258	2.850000e+00	2.946564e-04	
259	2.900000e+00	2.952638e-04	
260	2.950000e+00	2.958732e-04	
261	3.000000e+00	2.964860e-04	
262	3.050000e+00	2.971041e-04	
263	3.100000e+00	2.977295e-04	
264	3.150000e+00	2.983643e-04	
265	3.200000e+00	2.990111e-04	
266	3.250000e+00	2.996726e-04	
267	3.300000e+00	3.003518e-04	
268	0.000000e+00	4.005628e-20	
269	5.000000e-02	2.646469e-05	
270	1.000000e-01	5.169611e-05	
271	1.500000e-01	7.573386e-05	
272	2.000000e-01	9.861610e-05	
273	2.500000e-01	1.203796e-04	
274	3.000000e-01	1.410599e-04	
275	3.500000e-01	1.606910e-04	
276	4.000000e-01	1.793056e-04	
277	4.500000e-01	1.969351e-04	
278	5.000000e-01	2.136094e-04	
279	5.500000e-01	2.293569e-04	
280	6.000000e-01	2.442045e-04	
281	6.500000e-01	2.581771e-04	
282	7.000000e-01	2.712974e-04	
283	7.500000e-01	2.835854e-04	
284	8.000000e-01	2.950576e-04	
285	8.500000e-01	3.057255e-04	
286	9.000000e-01	3.155946e-04	

Index   v-sweep         -i(vds)         
--------------------------------------------------------------------------------
287	9.500000e-01	3.246616e-04	
288	1.000000e+00	3.329140e-04	
289	1.050000e+00	3.403312e-04	
290	1.100000e+00	3.468924e-04	
291	1.150000e+00	3.525937e-04	
292	1.200000e+00	3.574682e-04	
293	1.250000e+00	3.615934e-04	
294	1.300000e+00	3.650789e-04	
295	1.350000e+00	3.680431e-04	
296	1.400000e+00	3.705940e-04	
297	1.450000e+00	3.728208e-04	
298	1.500000e+00	3.747931e-04	
299	1.550000e+00	3.765640e-04	
300	1.600000e+00	3.781739e-04	
301	1.650000e+00	3.796533e-04	
302	1.700000e+00	3.810255e-04	
303	1.750000e+00	3.823088e-04	
304	1.800000e+00	3.835172e-04	
305	1.850000e+00	3.846621e-04	
306	1.900000e+00	3.857525e-04	
307	1.950000e+00	3.867958e-04	
308	2.000000e+00	3.877979e-04	
309	2.050000e+00	3.887639e-04	
310	2.100000e+00	3.896979e-04	
311	2.150000e+00	3.906035e-04	
312	2.200000e+00	3.914836e-04	
313	2.250000e+00	3.923409e-04	
314	2.300000e+00	3.931774e-04	
315	2.350000e+00	3.939952e-04	
316	2.400000e+00	3.947960e-04	
317	2.450000e+00	3.955811e-04	
318	2.500000e+00	3.963521e-04	
319	2.550000e+00	3.971100e-04	
320	2.600000e+00	3.978560e-04	
321	2.650000e+00	3.985912e-04	
322	2.700000e+00	3.993166e-04	
323	2.750000e+00	4.000332e-04	
324	2.800000e+00	4.007420e-04	
325	2.850000e+00	4.014442e-04	
326	2.900000e+00	4.021408e-04	
327	2.950000e+00	4.028331e-04	
328	3.000000e+00	4.035225e-04	
329	3.050000e+00	4.042105e-04	
330	3.100000e+00	4.048987e-04	
331	3.150000e+00	4.055891e-04	
332	3.200000e+00	4.062838e-04	
333	3.250000e+00	4.069852e-04	
334	3.300000e+00	4.076959e-04	
335	0.000000e+00	9.497218e-20	
336	5.000000e-02	2.890779e-05	
337	1.000000e-01	5.667708e-05	
338	1.500000e-01	8.333956e-05	
339	2.000000e-01	1.089260e-04	
340	2.500000e-01	1.334661e-04	
341	3.000000e-01	1.569889e-04	
342	3.500000e-01	1.795224e-04	
343	4.000000e-01	2.010935e-04	
344	4.500000e-01	2.217284e-04	

Index   v-sweep         -i(vds)         
--------------------------------------------------------------------------------
345	5.000000e-01	2.414525e-04	
346	5.500000e-01	2.602900e-04	
347	6.000000e-01	2.782643e-04	
348	6.500000e-01	2.953978e-04	
349	7.000000e-01	3.117116e-04	
350	7.500000e-01	3.272258e-04	
351	8.000000e-01	3.419590e-04	
352	8.500000e-01	3.559281e-04	
353	9.000000e-01	3.691477e-04	
354	9.500000e-01	3.816297e-04	
355	1.000000e+00	3.933824e-04	
356	1.050000e+00	4.044089e-04	
357	1.100000e+00	4.147058e-04	
358	1.150000e+00	4.242612e-04	
359	1.200000e+00	4.330536e-04	
360	1.250000e+00	4.410537e-04	
361	1.300000e+00	4.482315e-04	
362	1.350000e+00	4.545707e-04	
363	1.400000e+00	4.600860e-04	
364	1.450000e+00	4.648330e-04	
365	1.500000e+00	4.689016e-04	
366	1.550000e+00	4.723979e-04	
367	1.600000e+00	4.754262e-04	
368	1.650000e+00	4.780779e-04	
369	1.700000e+00	4.804279e-04	
370	1.750000e+00	4.825354e-04	
371	1.800000e+00	4.844468e-04	
372	1.850000e+00	4.861978e-04	
373	1.900000e+00	4.878163e-04	
374	1.950000e+00	4.893243e-04	
375	2.000000e+00	4.907390e-04	
376	2.050000e+00	4.920744e-04	
377	2.100000e+00	4.933414e-04	
378	2.150000e+00	4.945493e-04	
379	2.200000e+00	4.957056e-04	
380	2.250000e+00	4.968164e-04	
381	2.300000e+00	4.978871e-04	
382	2.350000e+00	4.989219e-04	
383	2.400000e+00	4.999248e-04	
384	2.450000e+00	5.008988e-04	
385	2.500000e+00	5.018468e-04	
386	2.550000e+00	5.027711e-04	
387	2.600000e+00	5.036740e-04	
388	2.650000e+00	5.045572e-04	
389	2.700000e+00	5.054225e-04	
390	2.750000e+00	5.062714e-04	
391	2.800000e+00	5.071053e-04	
392	2.850000e+00	5.079256e-04	
393	2.900000e+00	5.087334e-04	
394	2.950000e+00	5.095302e-04	
395	3.000000e+00	5.103171e-04	
396	3.050000e+00	5.110956e-04	
397	3.100000e+00	5.118670e-04	
398	3.150000e+00	5.126330e-04	
399	3.200000e+00	5.133951e-04	
400	3.250000e+00	5.141554e-04	
401	3.300000e+00	5.149159e-04	
Note: No ".plot", ".print", or ".fourier" lines; no simulations run
