
Note: Compatibility modes selected: hs

Warning: m=xx on .subckt line will override multiplier m hierarchy!


Circuit: ***************************

Doing analysis at TEMP = 125.000000 and TNOM = 125.000000


No. of Data Rows : 402
                          ***************************
                          DC transfer characteristic  Mon Jan  9 13:58:12  2023
--------------------------------------------------------------------------------
Index   v-sweep         -i(vds)         
--------------------------------------------------------------------------------
0	0.000000e+00	6.393577e-22	
1	5.000000e-02	2.348383e-06	
2	1.000000e-01	4.054805e-06	
3	1.500000e-01	5.190002e-06	
4	2.000000e-01	5.787553e-06	
5	2.500000e-01	5.968741e-06	
6	3.000000e-01	6.002923e-06	
7	3.500000e-01	6.014277e-06	
8	4.000000e-01	6.020978e-06	
9	4.500000e-01	6.026053e-06	
10	5.000000e-01	6.030338e-06	
11	5.500000e-01	6.034159e-06	
12	6.000000e-01	6.037670e-06	
13	6.500000e-01	6.040961e-06	
14	7.000000e-01	6.044086e-06	
15	7.500000e-01	6.047081e-06	
16	8.000000e-01	6.049970e-06	
17	8.500000e-01	6.052772e-06	
18	9.000000e-01	6.055502e-06	
19	9.500000e-01	6.058169e-06	
20	1.000000e+00	6.060782e-06	
21	1.050000e+00	6.063349e-06	
22	1.100000e+00	6.065874e-06	
23	1.150000e+00	6.068363e-06	
24	1.200000e+00	6.070819e-06	
25	1.250000e+00	6.073245e-06	
26	1.300000e+00	6.075645e-06	
27	1.350000e+00	6.078021e-06	
28	1.400000e+00	6.080374e-06	
29	1.450000e+00	6.082708e-06	
30	1.500000e+00	6.085023e-06	
31	1.550000e+00	6.087321e-06	
32	1.600000e+00	6.089604e-06	
33	1.650000e+00	6.091874e-06	
34	1.700000e+00	6.094133e-06	
35	1.750000e+00	6.096382e-06	
36	1.800000e+00	6.098625e-06	
37	1.850000e+00	6.100866e-06	
38	1.900000e+00	6.103109e-06	
39	1.950000e+00	6.105361e-06	
40	2.000000e+00	6.107627e-06	
41	2.050000e+00	6.109918e-06	
42	2.100000e+00	6.112246e-06	
43	2.150000e+00	6.114624e-06	
44	2.200000e+00	6.117069e-06	
45	2.250000e+00	6.119602e-06	
46	2.300000e+00	6.122246e-06	
47	2.350000e+00	6.125029e-06	
48	2.400000e+00	6.127985e-06	
49	2.450000e+00	6.131150e-06	
50	2.500000e+00	6.134565e-06	
51	2.550000e+00	6.138280e-06	
52	2.600000e+00	6.142346e-06	
53	2.650000e+00	6.146822e-06	
54	2.700000e+00	6.151773e-06	

Index   v-sweep         -i(vds)         
--------------------------------------------------------------------------------
55	2.750000e+00	6.157271e-06	
56	2.800000e+00	6.163393e-06	
57	2.850000e+00	6.170222e-06	
58	2.900000e+00	6.177849e-06	
59	2.950000e+00	6.186369e-06	
60	3.000000e+00	6.195888e-06	
61	3.050000e+00	6.206513e-06	
62	3.100000e+00	6.218361e-06	
63	3.150000e+00	6.231554e-06	
64	3.200000e+00	6.246221e-06	
65	3.250000e+00	6.262495e-06	
66	3.300000e+00	6.280517e-06	
67	0.000000e+00	1.388709e-25	
68	5.000000e-02	7.005394e-06	
69	1.000000e-01	1.332055e-05	
70	1.500000e-01	1.901356e-05	
71	2.000000e-01	2.410205e-05	
72	2.500000e-01	2.859168e-05	
73	3.000000e-01	3.248537e-05	
74	3.500000e-01	3.578551e-05	
75	4.000000e-01	3.849472e-05	
76	4.500000e-01	4.061667e-05	
77	5.000000e-01	4.215869e-05	
78	5.500000e-01	4.314244e-05	
79	6.000000e-01	4.364464e-05	
80	6.500000e-01	4.384788e-05	
81	7.000000e-01	4.393459e-05	
82	7.500000e-01	4.398305e-05	
83	8.000000e-01	4.401651e-05	
84	8.500000e-01	4.404262e-05	
85	9.000000e-01	4.406444e-05	
86	9.500000e-01	4.408348e-05	
87	1.000000e+00	4.410056e-05	
88	1.050000e+00	4.411620e-05	
89	1.100000e+00	4.413071e-05	
90	1.150000e+00	4.414432e-05	
91	1.200000e+00	4.415721e-05	
92	1.250000e+00	4.416948e-05	
93	1.300000e+00	4.418124e-05	
94	1.350000e+00	4.419256e-05	
95	1.400000e+00	4.420350e-05	
96	1.450000e+00	4.421409e-05	
97	1.500000e+00	4.422440e-05	
98	1.550000e+00	4.423444e-05	
99	1.600000e+00	4.424424e-05	
100	1.650000e+00	4.425383e-05	
101	1.700000e+00	4.426322e-05	
102	1.750000e+00	4.427244e-05	
103	1.800000e+00	4.428150e-05	
104	1.850000e+00	4.429041e-05	
105	1.900000e+00	4.429919e-05	
106	1.950000e+00	4.430785e-05	
107	2.000000e+00	4.431640e-05	
108	2.050000e+00	4.432486e-05	
109	2.100000e+00	4.433324e-05	
110	2.150000e+00	4.434157e-05	
111	2.200000e+00	4.434986e-05	
112	2.250000e+00	4.435815e-05	

Index   v-sweep         -i(vds)         
--------------------------------------------------------------------------------
113	2.300000e+00	4.436647e-05	
114	2.350000e+00	4.437489e-05	
115	2.400000e+00	4.438345e-05	
116	2.450000e+00	4.439224e-05	
117	2.500000e+00	4.440136e-05	
118	2.550000e+00	4.441091e-05	
119	2.600000e+00	4.442104e-05	
120	2.650000e+00	4.443192e-05	
121	2.700000e+00	4.444373e-05	
122	2.750000e+00	4.445670e-05	
123	2.800000e+00	4.447110e-05	
124	2.850000e+00	4.448720e-05	
125	2.900000e+00	4.450536e-05	
126	2.950000e+00	4.452594e-05	
127	3.000000e+00	4.454935e-05	
128	3.050000e+00	4.457606e-05	
129	3.100000e+00	4.460656e-05	
130	3.150000e+00	4.464142e-05	
131	3.200000e+00	4.468121e-05	
132	3.250000e+00	4.472660e-05	
133	3.300000e+00	4.477826e-05	
134	0.000000e+00	4.526332e-25	
135	5.000000e-02	1.114021e-05	
136	1.000000e-01	2.162263e-05	
137	1.500000e-01	3.151495e-05	
138	2.000000e-01	4.083452e-05	
139	2.500000e-01	4.958672e-05	
140	3.000000e-01	5.777411e-05	
141	3.500000e-01	6.539855e-05	
142	4.000000e-01	7.246177e-05	
143	4.500000e-01	7.896546e-05	
144	5.000000e-01	8.491128e-05	
145	5.500000e-01	9.030094e-05	
146	6.000000e-01	9.513618e-05	
147	6.500000e-01	9.941881e-05	
148	7.000000e-01	1.031508e-04	
149	7.500000e-01	1.063343e-04	
150	8.000000e-01	1.089724e-04	
151	8.500000e-01	1.110698e-04	
152	9.000000e-01	1.126366e-04	
153	9.500000e-01	1.136994e-04	
154	1.000000e+00	1.143293e-04	
155	1.050000e+00	1.146632e-04	
156	1.100000e+00	1.148451e-04	
157	1.150000e+00	1.149587e-04	
158	1.200000e+00	1.150396e-04	
159	1.250000e+00	1.151026e-04	
160	1.300000e+00	1.151548e-04	
161	1.350000e+00	1.151998e-04	
162	1.400000e+00	1.152395e-04	
163	1.450000e+00	1.152754e-04	
164	1.500000e+00	1.153083e-04	
165	1.550000e+00	1.153388e-04	
166	1.600000e+00	1.153673e-04	
167	1.650000e+00	1.153942e-04	
168	1.700000e+00	1.154197e-04	
169	1.750000e+00	1.154440e-04	
170	1.800000e+00	1.154674e-04	

Index   v-sweep         -i(vds)         
--------------------------------------------------------------------------------
171	1.850000e+00	1.154898e-04	
172	1.900000e+00	1.155114e-04	
173	1.950000e+00	1.155323e-04	
174	2.000000e+00	1.155526e-04	
175	2.050000e+00	1.155723e-04	
176	2.100000e+00	1.155915e-04	
177	2.150000e+00	1.156102e-04	
178	2.200000e+00	1.156285e-04	
179	2.250000e+00	1.156465e-04	
180	2.300000e+00	1.156640e-04	
181	2.350000e+00	1.156813e-04	
182	2.400000e+00	1.156982e-04	
183	2.450000e+00	1.157150e-04	
184	2.500000e+00	1.157315e-04	
185	2.550000e+00	1.157478e-04	
186	2.600000e+00	1.157641e-04	
187	2.650000e+00	1.157804e-04	
188	2.700000e+00	1.157967e-04	
189	2.750000e+00	1.158133e-04	
190	2.800000e+00	1.158303e-04	
191	2.850000e+00	1.158479e-04	
192	2.900000e+00	1.158663e-04	
193	2.950000e+00	1.158859e-04	
194	3.000000e+00	1.159070e-04	
195	3.050000e+00	1.159300e-04	
196	3.100000e+00	1.159555e-04	
197	3.150000e+00	1.159840e-04	
198	3.200000e+00	1.160162e-04	
199	3.250000e+00	1.160530e-04	
200	3.300000e+00	1.160950e-04	
201	0.000000e+00	-2.08950e-25	
202	5.000000e-02	1.460210e-05	
203	1.000000e-01	2.859419e-05	
204	1.500000e-01	4.204361e-05	
205	2.000000e-01	5.496746e-05	
206	2.500000e-01	6.737088e-05	
207	3.000000e-01	7.925618e-05	
208	3.500000e-01	9.062500e-05	
209	4.000000e-01	1.014788e-04	
210	4.500000e-01	1.118190e-04	
211	5.000000e-01	1.216471e-04	
212	5.500000e-01	1.309644e-04	
213	6.000000e-01	1.397724e-04	
214	6.500000e-01	1.480724e-04	
215	7.000000e-01	1.558659e-04	
216	7.500000e-01	1.631543e-04	
217	8.000000e-01	1.699390e-04	
218	8.500000e-01	1.762214e-04	
219	9.000000e-01	1.820029e-04	
220	9.500000e-01	1.872850e-04	
221	1.000000e+00	1.920691e-04	
222	1.050000e+00	1.963569e-04	
223	1.100000e+00	2.001500e-04	
224	1.150000e+00	2.034503e-04	
225	1.200000e+00	2.062604e-04	
226	1.250000e+00	2.085839e-04	
227	1.300000e+00	2.104279e-04	
228	1.350000e+00	2.118080e-04	

Index   v-sweep         -i(vds)         
--------------------------------------------------------------------------------
229	1.400000e+00	2.127615e-04	
230	1.450000e+00	2.133673e-04	
231	1.500000e+00	2.137389e-04	
232	1.550000e+00	2.139779e-04	
233	1.600000e+00	2.141454e-04	
234	1.650000e+00	2.142727e-04	
235	1.700000e+00	2.143753e-04	
236	1.750000e+00	2.144617e-04	
237	1.800000e+00	2.145366e-04	
238	1.850000e+00	2.146031e-04	
239	1.900000e+00	2.146631e-04	
240	1.950000e+00	2.147181e-04	
241	2.000000e+00	2.147689e-04	
242	2.050000e+00	2.148163e-04	
243	2.100000e+00	2.148608e-04	
244	2.150000e+00	2.149030e-04	
245	2.200000e+00	2.149430e-04	
246	2.250000e+00	2.149812e-04	
247	2.300000e+00	2.150178e-04	
248	2.350000e+00	2.150530e-04	
249	2.400000e+00	2.150870e-04	
250	2.450000e+00	2.151198e-04	
251	2.500000e+00	2.151516e-04	
252	2.550000e+00	2.151824e-04	
253	2.600000e+00	2.152124e-04	
254	2.650000e+00	2.152417e-04	
255	2.700000e+00	2.152702e-04	
256	2.750000e+00	2.152981e-04	
257	2.800000e+00	2.153255e-04	
258	2.850000e+00	2.153523e-04	
259	2.900000e+00	2.153787e-04	
260	2.950000e+00	2.154048e-04	
261	3.000000e+00	2.154306e-04	
262	3.050000e+00	2.154563e-04	
263	3.100000e+00	2.154821e-04	
264	3.150000e+00	2.155082e-04	
265	3.200000e+00	2.155348e-04	
266	3.250000e+00	2.155623e-04	
267	3.300000e+00	2.155911e-04	
268	0.000000e+00	-3.29114e-26	
269	5.000000e-02	1.739179e-05	
270	1.000000e-01	3.422538e-05	
271	1.500000e-01	5.056780e-05	
272	2.000000e-01	6.643590e-05	
273	2.500000e-01	8.183459e-05	
274	3.000000e-01	9.676596e-05	
275	3.500000e-01	1.112314e-04	
276	4.000000e-01	1.252322e-04	
277	4.500000e-01	1.387696e-04	
278	5.000000e-01	1.518447e-04	
279	5.500000e-01	1.644587e-04	
280	6.000000e-01	1.766128e-04	
281	6.500000e-01	1.883083e-04	
282	7.000000e-01	1.995462e-04	
283	7.500000e-01	2.103277e-04	
284	8.000000e-01	2.206541e-04	
285	8.500000e-01	2.305265e-04	
286	9.000000e-01	2.399460e-04	

Index   v-sweep         -i(vds)         
--------------------------------------------------------------------------------
287	9.500000e-01	2.489139e-04	
288	1.000000e+00	2.574313e-04	
289	1.050000e+00	2.654993e-04	
290	1.100000e+00	2.731192e-04	
291	1.150000e+00	2.802920e-04	
292	1.200000e+00	2.870191e-04	
293	1.250000e+00	2.933014e-04	
294	1.300000e+00	2.991402e-04	
295	1.350000e+00	3.045368e-04	
296	1.400000e+00	3.094922e-04	
297	1.450000e+00	3.140077e-04	
298	1.500000e+00	3.180847e-04	
299	1.550000e+00	3.217246e-04	
300	1.600000e+00	3.249289e-04	
301	1.650000e+00	3.276999e-04	
302	1.700000e+00	3.300406e-04	
303	1.750000e+00	3.319566e-04	
304	1.800000e+00	3.334596e-04	
305	1.850000e+00	3.345756e-04	
306	1.900000e+00	3.353574e-04	
307	1.950000e+00	3.358867e-04	
308	2.000000e+00	3.362503e-04	
309	2.050000e+00	3.365131e-04	
310	2.100000e+00	3.367143e-04	
311	2.150000e+00	3.368764e-04	
312	2.200000e+00	3.370121e-04	
313	2.250000e+00	3.371290e-04	
314	2.300000e+00	3.372321e-04	
315	2.350000e+00	3.373245e-04	
316	2.400000e+00	3.374085e-04	
317	2.450000e+00	3.374858e-04	
318	2.500000e+00	3.375575e-04	
319	2.550000e+00	3.376245e-04	
320	2.600000e+00	3.376875e-04	
321	2.650000e+00	3.377471e-04	
322	2.700000e+00	3.378038e-04	
323	2.750000e+00	3.378578e-04	
324	2.800000e+00	3.379096e-04	
325	2.850000e+00	3.379593e-04	
326	2.900000e+00	3.380072e-04	
327	2.950000e+00	3.380534e-04	
328	3.000000e+00	3.380981e-04	
329	3.050000e+00	3.381415e-04	
330	3.100000e+00	3.381836e-04	
331	3.150000e+00	3.382246e-04	
332	3.200000e+00	3.382646e-04	
333	3.250000e+00	3.383037e-04	
334	3.300000e+00	3.383419e-04	
335	0.000000e+00	-4.54467e-25	
336	5.000000e-02	1.956071e-05	
337	1.000000e-01	3.861464e-05	
338	1.500000e-01	5.722854e-05	
339	2.000000e-01	7.541903e-05	
340	2.500000e-01	9.319084e-05	
341	3.000000e-01	1.105458e-04	
342	3.500000e-01	1.274852e-04	
343	4.000000e-01	1.440101e-04	
344	4.500000e-01	1.601214e-04	

Index   v-sweep         -i(vds)         
--------------------------------------------------------------------------------
345	5.000000e-01	1.758201e-04	
346	5.500000e-01	1.911073e-04	
347	6.000000e-01	2.059838e-04	
348	6.500000e-01	2.204508e-04	
349	7.000000e-01	2.345091e-04	
350	7.500000e-01	2.481598e-04	
351	8.000000e-01	2.614038e-04	
352	8.500000e-01	2.742421e-04	
353	9.000000e-01	2.866757e-04	
354	9.500000e-01	2.987055e-04	
355	1.000000e+00	3.103325e-04	
356	1.050000e+00	3.215577e-04	
357	1.100000e+00	3.323821e-04	
358	1.150000e+00	3.428065e-04	
359	1.200000e+00	3.528320e-04	
360	1.250000e+00	3.624594e-04	
361	1.300000e+00	3.716899e-04	
362	1.350000e+00	3.805243e-04	
363	1.400000e+00	3.889635e-04	
364	1.450000e+00	3.970086e-04	
365	1.500000e+00	4.046604e-04	
366	1.550000e+00	4.119199e-04	
367	1.600000e+00	4.187881e-04	
368	1.650000e+00	4.252660e-04	
369	1.700000e+00	4.313544e-04	
370	1.750000e+00	4.370543e-04	
371	1.800000e+00	4.423667e-04	
372	1.850000e+00	4.472925e-04	
373	1.900000e+00	4.518327e-04	
374	1.950000e+00	4.559884e-04	
375	2.000000e+00	4.597606e-04	
376	2.050000e+00	4.631504e-04	
377	2.100000e+00	4.661592e-04	
378	2.150000e+00	4.687887e-04	
379	2.200000e+00	4.710415e-04	
380	2.250000e+00	4.729224e-04	
381	2.300000e+00	4.744407e-04	
382	2.350000e+00	4.756170e-04	
383	2.400000e+00	4.764911e-04	
384	2.450000e+00	4.771243e-04	
385	2.500000e+00	4.775857e-04	
386	2.550000e+00	4.779326e-04	
387	2.600000e+00	4.782044e-04	
388	2.650000e+00	4.784259e-04	
389	2.700000e+00	4.786123e-04	
390	2.750000e+00	4.787732e-04	
391	2.800000e+00	4.789150e-04	
392	2.850000e+00	4.790421e-04	
393	2.900000e+00	4.791574e-04	
394	2.950000e+00	4.792632e-04	
395	3.000000e+00	4.793611e-04	
396	3.050000e+00	4.794524e-04	
397	3.100000e+00	4.795381e-04	
398	3.150000e+00	4.796189e-04	
399	3.200000e+00	4.796955e-04	
400	3.250000e+00	4.797685e-04	
401	3.300000e+00	4.798382e-04	
Note: No ".plot", ".print", or ".fourier" lines; no simulations run
