
Note: Compatibility modes selected: hs

Warning: m=xx on .subckt line will override multiplier m hierarchy!


Circuit: ***************************

Doing analysis at TEMP = 25.000000 and TNOM = 25.000000


No. of Data Rows : 402
                          ***************************
                          DC transfer characteristic  Mon Jan  9 13:58:11  2023
--------------------------------------------------------------------------------
Index   v-sweep         -i(vds)         
--------------------------------------------------------------------------------
0	0.000000e+00	2.898765e-23	
1	5.000000e-02	5.054705e-08	
2	1.000000e-01	8.360651e-08	
3	1.500000e-01	9.978368e-08	
4	2.000000e-01	1.036693e-07	
5	2.500000e-01	1.042686e-07	
6	3.000000e-01	1.044844e-07	
7	3.500000e-01	1.046215e-07	
8	4.000000e-01	1.047294e-07	
9	4.500000e-01	1.048225e-07	
10	5.000000e-01	1.049065e-07	
11	5.500000e-01	1.049844e-07	
12	6.000000e-01	1.050579e-07	
13	6.500000e-01	1.051280e-07	
14	7.000000e-01	1.051954e-07	
15	7.500000e-01	1.052607e-07	
16	8.000000e-01	1.053243e-07	
17	8.500000e-01	1.053863e-07	
18	9.000000e-01	1.054470e-07	
19	9.500000e-01	1.055066e-07	
20	1.000000e+00	1.055653e-07	
21	1.050000e+00	1.056230e-07	
22	1.100000e+00	1.056801e-07	
23	1.150000e+00	1.057364e-07	
24	1.200000e+00	1.057921e-07	
25	1.250000e+00	1.058473e-07	
26	1.300000e+00	1.059020e-07	
27	1.350000e+00	1.059562e-07	
28	1.400000e+00	1.060100e-07	
29	1.450000e+00	1.060634e-07	
30	1.500000e+00	1.061165e-07	
31	1.550000e+00	1.061692e-07	
32	1.600000e+00	1.062217e-07	
33	1.650000e+00	1.062739e-07	
34	1.700000e+00	1.063260e-07	
35	1.750000e+00	1.063779e-07	
36	1.800000e+00	1.064298e-07	
37	1.850000e+00	1.064817e-07	
38	1.900000e+00	1.065338e-07	
39	1.950000e+00	1.065863e-07	
40	2.000000e+00	1.066392e-07	
41	2.050000e+00	1.066930e-07	
42	2.100000e+00	1.067478e-07	
43	2.150000e+00	1.068040e-07	
44	2.200000e+00	1.068621e-07	
45	2.250000e+00	1.069226e-07	
46	2.300000e+00	1.069860e-07	
47	2.350000e+00	1.070531e-07	
48	2.400000e+00	1.071246e-07	
49	2.450000e+00	1.072015e-07	
50	2.500000e+00	1.072848e-07	
51	2.550000e+00	1.073755e-07	
52	2.600000e+00	1.074750e-07	
53	2.650000e+00	1.075846e-07	
54	2.700000e+00	1.077059e-07	

Index   v-sweep         -i(vds)         
--------------------------------------------------------------------------------
55	2.750000e+00	1.078405e-07	
56	2.800000e+00	1.079903e-07	
57	2.850000e+00	1.081570e-07	
58	2.900000e+00	1.083429e-07	
59	2.950000e+00	1.085502e-07	
60	3.000000e+00	1.087811e-07	
61	3.050000e+00	1.090382e-07	
62	3.100000e+00	1.093241e-07	
63	3.150000e+00	1.096416e-07	
64	3.200000e+00	1.099936e-07	
65	3.250000e+00	1.103831e-07	
66	3.300000e+00	1.108132e-07	
67	0.000000e+00	4.913123e-23	
68	5.000000e-02	2.003828e-07	
69	1.000000e-01	3.809160e-07	
70	1.500000e-01	5.416945e-07	
71	2.000000e-01	6.828138e-07	
72	2.500000e-01	8.043710e-07	
73	3.000000e-01	9.064683e-07	
74	3.500000e-01	9.892213e-07	
75	4.000000e-01	1.052786e-06	
76	4.500000e-01	1.097471e-06	
77	5.000000e-01	1.124247e-06	
78	5.500000e-01	1.136585e-06	
79	6.000000e-01	1.141312e-06	
80	6.500000e-01	1.143471e-06	
81	7.000000e-01	1.144776e-06	
82	7.500000e-01	1.145720e-06	
83	8.000000e-01	1.146474e-06	
84	8.500000e-01	1.147112e-06	
85	9.000000e-01	1.147672e-06	
86	9.500000e-01	1.148177e-06	
87	1.000000e+00	1.148640e-06	
88	1.050000e+00	1.149070e-06	
89	1.100000e+00	1.149473e-06	
90	1.150000e+00	1.149855e-06	
91	1.200000e+00	1.150219e-06	
92	1.250000e+00	1.150568e-06	
93	1.300000e+00	1.150903e-06	
94	1.350000e+00	1.151227e-06	
95	1.400000e+00	1.151541e-06	
96	1.450000e+00	1.151845e-06	
97	1.500000e+00	1.152142e-06	
98	1.550000e+00	1.152432e-06	
99	1.600000e+00	1.152715e-06	
100	1.650000e+00	1.152993e-06	
101	1.700000e+00	1.153265e-06	
102	1.750000e+00	1.153532e-06	
103	1.800000e+00	1.153795e-06	
104	1.850000e+00	1.154054e-06	
105	1.900000e+00	1.154309e-06	
106	1.950000e+00	1.154561e-06	
107	2.000000e+00	1.154810e-06	
108	2.050000e+00	1.155057e-06	
109	2.100000e+00	1.155302e-06	
110	2.150000e+00	1.155546e-06	
111	2.200000e+00	1.155791e-06	
112	2.250000e+00	1.156037e-06	

Index   v-sweep         -i(vds)         
--------------------------------------------------------------------------------
113	2.300000e+00	1.156286e-06	
114	2.350000e+00	1.156540e-06	
115	2.400000e+00	1.156801e-06	
116	2.450000e+00	1.157074e-06	
117	2.500000e+00	1.157360e-06	
118	2.550000e+00	1.157665e-06	
119	2.600000e+00	1.157994e-06	
120	2.650000e+00	1.158354e-06	
121	2.700000e+00	1.158751e-06	
122	2.750000e+00	1.159193e-06	
123	2.800000e+00	1.159690e-06	
124	2.850000e+00	1.160253e-06	
125	2.900000e+00	1.160893e-06	
126	2.950000e+00	1.161624e-06	
127	3.000000e+00	1.162459e-06	
128	3.050000e+00	1.163416e-06	
129	3.100000e+00	1.164511e-06	
130	3.150000e+00	1.165763e-06	
131	3.200000e+00	1.167193e-06	
132	3.250000e+00	1.168822e-06	
133	3.300000e+00	1.170674e-06	
134	0.000000e+00	-2.02588e-22	
135	5.000000e-02	3.382197e-07	
136	1.000000e-01	6.573103e-07	
137	1.500000e-01	9.573578e-07	
138	2.000000e-01	1.238448e-06	
139	2.500000e-01	1.500666e-06	
140	3.000000e-01	1.744097e-06	
141	3.500000e-01	1.968825e-06	
142	4.000000e-01	2.174935e-06	
143	4.500000e-01	2.362511e-06	
144	5.000000e-01	2.531638e-06	
145	5.500000e-01	2.682402e-06	
146	6.000000e-01	2.814891e-06	
147	6.500000e-01	2.929197e-06	
148	7.000000e-01	3.025426e-06	
149	7.500000e-01	3.103711e-06	
150	8.000000e-01	3.164273e-06	
151	8.500000e-01	3.207612e-06	
152	9.000000e-01	3.235136e-06	
153	9.500000e-01	3.250344e-06	
154	1.000000e+00	3.258372e-06	
155	1.050000e+00	3.263069e-06	
156	1.100000e+00	3.266234e-06	
157	1.150000e+00	3.268606e-06	
158	1.200000e+00	3.270514e-06	
159	1.250000e+00	3.272122e-06	
160	1.300000e+00	3.273521e-06	
161	1.350000e+00	3.274767e-06	
162	1.400000e+00	3.275897e-06	
163	1.450000e+00	3.276936e-06	
164	1.500000e+00	3.277900e-06	
165	1.550000e+00	3.278802e-06	
166	1.600000e+00	3.279654e-06	
167	1.650000e+00	3.280462e-06	
168	1.700000e+00	3.281233e-06	
169	1.750000e+00	3.281970e-06	
170	1.800000e+00	3.282679e-06	

Index   v-sweep         -i(vds)         
--------------------------------------------------------------------------------
171	1.850000e+00	3.283363e-06	
172	1.900000e+00	3.284024e-06	
173	1.950000e+00	3.284665e-06	
174	2.000000e+00	3.285287e-06	
175	2.050000e+00	3.285893e-06	
176	2.100000e+00	3.286484e-06	
177	2.150000e+00	3.287061e-06	
178	2.200000e+00	3.287626e-06	
179	2.250000e+00	3.288179e-06	
180	2.300000e+00	3.288722e-06	
181	2.350000e+00	3.289255e-06	
182	2.400000e+00	3.289781e-06	
183	2.450000e+00	3.290301e-06	
184	2.500000e+00	3.290817e-06	
185	2.550000e+00	3.291331e-06	
186	2.600000e+00	3.291846e-06	
187	2.650000e+00	3.292366e-06	
188	2.700000e+00	3.292896e-06	
189	2.750000e+00	3.293442e-06	
190	2.800000e+00	3.294011e-06	
191	2.850000e+00	3.294613e-06	
192	2.900000e+00	3.295259e-06	
193	2.950000e+00	3.295961e-06	
194	3.000000e+00	3.296736e-06	
195	3.050000e+00	3.297602e-06	
196	3.100000e+00	3.298580e-06	
197	3.150000e+00	3.299694e-06	
198	3.200000e+00	3.300971e-06	
199	3.250000e+00	3.302443e-06	
200	3.300000e+00	3.304143e-06	
201	0.000000e+00	1.720452e-21	
202	5.000000e-02	4.559896e-07	
203	1.000000e-01	8.941840e-07	
204	1.500000e-01	1.314659e-06	
205	2.000000e-01	1.717490e-06	
206	2.500000e-01	2.102753e-06	
207	3.000000e-01	2.470522e-06	
208	3.500000e-01	2.820871e-06	
209	4.000000e-01	3.153874e-06	
210	4.500000e-01	3.469606e-06	
211	5.000000e-01	3.768139e-06	
212	5.500000e-01	4.049546e-06	
213	6.000000e-01	4.313901e-06	
214	6.500000e-01	4.561275e-06	
215	7.000000e-01	4.791741e-06	
216	7.500000e-01	5.005370e-06	
217	8.000000e-01	5.202234e-06	
218	8.500000e-01	5.382406e-06	
219	9.000000e-01	5.545957e-06	
220	9.500000e-01	5.692961e-06	
221	1.000000e+00	5.823493e-06	
222	1.050000e+00	5.937633e-06	
223	1.100000e+00	6.035469e-06	
224	1.150000e+00	6.117117e-06	
225	1.200000e+00	6.182758e-06	
226	1.250000e+00	6.232770e-06	
227	1.300000e+00	6.268105e-06	
228	1.350000e+00	6.291005e-06	

Index   v-sweep         -i(vds)         
--------------------------------------------------------------------------------
229	1.400000e+00	6.305153e-06	
230	1.450000e+00	6.314188e-06	
231	1.500000e+00	6.320443e-06	
232	1.550000e+00	6.325130e-06	
233	1.600000e+00	6.328862e-06	
234	1.650000e+00	6.331968e-06	
235	1.700000e+00	6.334637e-06	
236	1.750000e+00	6.336986e-06	
237	1.800000e+00	6.339092e-06	
238	1.850000e+00	6.341006e-06	
239	1.900000e+00	6.342767e-06	
240	1.950000e+00	6.344402e-06	
241	2.000000e+00	6.345931e-06	
242	2.050000e+00	6.347371e-06	
243	2.100000e+00	6.348735e-06	
244	2.150000e+00	6.350031e-06	
245	2.200000e+00	6.351270e-06	
246	2.250000e+00	6.352457e-06	
247	2.300000e+00	6.353598e-06	
248	2.350000e+00	6.354699e-06	
249	2.400000e+00	6.355762e-06	
250	2.450000e+00	6.356793e-06	
251	2.500000e+00	6.357793e-06	
252	2.550000e+00	6.358766e-06	
253	2.600000e+00	6.359713e-06	
254	2.650000e+00	6.360638e-06	
255	2.700000e+00	6.361542e-06	
256	2.750000e+00	6.362428e-06	
257	2.800000e+00	6.363299e-06	
258	2.850000e+00	6.364156e-06	
259	2.900000e+00	6.365005e-06	
260	2.950000e+00	6.365848e-06	
261	3.000000e+00	6.366693e-06	
262	3.050000e+00	6.367545e-06	
263	3.100000e+00	6.368414e-06	
264	3.150000e+00	6.369311e-06	
265	3.200000e+00	6.370250e-06	
266	3.250000e+00	6.371248e-06	
267	3.300000e+00	6.372325e-06	
268	0.000000e+00	2.434572e-22	
269	5.000000e-02	5.516529e-07	
270	1.000000e-01	1.087091e-06	
271	1.500000e-01	1.606380e-06	
272	2.000000e-01	2.109584e-06	
273	2.500000e-01	2.596767e-06	
274	3.000000e-01	3.067994e-06	
275	3.500000e-01	3.523328e-06	
276	4.000000e-01	3.962833e-06	
277	4.500000e-01	4.386572e-06	
278	5.000000e-01	4.794608e-06	
279	5.500000e-01	5.187003e-06	
280	6.000000e-01	5.563820e-06	
281	6.500000e-01	5.925121e-06	
282	7.000000e-01	6.270968e-06	
283	7.500000e-01	6.601422e-06	
284	8.000000e-01	6.916544e-06	
285	8.500000e-01	7.216395e-06	
286	9.000000e-01	7.501035e-06	

Index   v-sweep         -i(vds)         
--------------------------------------------------------------------------------
287	9.500000e-01	7.770526e-06	
288	1.000000e+00	8.024927e-06	
289	1.050000e+00	8.264297e-06	
290	1.100000e+00	8.488697e-06	
291	1.150000e+00	8.698185e-06	
292	1.200000e+00	8.892821e-06	
293	1.250000e+00	9.072664e-06	
294	1.300000e+00	9.237771e-06	
295	1.350000e+00	9.388203e-06	
296	1.400000e+00	9.524018e-06	
297	1.450000e+00	9.645277e-06	
298	1.500000e+00	9.752041e-06	
299	1.550000e+00	9.844381e-06	
300	1.600000e+00	9.922388e-06	
301	1.650000e+00	9.986214e-06	
302	1.700000e+00	1.003620e-05	
303	1.750000e+00	1.007319e-05	
304	1.800000e+00	1.009904e-05	
305	1.850000e+00	1.011663e-05	
306	1.900000e+00	1.012886e-05	
307	1.950000e+00	1.013781e-05	
308	2.000000e+00	1.014473e-05	
309	2.050000e+00	1.015033e-05	
310	2.100000e+00	1.015503e-05	
311	2.150000e+00	1.015908e-05	
312	2.200000e+00	1.016264e-05	
313	2.250000e+00	1.016583e-05	
314	2.300000e+00	1.016873e-05	
315	2.350000e+00	1.017139e-05	
316	2.400000e+00	1.017386e-05	
317	2.450000e+00	1.017615e-05	
318	2.500000e+00	1.017831e-05	
319	2.550000e+00	1.018034e-05	
320	2.600000e+00	1.018228e-05	
321	2.650000e+00	1.018411e-05	
322	2.700000e+00	1.018587e-05	
323	2.750000e+00	1.018756e-05	
324	2.800000e+00	1.018918e-05	
325	2.850000e+00	1.019074e-05	
326	2.900000e+00	1.019225e-05	
327	2.950000e+00	1.019371e-05	
328	3.000000e+00	1.019512e-05	
329	3.050000e+00	1.019650e-05	
330	3.100000e+00	1.019784e-05	
331	3.150000e+00	1.019915e-05	
332	3.200000e+00	1.020043e-05	
333	3.250000e+00	1.020169e-05	
334	3.300000e+00	1.020293e-05	
335	0.000000e+00	-2.57253e-21	
336	5.000000e-02	6.256908e-07	
337	1.000000e-01	1.236827e-06	
338	1.500000e-01	1.833462e-06	
339	2.000000e-01	2.415652e-06	
340	2.500000e-01	2.983449e-06	
341	3.000000e-01	3.536908e-06	
342	3.500000e-01	4.076082e-06	
343	4.000000e-01	4.601024e-06	
344	4.500000e-01	5.111788e-06	

Index   v-sweep         -i(vds)         
--------------------------------------------------------------------------------
345	5.000000e-01	5.608426e-06	
346	5.500000e-01	6.090990e-06	
347	6.000000e-01	6.559534e-06	
348	6.500000e-01	7.014109e-06	
349	7.000000e-01	7.454768e-06	
350	7.500000e-01	7.881561e-06	
351	8.000000e-01	8.294540e-06	
352	8.500000e-01	8.693757e-06	
353	9.000000e-01	9.079262e-06	
354	9.500000e-01	9.451107e-06	
355	1.000000e+00	9.809342e-06	
356	1.050000e+00	1.015402e-05	
357	1.100000e+00	1.048518e-05	
358	1.150000e+00	1.080289e-05	
359	1.200000e+00	1.110718e-05	
360	1.250000e+00	1.139812e-05	
361	1.300000e+00	1.167574e-05	
362	1.350000e+00	1.194010e-05	
363	1.400000e+00	1.219124e-05	
364	1.450000e+00	1.242922e-05	
365	1.500000e+00	1.265409e-05	
366	1.550000e+00	1.286588e-05	
367	1.600000e+00	1.306465e-05	
368	1.650000e+00	1.325045e-05	
369	1.700000e+00	1.342332e-05	
370	1.750000e+00	1.358331e-05	
371	1.800000e+00	1.373046e-05	
372	1.850000e+00	1.386482e-05	
373	1.900000e+00	1.398642e-05	
374	1.950000e+00	1.409532e-05	
375	2.000000e+00	1.419155e-05	
376	2.050000e+00	1.427515e-05	
377	2.100000e+00	1.434617e-05	
378	2.150000e+00	1.440475e-05	
379	2.200000e+00	1.445122e-05	
380	2.250000e+00	1.448648e-05	
381	2.300000e+00	1.451229e-05	
382	2.350000e+00	1.453104e-05	
383	2.400000e+00	1.454497e-05	
384	2.450000e+00	1.455571e-05	
385	2.500000e+00	1.456432e-05	
386	2.550000e+00	1.457146e-05	
387	2.600000e+00	1.457756e-05	
388	2.650000e+00	1.458287e-05	
389	2.700000e+00	1.458758e-05	
390	2.750000e+00	1.459182e-05	
391	2.800000e+00	1.459568e-05	
392	2.850000e+00	1.459923e-05	
393	2.900000e+00	1.460252e-05	
394	2.950000e+00	1.460559e-05	
395	3.000000e+00	1.460848e-05	
396	3.050000e+00	1.461120e-05	
397	3.100000e+00	1.461378e-05	
398	3.150000e+00	1.461623e-05	
399	3.200000e+00	1.461858e-05	
400	3.250000e+00	1.462083e-05	
401	3.300000e+00	1.462299e-05	
Note: No ".plot", ".print", or ".fourier" lines; no simulations run
