
Note: Compatibility modes selected: hs

Warning: m=xx on .subckt line will override multiplier m hierarchy!


Circuit: ***************************

Doing analysis at TEMP = -40.000000 and TNOM = -40.000000


No. of Data Rows : 402
                          ***************************
                          DC transfer characteristic  Mon Jan  9 13:58:11  2023
--------------------------------------------------------------------------------
Index   v-sweep         -i(vds)         
--------------------------------------------------------------------------------
0	0.000000e+00	-1.57582e-37	
1	5.000000e-02	8.002793e-06	
2	1.000000e-01	1.048864e-05	
3	1.500000e-01	1.106547e-05	
4	2.000000e-01	1.129959e-05	
5	2.500000e-01	1.145116e-05	
6	3.000000e-01	1.157129e-05	
7	3.500000e-01	1.167562e-05	
8	4.000000e-01	1.177058e-05	
9	4.500000e-01	1.185939e-05	
10	5.000000e-01	1.194387e-05	
11	5.500000e-01	1.202513e-05	
12	6.000000e-01	1.210393e-05	
13	6.500000e-01	1.218078e-05	
14	7.000000e-01	1.225606e-05	
15	7.500000e-01	1.233004e-05	
16	8.000000e-01	1.240294e-05	
17	8.500000e-01	1.247494e-05	
18	9.000000e-01	1.254616e-05	
19	9.500000e-01	1.261671e-05	
20	1.000000e+00	1.268668e-05	
21	1.050000e+00	1.275615e-05	
22	1.100000e+00	1.282519e-05	
23	1.150000e+00	1.289383e-05	
24	1.200000e+00	1.296214e-05	
25	1.250000e+00	1.303014e-05	
26	1.300000e+00	1.309788e-05	
27	1.350000e+00	1.316538e-05	
28	1.400000e+00	1.323267e-05	
29	1.450000e+00	1.329977e-05	
30	1.500000e+00	1.336671e-05	
31	1.550000e+00	1.343351e-05	
32	1.600000e+00	1.350019e-05	
33	1.650000e+00	1.356677e-05	
34	1.700000e+00	1.363327e-05	
35	1.750000e+00	1.369971e-05	
36	1.800000e+00	1.376611e-05	
37	1.850000e+00	1.383250e-05	
38	1.900000e+00	1.389892e-05	
39	1.950000e+00	1.396538e-05	
40	2.000000e+00	1.403193e-05	
41	2.050000e+00	1.409860e-05	
42	2.100000e+00	1.416545e-05	
43	2.150000e+00	1.423253e-05	
44	2.200000e+00	1.429990e-05	
45	2.250000e+00	1.436762e-05	
46	2.300000e+00	1.443577e-05	
47	2.350000e+00	1.450444e-05	
48	2.400000e+00	1.457373e-05	
49	2.450000e+00	1.464373e-05	
50	2.500000e+00	1.471457e-05	
51	2.550000e+00	1.478637e-05	
52	2.600000e+00	1.485928e-05	
53	2.650000e+00	1.493346e-05	
54	2.700000e+00	1.500906e-05	

Index   v-sweep         -i(vds)         
--------------------------------------------------------------------------------
55	2.750000e+00	1.508629e-05	
56	2.800000e+00	1.516533e-05	
57	2.850000e+00	1.524640e-05	
58	2.900000e+00	1.532974e-05	
59	2.950000e+00	1.541559e-05	
60	3.000000e+00	1.550423e-05	
61	3.050000e+00	1.559593e-05	
62	3.100000e+00	1.569101e-05	
63	3.150000e+00	1.578978e-05	
64	3.200000e+00	1.589260e-05	
65	3.250000e+00	1.599981e-05	
66	3.300000e+00	1.611182e-05	
67	0.000000e+00	1.847059e-20	
68	5.000000e-02	9.832014e-05	
69	1.000000e-01	1.832946e-04	
70	1.500000e-01	2.556535e-04	
71	2.000000e-01	3.160743e-04	
72	2.500000e-01	3.651823e-04	
73	3.000000e-01	4.035628e-04	
74	3.500000e-01	4.318418e-04	
75	4.000000e-01	4.510223e-04	
76	4.500000e-01	4.630456e-04	
77	5.000000e-01	4.704882e-04	
78	5.500000e-01	4.753878e-04	
79	6.000000e-01	4.788939e-04	
80	6.500000e-01	4.815896e-04	
81	7.000000e-01	4.837782e-04	
82	7.500000e-01	4.856281e-04	
83	8.000000e-01	4.872391e-04	
84	8.500000e-01	4.886743e-04	
85	9.000000e-01	4.899755e-04	
86	9.500000e-01	4.911716e-04	
87	1.000000e+00	4.922833e-04	
88	1.050000e+00	4.933259e-04	
89	1.100000e+00	4.943109e-04	
90	1.150000e+00	4.952474e-04	
91	1.200000e+00	4.961423e-04	
92	1.250000e+00	4.970014e-04	
93	1.300000e+00	4.978291e-04	
94	1.350000e+00	4.986294e-04	
95	1.400000e+00	4.994054e-04	
96	1.450000e+00	5.001596e-04	
97	1.500000e+00	5.008943e-04	
98	1.550000e+00	5.016115e-04	
99	1.600000e+00	5.023129e-04	
100	1.650000e+00	5.029997e-04	
101	1.700000e+00	5.036735e-04	
102	1.750000e+00	5.043352e-04	
103	1.800000e+00	5.049858e-04	
104	1.850000e+00	5.056265e-04	
105	1.900000e+00	5.062579e-04	
106	1.950000e+00	5.068811e-04	
107	2.000000e+00	5.074967e-04	
108	2.050000e+00	5.081058e-04	
109	2.100000e+00	5.087091e-04	
110	2.150000e+00	5.093076e-04	
111	2.200000e+00	5.099024e-04	
112	2.250000e+00	5.104945e-04	

Index   v-sweep         -i(vds)         
--------------------------------------------------------------------------------
113	2.300000e+00	5.110853e-04	
114	2.350000e+00	5.116761e-04	
115	2.400000e+00	5.122685e-04	
116	2.450000e+00	5.128642e-04	
117	2.500000e+00	5.134653e-04	
118	2.550000e+00	5.140740e-04	
119	2.600000e+00	5.146927e-04	
120	2.650000e+00	5.153242e-04	
121	2.700000e+00	5.159715e-04	
122	2.750000e+00	5.166380e-04	
123	2.800000e+00	5.173275e-04	
124	2.850000e+00	5.180439e-04	
125	2.900000e+00	5.187917e-04	
126	2.950000e+00	5.195758e-04	
127	3.000000e+00	5.204014e-04	
128	3.050000e+00	5.212742e-04	
129	3.100000e+00	5.222002e-04	
130	3.150000e+00	5.231861e-04	
131	3.200000e+00	5.242389e-04	
132	3.250000e+00	5.253661e-04	
133	3.300000e+00	5.265757e-04	
134	0.000000e+00	1.715326e-19	
135	5.000000e-02	1.632089e-04	
136	1.000000e-01	3.132594e-04	
137	1.500000e-01	4.507114e-04	
138	2.000000e-01	5.760950e-04	
139	2.500000e-01	6.899104e-04	
140	3.000000e-01	7.926268e-04	
141	3.500000e-01	8.846786e-04	
142	4.000000e-01	9.664595e-04	
143	4.500000e-01	1.038309e-03	
144	5.000000e-01	1.100492e-03	
145	5.500000e-01	1.153168e-03	
146	6.000000e-01	1.196391e-03	
147	6.500000e-01	1.230266e-03	
148	7.000000e-01	1.255405e-03	
149	7.500000e-01	1.273334e-03	
150	8.000000e-01	1.286085e-03	
151	8.500000e-01	1.295425e-03	
152	9.000000e-01	1.302561e-03	
153	9.500000e-01	1.308243e-03	
154	1.000000e+00	1.312928e-03	
155	1.050000e+00	1.316906e-03	
156	1.100000e+00	1.320362e-03	
157	1.150000e+00	1.323421e-03	
158	1.200000e+00	1.326171e-03	
159	1.250000e+00	1.328674e-03	
160	1.300000e+00	1.330977e-03	
161	1.350000e+00	1.333113e-03	
162	1.400000e+00	1.335111e-03	
163	1.450000e+00	1.336990e-03	
164	1.500000e+00	1.338768e-03	
165	1.550000e+00	1.340458e-03	
166	1.600000e+00	1.342071e-03	
167	1.650000e+00	1.343616e-03	
168	1.700000e+00	1.345101e-03	
169	1.750000e+00	1.346532e-03	
170	1.800000e+00	1.347915e-03	

Index   v-sweep         -i(vds)         
--------------------------------------------------------------------------------
171	1.850000e+00	1.349255e-03	
172	1.900000e+00	1.350555e-03	
173	1.950000e+00	1.351819e-03	
174	2.000000e+00	1.353051e-03	
175	2.050000e+00	1.354253e-03	
176	2.100000e+00	1.355427e-03	
177	2.150000e+00	1.356577e-03	
178	2.200000e+00	1.357704e-03	
179	2.250000e+00	1.358811e-03	
180	2.300000e+00	1.359900e-03	
181	2.350000e+00	1.360973e-03	
182	2.400000e+00	1.362032e-03	
183	2.450000e+00	1.363081e-03	
184	2.500000e+00	1.364123e-03	
185	2.550000e+00	1.365159e-03	
186	2.600000e+00	1.366195e-03	
187	2.650000e+00	1.367233e-03	
188	2.700000e+00	1.368279e-03	
189	2.750000e+00	1.369337e-03	
190	2.800000e+00	1.370412e-03	
191	2.850000e+00	1.371512e-03	
192	2.900000e+00	1.372644e-03	
193	2.950000e+00	1.373814e-03	
194	3.000000e+00	1.375031e-03	
195	3.050000e+00	1.376305e-03	
196	3.100000e+00	1.377646e-03	
197	3.150000e+00	1.379066e-03	
198	3.200000e+00	1.380576e-03	
199	3.250000e+00	1.382190e-03	
200	3.300000e+00	1.383922e-03	
201	0.000000e+00	1.860340e-19	
202	5.000000e-02	2.052278e-04	
203	1.000000e-01	3.983741e-04	
204	1.500000e-01	5.798558e-04	
205	2.000000e-01	7.500731e-04	
206	2.500000e-01	9.094100e-04	
207	3.000000e-01	1.058234e-03	
208	3.500000e-01	1.196895e-03	
209	4.000000e-01	1.325727e-03	
210	4.500000e-01	1.445044e-03	
211	5.000000e-01	1.555137e-03	
212	5.500000e-01	1.656274e-03	
213	6.000000e-01	1.748685e-03	
214	6.500000e-01	1.832553e-03	
215	7.000000e-01	1.907990e-03	
216	7.500000e-01	1.975002e-03	
217	8.000000e-01	2.033453e-03	
218	8.500000e-01	2.083078e-03	
219	9.000000e-01	2.123662e-03	
220	9.500000e-01	2.155472e-03	
221	1.000000e+00	2.179608e-03	
222	1.050000e+00	2.197759e-03	
223	1.100000e+00	2.211602e-03	
224	1.150000e+00	2.222444e-03	
225	1.200000e+00	2.231190e-03	
226	1.250000e+00	2.238444e-03	
227	1.300000e+00	2.244606e-03	
228	1.350000e+00	2.249949e-03	

Index   v-sweep         -i(vds)         
--------------------------------------------------------------------------------
229	1.400000e+00	2.254661e-03	
230	1.450000e+00	2.258877e-03	
231	1.500000e+00	2.262693e-03	
232	1.550000e+00	2.266183e-03	
233	1.600000e+00	2.269403e-03	
234	1.650000e+00	2.272396e-03	
235	1.700000e+00	2.275195e-03	
236	1.750000e+00	2.277828e-03	
237	1.800000e+00	2.280316e-03	
238	1.850000e+00	2.282679e-03	
239	1.900000e+00	2.284930e-03	
240	1.950000e+00	2.287082e-03	
241	2.000000e+00	2.289147e-03	
242	2.050000e+00	2.291132e-03	
243	2.100000e+00	2.293046e-03	
244	2.150000e+00	2.294895e-03	
245	2.200000e+00	2.296686e-03	
246	2.250000e+00	2.298423e-03	
247	2.300000e+00	2.300112e-03	
248	2.350000e+00	2.301756e-03	
249	2.400000e+00	2.303360e-03	
250	2.450000e+00	2.304926e-03	
251	2.500000e+00	2.306460e-03	
252	2.550000e+00	2.307965e-03	
253	2.600000e+00	2.309444e-03	
254	2.650000e+00	2.310902e-03	
255	2.700000e+00	2.312344e-03	
256	2.750000e+00	2.313773e-03	
257	2.800000e+00	2.315196e-03	
258	2.850000e+00	2.316618e-03	
259	2.900000e+00	2.318047e-03	
260	2.950000e+00	2.319489e-03	
261	3.000000e+00	2.320954e-03	
262	3.050000e+00	2.322451e-03	
263	3.100000e+00	2.323989e-03	
264	3.150000e+00	2.325583e-03	
265	3.200000e+00	2.327243e-03	
266	3.250000e+00	2.328986e-03	
267	3.300000e+00	2.330826e-03	
268	0.000000e+00	-1.55209e-20	
269	5.000000e-02	2.324951e-04	
270	1.000000e-01	4.541576e-04	
271	1.500000e-01	6.652984e-04	
272	2.000000e-01	8.662190e-04	
273	2.500000e-01	1.057211e-03	
274	3.000000e-01	1.238556e-03	
275	3.500000e-01	1.410527e-03	
276	4.000000e-01	1.573386e-03	
277	4.500000e-01	1.727385e-03	
278	5.000000e-01	1.872768e-03	
279	5.500000e-01	2.009766e-03	
280	6.000000e-01	2.138598e-03	
281	6.500000e-01	2.259470e-03	
282	7.000000e-01	2.372571e-03	
283	7.500000e-01	2.478066e-03	
284	8.000000e-01	2.576095e-03	
285	8.500000e-01	2.666752e-03	
286	9.000000e-01	2.750071e-03	

Index   v-sweep         -i(vds)         
--------------------------------------------------------------------------------
287	9.500000e-01	2.825997e-03	
288	1.000000e+00	2.894344e-03	
289	1.050000e+00	2.954781e-03	
290	1.100000e+00	3.006873e-03	
291	1.150000e+00	3.050314e-03	
292	1.200000e+00	3.085312e-03	
293	1.250000e+00	3.112808e-03	
294	1.300000e+00	3.134248e-03	
295	1.350000e+00	3.151121e-03	
296	1.400000e+00	3.164654e-03	
297	1.450000e+00	3.175756e-03	
298	1.500000e+00	3.185066e-03	
299	1.550000e+00	3.193033e-03	
300	1.600000e+00	3.199969e-03	
301	1.650000e+00	3.206100e-03	
302	1.700000e+00	3.211589e-03	
303	1.750000e+00	3.216557e-03	
304	1.800000e+00	3.221097e-03	
305	1.850000e+00	3.225280e-03	
306	1.900000e+00	3.229160e-03	
307	1.950000e+00	3.232783e-03	
308	2.000000e+00	3.236183e-03	
309	2.050000e+00	3.239389e-03	
310	2.100000e+00	3.242425e-03	
311	2.150000e+00	3.245312e-03	
312	2.200000e+00	3.248065e-03	
313	2.250000e+00	3.250700e-03	
314	2.300000e+00	3.253227e-03	
315	2.350000e+00	3.255657e-03	
316	2.400000e+00	3.258001e-03	
317	2.450000e+00	3.260264e-03	
318	2.500000e+00	3.262455e-03	
319	2.550000e+00	3.264580e-03	
320	2.600000e+00	3.266645e-03	
321	2.650000e+00	3.268654e-03	
322	2.700000e+00	3.270615e-03	
323	2.750000e+00	3.272531e-03	
324	2.800000e+00	3.274408e-03	
325	2.850000e+00	3.276251e-03	
326	2.900000e+00	3.278067e-03	
327	2.950000e+00	3.279862e-03	
328	3.000000e+00	3.281642e-03	
329	3.050000e+00	3.283416e-03	
330	3.100000e+00	3.285191e-03	
331	3.150000e+00	3.286979e-03	
332	3.200000e+00	3.288790e-03	
333	3.250000e+00	3.290636e-03	
334	3.300000e+00	3.292531e-03	
335	0.000000e+00	-6.71682e-19	
336	5.000000e-02	2.500114e-04	
337	1.000000e-01	4.903886e-04	
338	1.500000e-01	7.213664e-04	
339	2.000000e-01	9.431736e-04	
340	2.500000e-01	1.156033e-03	
341	3.000000e-01	1.360162e-03	
342	3.500000e-01	1.555770e-03	
343	4.000000e-01	1.743064e-03	
344	4.500000e-01	1.922241e-03	

Index   v-sweep         -i(vds)         
--------------------------------------------------------------------------------
345	5.000000e-01	2.093496e-03	
346	5.500000e-01	2.257015e-03	
347	6.000000e-01	2.412980e-03	
348	6.500000e-01	2.561563e-03	
349	7.000000e-01	2.702933e-03	
350	7.500000e-01	2.837248e-03	
351	8.000000e-01	2.964658e-03	
352	8.500000e-01	3.085304e-03	
353	9.000000e-01	3.199310e-03	
354	9.500000e-01	3.306785e-03	
355	1.000000e+00	3.407812e-03	
356	1.050000e+00	3.502440e-03	
357	1.100000e+00	3.590668e-03	
358	1.150000e+00	3.672422e-03	
359	1.200000e+00	3.747527e-03	
360	1.250000e+00	3.815675e-03	
361	1.300000e+00	3.876422e-03	
362	1.350000e+00	3.929281e-03	
363	1.400000e+00	3.973956e-03	
364	1.450000e+00	4.010654e-03	
365	1.500000e+00	4.040210e-03	
366	1.550000e+00	4.063871e-03	
367	1.600000e+00	4.082940e-03	
368	1.650000e+00	4.098532e-03	
369	1.700000e+00	4.111513e-03	
370	1.750000e+00	4.122516e-03	
371	1.800000e+00	4.132004e-03	
372	1.850000e+00	4.140309e-03	
373	1.900000e+00	4.147676e-03	
374	1.950000e+00	4.154288e-03	
375	2.000000e+00	4.160281e-03	
376	2.050000e+00	4.165761e-03	
377	2.100000e+00	4.170811e-03	
378	2.150000e+00	4.175495e-03	
379	2.200000e+00	4.179866e-03	
380	2.250000e+00	4.183965e-03	
381	2.300000e+00	4.187826e-03	
382	2.350000e+00	4.191480e-03	
383	2.400000e+00	4.194949e-03	
384	2.450000e+00	4.198254e-03	
385	2.500000e+00	4.201412e-03	
386	2.550000e+00	4.204437e-03	
387	2.600000e+00	4.207343e-03	
388	2.650000e+00	4.210141e-03	
389	2.700000e+00	4.212840e-03	
390	2.750000e+00	4.215449e-03	
391	2.800000e+00	4.217976e-03	
392	2.850000e+00	4.220428e-03	
393	2.900000e+00	4.222812e-03	
394	2.950000e+00	4.225136e-03	
395	3.000000e+00	4.227404e-03	
396	3.050000e+00	4.229625e-03	
397	3.100000e+00	4.231806e-03	
398	3.150000e+00	4.233953e-03	
399	3.200000e+00	4.236076e-03	
400	3.250000e+00	4.238184e-03	
401	3.300000e+00	4.240286e-03	
Note: No ".plot", ".print", or ".fourier" lines; no simulations run
