
Note: Compatibility modes selected: hs

Warning: m=xx on .subckt line will override multiplier m hierarchy!


Circuit: ***************************

Doing analysis at TEMP = 25.000000 and TNOM = 25.000000


No. of Data Rows : 402
                          ***************************
                          DC transfer characteristic  Mon Jan  9 13:58:11  2023
--------------------------------------------------------------------------------
Index   v-sweep         -i(vds)         
--------------------------------------------------------------------------------
0	0.000000e+00	1.102653e-22	
1	5.000000e-02	5.163646e-07	
2	1.000000e-01	8.080914e-07	
3	1.500000e-01	9.004291e-07	
4	2.000000e-01	9.108227e-07	
5	2.500000e-01	9.127861e-07	
6	3.000000e-01	9.137685e-07	
7	3.500000e-01	9.144920e-07	
8	4.000000e-01	9.151087e-07	
9	4.500000e-01	9.156688e-07	
10	5.000000e-01	9.161941e-07	
11	5.500000e-01	9.166958e-07	
12	6.000000e-01	9.171803e-07	
13	6.500000e-01	9.176518e-07	
14	7.000000e-01	9.181131e-07	
15	7.500000e-01	9.185660e-07	
16	8.000000e-01	9.190121e-07	
17	8.500000e-01	9.194524e-07	
18	9.000000e-01	9.198877e-07	
19	9.500000e-01	9.203188e-07	
20	1.000000e+00	9.207461e-07	
21	1.050000e+00	9.211701e-07	
22	1.100000e+00	9.215911e-07	
23	1.150000e+00	9.220096e-07	
24	1.200000e+00	9.224256e-07	
25	1.250000e+00	9.228396e-07	
26	1.300000e+00	9.232516e-07	
27	1.350000e+00	9.236618e-07	
28	1.400000e+00	9.240704e-07	
29	1.450000e+00	9.244775e-07	
30	1.500000e+00	9.248833e-07	
31	1.550000e+00	9.252879e-07	
32	1.600000e+00	9.256915e-07	
33	1.650000e+00	9.260942e-07	
34	1.700000e+00	9.264962e-07	
35	1.750000e+00	9.268978e-07	
36	1.800000e+00	9.272994e-07	
37	1.850000e+00	9.277013e-07	
38	1.900000e+00	9.281042e-07	
39	1.950000e+00	9.285086e-07	
40	2.000000e+00	9.289154e-07	
41	2.050000e+00	9.293256e-07	
42	2.100000e+00	9.297405e-07	
43	2.150000e+00	9.301616e-07	
44	2.200000e+00	9.305907e-07	
45	2.250000e+00	9.310300e-07	
46	2.300000e+00	9.314818e-07	
47	2.350000e+00	9.319490e-07	
48	2.400000e+00	9.324349e-07	
49	2.450000e+00	9.329431e-07	
50	2.500000e+00	9.334778e-07	
51	2.550000e+00	9.340436e-07	
52	2.600000e+00	9.346456e-07	
53	2.650000e+00	9.352894e-07	
54	2.700000e+00	9.359813e-07	

Index   v-sweep         -i(vds)         
--------------------------------------------------------------------------------
55	2.750000e+00	9.367278e-07	
56	2.800000e+00	9.375362e-07	
57	2.850000e+00	9.384143e-07	
58	2.900000e+00	9.393706e-07	
59	2.950000e+00	9.404137e-07	
60	3.000000e+00	9.415534e-07	
61	3.050000e+00	9.427994e-07	
62	3.100000e+00	9.441624e-07	
63	3.150000e+00	9.456535e-07	
64	3.200000e+00	9.472842e-07	
65	3.250000e+00	9.490665e-07	
66	3.300000e+00	9.510132e-07	
67	0.000000e+00	8.182909e-22	
68	5.000000e-02	2.447303e-06	
69	1.000000e-01	4.632342e-06	
70	1.500000e-01	6.555732e-06	
71	2.000000e-01	8.218106e-06	
72	2.500000e-01	9.620145e-06	
73	3.000000e-01	1.076265e-05	
74	3.500000e-01	1.164680e-05	
75	4.000000e-01	1.227509e-05	
76	4.500000e-01	1.265623e-05	
77	5.000000e-01	1.282759e-05	
78	5.500000e-01	1.288292e-05	
79	6.000000e-01	1.290258e-05	
80	6.500000e-01	1.291269e-05	
81	7.000000e-01	1.291946e-05	
82	7.500000e-01	1.292471e-05	
83	8.000000e-01	1.292911e-05	
84	8.500000e-01	1.293298e-05	
85	9.000000e-01	1.293649e-05	
86	9.500000e-01	1.293974e-05	
87	1.000000e+00	1.294279e-05	
88	1.050000e+00	1.294568e-05	
89	1.100000e+00	1.294845e-05	
90	1.150000e+00	1.295111e-05	
91	1.200000e+00	1.295368e-05	
92	1.250000e+00	1.295618e-05	
93	1.300000e+00	1.295862e-05	
94	1.350000e+00	1.296100e-05	
95	1.400000e+00	1.296333e-05	
96	1.450000e+00	1.296561e-05	
97	1.500000e+00	1.296786e-05	
98	1.550000e+00	1.297007e-05	
99	1.600000e+00	1.297225e-05	
100	1.650000e+00	1.297440e-05	
101	1.700000e+00	1.297653e-05	
102	1.750000e+00	1.297863e-05	
103	1.800000e+00	1.298071e-05	
104	1.850000e+00	1.298277e-05	
105	1.900000e+00	1.298481e-05	
106	1.950000e+00	1.298684e-05	
107	2.000000e+00	1.298885e-05	
108	2.050000e+00	1.299085e-05	
109	2.100000e+00	1.299285e-05	
110	2.150000e+00	1.299485e-05	
111	2.200000e+00	1.299685e-05	
112	2.250000e+00	1.299886e-05	

Index   v-sweep         -i(vds)         
--------------------------------------------------------------------------------
113	2.300000e+00	1.300089e-05	
114	2.350000e+00	1.300295e-05	
115	2.400000e+00	1.300506e-05	
116	2.450000e+00	1.300724e-05	
117	2.500000e+00	1.300950e-05	
118	2.550000e+00	1.301187e-05	
119	2.600000e+00	1.301437e-05	
120	2.650000e+00	1.301705e-05	
121	2.700000e+00	1.301995e-05	
122	2.750000e+00	1.302309e-05	
123	2.800000e+00	1.302655e-05	
124	2.850000e+00	1.303037e-05	
125	2.900000e+00	1.303462e-05	
126	2.950000e+00	1.303937e-05	
127	3.000000e+00	1.304469e-05	
128	3.050000e+00	1.305068e-05	
129	3.100000e+00	1.305742e-05	
130	3.150000e+00	1.306501e-05	
131	3.200000e+00	1.307356e-05	
132	3.250000e+00	1.308319e-05	
133	3.300000e+00	1.309402e-05	
134	0.000000e+00	-6.65845e-22	
135	5.000000e-02	4.196516e-06	
136	1.000000e-01	8.146051e-06	
137	1.500000e-01	1.184913e-05	
138	2.000000e-01	1.530628e-05	
139	2.500000e-01	1.851802e-05	
140	3.000000e-01	2.148488e-05	
141	3.500000e-01	2.420738e-05	
142	4.000000e-01	2.668606e-05	
143	4.500000e-01	2.892146e-05	
144	5.000000e-01	3.091413e-05	
145	5.500000e-01	3.266465e-05	
146	6.000000e-01	3.417368e-05	
147	6.500000e-01	3.544199e-05	
148	7.000000e-01	3.647071e-05	
149	7.500000e-01	3.726196e-05	
150	8.000000e-01	3.782104e-05	
151	8.500000e-01	3.816442e-05	
152	9.000000e-01	3.833800e-05	
153	9.500000e-01	3.841608e-05	
154	1.000000e+00	3.845502e-05	
155	1.050000e+00	3.847866e-05	
156	1.100000e+00	3.849541e-05	
157	1.150000e+00	3.850852e-05	
158	1.200000e+00	3.851943e-05	
159	1.250000e+00	3.852891e-05	
160	1.300000e+00	3.853738e-05	
161	1.350000e+00	3.854509e-05	
162	1.400000e+00	3.855223e-05	
163	1.450000e+00	3.855891e-05	
164	1.500000e+00	3.856522e-05	
165	1.550000e+00	3.857123e-05	
166	1.600000e+00	3.857697e-05	
167	1.650000e+00	3.858249e-05	
168	1.700000e+00	3.858782e-05	
169	1.750000e+00	3.859298e-05	
170	1.800000e+00	3.859800e-05	

Index   v-sweep         -i(vds)         
--------------------------------------------------------------------------------
171	1.850000e+00	3.860288e-05	
172	1.900000e+00	3.860765e-05	
173	1.950000e+00	3.861231e-05	
174	2.000000e+00	3.861688e-05	
175	2.050000e+00	3.862136e-05	
176	2.100000e+00	3.862577e-05	
177	2.150000e+00	3.863010e-05	
178	2.200000e+00	3.863437e-05	
179	2.250000e+00	3.863858e-05	
180	2.300000e+00	3.864273e-05	
181	2.350000e+00	3.864685e-05	
182	2.400000e+00	3.865092e-05	
183	2.450000e+00	3.865497e-05	
184	2.500000e+00	3.865900e-05	
185	2.550000e+00	3.866303e-05	
186	2.600000e+00	3.866707e-05	
187	2.650000e+00	3.867116e-05	
188	2.700000e+00	3.867532e-05	
189	2.750000e+00	3.867958e-05	
190	2.800000e+00	3.868400e-05	
191	2.850000e+00	3.868862e-05	
192	2.900000e+00	3.869352e-05	
193	2.950000e+00	3.869876e-05	
194	3.000000e+00	3.870445e-05	
195	3.050000e+00	3.871067e-05	
196	3.100000e+00	3.871757e-05	
197	3.150000e+00	3.872527e-05	
198	3.200000e+00	3.873393e-05	
199	3.250000e+00	3.874372e-05	
200	3.300000e+00	3.875485e-05	
201	0.000000e+00	4.571570e-31	
202	5.000000e-02	5.635409e-06	
203	1.000000e-01	1.104713e-05	
204	1.500000e-01	1.623559e-05	
205	2.000000e-01	2.120126e-05	
206	2.500000e-01	2.594455e-05	
207	3.000000e-01	3.046593e-05	
208	3.500000e-01	3.476582e-05	
209	4.000000e-01	3.884467e-05	
210	4.500000e-01	4.270292e-05	
211	5.000000e-01	4.634100e-05	
212	5.500000e-01	4.975937e-05	
213	6.000000e-01	5.295844e-05	
214	6.500000e-01	5.593868e-05	
215	7.000000e-01	5.870052e-05	
216	7.500000e-01	6.124441e-05	
217	8.000000e-01	6.357079e-05	
218	8.500000e-01	6.568014e-05	
219	9.000000e-01	6.757294e-05	
220	9.500000e-01	6.924971e-05	
221	1.000000e+00	7.071102e-05	
222	1.050000e+00	7.195764e-05	
223	1.100000e+00	7.299064e-05	
224	1.150000e+00	7.381200e-05	
225	1.200000e+00	7.442623e-05	
226	1.250000e+00	7.484513e-05	
227	1.300000e+00	7.509810e-05	
228	1.350000e+00	7.523704e-05	

Index   v-sweep         -i(vds)         
--------------------------------------------------------------------------------
229	1.400000e+00	7.531470e-05	
230	1.450000e+00	7.536315e-05	
231	1.500000e+00	7.539711e-05	
232	1.550000e+00	7.542314e-05	
233	1.600000e+00	7.544435e-05	
234	1.650000e+00	7.546239e-05	
235	1.700000e+00	7.547821e-05	
236	1.750000e+00	7.549239e-05	
237	1.800000e+00	7.550532e-05	
238	1.850000e+00	7.551727e-05	
239	1.900000e+00	7.552842e-05	
240	1.950000e+00	7.553892e-05	
241	2.000000e+00	7.554886e-05	
242	2.050000e+00	7.555834e-05	
243	2.100000e+00	7.556742e-05	
244	2.150000e+00	7.557614e-05	
245	2.200000e+00	7.558456e-05	
246	2.250000e+00	7.559271e-05	
247	2.300000e+00	7.560061e-05	
248	2.350000e+00	7.560830e-05	
249	2.400000e+00	7.561579e-05	
250	2.450000e+00	7.562310e-05	
251	2.500000e+00	7.563026e-05	
252	2.550000e+00	7.563726e-05	
253	2.600000e+00	7.564414e-05	
254	2.650000e+00	7.565089e-05	
255	2.700000e+00	7.565754e-05	
256	2.750000e+00	7.566409e-05	
257	2.800000e+00	7.567056e-05	
258	2.850000e+00	7.567697e-05	
259	2.900000e+00	7.568333e-05	
260	2.950000e+00	7.568969e-05	
261	3.000000e+00	7.569607e-05	
262	3.050000e+00	7.570251e-05	
263	3.100000e+00	7.570906e-05	
264	3.150000e+00	7.571581e-05	
265	3.200000e+00	7.572282e-05	
266	3.250000e+00	7.573020e-05	
267	3.300000e+00	7.573807e-05	
268	0.000000e+00	-2.48873e-32	
269	5.000000e-02	6.750074e-06	
270	1.000000e-01	1.330181e-05	
271	1.500000e-01	1.965557e-05	
272	2.000000e-01	2.581172e-05	
273	2.500000e-01	3.177063e-05	
274	3.000000e-01	3.753265e-05	
275	3.500000e-01	4.309815e-05	
276	4.000000e-01	4.846749e-05	
277	4.500000e-01	5.364103e-05	
278	5.000000e-01	5.861914e-05	
279	5.500000e-01	6.340216e-05	
280	6.000000e-01	6.799047e-05	
281	6.500000e-01	7.238442e-05	
282	7.000000e-01	7.658437e-05	
283	7.500000e-01	8.059068e-05	
284	8.000000e-01	8.440371e-05	
285	8.500000e-01	8.802381e-05	
286	9.000000e-01	9.145134e-05	

Index   v-sweep         -i(vds)         
--------------------------------------------------------------------------------
287	9.500000e-01	9.468667e-05	
288	1.000000e+00	9.773014e-05	
289	1.050000e+00	1.005821e-04	
290	1.100000e+00	1.032430e-04	
291	1.150000e+00	1.057131e-04	
292	1.200000e+00	1.079928e-04	
293	1.250000e+00	1.100825e-04	
294	1.300000e+00	1.119825e-04	
295	1.350000e+00	1.136933e-04	
296	1.400000e+00	1.152154e-04	
297	1.450000e+00	1.165492e-04	
298	1.500000e+00	1.176955e-04	
299	1.550000e+00	1.186553e-04	
300	1.600000e+00	1.194306e-04	
301	1.650000e+00	1.200260e-04	
302	1.700000e+00	1.204519e-04	
303	1.750000e+00	1.207319e-04	
304	1.800000e+00	1.209050e-04	
305	1.850000e+00	1.210127e-04	
306	1.900000e+00	1.210845e-04	
307	1.950000e+00	1.211363e-04	
308	2.000000e+00	1.211765e-04	
309	2.050000e+00	1.212093e-04	
310	2.100000e+00	1.212371e-04	
311	2.150000e+00	1.212613e-04	
312	2.200000e+00	1.212829e-04	
313	2.250000e+00	1.213025e-04	
314	2.300000e+00	1.213205e-04	
315	2.350000e+00	1.213372e-04	
316	2.400000e+00	1.213528e-04	
317	2.450000e+00	1.213676e-04	
318	2.500000e+00	1.213815e-04	
319	2.550000e+00	1.213948e-04	
320	2.600000e+00	1.214076e-04	
321	2.650000e+00	1.214198e-04	
322	2.700000e+00	1.214316e-04	
323	2.750000e+00	1.214430e-04	
324	2.800000e+00	1.214540e-04	
325	2.850000e+00	1.214647e-04	
326	2.900000e+00	1.214752e-04	
327	2.950000e+00	1.214853e-04	
328	3.000000e+00	1.214953e-04	
329	3.050000e+00	1.215050e-04	
330	3.100000e+00	1.215145e-04	
331	3.150000e+00	1.215239e-04	
332	3.200000e+00	1.215330e-04	
333	3.250000e+00	1.215421e-04	
334	3.300000e+00	1.215511e-04	
335	0.000000e+00	2.020286e-30	
336	5.000000e-02	7.564442e-06	
337	1.000000e-01	1.495550e-05	
338	1.500000e-01	2.217348e-05	
339	2.000000e-01	2.921867e-05	
340	2.500000e-01	3.609136e-05	
341	3.000000e-01	4.279184e-05	
342	3.500000e-01	4.932040e-05	
343	4.000000e-01	5.567734e-05	
344	4.500000e-01	6.186295e-05	

Index   v-sweep         -i(vds)         
--------------------------------------------------------------------------------
345	5.000000e-01	6.787752e-05	
346	5.500000e-01	7.372133e-05	
347	6.000000e-01	7.939468e-05	
348	6.500000e-01	8.489787e-05	
349	7.000000e-01	9.023117e-05	
350	7.500000e-01	9.539487e-05	
351	8.000000e-01	1.003893e-04	
352	8.500000e-01	1.052147e-04	
353	9.000000e-01	1.098713e-04	
354	9.500000e-01	1.143595e-04	
355	1.000000e+00	1.186796e-04	
356	1.050000e+00	1.228318e-04	
357	1.100000e+00	1.268164e-04	
358	1.150000e+00	1.306337e-04	
359	1.200000e+00	1.342840e-04	
360	1.250000e+00	1.377676e-04	
361	1.300000e+00	1.410847e-04	
362	1.350000e+00	1.442357e-04	
363	1.400000e+00	1.472208e-04	
364	1.450000e+00	1.500404e-04	
365	1.500000e+00	1.526946e-04	
366	1.550000e+00	1.551839e-04	
367	1.600000e+00	1.575084e-04	
368	1.650000e+00	1.596685e-04	
369	1.700000e+00	1.616645e-04	
370	1.750000e+00	1.634967e-04	
371	1.800000e+00	1.651654e-04	
372	1.850000e+00	1.666709e-04	
373	1.900000e+00	1.680136e-04	
374	1.950000e+00	1.691941e-04	
375	2.000000e+00	1.702129e-04	
376	2.050000e+00	1.710711e-04	
377	2.100000e+00	1.717709e-04	
378	2.150000e+00	1.723169e-04	
379	2.200000e+00	1.727192e-04	
380	2.250000e+00	1.729984e-04	
381	2.300000e+00	1.731850e-04	
382	2.350000e+00	1.733111e-04	
383	2.400000e+00	1.734004e-04	
384	2.450000e+00	1.734676e-04	
385	2.500000e+00	1.735207e-04	
386	2.550000e+00	1.735647e-04	
387	2.600000e+00	1.736021e-04	
388	2.650000e+00	1.736349e-04	
389	2.700000e+00	1.736642e-04	
390	2.750000e+00	1.736906e-04	
391	2.800000e+00	1.737149e-04	
392	2.850000e+00	1.737374e-04	
393	2.900000e+00	1.737583e-04	
394	2.950000e+00	1.737781e-04	
395	3.000000e+00	1.737967e-04	
396	3.050000e+00	1.738145e-04	
397	3.100000e+00	1.738314e-04	
398	3.150000e+00	1.738476e-04	
399	3.200000e+00	1.738632e-04	
400	3.250000e+00	1.738782e-04	
401	3.300000e+00	1.738928e-04	
Note: No ".plot", ".print", or ".fourier" lines; no simulations run
