
Note: Compatibility modes selected: hs

Warning: m=xx on .subckt line will override multiplier m hierarchy!


Circuit: ***************************

Doing analysis at TEMP = 125.000000 and TNOM = 125.000000


No. of Data Rows : 402
                          ***************************
                          DC transfer characteristic  Mon Jan  9 13:58:12  2023
--------------------------------------------------------------------------------
Index   v-sweep         -i(vds)         
--------------------------------------------------------------------------------
0	0.000000e+00	2.854554e-22	
1	5.000000e-02	2.699345e-07	
2	1.000000e-01	4.848566e-07	
3	1.500000e-01	6.474594e-07	
4	2.000000e-01	7.597288e-07	
5	2.500000e-01	8.253054e-07	
6	3.000000e-01	8.549200e-07	
7	3.500000e-01	8.671511e-07	
8	4.000000e-01	8.738089e-07	
9	4.500000e-01	8.784817e-07	
10	5.000000e-01	8.821973e-07	
11	5.500000e-01	8.853433e-07	
12	6.000000e-01	8.881058e-07	
13	6.500000e-01	8.905899e-07	
14	7.000000e-01	8.928614e-07	
15	7.500000e-01	8.949648e-07	
16	8.000000e-01	8.969316e-07	
17	8.500000e-01	8.987851e-07	
18	9.000000e-01	9.005429e-07	
19	9.500000e-01	9.022190e-07	
20	1.000000e+00	9.038243e-07	
21	1.050000e+00	9.053677e-07	
22	1.100000e+00	9.068565e-07	
23	1.150000e+00	9.082969e-07	
24	1.200000e+00	9.096938e-07	
25	1.250000e+00	9.110518e-07	
26	1.300000e+00	9.123745e-07	
27	1.350000e+00	9.136651e-07	
28	1.400000e+00	9.149265e-07	
29	1.450000e+00	9.161610e-07	
30	1.500000e+00	9.173709e-07	
31	1.550000e+00	9.185581e-07	
32	1.600000e+00	9.197244e-07	
33	1.650000e+00	9.208714e-07	
34	1.700000e+00	9.220005e-07	
35	1.750000e+00	9.231133e-07	
36	1.800000e+00	9.242111e-07	
37	1.850000e+00	9.252953e-07	
38	1.900000e+00	9.263674e-07	
39	1.950000e+00	9.274290e-07	
40	2.000000e+00	9.284816e-07	
41	2.050000e+00	9.295272e-07	
42	2.100000e+00	9.305677e-07	
43	2.150000e+00	9.316054e-07	
44	2.200000e+00	9.326427e-07	
45	2.250000e+00	9.336827e-07	
46	2.300000e+00	9.347283e-07	
47	2.350000e+00	9.357832e-07	
48	2.400000e+00	9.368513e-07	
49	2.450000e+00	9.379370e-07	
50	2.500000e+00	9.390452e-07	
51	2.550000e+00	9.401812e-07	
52	2.600000e+00	9.413508e-07	
53	2.650000e+00	9.425605e-07	
54	2.700000e+00	9.438172e-07	

Index   v-sweep         -i(vds)         
--------------------------------------------------------------------------------
55	2.750000e+00	9.451283e-07	
56	2.800000e+00	9.465020e-07	
57	2.850000e+00	9.479469e-07	
58	2.900000e+00	9.494722e-07	
59	2.950000e+00	9.510878e-07	
60	3.000000e+00	9.528042e-07	
61	3.050000e+00	9.546325e-07	
62	3.100000e+00	9.565844e-07	
63	3.150000e+00	9.586721e-07	
64	3.200000e+00	9.609087e-07	
65	3.250000e+00	9.633076e-07	
66	3.300000e+00	9.658831e-07	
67	0.000000e+00	5.373461e-27	
68	5.000000e-02	7.640386e-07	
69	1.000000e-01	1.464356e-06	
70	1.500000e-01	2.103506e-06	
71	2.000000e-01	2.682923e-06	
72	2.500000e-01	3.203759e-06	
73	3.000000e-01	3.667086e-06	
74	3.500000e-01	4.073953e-06	
75	4.000000e-01	4.425407e-06	
76	4.500000e-01	4.722527e-06	
77	5.000000e-01	4.966504e-06	
78	5.500000e-01	5.158851e-06	
79	6.000000e-01	5.302042e-06	
80	6.500000e-01	5.401149e-06	
81	7.000000e-01	5.465917e-06	
82	7.500000e-01	5.508810e-06	
83	8.000000e-01	5.539418e-06	
84	8.500000e-01	5.563012e-06	
85	9.000000e-01	5.582256e-06	
86	9.500000e-01	5.598576e-06	
87	1.000000e+00	5.612801e-06	
88	1.050000e+00	5.625453e-06	
89	1.100000e+00	5.636879e-06	
90	1.150000e+00	5.647325e-06	
91	1.200000e+00	5.656966e-06	
92	1.250000e+00	5.665938e-06	
93	1.300000e+00	5.674341e-06	
94	1.350000e+00	5.682258e-06	
95	1.400000e+00	5.689752e-06	
96	1.450000e+00	5.696876e-06	
97	1.500000e+00	5.703673e-06	
98	1.550000e+00	5.710180e-06	
99	1.600000e+00	5.716427e-06	
100	1.650000e+00	5.722440e-06	
101	1.700000e+00	5.728240e-06	
102	1.750000e+00	5.733848e-06	
103	1.800000e+00	5.739280e-06	
104	1.850000e+00	5.744551e-06	
105	1.900000e+00	5.749674e-06	
106	1.950000e+00	5.754660e-06	
107	2.000000e+00	5.759520e-06	
108	2.050000e+00	5.764264e-06	
109	2.100000e+00	5.768901e-06	
110	2.150000e+00	5.773440e-06	
111	2.200000e+00	5.777890e-06	
112	2.250000e+00	5.782259e-06	

Index   v-sweep         -i(vds)         
--------------------------------------------------------------------------------
113	2.300000e+00	5.786556e-06	
114	2.350000e+00	5.790792e-06	
115	2.400000e+00	5.794977e-06	
116	2.450000e+00	5.799122e-06	
117	2.500000e+00	5.803240e-06	
118	2.550000e+00	5.807347e-06	
119	2.600000e+00	5.811457e-06	
120	2.650000e+00	5.815589e-06	
121	2.700000e+00	5.819764e-06	
122	2.750000e+00	5.824005e-06	
123	2.800000e+00	5.828335e-06	
124	2.850000e+00	5.832784e-06	
125	2.900000e+00	5.837383e-06	
126	2.950000e+00	5.842164e-06	
127	3.000000e+00	5.847166e-06	
128	3.050000e+00	5.852429e-06	
129	3.100000e+00	5.857996e-06	
130	3.150000e+00	5.863914e-06	
131	3.200000e+00	5.870235e-06	
132	3.250000e+00	5.877012e-06	
133	3.300000e+00	5.884304e-06	
134	0.000000e+00	1.310269e-26	
135	5.000000e-02	1.198969e-06	
136	1.000000e-01	2.332721e-06	
137	1.500000e-01	3.403739e-06	
138	2.000000e-01	4.413395e-06	
139	2.500000e-01	5.362783e-06	
140	3.000000e-01	6.252911e-06	
141	3.500000e-01	7.084755e-06	
142	4.000000e-01	7.859265e-06	
143	4.500000e-01	8.577377e-06	
144	5.000000e-01	9.240003e-06	
145	5.500000e-01	9.848043e-06	
146	6.000000e-01	1.040238e-05	
147	6.500000e-01	1.090389e-05	
148	7.000000e-01	1.135342e-05	
149	7.500000e-01	1.175185e-05	
150	8.000000e-01	1.210005e-05	
151	8.500000e-01	1.239895e-05	
152	9.000000e-01	1.264965e-05	
153	9.500000e-01	1.285371e-05	
154	1.000000e+00	1.301389e-05	
155	1.050000e+00	1.313544e-05	
156	1.100000e+00	1.322645e-05	
157	1.150000e+00	1.329580e-05	
158	1.200000e+00	1.335054e-05	
159	1.250000e+00	1.339534e-05	
160	1.300000e+00	1.343318e-05	
161	1.350000e+00	1.346592e-05	
162	1.400000e+00	1.349480e-05	
163	1.450000e+00	1.352068e-05	
164	1.500000e+00	1.354415e-05	
165	1.550000e+00	1.356565e-05	
166	1.600000e+00	1.358551e-05	
167	1.650000e+00	1.360399e-05	
168	1.700000e+00	1.362129e-05	
169	1.750000e+00	1.363756e-05	
170	1.800000e+00	1.365295e-05	

Index   v-sweep         -i(vds)         
--------------------------------------------------------------------------------
171	1.850000e+00	1.366754e-05	
172	1.900000e+00	1.368144e-05	
173	1.950000e+00	1.369471e-05	
174	2.000000e+00	1.370743e-05	
175	2.050000e+00	1.371963e-05	
176	2.100000e+00	1.373138e-05	
177	2.150000e+00	1.374271e-05	
178	2.200000e+00	1.375365e-05	
179	2.250000e+00	1.376425e-05	
180	2.300000e+00	1.377452e-05	
181	2.350000e+00	1.378449e-05	
182	2.400000e+00	1.379418e-05	
183	2.450000e+00	1.380363e-05	
184	2.500000e+00	1.381284e-05	
185	2.550000e+00	1.382184e-05	
186	2.600000e+00	1.383065e-05	
187	2.650000e+00	1.383928e-05	
188	2.700000e+00	1.384777e-05	
189	2.750000e+00	1.385614e-05	
190	2.800000e+00	1.386441e-05	
191	2.850000e+00	1.387261e-05	
192	2.900000e+00	1.388078e-05	
193	2.950000e+00	1.388896e-05	
194	3.000000e+00	1.389718e-05	
195	3.050000e+00	1.390549e-05	
196	3.100000e+00	1.391395e-05	
197	3.150000e+00	1.392261e-05	
198	3.200000e+00	1.393154e-05	
199	3.250000e+00	1.394080e-05	
200	3.300000e+00	1.395049e-05	
201	0.000000e+00	2.369457e-26	
202	5.000000e-02	1.573789e-06	
203	1.000000e-01	3.082860e-06	
204	1.500000e-01	4.529607e-06	
205	2.000000e-01	5.915326e-06	
206	2.500000e-01	7.241035e-06	
207	3.000000e-01	8.507672e-06	
208	3.500000e-01	9.716143e-06	
209	4.000000e-01	1.086733e-05	
210	4.500000e-01	1.196211e-05	
211	5.000000e-01	1.300133e-05	
212	5.500000e-01	1.398582e-05	
213	6.000000e-01	1.491640e-05	
214	6.500000e-01	1.579388e-05	
215	7.000000e-01	1.661905e-05	
216	7.500000e-01	1.739268e-05	
217	8.000000e-01	1.811554e-05	
218	8.500000e-01	1.878836e-05	
219	9.000000e-01	1.941188e-05	
220	9.500000e-01	1.998681e-05	
221	1.000000e+00	2.051384e-05	
222	1.050000e+00	2.099367e-05	
223	1.100000e+00	2.142692e-05	
224	1.150000e+00	2.181424e-05	
225	1.200000e+00	2.215619e-05	
226	1.250000e+00	2.245332e-05	
227	1.300000e+00	2.270631e-05	
228	1.350000e+00	2.291638e-05	

Index   v-sweep         -i(vds)         
--------------------------------------------------------------------------------
229	1.400000e+00	2.308641e-05	
230	1.450000e+00	2.322188e-05	
231	1.500000e+00	2.333003e-05	
232	1.550000e+00	2.341787e-05	
233	1.600000e+00	2.349090e-05	
234	1.650000e+00	2.355303e-05	
235	1.700000e+00	2.360696e-05	
236	1.750000e+00	2.365458e-05	
237	1.800000e+00	2.369721e-05	
238	1.850000e+00	2.373582e-05	
239	1.900000e+00	2.377113e-05	
240	1.950000e+00	2.380368e-05	
241	2.000000e+00	2.383390e-05	
242	2.050000e+00	2.386212e-05	
243	2.100000e+00	2.388860e-05	
244	2.150000e+00	2.391358e-05	
245	2.200000e+00	2.393722e-05	
246	2.250000e+00	2.395969e-05	
247	2.300000e+00	2.398109e-05	
248	2.350000e+00	2.400155e-05	
249	2.400000e+00	2.402115e-05	
250	2.450000e+00	2.403997e-05	
251	2.500000e+00	2.405808e-05	
252	2.550000e+00	2.407554e-05	
253	2.600000e+00	2.409241e-05	
254	2.650000e+00	2.410873e-05	
255	2.700000e+00	2.412454e-05	
256	2.750000e+00	2.413989e-05	
257	2.800000e+00	2.415481e-05	
258	2.850000e+00	2.416934e-05	
259	2.900000e+00	2.418352e-05	
260	2.950000e+00	2.419737e-05	
261	3.000000e+00	2.421093e-05	
262	3.050000e+00	2.422425e-05	
263	3.100000e+00	2.423737e-05	
264	3.150000e+00	2.425033e-05	
265	3.200000e+00	2.426318e-05	
266	3.250000e+00	2.427599e-05	
267	3.300000e+00	2.428881e-05	
268	0.000000e+00	-9.65989e-27	
269	5.000000e-02	1.893470e-06	
270	1.000000e-01	3.723759e-06	
271	1.500000e-01	5.493164e-06	
272	2.000000e-01	7.202897e-06	
273	2.500000e-01	8.853897e-06	
274	3.000000e-01	1.044702e-05	
275	3.500000e-01	1.198310e-05	
276	4.000000e-01	1.346296e-05	
277	4.500000e-01	1.488737e-05	
278	5.000000e-01	1.625714e-05	
279	5.500000e-01	1.757303e-05	
280	6.000000e-01	1.883579e-05	
281	6.500000e-01	2.004616e-05	
282	7.000000e-01	2.120489e-05	
283	7.500000e-01	2.231268e-05	
284	8.000000e-01	2.337024e-05	
285	8.500000e-01	2.437826e-05	
286	9.000000e-01	2.533742e-05	

Index   v-sweep         -i(vds)         
--------------------------------------------------------------------------------
287	9.500000e-01	2.624839e-05	
288	1.000000e+00	2.711182e-05	
289	1.050000e+00	2.792835e-05	
290	1.100000e+00	2.869863e-05	
291	1.150000e+00	2.942325e-05	
292	1.200000e+00	3.010282e-05	
293	1.250000e+00	3.073791e-05	
294	1.300000e+00	3.132910e-05	
295	1.350000e+00	3.187689e-05	
296	1.400000e+00	3.238177e-05	
297	1.450000e+00	3.284414e-05	
298	1.500000e+00	3.326430e-05	
299	1.550000e+00	3.364236e-05	
300	1.600000e+00	3.397819e-05	
301	1.650000e+00	3.427151e-05	
302	1.700000e+00	3.452234e-05	
303	1.750000e+00	3.473218e-05	
304	1.800000e+00	3.490515e-05	
305	1.850000e+00	3.504744e-05	
306	1.900000e+00	3.516568e-05	
307	1.950000e+00	3.526555e-05	
308	2.000000e+00	3.535142e-05	
309	2.050000e+00	3.542645e-05	
310	2.100000e+00	3.549299e-05	
311	2.150000e+00	3.555271e-05	
312	2.200000e+00	3.560689e-05	
313	2.250000e+00	3.565648e-05	
314	2.300000e+00	3.570221e-05	
315	2.350000e+00	3.574467e-05	
316	2.400000e+00	3.578430e-05	
317	2.450000e+00	3.582149e-05	
318	2.500000e+00	3.585654e-05	
319	2.550000e+00	3.588969e-05	
320	2.600000e+00	3.592116e-05	
321	2.650000e+00	3.595112e-05	
322	2.700000e+00	3.597973e-05	
323	2.750000e+00	3.600712e-05	
324	2.800000e+00	3.603339e-05	
325	2.850000e+00	3.605865e-05	
326	2.900000e+00	3.608298e-05	
327	2.950000e+00	3.610646e-05	
328	3.000000e+00	3.612915e-05	
329	3.050000e+00	3.615112e-05	
330	3.100000e+00	3.617243e-05	
331	3.150000e+00	3.619312e-05	
332	3.200000e+00	3.621326e-05	
333	3.250000e+00	3.623289e-05	
334	3.300000e+00	3.625206e-05	
335	0.000000e+00	-3.18323e-26	
336	5.000000e-02	2.163756e-06	
337	1.000000e-01	4.266490e-06	
338	1.500000e-01	6.310406e-06	
339	2.000000e-01	8.296632e-06	
340	2.500000e-01	1.022602e-05	
341	3.000000e-01	1.209936e-05	
342	3.500000e-01	1.391741e-05	
343	4.000000e-01	1.568089e-05	
344	4.500000e-01	1.739053e-05	

Index   v-sweep         -i(vds)         
--------------------------------------------------------------------------------
345	5.000000e-01	1.904705e-05	
346	5.500000e-01	2.065116e-05	
347	6.000000e-01	2.220353e-05	
348	6.500000e-01	2.370485e-05	
349	7.000000e-01	2.515578e-05	
350	7.500000e-01	2.655699e-05	
351	8.000000e-01	2.790912e-05	
352	8.500000e-01	2.921280e-05	
353	9.000000e-01	3.046867e-05	
354	9.500000e-01	3.167733e-05	
355	1.000000e+00	3.283939e-05	
356	1.050000e+00	3.395545e-05	
357	1.100000e+00	3.502609e-05	
358	1.150000e+00	3.605189e-05	
359	1.200000e+00	3.703341e-05	
360	1.250000e+00	3.797120e-05	
361	1.300000e+00	3.886582e-05	
362	1.350000e+00	3.971780e-05	
363	1.400000e+00	4.052765e-05	
364	1.450000e+00	4.129588e-05	
365	1.500000e+00	4.202298e-05	
366	1.550000e+00	4.270942e-05	
367	1.600000e+00	4.335565e-05	
368	1.650000e+00	4.396206e-05	
369	1.700000e+00	4.452901e-05	
370	1.750000e+00	4.505674e-05	
371	1.800000e+00	4.554538e-05	
372	1.850000e+00	4.599483e-05	
373	1.900000e+00	4.640463e-05	
374	1.950000e+00	4.677392e-05	
375	2.000000e+00	4.710151e-05	
376	2.050000e+00	4.738650e-05	
377	2.100000e+00	4.762967e-05	
378	2.150000e+00	4.783442e-05	
379	2.200000e+00	4.800637e-05	
380	2.250000e+00	4.815176e-05	
381	2.300000e+00	4.827622e-05	
382	2.350000e+00	4.838427e-05	
383	2.400000e+00	4.847939e-05	
384	2.450000e+00	4.856415e-05	
385	2.500000e+00	4.864052e-05	
386	2.550000e+00	4.870998e-05	
387	2.600000e+00	4.877368e-05	
388	2.650000e+00	4.883250e-05	
389	2.700000e+00	4.888715e-05	
390	2.750000e+00	4.893821e-05	
391	2.800000e+00	4.898614e-05	
392	2.850000e+00	4.903131e-05	
393	2.900000e+00	4.907404e-05	
394	2.950000e+00	4.911460e-05	
395	3.000000e+00	4.915321e-05	
396	3.050000e+00	4.919007e-05	
397	3.100000e+00	4.922534e-05	
398	3.150000e+00	4.925917e-05	
399	3.200000e+00	4.929167e-05	
400	3.250000e+00	4.932297e-05	
401	3.300000e+00	4.935316e-05	
Note: No ".plot", ".print", or ".fourier" lines; no simulations run
