
Note: Compatibility modes selected: hs

Warning: m=xx on .subckt line will override multiplier m hierarchy!


Circuit: ***************************

Doing analysis at TEMP = 25.000000 and TNOM = 25.000000


No. of Data Rows : 402
                          ***************************
                          DC transfer characteristic  Mon Jan  9 13:58:11  2023
--------------------------------------------------------------------------------
Index   v-sweep         -i(vds)         
--------------------------------------------------------------------------------
0	0.000000e+00	-1.09600e-33	
1	5.000000e-02	1.162070e-06	
2	1.000000e-01	1.828437e-06	
3	1.500000e-01	2.110888e-06	
4	2.000000e-01	2.209875e-06	
5	2.500000e-01	2.256153e-06	
6	3.000000e-01	2.286479e-06	
7	3.500000e-01	2.310095e-06	
8	4.000000e-01	2.330101e-06	
9	4.500000e-01	2.347847e-06	
10	5.000000e-01	2.364042e-06	
11	5.500000e-01	2.379099e-06	
12	6.000000e-01	2.393288e-06	
13	6.500000e-01	2.406789e-06	
14	7.000000e-01	2.419733e-06	
15	7.500000e-01	2.432217e-06	
16	8.000000e-01	2.444313e-06	
17	8.500000e-01	2.456080e-06	
18	9.000000e-01	2.467563e-06	
19	9.500000e-01	2.478799e-06	
20	1.000000e+00	2.489819e-06	
21	1.050000e+00	2.500646e-06	
22	1.100000e+00	2.511304e-06	
23	1.150000e+00	2.521809e-06	
24	1.200000e+00	2.532177e-06	
25	1.250000e+00	2.542422e-06	
26	1.300000e+00	2.552555e-06	
27	1.350000e+00	2.562586e-06	
28	1.400000e+00	2.572524e-06	
29	1.450000e+00	2.582377e-06	
30	1.500000e+00	2.592153e-06	
31	1.550000e+00	2.601858e-06	
32	1.600000e+00	2.611498e-06	
33	1.650000e+00	2.621080e-06	
34	1.700000e+00	2.630608e-06	
35	1.750000e+00	2.640089e-06	
36	1.800000e+00	2.649529e-06	
37	1.850000e+00	2.658933e-06	
38	1.900000e+00	2.668309e-06	
39	1.950000e+00	2.677662e-06	
40	2.000000e+00	2.687002e-06	
41	2.050000e+00	2.696337e-06	
42	2.100000e+00	2.705675e-06	
43	2.150000e+00	2.715028e-06	
44	2.200000e+00	2.724407e-06	
45	2.250000e+00	2.733827e-06	
46	2.300000e+00	2.743300e-06	
47	2.350000e+00	2.752844e-06	
48	2.400000e+00	2.762476e-06	
49	2.450000e+00	2.772217e-06	
50	2.500000e+00	2.782087e-06	
51	2.550000e+00	2.792112e-06	
52	2.600000e+00	2.802317e-06	
53	2.650000e+00	2.812731e-06	
54	2.700000e+00	2.823384e-06	

Index   v-sweep         -i(vds)         
--------------------------------------------------------------------------------
55	2.750000e+00	2.834310e-06	
56	2.800000e+00	2.845546e-06	
57	2.850000e+00	2.857129e-06	
58	2.900000e+00	2.869101e-06	
59	2.950000e+00	2.881507e-06	
60	3.000000e+00	2.894395e-06	
61	3.050000e+00	2.907815e-06	
62	3.100000e+00	2.921821e-06	
63	3.150000e+00	2.936470e-06	
64	3.200000e+00	2.951823e-06	
65	3.250000e+00	2.967942e-06	
66	3.300000e+00	2.984896e-06	
67	0.000000e+00	3.860271e-32	
68	5.000000e-02	6.923543e-06	
69	1.000000e-01	1.308257e-05	
70	1.500000e-01	1.850638e-05	
71	2.000000e-01	2.322311e-05	
72	2.500000e-01	2.726002e-05	
73	3.000000e-01	3.064395e-05	
74	3.500000e-01	3.340248e-05	
75	4.000000e-01	3.556709e-05	
76	4.500000e-01	3.718163e-05	
77	5.000000e-01	3.831957e-05	
78	5.500000e-01	3.909452e-05	
79	6.000000e-01	3.963132e-05	
80	6.500000e-01	4.002416e-05	
81	7.000000e-01	4.032933e-05	
82	7.500000e-01	4.057833e-05	
83	8.000000e-01	4.078916e-05	
84	8.500000e-01	4.097270e-05	
85	9.000000e-01	4.113588e-05	
86	9.500000e-01	4.128334e-05	
87	1.000000e+00	4.141834e-05	
88	1.050000e+00	4.154323e-05	
89	1.100000e+00	4.165975e-05	
90	1.150000e+00	4.176924e-05	
91	1.200000e+00	4.187274e-05	
92	1.250000e+00	4.197109e-05	
93	1.300000e+00	4.206495e-05	
94	1.350000e+00	4.215487e-05	
95	1.400000e+00	4.224131e-05	
96	1.450000e+00	4.232464e-05	
97	1.500000e+00	4.240519e-05	
98	1.550000e+00	4.248323e-05	
99	1.600000e+00	4.255900e-05	
100	1.650000e+00	4.263270e-05	
101	1.700000e+00	4.270452e-05	
102	1.750000e+00	4.277461e-05	
103	1.800000e+00	4.284311e-05	
104	1.850000e+00	4.291015e-05	
105	1.900000e+00	4.297584e-05	
106	1.950000e+00	4.304030e-05	
107	2.000000e+00	4.310362e-05	
108	2.050000e+00	4.316590e-05	
109	2.100000e+00	4.322724e-05	
110	2.150000e+00	4.328773e-05	
111	2.200000e+00	4.334748e-05	
112	2.250000e+00	4.340659e-05	

Index   v-sweep         -i(vds)         
--------------------------------------------------------------------------------
113	2.300000e+00	4.346517e-05	
114	2.350000e+00	4.352335e-05	
115	2.400000e+00	4.358127e-05	
116	2.450000e+00	4.363907e-05	
117	2.500000e+00	4.369692e-05	
118	2.550000e+00	4.375500e-05	
119	2.600000e+00	4.381352e-05	
120	2.650000e+00	4.387270e-05	
121	2.700000e+00	4.393278e-05	
122	2.750000e+00	4.399405e-05	
123	2.800000e+00	4.405679e-05	
124	2.850000e+00	4.412135e-05	
125	2.900000e+00	4.418808e-05	
126	2.950000e+00	4.425737e-05	
127	3.000000e+00	4.432964e-05	
128	3.050000e+00	4.440535e-05	
129	3.100000e+00	4.448501e-05	
130	3.150000e+00	4.456913e-05	
131	3.200000e+00	4.465828e-05	
132	3.250000e+00	4.475308e-05	
133	3.300000e+00	4.485418e-05	
134	0.000000e+00	9.540819e-31	
135	5.000000e-02	1.147695e-05	
136	1.000000e-01	2.216493e-05	
137	1.500000e-01	3.208913e-05	
138	2.000000e-01	4.127381e-05	
139	2.500000e-01	4.974230e-05	
140	3.000000e-01	5.751704e-05	
141	3.500000e-01	6.461961e-05	
142	4.000000e-01	7.107070e-05	
143	4.500000e-01	7.689015e-05	
144	5.000000e-01	8.209685e-05	
145	5.500000e-01	8.670866e-05	
146	6.000000e-01	9.074227e-05	
147	6.500000e-01	9.421313e-05	
148	7.000000e-01	9.713628e-05	
149	7.500000e-01	9.953048e-05	
150	8.000000e-01	1.014295e-04	
151	8.500000e-01	1.028965e-04	
152	9.000000e-01	1.040215e-04	
153	9.500000e-01	1.048973e-04	
154	1.000000e+00	1.055979e-04	
155	1.050000e+00	1.061753e-04	
156	1.100000e+00	1.066641e-04	
157	1.150000e+00	1.070874e-04	
158	1.200000e+00	1.074608e-04	
159	1.250000e+00	1.077952e-04	
160	1.300000e+00	1.080984e-04	
161	1.350000e+00	1.083762e-04	
162	1.400000e+00	1.086330e-04	
163	1.450000e+00	1.088721e-04	
164	1.500000e+00	1.090962e-04	
165	1.550000e+00	1.093072e-04	
166	1.600000e+00	1.095070e-04	
167	1.650000e+00	1.096968e-04	
168	1.700000e+00	1.098779e-04	
169	1.750000e+00	1.100512e-04	
170	1.800000e+00	1.102176e-04	

Index   v-sweep         -i(vds)         
--------------------------------------------------------------------------------
171	1.850000e+00	1.103776e-04	
172	1.900000e+00	1.105320e-04	
173	1.950000e+00	1.106812e-04	
174	2.000000e+00	1.108257e-04	
175	2.050000e+00	1.109658e-04	
176	2.100000e+00	1.111021e-04	
177	2.150000e+00	1.112346e-04	
178	2.200000e+00	1.113638e-04	
179	2.250000e+00	1.114900e-04	
180	2.300000e+00	1.116133e-04	
181	2.350000e+00	1.117340e-04	
182	2.400000e+00	1.118524e-04	
183	2.450000e+00	1.119687e-04	
184	2.500000e+00	1.120832e-04	
185	2.550000e+00	1.121961e-04	
186	2.600000e+00	1.123077e-04	
187	2.650000e+00	1.124183e-04	
188	2.700000e+00	1.125283e-04	
189	2.750000e+00	1.126381e-04	
190	2.800000e+00	1.127481e-04	
191	2.850000e+00	1.128586e-04	
192	2.900000e+00	1.129704e-04	
193	2.950000e+00	1.130838e-04	
194	3.000000e+00	1.131996e-04	
195	3.050000e+00	1.133185e-04	
196	3.100000e+00	1.134412e-04	
197	3.150000e+00	1.135685e-04	
198	3.200000e+00	1.137014e-04	
199	3.250000e+00	1.138408e-04	
200	3.300000e+00	1.139879e-04	
201	0.000000e+00	-4.98450e-31	
202	5.000000e-02	1.491196e-05	
203	1.000000e-01	2.905580e-05	
204	1.500000e-01	4.245260e-05	
205	2.000000e-01	5.512280e-05	
206	2.500000e-01	6.708619e-05	
207	3.000000e-01	7.836191e-05	
208	3.500000e-01	8.896846e-05	
209	4.000000e-01	9.892377e-05	
210	4.500000e-01	1.082451e-04	
211	5.000000e-01	1.169492e-04	
212	5.500000e-01	1.250521e-04	
213	6.000000e-01	1.325692e-04	
214	6.500000e-01	1.395150e-04	
215	7.000000e-01	1.459034e-04	
216	7.500000e-01	1.517470e-04	
217	8.000000e-01	1.570569e-04	
218	8.500000e-01	1.618419e-04	
219	9.000000e-01	1.661077e-04	
220	9.500000e-01	1.698564e-04	
221	1.000000e+00	1.730875e-04	
222	1.050000e+00	1.758058e-04	
223	1.100000e+00	1.780361e-04	
224	1.150000e+00	1.798346e-04	
225	1.200000e+00	1.812809e-04	
226	1.250000e+00	1.824567e-04	
227	1.300000e+00	1.834303e-04	
228	1.350000e+00	1.842533e-04	

Index   v-sweep         -i(vds)         
--------------------------------------------------------------------------------
229	1.400000e+00	1.849623e-04	
230	1.450000e+00	1.855837e-04	
231	1.500000e+00	1.861364e-04	
232	1.550000e+00	1.866340e-04	
233	1.600000e+00	1.870868e-04	
234	1.650000e+00	1.875025e-04	
235	1.700000e+00	1.878871e-04	
236	1.750000e+00	1.882452e-04	
237	1.800000e+00	1.885806e-04	
238	1.850000e+00	1.888963e-04	
239	1.900000e+00	1.891947e-04	
240	1.950000e+00	1.894780e-04	
241	2.000000e+00	1.897478e-04	
242	2.050000e+00	1.900055e-04	
243	2.100000e+00	1.902524e-04	
244	2.150000e+00	1.904895e-04	
245	2.200000e+00	1.907177e-04	
246	2.250000e+00	1.909379e-04	
247	2.300000e+00	1.911507e-04	
248	2.350000e+00	1.913567e-04	
249	2.400000e+00	1.915565e-04	
250	2.450000e+00	1.917506e-04	
251	2.500000e+00	1.919394e-04	
252	2.550000e+00	1.921234e-04	
253	2.600000e+00	1.923030e-04	
254	2.650000e+00	1.924786e-04	
255	2.700000e+00	1.926505e-04	
256	2.750000e+00	1.928194e-04	
257	2.800000e+00	1.929855e-04	
258	2.850000e+00	1.931493e-04	
259	2.900000e+00	1.933114e-04	
260	2.950000e+00	1.934723e-04	
261	3.000000e+00	1.936326e-04	
262	3.050000e+00	1.937931e-04	
263	3.100000e+00	1.939545e-04	
264	3.150000e+00	1.941175e-04	
265	3.200000e+00	1.942833e-04	
266	3.250000e+00	1.944527e-04	
267	3.300000e+00	1.946270e-04	
268	0.000000e+00	2.005349e-30	
269	5.000000e-02	1.750861e-05	
270	1.000000e-01	3.428783e-05	
271	1.500000e-01	5.035515e-05	
272	2.000000e-01	6.572759e-05	
273	2.500000e-01	8.042173e-05	
274	3.000000e-01	9.445366e-05	
275	3.500000e-01	1.078390e-04	
276	4.000000e-01	1.205931e-04	
277	4.500000e-01	1.327307e-04	
278	5.000000e-01	1.442661e-04	
279	5.500000e-01	1.552133e-04	
280	6.000000e-01	1.655858e-04	
281	6.500000e-01	1.753967e-04	
282	7.000000e-01	1.846586e-04	
283	7.500000e-01	1.933838e-04	
284	8.000000e-01	2.015837e-04	
285	8.500000e-01	2.092693e-04	
286	9.000000e-01	2.164509e-04	

Index   v-sweep         -i(vds)         
--------------------------------------------------------------------------------
287	9.500000e-01	2.231375e-04	
288	1.000000e+00	2.293367e-04	
289	1.050000e+00	2.350542e-04	
290	1.100000e+00	2.402922e-04	
291	1.150000e+00	2.450487e-04	
292	1.200000e+00	2.493162e-04	
293	1.250000e+00	2.530831e-04	
294	1.300000e+00	2.563404e-04	
295	1.350000e+00	2.590960e-04	
296	1.400000e+00	2.613873e-04	
297	1.450000e+00	2.632791e-04	
298	1.500000e+00	2.648474e-04	
299	1.550000e+00	2.661628e-04	
300	1.600000e+00	2.672831e-04	
301	1.650000e+00	2.682521e-04	
302	1.700000e+00	2.691028e-04	
303	1.750000e+00	2.698594e-04	
304	1.800000e+00	2.705401e-04	
305	1.850000e+00	2.711585e-04	
306	1.900000e+00	2.717253e-04	
307	1.950000e+00	2.722485e-04	
308	2.000000e+00	2.727347e-04	
309	2.050000e+00	2.731891e-04	
310	2.100000e+00	2.736158e-04	
311	2.150000e+00	2.740182e-04	
312	2.200000e+00	2.743994e-04	
313	2.250000e+00	2.747615e-04	
314	2.300000e+00	2.751067e-04	
315	2.350000e+00	2.754367e-04	
316	2.400000e+00	2.757530e-04	
317	2.450000e+00	2.760568e-04	
318	2.500000e+00	2.763492e-04	
319	2.550000e+00	2.766313e-04	
320	2.600000e+00	2.769038e-04	
321	2.650000e+00	2.771676e-04	
322	2.700000e+00	2.774234e-04	
323	2.750000e+00	2.776719e-04	
324	2.800000e+00	2.779135e-04	
325	2.850000e+00	2.781490e-04	
326	2.900000e+00	2.783788e-04	
327	2.950000e+00	2.786037e-04	
328	3.000000e+00	2.788241e-04	
329	3.050000e+00	2.790407e-04	
330	3.100000e+00	2.792541e-04	
331	3.150000e+00	2.794652e-04	
332	3.200000e+00	2.796746e-04	
333	3.250000e+00	2.798833e-04	
334	3.300000e+00	2.800923e-04	
335	0.000000e+00	2.513087e-30	
336	5.000000e-02	1.947299e-05	
337	1.000000e-01	3.826212e-05	
338	1.500000e-01	5.638190e-05	
339	2.000000e-01	7.384647e-05	
340	2.500000e-01	9.066966e-05	
341	3.000000e-01	1.068650e-04	
342	3.500000e-01	1.224456e-04	
343	4.000000e-01	1.374243e-04	
344	4.500000e-01	1.518137e-04	

Index   v-sweep         -i(vds)         
--------------------------------------------------------------------------------
345	5.000000e-01	1.656260e-04	
346	5.500000e-01	1.788732e-04	
347	6.000000e-01	1.915669e-04	
348	6.500000e-01	2.037184e-04	
349	7.000000e-01	2.153387e-04	
350	7.500000e-01	2.264386e-04	
351	8.000000e-01	2.370285e-04	
352	8.500000e-01	2.471185e-04	
353	9.000000e-01	2.567183e-04	
354	9.500000e-01	2.658372e-04	
355	1.000000e+00	2.744841e-04	
356	1.050000e+00	2.826674e-04	
357	1.100000e+00	2.903947e-04	
358	1.150000e+00	2.976727e-04	
359	1.200000e+00	3.045067e-04	
360	1.250000e+00	3.109003e-04	
361	1.300000e+00	3.168542e-04	
362	1.350000e+00	3.223652e-04	
363	1.400000e+00	3.274247e-04	
364	1.450000e+00	3.320180e-04	
365	1.500000e+00	3.361260e-04	
366	1.550000e+00	3.397330e-04	
367	1.600000e+00	3.428395e-04	
368	1.650000e+00	3.454740e-04	
369	1.700000e+00	3.476915e-04	
370	1.750000e+00	3.495608e-04	
371	1.800000e+00	3.511493e-04	
372	1.850000e+00	3.525153e-04	
373	1.900000e+00	3.537049e-04	
374	1.950000e+00	3.547541e-04	
375	2.000000e+00	3.556901e-04	
376	2.050000e+00	3.565339e-04	
377	2.100000e+00	3.573013e-04	
378	2.150000e+00	3.580050e-04	
379	2.200000e+00	3.586548e-04	
380	2.250000e+00	3.592585e-04	
381	2.300000e+00	3.598223e-04	
382	2.350000e+00	3.603516e-04	
383	2.400000e+00	3.608504e-04	
384	2.450000e+00	3.613224e-04	
385	2.500000e+00	3.617706e-04	
386	2.550000e+00	3.621973e-04	
387	2.600000e+00	3.626049e-04	
388	2.650000e+00	3.629951e-04	
389	2.700000e+00	3.633695e-04	
390	2.750000e+00	3.637296e-04	
391	2.800000e+00	3.640765e-04	
392	2.850000e+00	3.644114e-04	
393	2.900000e+00	3.647353e-04	
394	2.950000e+00	3.650489e-04	
395	3.000000e+00	3.653533e-04	
396	3.050000e+00	3.656490e-04	
397	3.100000e+00	3.659370e-04	
398	3.150000e+00	3.662179e-04	
399	3.200000e+00	3.664924e-04	
400	3.250000e+00	3.667615e-04	
401	3.300000e+00	3.670257e-04	
Note: No ".plot", ".print", or ".fourier" lines; no simulations run
