
Note: Compatibility modes selected: hs

Warning: m=xx on .subckt line will override multiplier m hierarchy!


Circuit: ***************************

Doing analysis at TEMP = -40.000000 and TNOM = -40.000000


No. of Data Rows : 402
                          ***************************
                          DC transfer characteristic  Mon Jan  9 13:58:11  2023
--------------------------------------------------------------------------------
Index   v-sweep         -i(vds)         
--------------------------------------------------------------------------------
0	0.000000e+00	3.697868e-38	
1	5.000000e-02	3.436271e-06	
2	1.000000e-01	4.427514e-06	
3	1.500000e-01	4.654321e-06	
4	2.000000e-01	4.751340e-06	
5	2.500000e-01	4.816239e-06	
6	3.000000e-01	4.868526e-06	
7	3.500000e-01	4.914331e-06	
8	4.000000e-01	4.956234e-06	
9	4.500000e-01	4.995544e-06	
10	5.000000e-01	5.033011e-06	
11	5.500000e-01	5.069105e-06	
12	6.000000e-01	5.104137e-06	
13	6.500000e-01	5.138329e-06	
14	7.000000e-01	5.171839e-06	
15	7.500000e-01	5.204788e-06	
16	8.000000e-01	5.237268e-06	
17	8.500000e-01	5.269351e-06	
18	9.000000e-01	5.301097e-06	
19	9.500000e-01	5.332552e-06	
20	1.000000e+00	5.363756e-06	
21	1.050000e+00	5.394740e-06	
22	1.100000e+00	5.425532e-06	
23	1.150000e+00	5.456157e-06	
24	1.200000e+00	5.486633e-06	
25	1.250000e+00	5.516978e-06	
26	1.300000e+00	5.547208e-06	
27	1.350000e+00	5.577335e-06	
28	1.400000e+00	5.607371e-06	
29	1.450000e+00	5.637328e-06	
30	1.500000e+00	5.667216e-06	
31	1.550000e+00	5.697043e-06	
32	1.600000e+00	5.726818e-06	
33	1.650000e+00	5.756552e-06	
34	1.700000e+00	5.786252e-06	
35	1.750000e+00	5.815929e-06	
36	1.800000e+00	5.845593e-06	
37	1.850000e+00	5.875255e-06	
38	1.900000e+00	5.904927e-06	
39	1.950000e+00	5.934625e-06	
40	2.000000e+00	5.964363e-06	
41	2.050000e+00	5.994160e-06	
42	2.100000e+00	6.024037e-06	
43	2.150000e+00	6.054017e-06	
44	2.200000e+00	6.084127e-06	
45	2.250000e+00	6.114396e-06	
46	2.300000e+00	6.144857e-06	
47	2.350000e+00	6.175549e-06	
48	2.400000e+00	6.206512e-06	
49	2.450000e+00	6.237794e-06	
50	2.500000e+00	6.269446e-06	
51	2.550000e+00	6.301524e-06	
52	2.600000e+00	6.334090e-06	
53	2.650000e+00	6.367211e-06	
54	2.700000e+00	6.400963e-06	

Index   v-sweep         -i(vds)         
--------------------------------------------------------------------------------
55	2.750000e+00	6.435425e-06	
56	2.800000e+00	6.470684e-06	
57	2.850000e+00	6.506835e-06	
58	2.900000e+00	6.543977e-06	
59	2.950000e+00	6.582220e-06	
60	3.000000e+00	6.621681e-06	
61	3.050000e+00	6.662482e-06	
62	3.100000e+00	6.704758e-06	
63	3.150000e+00	6.748647e-06	
64	3.200000e+00	6.794300e-06	
65	3.250000e+00	6.841874e-06	
66	3.300000e+00	6.891537e-06	
67	0.000000e+00	-4.34839e-20	
68	5.000000e-02	4.757337e-05	
69	1.000000e-01	8.864248e-05	
70	1.500000e-01	1.235609e-04	
71	2.000000e-01	1.526578e-04	
72	2.500000e-01	1.762394e-04	
73	3.000000e-01	1.945976e-04	
74	3.500000e-01	2.080548e-04	
75	4.000000e-01	2.171358e-04	
76	4.500000e-01	2.228244e-04	
77	5.000000e-01	2.263701e-04	
78	5.500000e-01	2.287297e-04	
79	6.000000e-01	2.304358e-04	
80	6.500000e-01	2.317585e-04	
81	7.000000e-01	2.328393e-04	
82	7.500000e-01	2.337571e-04	
83	8.000000e-01	2.345591e-04	
84	8.500000e-01	2.352755e-04	
85	9.000000e-01	2.359262e-04	
86	9.500000e-01	2.365252e-04	
87	1.000000e+00	2.370824e-04	
88	1.050000e+00	2.376054e-04	
89	1.100000e+00	2.380998e-04	
90	1.150000e+00	2.385700e-04	
91	1.200000e+00	2.390194e-04	
92	1.250000e+00	2.394508e-04	
93	1.300000e+00	2.398665e-04	
94	1.350000e+00	2.402684e-04	
95	1.400000e+00	2.406580e-04	
96	1.450000e+00	2.410367e-04	
97	1.500000e+00	2.414055e-04	
98	1.550000e+00	2.417654e-04	
99	1.600000e+00	2.421173e-04	
100	1.650000e+00	2.424619e-04	
101	1.700000e+00	2.427998e-04	
102	1.750000e+00	2.431315e-04	
103	1.800000e+00	2.434577e-04	
104	1.850000e+00	2.437788e-04	
105	1.900000e+00	2.440951e-04	
106	1.950000e+00	2.444073e-04	
107	2.000000e+00	2.447156e-04	
108	2.050000e+00	2.450205e-04	
109	2.100000e+00	2.453225e-04	
110	2.150000e+00	2.456221e-04	
111	2.200000e+00	2.459196e-04	
112	2.250000e+00	2.462159e-04	

Index   v-sweep         -i(vds)         
--------------------------------------------------------------------------------
113	2.300000e+00	2.465113e-04	
114	2.350000e+00	2.468067e-04	
115	2.400000e+00	2.471028e-04	
116	2.450000e+00	2.474006e-04	
117	2.500000e+00	2.477009e-04	
118	2.550000e+00	2.480049e-04	
119	2.600000e+00	2.483139e-04	
120	2.650000e+00	2.486291e-04	
121	2.700000e+00	2.489521e-04	
122	2.750000e+00	2.492845e-04	
123	2.800000e+00	2.496282e-04	
124	2.850000e+00	2.499852e-04	
125	2.900000e+00	2.503576e-04	
126	2.950000e+00	2.507478e-04	
127	3.000000e+00	2.511584e-04	
128	3.050000e+00	2.515922e-04	
129	3.100000e+00	2.520521e-04	
130	3.150000e+00	2.525414e-04	
131	3.200000e+00	2.530635e-04	
132	3.250000e+00	2.536221e-04	
133	3.300000e+00	2.542211e-04	
134	0.000000e+00	-4.65662e-21	
135	5.000000e-02	7.991828e-05	
136	1.000000e-01	1.533817e-04	
137	1.500000e-01	2.206637e-04	
138	2.000000e-01	2.820233e-04	
139	2.500000e-01	3.377052e-04	
140	3.000000e-01	3.879391e-04	
141	3.500000e-01	4.329387e-04	
142	4.000000e-01	4.728981e-04	
143	4.500000e-01	5.079868e-04	
144	5.000000e-01	5.383391e-04	
145	5.500000e-01	5.640419e-04	
146	6.000000e-01	5.851341e-04	
147	6.500000e-01	6.016814e-04	
148	7.000000e-01	6.139947e-04	
149	7.500000e-01	6.228171e-04	
150	8.000000e-01	6.291292e-04	
151	8.500000e-01	6.337815e-04	
152	9.000000e-01	6.373562e-04	
153	9.500000e-01	6.402158e-04	
154	1.000000e+00	6.425835e-04	
155	1.050000e+00	6.445997e-04	
156	1.100000e+00	6.463557e-04	
157	1.150000e+00	6.479134e-04	
158	1.200000e+00	6.493158e-04	
159	1.250000e+00	6.505940e-04	
160	1.300000e+00	6.517709e-04	
161	1.350000e+00	6.528638e-04	
162	1.400000e+00	6.538861e-04	
163	1.450000e+00	6.548482e-04	
164	1.500000e+00	6.557587e-04	
165	1.550000e+00	6.566243e-04	
166	1.600000e+00	6.574506e-04	
167	1.650000e+00	6.582421e-04	
168	1.700000e+00	6.590027e-04	
169	1.750000e+00	6.597358e-04	
170	1.800000e+00	6.604441e-04	

Index   v-sweep         -i(vds)         
--------------------------------------------------------------------------------
171	1.850000e+00	6.611301e-04	
172	1.900000e+00	6.617957e-04	
173	1.950000e+00	6.624428e-04	
174	2.000000e+00	6.630731e-04	
175	2.050000e+00	6.636879e-04	
176	2.100000e+00	6.642887e-04	
177	2.150000e+00	6.648766e-04	
178	2.200000e+00	6.654529e-04	
179	2.250000e+00	6.660186e-04	
180	2.300000e+00	6.665749e-04	
181	2.350000e+00	6.671230e-04	
182	2.400000e+00	6.676641e-04	
183	2.450000e+00	6.681996e-04	
184	2.500000e+00	6.687309e-04	
185	2.550000e+00	6.692597e-04	
186	2.600000e+00	6.697876e-04	
187	2.650000e+00	6.703167e-04	
188	2.700000e+00	6.708493e-04	
189	2.750000e+00	6.713879e-04	
190	2.800000e+00	6.719351e-04	
191	2.850000e+00	6.724943e-04	
192	2.900000e+00	6.730689e-04	
193	2.950000e+00	6.736626e-04	
194	3.000000e+00	6.742799e-04	
195	3.050000e+00	6.749253e-04	
196	3.100000e+00	6.756040e-04	
197	3.150000e+00	6.763216e-04	
198	3.200000e+00	6.770842e-04	
199	3.250000e+00	6.778985e-04	
200	3.300000e+00	6.787715e-04	
201	0.000000e+00	9.194258e-20	
202	5.000000e-02	1.010866e-04	
203	1.000000e-01	1.962158e-04	
204	1.500000e-01	2.855930e-04	
205	2.000000e-01	3.694153e-04	
206	2.500000e-01	4.478716e-04	
207	3.000000e-01	5.211431e-04	
208	3.500000e-01	5.894026e-04	
209	4.000000e-01	6.528144e-04	
210	4.500000e-01	7.115339e-04	
211	5.000000e-01	7.657058e-04	
212	5.500000e-01	8.154626e-04	
213	6.000000e-01	8.609204e-04	
214	6.500000e-01	9.021727e-04	
215	7.000000e-01	9.392792e-04	
216	7.500000e-01	9.722505e-04	
217	8.000000e-01	1.001030e-03	
218	8.500000e-01	1.025498e-03	
219	9.000000e-01	1.045557e-03	
220	9.500000e-01	1.061338e-03	
221	1.000000e+00	1.073368e-03	
222	1.050000e+00	1.082460e-03	
223	1.100000e+00	1.089429e-03	
224	1.150000e+00	1.094912e-03	
225	1.200000e+00	1.099352e-03	
226	1.250000e+00	1.103047e-03	
227	1.300000e+00	1.106195e-03	
228	1.350000e+00	1.108930e-03	

Index   v-sweep         -i(vds)         
--------------------------------------------------------------------------------
229	1.400000e+00	1.111347e-03	
230	1.450000e+00	1.113512e-03	
231	1.500000e+00	1.115476e-03	
232	1.550000e+00	1.117273e-03	
233	1.600000e+00	1.118932e-03	
234	1.650000e+00	1.120476e-03	
235	1.700000e+00	1.121920e-03	
236	1.750000e+00	1.123279e-03	
237	1.800000e+00	1.124564e-03	
238	1.850000e+00	1.125785e-03	
239	1.900000e+00	1.126947e-03	
240	1.950000e+00	1.128060e-03	
241	2.000000e+00	1.129126e-03	
242	2.050000e+00	1.130152e-03	
243	2.100000e+00	1.131141e-03	
244	2.150000e+00	1.132096e-03	
245	2.200000e+00	1.133021e-03	
246	2.250000e+00	1.133918e-03	
247	2.300000e+00	1.134790e-03	
248	2.350000e+00	1.135639e-03	
249	2.400000e+00	1.136467e-03	
250	2.450000e+00	1.137275e-03	
251	2.500000e+00	1.138066e-03	
252	2.550000e+00	1.138843e-03	
253	2.600000e+00	1.139605e-03	
254	2.650000e+00	1.140357e-03	
255	2.700000e+00	1.141100e-03	
256	2.750000e+00	1.141836e-03	
257	2.800000e+00	1.142568e-03	
258	2.850000e+00	1.143300e-03	
259	2.900000e+00	1.144035e-03	
260	2.950000e+00	1.144776e-03	
261	3.000000e+00	1.145528e-03	
262	3.050000e+00	1.146295e-03	
263	3.100000e+00	1.147084e-03	
264	3.150000e+00	1.147899e-03	
265	3.200000e+00	1.148748e-03	
266	3.250000e+00	1.149638e-03	
267	3.300000e+00	1.150577e-03	
268	0.000000e+00	2.931824e-19	
269	5.000000e-02	1.149801e-04	
270	1.000000e-01	2.245954e-04	
271	1.500000e-01	3.290002e-04	
272	2.000000e-01	4.283438e-04	
273	2.500000e-01	5.227709e-04	
274	3.000000e-01	6.124211e-04	
275	3.500000e-01	6.974294e-04	
276	4.000000e-01	7.779261e-04	
277	4.500000e-01	8.540366e-04	
278	5.000000e-01	9.258811e-04	
279	5.500000e-01	9.935748e-04	
280	6.000000e-01	1.057227e-03	
281	6.500000e-01	1.116940e-03	
282	7.000000e-01	1.172808e-03	
283	7.500000e-01	1.224915e-03	
284	8.000000e-01	1.273332e-03	
285	8.500000e-01	1.318109e-03	
286	9.000000e-01	1.359267e-03	

Index   v-sweep         -i(vds)         
--------------------------------------------------------------------------------
287	9.500000e-01	1.396784e-03	
288	1.000000e+00	1.430578e-03	
289	1.050000e+00	1.460493e-03	
290	1.100000e+00	1.486323e-03	
291	1.150000e+00	1.507922e-03	
292	1.200000e+00	1.525385e-03	
293	1.250000e+00	1.539164e-03	
294	1.300000e+00	1.549956e-03	
295	1.350000e+00	1.558487e-03	
296	1.400000e+00	1.565357e-03	
297	1.450000e+00	1.571012e-03	
298	1.500000e+00	1.575770e-03	
299	1.550000e+00	1.579852e-03	
300	1.600000e+00	1.583414e-03	
301	1.650000e+00	1.586568e-03	
302	1.700000e+00	1.589397e-03	
303	1.750000e+00	1.591961e-03	
304	1.800000e+00	1.594307e-03	
305	1.850000e+00	1.596470e-03	
306	1.900000e+00	1.598478e-03	
307	1.950000e+00	1.600354e-03	
308	2.000000e+00	1.602116e-03	
309	2.050000e+00	1.603778e-03	
310	2.100000e+00	1.605353e-03	
311	2.150000e+00	1.606850e-03	
312	2.200000e+00	1.608279e-03	
313	2.250000e+00	1.609646e-03	
314	2.300000e+00	1.610958e-03	
315	2.350000e+00	1.612219e-03	
316	2.400000e+00	1.613435e-03	
317	2.450000e+00	1.614610e-03	
318	2.500000e+00	1.615747e-03	
319	2.550000e+00	1.616850e-03	
320	2.600000e+00	1.617921e-03	
321	2.650000e+00	1.618964e-03	
322	2.700000e+00	1.619981e-03	
323	2.750000e+00	1.620974e-03	
324	2.800000e+00	1.621948e-03	
325	2.850000e+00	1.622903e-03	
326	2.900000e+00	1.623844e-03	
327	2.950000e+00	1.624774e-03	
328	3.000000e+00	1.625696e-03	
329	3.050000e+00	1.626614e-03	
330	3.100000e+00	1.627532e-03	
331	3.150000e+00	1.628456e-03	
332	3.200000e+00	1.629391e-03	
333	3.250000e+00	1.630343e-03	
334	3.300000e+00	1.631320e-03	
335	0.000000e+00	-2.32097e-20	
336	5.000000e-02	1.240263e-04	
337	1.000000e-01	2.432638e-04	
338	1.500000e-01	3.578296e-04	
339	2.000000e-01	4.678378e-04	
340	2.500000e-01	5.733995e-04	
341	3.000000e-01	6.746228e-04	
342	3.500000e-01	7.716127e-04	
343	4.000000e-01	8.644714e-04	
344	4.500000e-01	9.532982e-04	

Index   v-sweep         -i(vds)         
--------------------------------------------------------------------------------
345	5.000000e-01	1.038189e-03	
346	5.500000e-01	1.119238e-03	
347	6.000000e-01	1.196534e-03	
348	6.500000e-01	1.270165e-03	
349	7.000000e-01	1.340214e-03	
350	7.500000e-01	1.406761e-03	
351	8.000000e-01	1.469881e-03	
352	8.500000e-01	1.529643e-03	
353	9.000000e-01	1.586112e-03	
354	9.500000e-01	1.639343e-03	
355	1.000000e+00	1.689378e-03	
356	1.050000e+00	1.736245e-03	
357	1.100000e+00	1.779945e-03	
358	1.150000e+00	1.820449e-03	
359	1.200000e+00	1.857673e-03	
360	1.250000e+00	1.891471e-03	
361	1.300000e+00	1.921633e-03	
362	1.350000e+00	1.947921e-03	
363	1.400000e+00	1.970192e-03	
364	1.450000e+00	1.988543e-03	
365	1.500000e+00	2.003378e-03	
366	1.550000e+00	2.015302e-03	
367	1.600000e+00	2.024950e-03	
368	1.650000e+00	2.032870e-03	
369	1.700000e+00	2.039487e-03	
370	1.750000e+00	2.045113e-03	
371	1.800000e+00	2.049976e-03	
372	1.850000e+00	2.054244e-03	
373	1.900000e+00	2.058038e-03	
374	1.950000e+00	2.061448e-03	
375	2.000000e+00	2.064544e-03	
376	2.050000e+00	2.067379e-03	
377	2.100000e+00	2.069994e-03	
378	2.150000e+00	2.072422e-03	
379	2.200000e+00	2.074689e-03	
380	2.250000e+00	2.076816e-03	
381	2.300000e+00	2.078822e-03	
382	2.350000e+00	2.080720e-03	
383	2.400000e+00	2.082523e-03	
384	2.450000e+00	2.084242e-03	
385	2.500000e+00	2.085884e-03	
386	2.550000e+00	2.087458e-03	
387	2.600000e+00	2.088970e-03	
388	2.650000e+00	2.090426e-03	
389	2.700000e+00	2.091830e-03	
390	2.750000e+00	2.093188e-03	
391	2.800000e+00	2.094503e-03	
392	2.850000e+00	2.095779e-03	
393	2.900000e+00	2.097020e-03	
394	2.950000e+00	2.098229e-03	
395	3.000000e+00	2.099409e-03	
396	3.050000e+00	2.100565e-03	
397	3.100000e+00	2.101699e-03	
398	3.150000e+00	2.102815e-03	
399	3.200000e+00	2.103919e-03	
400	3.250000e+00	2.105014e-03	
401	3.300000e+00	2.106105e-03	
Note: No ".plot", ".print", or ".fourier" lines; no simulations run
