
Note: Compatibility modes selected: hs

Warning: m=xx on .subckt line will override multiplier m hierarchy!


Circuit: ***************************

Doing analysis at TEMP = 125.000000 and TNOM = 125.000000


No. of Data Rows : 402
                          ***************************
                          DC transfer characteristic  Mon Jan  9 13:58:12  2023
--------------------------------------------------------------------------------
Index   v-sweep         -i(vds)         
--------------------------------------------------------------------------------
0	0.000000e+00	9.933921e-27	
1	5.000000e-02	9.233109e-07	
2	1.000000e-01	1.648075e-06	
3	1.500000e-01	2.185618e-06	
4	2.000000e-01	2.548452e-06	
5	2.500000e-01	2.760583e-06	
6	3.000000e-01	2.868898e-06	
7	3.500000e-01	2.926401e-06	
8	4.000000e-01	2.963227e-06	
9	4.500000e-01	2.990802e-06	
10	5.000000e-01	3.013406e-06	
11	5.500000e-01	3.032916e-06	
12	6.000000e-01	3.050304e-06	
13	6.500000e-01	3.066136e-06	
14	7.000000e-01	3.080772e-06	
15	7.500000e-01	3.094460e-06	
16	8.000000e-01	3.107373e-06	
17	8.500000e-01	3.119645e-06	
18	9.000000e-01	3.131372e-06	
19	9.500000e-01	3.142635e-06	
20	1.000000e+00	3.153494e-06	
21	1.050000e+00	3.164001e-06	
22	1.100000e+00	3.174197e-06	
23	1.150000e+00	3.184116e-06	
24	1.200000e+00	3.193789e-06	
25	1.250000e+00	3.203239e-06	
26	1.300000e+00	3.212488e-06	
27	1.350000e+00	3.221555e-06	
28	1.400000e+00	3.230455e-06	
29	1.450000e+00	3.239203e-06	
30	1.500000e+00	3.247811e-06	
31	1.550000e+00	3.256290e-06	
32	1.600000e+00	3.264651e-06	
33	1.650000e+00	3.272902e-06	
34	1.700000e+00	3.281053e-06	
35	1.750000e+00	3.289111e-06	
36	1.800000e+00	3.297083e-06	
37	1.850000e+00	3.304979e-06	
38	1.900000e+00	3.312805e-06	
39	1.950000e+00	3.320569e-06	
40	2.000000e+00	3.328280e-06	
41	2.050000e+00	3.335947e-06	
42	2.100000e+00	3.343580e-06	
43	2.150000e+00	3.351189e-06	
44	2.200000e+00	3.358787e-06	
45	2.250000e+00	3.366385e-06	
46	2.300000e+00	3.374000e-06	
47	2.350000e+00	3.381646e-06	
48	2.400000e+00	3.389342e-06	
49	2.450000e+00	3.397107e-06	
50	2.500000e+00	3.404964e-06	
51	2.550000e+00	3.412935e-06	
52	2.600000e+00	3.421048e-06	
53	2.650000e+00	3.429330e-06	
54	2.700000e+00	3.437812e-06	

Index   v-sweep         -i(vds)         
--------------------------------------------------------------------------------
55	2.750000e+00	3.446529e-06	
56	2.800000e+00	3.455518e-06	
57	2.850000e+00	3.464816e-06	
58	2.900000e+00	3.474468e-06	
59	2.950000e+00	3.484518e-06	
60	3.000000e+00	3.495015e-06	
61	3.050000e+00	3.506011e-06	
62	3.100000e+00	3.517562e-06	
63	3.150000e+00	3.529725e-06	
64	3.200000e+00	3.542565e-06	
65	3.250000e+00	3.556146e-06	
66	3.300000e+00	3.570538e-06	
67	0.000000e+00	-3.27996e-26	
68	5.000000e-02	2.807339e-06	
69	1.000000e-01	5.371194e-06	
70	1.500000e-01	7.701132e-06	
71	2.000000e-01	9.804093e-06	
72	2.500000e-01	1.168627e-05	
73	3.000000e-01	1.335361e-05	
74	3.500000e-01	1.481196e-05	
75	4.000000e-01	1.606726e-05	
76	4.500000e-01	1.712580e-05	
77	5.000000e-01	1.799491e-05	
78	5.500000e-01	1.868442e-05	
79	6.000000e-01	1.920981e-05	
80	6.500000e-01	1.959606e-05	
81	7.000000e-01	1.987708e-05	
82	7.500000e-01	2.008670e-05	
83	8.000000e-01	2.025015e-05	
84	8.500000e-01	2.038334e-05	
85	9.000000e-01	2.049583e-05	
86	9.500000e-01	2.059347e-05	
87	1.000000e+00	2.068002e-05	
88	1.050000e+00	2.075801e-05	
89	1.100000e+00	2.082918e-05	
90	1.150000e+00	2.089480e-05	
91	1.200000e+00	2.095584e-05	
92	1.250000e+00	2.101302e-05	
93	1.300000e+00	2.106689e-05	
94	1.350000e+00	2.111792e-05	
95	1.400000e+00	2.116646e-05	
96	1.450000e+00	2.121282e-05	
97	1.500000e+00	2.125725e-05	
98	1.550000e+00	2.129995e-05	
99	1.600000e+00	2.134111e-05	
100	1.650000e+00	2.138086e-05	
101	1.700000e+00	2.141935e-05	
102	1.750000e+00	2.145668e-05	
103	1.800000e+00	2.149295e-05	
104	1.850000e+00	2.152826e-05	
105	1.900000e+00	2.156267e-05	
106	1.950000e+00	2.159626e-05	
107	2.000000e+00	2.162909e-05	
108	2.050000e+00	2.166122e-05	
109	2.100000e+00	2.169271e-05	
110	2.150000e+00	2.172360e-05	
111	2.200000e+00	2.175394e-05	
112	2.250000e+00	2.178379e-05	

Index   v-sweep         -i(vds)         
--------------------------------------------------------------------------------
113	2.300000e+00	2.181320e-05	
114	2.350000e+00	2.184222e-05	
115	2.400000e+00	2.187090e-05	
116	2.450000e+00	2.189932e-05	
117	2.500000e+00	2.192753e-05	
118	2.550000e+00	2.195561e-05	
119	2.600000e+00	2.198364e-05	
120	2.650000e+00	2.201171e-05	
121	2.700000e+00	2.203992e-05	
122	2.750000e+00	2.206838e-05	
123	2.800000e+00	2.209720e-05	
124	2.850000e+00	2.212653e-05	
125	2.900000e+00	2.215650e-05	
126	2.950000e+00	2.218728e-05	
127	3.000000e+00	2.221904e-05	
128	3.050000e+00	2.225197e-05	
129	3.100000e+00	2.228629e-05	
130	3.150000e+00	2.232220e-05	
131	3.200000e+00	2.235996e-05	
132	3.250000e+00	2.239981e-05	
133	3.300000e+00	2.244205e-05	
134	0.000000e+00	-1.08241e-26	
135	5.000000e-02	4.373214e-06	
136	1.000000e-01	8.494080e-06	
137	1.500000e-01	1.237153e-05	
138	2.000000e-01	1.601193e-05	
139	2.500000e-01	1.942090e-05	
140	3.000000e-01	2.260380e-05	
141	3.500000e-01	2.556578e-05	
142	4.000000e-01	2.831188e-05	
143	4.500000e-01	3.084697e-05	
144	5.000000e-01	3.317585e-05	
145	5.500000e-01	3.530316e-05	
146	6.000000e-01	3.723347e-05	
147	6.500000e-01	3.897127e-05	
148	7.000000e-01	4.052102e-05	
149	7.500000e-01	4.188723e-05	
150	8.000000e-01	4.307471e-05	
151	8.500000e-01	4.408905e-05	
152	9.000000e-01	4.493785e-05	
153	9.500000e-01	4.563288e-05	
154	1.000000e+00	4.619244e-05	
155	1.050000e+00	4.664082e-05	
156	1.100000e+00	4.700370e-05	
157	1.150000e+00	4.730318e-05	
158	1.200000e+00	4.755598e-05	
159	1.250000e+00	4.777392e-05	
160	1.300000e+00	4.796530e-05	
161	1.350000e+00	4.813596e-05	
162	1.400000e+00	4.829011e-05	
163	1.450000e+00	4.843084e-05	
164	1.500000e+00	4.856046e-05	
165	1.550000e+00	4.868078e-05	
166	1.600000e+00	4.879318e-05	
167	1.650000e+00	4.889877e-05	
168	1.700000e+00	4.899844e-05	
169	1.750000e+00	4.909293e-05	
170	1.800000e+00	4.918285e-05	

Index   v-sweep         -i(vds)         
--------------------------------------------------------------------------------
171	1.850000e+00	4.926869e-05	
172	1.900000e+00	4.935088e-05	
173	1.950000e+00	4.942980e-05	
174	2.000000e+00	4.950575e-05	
175	2.050000e+00	4.957900e-05	
176	2.100000e+00	4.964980e-05	
177	2.150000e+00	4.971833e-05	
178	2.200000e+00	4.978480e-05	
179	2.250000e+00	4.984936e-05	
180	2.300000e+00	4.991217e-05	
181	2.350000e+00	4.997334e-05	
182	2.400000e+00	5.003302e-05	
183	2.450000e+00	5.009132e-05	
184	2.500000e+00	5.014836e-05	
185	2.550000e+00	5.020424e-05	
186	2.600000e+00	5.025909e-05	
187	2.650000e+00	5.031302e-05	
188	2.700000e+00	5.036615e-05	
189	2.750000e+00	5.041862e-05	
190	2.800000e+00	5.047057e-05	
191	2.850000e+00	5.052217e-05	
192	2.900000e+00	5.057359e-05	
193	2.950000e+00	5.062501e-05	
194	3.000000e+00	5.067666e-05	
195	3.050000e+00	5.072877e-05	
196	3.100000e+00	5.078160e-05	
197	3.150000e+00	5.083544e-05	
198	3.200000e+00	5.089061e-05	
199	3.250000e+00	5.094745e-05	
200	3.300000e+00	5.100636e-05	
201	0.000000e+00	-7.73164e-26	
202	5.000000e-02	5.668414e-06	
203	1.000000e-01	1.108484e-05	
204	1.500000e-01	1.625757e-05	
205	2.000000e-01	2.119238e-05	
206	2.500000e-01	2.589435e-05	
207	3.000000e-01	3.036831e-05	
208	3.500000e-01	3.461893e-05	
209	4.000000e-01	3.865075e-05	
210	4.500000e-01	4.246823e-05	
211	5.000000e-01	4.607568e-05	
212	5.500000e-01	4.947734e-05	
213	6.000000e-01	5.267731e-05	
214	6.500000e-01	5.567961e-05	
215	7.000000e-01	5.848816e-05	
216	7.500000e-01	6.110675e-05	
217	8.000000e-01	6.353908e-05	
218	8.500000e-01	6.578871e-05	
219	9.000000e-01	6.785908e-05	
220	9.500000e-01	6.975344e-05	
221	1.000000e+00	7.147486e-05	
222	1.050000e+00	7.302613e-05	
223	1.100000e+00	7.440983e-05	
224	1.150000e+00	7.562852e-05	
225	1.200000e+00	7.668563e-05	
226	1.250000e+00	7.758745e-05	
227	1.300000e+00	7.834572e-05	
228	1.350000e+00	7.897857e-05	

Index   v-sweep         -i(vds)         
--------------------------------------------------------------------------------
229	1.400000e+00	7.950786e-05	
230	1.450000e+00	7.995503e-05	
231	1.500000e+00	8.033824e-05	
232	1.550000e+00	8.067165e-05	
233	1.600000e+00	8.096593e-05	
234	1.650000e+00	8.122902e-05	
235	1.700000e+00	8.146684e-05	
236	1.750000e+00	8.168389e-05	
237	1.800000e+00	8.188364e-05	
238	1.850000e+00	8.206876e-05	
239	1.900000e+00	8.224139e-05	
240	1.950000e+00	8.240324e-05	
241	2.000000e+00	8.255570e-05	
242	2.050000e+00	8.269991e-05	
243	2.100000e+00	8.283683e-05	
244	2.150000e+00	8.296725e-05	
245	2.200000e+00	8.309184e-05	
246	2.250000e+00	8.321119e-05	
247	2.300000e+00	8.332579e-05	
248	2.350000e+00	8.343607e-05	
249	2.400000e+00	8.354241e-05	
250	2.450000e+00	8.364513e-05	
251	2.500000e+00	8.374454e-05	
252	2.550000e+00	8.384089e-05	
253	2.600000e+00	8.393441e-05	
254	2.650000e+00	8.402534e-05	
255	2.700000e+00	8.411386e-05	
256	2.750000e+00	8.420018e-05	
257	2.800000e+00	8.428448e-05	
258	2.850000e+00	8.436694e-05	
259	2.900000e+00	8.444776e-05	
260	2.950000e+00	8.452712e-05	
261	3.000000e+00	8.460524e-05	
262	3.050000e+00	8.468234e-05	
263	3.100000e+00	8.475866e-05	
264	3.150000e+00	8.483447e-05	
265	3.200000e+00	8.491006e-05	
266	3.250000e+00	8.498575e-05	
267	3.300000e+00	8.506192e-05	
268	0.000000e+00	6.169510e-27	
269	5.000000e-02	6.751153e-06	
270	1.000000e-01	1.325481e-05	
271	1.500000e-01	1.951865e-05	
272	2.000000e-01	2.554791e-05	
273	2.500000e-01	3.134717e-05	
274	3.000000e-01	3.692074e-05	
275	3.500000e-01	4.227285e-05	
276	4.000000e-01	4.740757e-05	
277	4.500000e-01	5.232894e-05	
278	5.000000e-01	5.704086e-05	
279	5.500000e-01	6.154717e-05	
280	6.000000e-01	6.585163e-05	
281	6.500000e-01	6.995790e-05	
282	7.000000e-01	7.386956e-05	
283	7.500000e-01	7.759012e-05	
284	8.000000e-01	8.112299e-05	
285	8.500000e-01	8.447150e-05	
286	9.000000e-01	8.763889e-05	

Index   v-sweep         -i(vds)         
--------------------------------------------------------------------------------
287	9.500000e-01	9.062831e-05	
288	1.000000e+00	9.344281e-05	
289	1.050000e+00	9.608530e-05	
290	1.100000e+00	9.855854e-05	
291	1.150000e+00	1.008651e-04	
292	1.200000e+00	1.030073e-04	
293	1.250000e+00	1.049871e-04	
294	1.300000e+00	1.068060e-04	
295	1.350000e+00	1.084645e-04	
296	1.400000e+00	1.099629e-04	
297	1.450000e+00	1.113006e-04	
298	1.500000e+00	1.124784e-04	
299	1.550000e+00	1.135005e-04	
300	1.600000e+00	1.143771e-04	
301	1.650000e+00	1.151251e-04	
302	1.700000e+00	1.157646e-04	
303	1.750000e+00	1.163155e-04	
304	1.800000e+00	1.167954e-04	
305	1.850000e+00	1.172183e-04	
306	1.900000e+00	1.175952e-04	
307	1.950000e+00	1.179347e-04	
308	2.000000e+00	1.182433e-04	
309	2.050000e+00	1.185262e-04	
310	2.100000e+00	1.187874e-04	
311	2.150000e+00	1.190300e-04	
312	2.200000e+00	1.192566e-04	
313	2.250000e+00	1.194693e-04	
314	2.300000e+00	1.196699e-04	
315	2.350000e+00	1.198597e-04	
316	2.400000e+00	1.200399e-04	
317	2.450000e+00	1.202117e-04	
318	2.500000e+00	1.203757e-04	
319	2.550000e+00	1.205328e-04	
320	2.600000e+00	1.206836e-04	
321	2.650000e+00	1.208286e-04	
322	2.700000e+00	1.209684e-04	
323	2.750000e+00	1.211034e-04	
324	2.800000e+00	1.212339e-04	
325	2.850000e+00	1.213603e-04	
326	2.900000e+00	1.214830e-04	
327	2.950000e+00	1.216022e-04	
328	3.000000e+00	1.217181e-04	
329	3.050000e+00	1.218312e-04	
330	3.100000e+00	1.219415e-04	
331	3.150000e+00	1.220495e-04	
332	3.200000e+00	1.221553e-04	
333	3.250000e+00	1.222592e-04	
334	3.300000e+00	1.223616e-04	
335	0.000000e+00	-5.63829e-26	
336	5.000000e-02	7.665204e-06	
337	1.000000e-01	1.508946e-05	
338	1.500000e-01	2.227993e-05	
339	2.000000e-01	2.924135e-05	
340	2.500000e-01	3.597783e-05	
341	3.000000e-01	4.249325e-05	
342	3.500000e-01	4.879139e-05	
343	4.000000e-01	5.487593e-05	
344	4.500000e-01	6.075048e-05	

Index   v-sweep         -i(vds)         
--------------------------------------------------------------------------------
345	5.000000e-01	6.641859e-05	
346	5.500000e-01	7.188374e-05	
347	6.000000e-01	7.714932e-05	
348	6.500000e-01	8.221866e-05	
349	7.000000e-01	8.709504e-05	
350	7.500000e-01	9.178166e-05	
351	8.000000e-01	9.628165e-05	
352	8.500000e-01	1.005981e-04	
353	9.000000e-01	1.047339e-04	
354	9.500000e-01	1.086922e-04	
355	1.000000e+00	1.124757e-04	
356	1.050000e+00	1.160872e-04	
357	1.100000e+00	1.195295e-04	
358	1.150000e+00	1.228052e-04	
359	1.200000e+00	1.259168e-04	
360	1.250000e+00	1.288667e-04	
361	1.300000e+00	1.316573e-04	
362	1.350000e+00	1.342905e-04	
363	1.400000e+00	1.367683e-04	
364	1.450000e+00	1.390921e-04	
365	1.500000e+00	1.412629e-04	
366	1.550000e+00	1.432808e-04	
367	1.600000e+00	1.451451e-04	
368	1.650000e+00	1.468540e-04	
369	1.700000e+00	1.484046e-04	
370	1.750000e+00	1.497944e-04	
371	1.800000e+00	1.510235e-04	
372	1.850000e+00	1.520975e-04	
373	1.900000e+00	1.530289e-04	
374	1.950000e+00	1.538353e-04	
375	2.000000e+00	1.545362e-04	
376	2.050000e+00	1.551500e-04	
377	2.100000e+00	1.556926e-04	
378	2.150000e+00	1.561768e-04	
379	2.200000e+00	1.566130e-04	
380	2.250000e+00	1.570094e-04	
381	2.300000e+00	1.573723e-04	
382	2.350000e+00	1.577070e-04	
383	2.400000e+00	1.580175e-04	
384	2.450000e+00	1.583071e-04	
385	2.500000e+00	1.585785e-04	
386	2.550000e+00	1.588341e-04	
387	2.600000e+00	1.590755e-04	
388	2.650000e+00	1.593045e-04	
389	2.700000e+00	1.595223e-04	
390	2.750000e+00	1.597300e-04	
391	2.800000e+00	1.599287e-04	
392	2.850000e+00	1.601192e-04	
393	2.900000e+00	1.603021e-04	
394	2.950000e+00	1.604781e-04	
395	3.000000e+00	1.606479e-04	
396	3.050000e+00	1.608119e-04	
397	3.100000e+00	1.609705e-04	
398	3.150000e+00	1.611242e-04	
399	3.200000e+00	1.612734e-04	
400	3.250000e+00	1.614184e-04	
401	3.300000e+00	1.615595e-04	
Note: No ".plot", ".print", or ".fourier" lines; no simulations run
