
Note: Compatibility modes selected: hs

Warning: m=xx on .subckt line will override multiplier m hierarchy!


Circuit: ***************************

Doing analysis at TEMP = 125.000000 and TNOM = 125.000000


No. of Data Rows : 402
                          ***************************
                          DC transfer characteristic  Mon Jan  9 13:58:12  2023
--------------------------------------------------------------------------------
Index   v-sweep         -i(vds)         
--------------------------------------------------------------------------------
0	0.000000e+00	-1.11878e-26	
1	5.000000e-02	1.865828e-06	
2	1.000000e-01	3.359750e-06	
3	1.500000e-01	4.509532e-06	
4	2.000000e-01	5.345941e-06	
5	2.500000e-01	5.914024e-06	
6	3.000000e-01	6.282688e-06	
7	3.500000e-01	6.530514e-06	
8	4.000000e-01	6.715009e-06	
9	4.500000e-01	6.866435e-06	
10	5.000000e-01	6.999123e-06	
11	5.500000e-01	7.120171e-06	
12	6.000000e-01	7.233425e-06	
13	6.500000e-01	7.341160e-06	
14	7.000000e-01	7.444820e-06	
15	7.500000e-01	7.545377e-06	
16	8.000000e-01	7.643514e-06	
17	8.500000e-01	7.739730e-06	
18	9.000000e-01	7.834399e-06	
19	9.500000e-01	7.927811e-06	
20	1.000000e+00	8.020192e-06	
21	1.050000e+00	8.111725e-06	
22	1.100000e+00	8.202556e-06	
23	1.150000e+00	8.292806e-06	
24	1.200000e+00	8.382578e-06	
25	1.250000e+00	8.471956e-06	
26	1.300000e+00	8.561012e-06	
27	1.350000e+00	8.649807e-06	
28	1.400000e+00	8.738396e-06	
29	1.450000e+00	8.826823e-06	
30	1.500000e+00	8.915130e-06	
31	1.550000e+00	9.003352e-06	
32	1.600000e+00	9.091521e-06	
33	1.650000e+00	9.179665e-06	
34	1.700000e+00	9.267812e-06	
35	1.750000e+00	9.355985e-06	
36	1.800000e+00	9.444209e-06	
37	1.850000e+00	9.532506e-06	
38	1.900000e+00	9.620899e-06	
39	1.950000e+00	9.709413e-06	
40	2.000000e+00	9.798073e-06	
41	2.050000e+00	9.886907e-06	
42	2.100000e+00	9.975946e-06	
43	2.150000e+00	1.006522e-05	
44	2.200000e+00	1.015478e-05	
45	2.250000e+00	1.024466e-05	
46	2.300000e+00	1.033491e-05	
47	2.350000e+00	1.042559e-05	
48	2.400000e+00	1.051676e-05	
49	2.450000e+00	1.060850e-05	
50	2.500000e+00	1.070090e-05	
51	2.550000e+00	1.079403e-05	
52	2.600000e+00	1.088802e-05	
53	2.650000e+00	1.098298e-05	
54	2.700000e+00	1.107903e-05	

Index   v-sweep         -i(vds)         
--------------------------------------------------------------------------------
55	2.750000e+00	1.117633e-05	
56	2.800000e+00	1.127503e-05	
57	2.850000e+00	1.137532e-05	
58	2.900000e+00	1.147738e-05	
59	2.950000e+00	1.158144e-05	
60	3.000000e+00	1.168773e-05	
61	3.050000e+00	1.179650e-05	
62	3.100000e+00	1.190803e-05	
63	3.150000e+00	1.202262e-05	
64	3.200000e+00	1.214059e-05	
65	3.250000e+00	1.226230e-05	
66	3.300000e+00	1.238812e-05	
67	0.000000e+00	-7.44932e-27	
68	5.000000e-02	4.979976e-06	
69	1.000000e-01	9.501268e-06	
70	1.500000e-01	1.358701e-05	
71	2.000000e-01	1.725699e-05	
72	2.500000e-01	2.052953e-05	
73	3.000000e-01	2.342209e-05	
74	3.500000e-01	2.595155e-05	
75	4.000000e-01	2.813463e-05	
76	4.500000e-01	2.998863e-05	
77	5.000000e-01	3.153304e-05	
78	5.500000e-01	3.279267e-05	
79	6.000000e-01	3.380182e-05	
80	6.500000e-01	3.460556e-05	
81	7.000000e-01	3.525343e-05	
82	7.500000e-01	3.578927e-05	
83	8.000000e-01	3.624609e-05	
84	8.500000e-01	3.664659e-05	
85	9.000000e-01	3.700600e-05	
86	9.500000e-01	3.733460e-05	
87	1.000000e+00	3.763946e-05	
88	1.050000e+00	3.792560e-05	
89	1.100000e+00	3.819668e-05	
90	1.150000e+00	3.845541e-05	
91	1.200000e+00	3.870386e-05	
92	1.250000e+00	3.894365e-05	
93	1.300000e+00	3.917604e-05	
94	1.350000e+00	3.940206e-05	
95	1.400000e+00	3.962254e-05	
96	1.450000e+00	3.983817e-05	
97	1.500000e+00	4.004951e-05	
98	1.550000e+00	4.025705e-05	
99	1.600000e+00	4.046120e-05	
100	1.650000e+00	4.066231e-05	
101	1.700000e+00	4.086068e-05	
102	1.750000e+00	4.105656e-05	
103	1.800000e+00	4.125020e-05	
104	1.850000e+00	4.144179e-05	
105	1.900000e+00	4.163151e-05	
106	1.950000e+00	4.181952e-05	
107	2.000000e+00	4.200597e-05	
108	2.050000e+00	4.219101e-05	
109	2.100000e+00	4.237474e-05	
110	2.150000e+00	4.255731e-05	
111	2.200000e+00	4.273883e-05	
112	2.250000e+00	4.291942e-05	

Index   v-sweep         -i(vds)         
--------------------------------------------------------------------------------
113	2.300000e+00	4.309920e-05	
114	2.350000e+00	4.327832e-05	
115	2.400000e+00	4.345691e-05	
116	2.450000e+00	4.363513e-05	
117	2.500000e+00	4.381314e-05	
118	2.550000e+00	4.399114e-05	
119	2.600000e+00	4.416934e-05	
120	2.650000e+00	4.434798e-05	
121	2.700000e+00	4.452731e-05	
122	2.750000e+00	4.470764e-05	
123	2.800000e+00	4.488930e-05	
124	2.850000e+00	4.507264e-05	
125	2.900000e+00	4.525809e-05	
126	2.950000e+00	4.544609e-05	
127	3.000000e+00	4.563714e-05	
128	3.050000e+00	4.583179e-05	
129	3.100000e+00	4.603065e-05	
130	3.150000e+00	4.623438e-05	
131	3.200000e+00	4.644369e-05	
132	3.250000e+00	4.665936e-05	
133	3.300000e+00	4.688226e-05	
134	0.000000e+00	2.572486e-25	
135	5.000000e-02	7.360938e-06	
136	1.000000e-01	1.424958e-05	
137	1.500000e-01	2.068625e-05	
138	2.000000e-01	2.668823e-05	
139	2.500000e-01	3.227150e-05	
140	3.000000e-01	3.745123e-05	
141	3.500000e-01	4.224187e-05	
142	4.000000e-01	4.665725e-05	
143	4.500000e-01	5.071053e-05	
144	5.000000e-01	5.441424e-05	
145	5.500000e-01	5.778023e-05	
146	6.000000e-01	6.081966e-05	
147	6.500000e-01	6.354290e-05	
148	7.000000e-01	6.595965e-05	
149	7.500000e-01	6.807943e-05	
150	8.000000e-01	6.991325e-05	
151	8.500000e-01	7.147697e-05	
152	9.000000e-01	7.279545e-05	
153	9.500000e-01	7.390329e-05	
154	1.000000e+00	7.483997e-05	
155	1.050000e+00	7.564292e-05	
156	1.100000e+00	7.634318e-05	
157	1.150000e+00	7.696462e-05	
158	1.200000e+00	7.752493e-05	
159	1.250000e+00	7.803713e-05	
160	1.300000e+00	7.851084e-05	
161	1.350000e+00	7.895326e-05	
162	1.400000e+00	7.936987e-05	
163	1.450000e+00	7.976491e-05	
164	1.500000e+00	8.014167e-05	
165	1.550000e+00	8.050281e-05	
166	1.600000e+00	8.085045e-05	
167	1.650000e+00	8.118632e-05	
168	1.700000e+00	8.151186e-05	
169	1.750000e+00	8.182826e-05	
170	1.800000e+00	8.213652e-05	

Index   v-sweep         -i(vds)         
--------------------------------------------------------------------------------
171	1.850000e+00	8.243751e-05	
172	1.900000e+00	8.273195e-05	
173	1.950000e+00	8.302047e-05	
174	2.000000e+00	8.330361e-05	
175	2.050000e+00	8.358187e-05	
176	2.100000e+00	8.385565e-05	
177	2.150000e+00	8.412533e-05	
178	2.200000e+00	8.439125e-05	
179	2.250000e+00	8.465371e-05	
180	2.300000e+00	8.491300e-05	
181	2.350000e+00	8.516937e-05	
182	2.400000e+00	8.542308e-05	
183	2.450000e+00	8.567436e-05	
184	2.500000e+00	8.592348e-05	
185	2.550000e+00	8.617068e-05	
186	2.600000e+00	8.641621e-05	
187	2.650000e+00	8.666037e-05	
188	2.700000e+00	8.690345e-05	
189	2.750000e+00	8.714579e-05	
190	2.800000e+00	8.738776e-05	
191	2.850000e+00	8.762975e-05	
192	2.900000e+00	8.787224e-05	
193	2.950000e+00	8.811571e-05	
194	3.000000e+00	8.836075e-05	
195	3.050000e+00	8.860798e-05	
196	3.100000e+00	8.885809e-05	
197	3.150000e+00	8.911187e-05	
198	3.200000e+00	8.937018e-05	
199	3.250000e+00	8.963396e-05	
200	3.300000e+00	8.990425e-05	
201	0.000000e+00	-2.35993e-21	
202	5.000000e-02	9.233418e-06	
203	1.000000e-01	1.800014e-05	
204	1.500000e-01	2.631798e-05	
205	2.000000e-01	3.420192e-05	
206	2.500000e-01	4.166588e-05	
207	3.000000e-01	4.872311e-05	
208	3.500000e-01	5.538632e-05	
209	4.000000e-01	6.166776e-05	
210	4.500000e-01	6.757916e-05	
211	5.000000e-01	7.313180e-05	
212	5.500000e-01	7.833647e-05	
213	6.000000e-01	8.320346e-05	
214	6.500000e-01	8.774251e-05	
215	7.000000e-01	9.196274e-05	
216	7.500000e-01	9.587255e-05	
217	8.000000e-01	9.947941e-05	
218	8.500000e-01	1.027896e-04	
219	9.000000e-01	1.058081e-04	
220	9.500000e-01	1.085381e-04	
221	1.000000e+00	1.109819e-04	
222	1.050000e+00	1.131430e-04	
223	1.100000e+00	1.150299e-04	
224	1.150000e+00	1.166606e-04	
225	1.200000e+00	1.180637e-04	
226	1.250000e+00	1.192740e-04	
227	1.300000e+00	1.203271e-04	
228	1.350000e+00	1.212542e-04	

Index   v-sweep         -i(vds)         
--------------------------------------------------------------------------------
229	1.400000e+00	1.220811e-04	
230	1.450000e+00	1.228278e-04	
231	1.500000e+00	1.235100e-04	
232	1.550000e+00	1.241396e-04	
233	1.600000e+00	1.247257e-04	
234	1.650000e+00	1.252755e-04	
235	1.700000e+00	1.257946e-04	
236	1.750000e+00	1.262876e-04	
237	1.800000e+00	1.267581e-04	
238	1.850000e+00	1.272090e-04	
239	1.900000e+00	1.276427e-04	
240	1.950000e+00	1.280613e-04	
241	2.000000e+00	1.284665e-04	
242	2.050000e+00	1.288597e-04	
243	2.100000e+00	1.292421e-04	
244	2.150000e+00	1.296148e-04	
245	2.200000e+00	1.299786e-04	
246	2.250000e+00	1.303345e-04	
247	2.300000e+00	1.306830e-04	
248	2.350000e+00	1.310249e-04	
249	2.400000e+00	1.313606e-04	
250	2.450000e+00	1.316906e-04	
251	2.500000e+00	1.320154e-04	
252	2.550000e+00	1.323355e-04	
253	2.600000e+00	1.326511e-04	
254	2.650000e+00	1.329628e-04	
255	2.700000e+00	1.332707e-04	
256	2.750000e+00	1.335755e-04	
257	2.800000e+00	1.338773e-04	
258	2.850000e+00	1.341767e-04	
259	2.900000e+00	1.344741e-04	
260	2.950000e+00	1.347700e-04	
261	3.000000e+00	1.350648e-04	
262	3.050000e+00	1.353592e-04	
263	3.100000e+00	1.356538e-04	
264	3.150000e+00	1.359494e-04	
265	3.200000e+00	1.362468e-04	
266	3.250000e+00	1.365468e-04	
267	3.300000e+00	1.368504e-04	
268	0.000000e+00	-9.18787e-21	
269	5.000000e-02	1.075628e-05	
270	1.000000e-01	2.105838e-05	
271	1.500000e-01	3.092202e-05	
272	2.000000e-01	4.036027e-05	
273	2.500000e-01	4.938526e-05	
274	3.000000e-01	5.800859e-05	
275	3.500000e-01	6.624145e-05	
276	4.000000e-01	7.409465e-05	
277	4.500000e-01	8.157863e-05	
278	5.000000e-01	8.870349e-05	
279	5.500000e-01	9.547897e-05	
280	6.000000e-01	1.019145e-04	
281	6.500000e-01	1.080190e-04	
282	7.000000e-01	1.138011e-04	
283	7.500000e-01	1.192692e-04	
284	8.000000e-01	1.244309e-04	
285	8.500000e-01	1.292936e-04	
286	9.000000e-01	1.338638e-04	

Index   v-sweep         -i(vds)         
--------------------------------------------------------------------------------
287	9.500000e-01	1.381472e-04	
288	1.000000e+00	1.421487e-04	
289	1.050000e+00	1.458713e-04	
290	1.100000e+00	1.493165e-04	
291	1.150000e+00	1.524835e-04	
292	1.200000e+00	1.553696e-04	
293	1.250000e+00	1.579720e-04	
294	1.300000e+00	1.602909e-04	
295	1.350000e+00	1.623344e-04	
296	1.400000e+00	1.641217e-04	
297	1.450000e+00	1.656813e-04	
298	1.500000e+00	1.670467e-04	
299	1.550000e+00	1.682509e-04	
300	1.600000e+00	1.693234e-04	
301	1.650000e+00	1.702885e-04	
302	1.700000e+00	1.711659e-04	
303	1.750000e+00	1.719712e-04	
304	1.800000e+00	1.727166e-04	
305	1.850000e+00	1.734118e-04	
306	1.900000e+00	1.740645e-04	
307	1.950000e+00	1.746809e-04	
308	2.000000e+00	1.752660e-04	
309	2.050000e+00	1.758240e-04	
310	2.100000e+00	1.763581e-04	
311	2.150000e+00	1.768713e-04	
312	2.200000e+00	1.773658e-04	
313	2.250000e+00	1.778437e-04	
314	2.300000e+00	1.783067e-04	
315	2.350000e+00	1.787562e-04	
316	2.400000e+00	1.791935e-04	
317	2.450000e+00	1.796198e-04	
318	2.500000e+00	1.800359e-04	
319	2.550000e+00	1.804428e-04	
320	2.600000e+00	1.808412e-04	
321	2.650000e+00	1.812317e-04	
322	2.700000e+00	1.816151e-04	
323	2.750000e+00	1.819918e-04	
324	2.800000e+00	1.823625e-04	
325	2.850000e+00	1.827275e-04	
326	2.900000e+00	1.830876e-04	
327	2.950000e+00	1.834430e-04	
328	3.000000e+00	1.837944e-04	
329	3.050000e+00	1.841424e-04	
330	3.100000e+00	1.844874e-04	
331	3.150000e+00	1.848302e-04	
332	3.200000e+00	1.851714e-04	
333	3.250000e+00	1.855118e-04	
334	3.300000e+00	1.858522e-04	
335	0.000000e+00	-2.78227e-20	
336	5.000000e-02	1.202968e-05	
337	1.000000e-01	2.362003e-05	
338	1.500000e-01	3.478505e-05	
339	2.000000e-01	4.553626e-05	
340	2.500000e-01	5.588429e-05	
341	3.000000e-01	6.583937e-05	
342	3.500000e-01	7.541137e-05	
343	4.000000e-01	8.460988e-05	
344	4.500000e-01	9.344420e-05	

Index   v-sweep         -i(vds)         
--------------------------------------------------------------------------------
345	5.000000e-01	1.019234e-04	
346	5.500000e-01	1.100561e-04	
347	6.000000e-01	1.178510e-04	
348	6.500000e-01	1.253162e-04	
349	7.000000e-01	1.324596e-04	
350	7.500000e-01	1.392889e-04	
351	8.000000e-01	1.458116e-04	
352	8.500000e-01	1.520346e-04	
353	9.000000e-01	1.579647e-04	
354	9.500000e-01	1.636082e-04	
355	1.000000e+00	1.689710e-04	
356	1.050000e+00	1.740584e-04	
357	1.100000e+00	1.788749e-04	
358	1.150000e+00	1.834242e-04	
359	1.200000e+00	1.877085e-04	
360	1.250000e+00	1.917283e-04	
361	1.300000e+00	1.954822e-04	
362	1.350000e+00	1.989660e-04	
363	1.400000e+00	2.021734e-04	
364	1.450000e+00	2.050976e-04	
365	1.500000e+00	2.077342e-04	
366	1.550000e+00	2.100865e-04	
367	1.600000e+00	2.121679e-04	
368	1.650000e+00	2.140026e-04	
369	1.700000e+00	2.156210e-04	
370	1.750000e+00	2.170555e-04	
371	1.800000e+00	2.183364e-04	
372	1.850000e+00	2.194899e-04	
373	1.900000e+00	2.205381e-04	
374	1.950000e+00	2.214985e-04	
375	2.000000e+00	2.223857e-04	
376	2.050000e+00	2.232110e-04	
377	2.100000e+00	2.239838e-04	
378	2.150000e+00	2.247115e-04	
379	2.200000e+00	2.254003e-04	
380	2.250000e+00	2.260551e-04	
381	2.300000e+00	2.266802e-04	
382	2.350000e+00	2.272791e-04	
383	2.400000e+00	2.278546e-04	
384	2.450000e+00	2.284093e-04	
385	2.500000e+00	2.289453e-04	
386	2.550000e+00	2.294644e-04	
387	2.600000e+00	2.299682e-04	
388	2.650000e+00	2.304581e-04	
389	2.700000e+00	2.309353e-04	
390	2.750000e+00	2.314009e-04	
391	2.800000e+00	2.318558e-04	
392	2.850000e+00	2.323009e-04	
393	2.900000e+00	2.327370e-04	
394	2.950000e+00	2.331647e-04	
395	3.000000e+00	2.335848e-04	
396	3.050000e+00	2.339978e-04	
397	3.100000e+00	2.344045e-04	
398	3.150000e+00	2.348055e-04	
399	3.200000e+00	2.352014e-04	
400	3.250000e+00	2.355929e-04	
401	3.300000e+00	2.359808e-04	
Note: No ".plot", ".print", or ".fourier" lines; no simulations run
