
Note: Compatibility modes selected: hs

Warning: m=xx on .subckt line will override multiplier m hierarchy!


Circuit: ***************************

Doing analysis at TEMP = -40.000000 and TNOM = -40.000000


No. of Data Rows : 402
                          ***************************
                          DC transfer characteristic  Mon Jan  9 13:58:11  2023
--------------------------------------------------------------------------------
Index   v-sweep         -i(vds)         
--------------------------------------------------------------------------------
0	0.000000e+00	2.859465e-22	
1	5.000000e-02	1.534185e-06	
2	1.000000e-01	1.964709e-06	
3	1.500000e-01	1.998117e-06	
4	2.000000e-01	2.004706e-06	
5	2.500000e-01	2.008439e-06	
6	3.000000e-01	2.011361e-06	
7	3.500000e-01	2.013923e-06	
8	4.000000e-01	2.016283e-06	
9	4.500000e-01	2.018514e-06	
10	5.000000e-01	2.020655e-06	
11	5.500000e-01	2.022729e-06	
12	6.000000e-01	2.024753e-06	
13	6.500000e-01	2.026735e-06	
14	7.000000e-01	2.028685e-06	
15	7.500000e-01	2.030607e-06	
16	8.000000e-01	2.032505e-06	
17	8.500000e-01	2.034383e-06	
18	9.000000e-01	2.036244e-06	
19	9.500000e-01	2.038089e-06	
20	1.000000e+00	2.039921e-06	
21	1.050000e+00	2.041741e-06	
22	1.100000e+00	2.043550e-06	
23	1.150000e+00	2.045350e-06	
24	1.200000e+00	2.047141e-06	
25	1.250000e+00	2.048924e-06	
26	1.300000e+00	2.050700e-06	
27	1.350000e+00	2.052469e-06	
28	1.400000e+00	2.054232e-06	
29	1.450000e+00	2.055990e-06	
30	1.500000e+00	2.057742e-06	
31	1.550000e+00	2.059491e-06	
32	1.600000e+00	2.061237e-06	
33	1.650000e+00	2.062980e-06	
34	1.700000e+00	2.064722e-06	
35	1.750000e+00	2.066464e-06	
36	1.800000e+00	2.068209e-06	
37	1.850000e+00	2.069958e-06	
38	1.900000e+00	2.071716e-06	
39	1.950000e+00	2.073485e-06	
40	2.000000e+00	2.075271e-06	
41	2.050000e+00	2.077078e-06	
42	2.100000e+00	2.078915e-06	
43	2.150000e+00	2.080789e-06	
44	2.200000e+00	2.082710e-06	
45	2.250000e+00	2.084689e-06	
46	2.300000e+00	2.086737e-06	
47	2.350000e+00	2.088871e-06	
48	2.400000e+00	2.091106e-06	
49	2.450000e+00	2.093460e-06	
50	2.500000e+00	2.095954e-06	
51	2.550000e+00	2.098610e-06	
52	2.600000e+00	2.101453e-06	
53	2.650000e+00	2.104509e-06	
54	2.700000e+00	2.107808e-06	

Index   v-sweep         -i(vds)         
--------------------------------------------------------------------------------
55	2.750000e+00	2.111382e-06	
56	2.800000e+00	2.115263e-06	
57	2.850000e+00	2.119489e-06	
58	2.900000e+00	2.124097e-06	
59	2.950000e+00	2.129128e-06	
60	3.000000e+00	2.134626e-06	
61	3.050000e+00	2.140636e-06	
62	3.100000e+00	2.147204e-06	
63	3.150000e+00	2.154381e-06	
64	3.200000e+00	2.162219e-06	
65	3.250000e+00	2.170771e-06	
66	3.300000e+00	2.180092e-06	
67	0.000000e+00	-2.99099e-37	
68	5.000000e-02	1.318769e-05	
69	1.000000e-01	2.476120e-05	
70	1.500000e-01	3.473108e-05	
71	2.000000e-01	4.310807e-05	
72	2.500000e-01	4.990352e-05	
73	3.000000e-01	5.513079e-05	
74	3.500000e-01	5.881145e-05	
75	4.000000e-01	6.100834e-05	
76	4.500000e-01	6.197943e-05	
77	5.000000e-01	6.231151e-05	
78	5.500000e-01	6.244758e-05	
79	6.000000e-01	6.252497e-05	
80	6.500000e-01	6.257912e-05	
81	7.000000e-01	6.262162e-05	
82	7.500000e-01	6.265727e-05	
83	8.000000e-01	6.268846e-05	
84	8.500000e-01	6.271652e-05	
85	9.000000e-01	6.274226e-05	
86	9.500000e-01	6.276623e-05	
87	1.000000e+00	6.278879e-05	
88	1.050000e+00	6.281020e-05	
89	1.100000e+00	6.283067e-05	
90	1.150000e+00	6.285034e-05	
91	1.200000e+00	6.286933e-05	
92	1.250000e+00	6.288774e-05	
93	1.300000e+00	6.290563e-05	
94	1.350000e+00	6.292306e-05	
95	1.400000e+00	6.294010e-05	
96	1.450000e+00	6.295678e-05	
97	1.500000e+00	6.297314e-05	
98	1.550000e+00	6.298921e-05	
99	1.600000e+00	6.300502e-05	
100	1.650000e+00	6.302059e-05	
101	1.700000e+00	6.303594e-05	
102	1.750000e+00	6.305110e-05	
103	1.800000e+00	6.306607e-05	
104	1.850000e+00	6.308089e-05	
105	1.900000e+00	6.309557e-05	
106	1.950000e+00	6.311014e-05	
107	2.000000e+00	6.312463e-05	
108	2.050000e+00	6.313908e-05	
109	2.100000e+00	6.315354e-05	
110	2.150000e+00	6.316806e-05	
111	2.200000e+00	6.318272e-05	
112	2.250000e+00	6.319763e-05	

Index   v-sweep         -i(vds)         
--------------------------------------------------------------------------------
113	2.300000e+00	6.321289e-05	
114	2.350000e+00	6.322865e-05	
115	2.400000e+00	6.324509e-05	
116	2.450000e+00	6.326241e-05	
117	2.500000e+00	6.328086e-05	
118	2.550000e+00	6.330074e-05	
119	2.600000e+00	6.332237e-05	
120	2.650000e+00	6.334613e-05	
121	2.700000e+00	6.337248e-05	
122	2.750000e+00	6.340189e-05	
123	2.800000e+00	6.343492e-05	
124	2.850000e+00	6.347218e-05	
125	2.900000e+00	6.351433e-05	
126	2.950000e+00	6.356213e-05	
127	3.000000e+00	6.361638e-05	
128	3.050000e+00	6.367794e-05	
129	3.100000e+00	6.374776e-05	
130	3.150000e+00	6.382684e-05	
131	3.200000e+00	6.391625e-05	
132	3.250000e+00	6.401715e-05	
133	3.300000e+00	6.413074e-05	
134	0.000000e+00	-6.45767e-37	
135	5.000000e-02	2.366864e-05	
136	1.000000e-01	4.581378e-05	
137	1.500000e-01	6.644440e-05	
138	2.000000e-01	8.556944e-05	
139	2.500000e-01	1.031978e-04	
140	3.000000e-01	1.193382e-04	
141	3.500000e-01	1.339996e-04	
142	4.000000e-01	1.471907e-04	
143	4.500000e-01	1.589202e-04	
144	5.000000e-01	1.691969e-04	
145	5.500000e-01	1.780298e-04	
146	6.000000e-01	1.854285e-04	
147	6.500000e-01	1.914040e-04	
148	7.000000e-01	1.959728e-04	
149	7.500000e-01	1.991726e-04	
150	8.000000e-01	2.011228e-04	
151	8.500000e-01	2.021383e-04	
152	9.000000e-01	2.026506e-04	
153	9.500000e-01	2.029439e-04	
154	1.000000e+00	2.031388e-04	
155	1.050000e+00	2.032833e-04	
156	1.100000e+00	2.033985e-04	
157	1.150000e+00	2.034950e-04	
158	1.200000e+00	2.035786e-04	
159	1.250000e+00	2.036529e-04	
160	1.300000e+00	2.037202e-04	
161	1.350000e+00	2.037819e-04	
162	1.400000e+00	2.038392e-04	
163	1.450000e+00	2.038930e-04	
164	1.500000e+00	2.039437e-04	
165	1.550000e+00	2.039919e-04	
166	1.600000e+00	2.040379e-04	
167	1.650000e+00	2.040821e-04	
168	1.700000e+00	2.041246e-04	
169	1.750000e+00	2.041656e-04	
170	1.800000e+00	2.042054e-04	

Index   v-sweep         -i(vds)         
--------------------------------------------------------------------------------
171	1.850000e+00	2.042440e-04	
172	1.900000e+00	2.042816e-04	
173	1.950000e+00	2.043183e-04	
174	2.000000e+00	2.043541e-04	
175	2.050000e+00	2.043892e-04	
176	2.100000e+00	2.044235e-04	
177	2.150000e+00	2.044573e-04	
178	2.200000e+00	2.044904e-04	
179	2.250000e+00	2.045231e-04	
180	2.300000e+00	2.045554e-04	
181	2.350000e+00	2.045873e-04	
182	2.400000e+00	2.046191e-04	
183	2.450000e+00	2.046507e-04	
184	2.500000e+00	2.046825e-04	
185	2.550000e+00	2.047146e-04	
186	2.600000e+00	2.047473e-04	
187	2.650000e+00	2.047809e-04	
188	2.700000e+00	2.048160e-04	
189	2.750000e+00	2.048529e-04	
190	2.800000e+00	2.048923e-04	
191	2.850000e+00	2.049350e-04	
192	2.900000e+00	2.049819e-04	
193	2.950000e+00	2.050338e-04	
194	3.000000e+00	2.050921e-04	
195	3.050000e+00	2.051580e-04	
196	3.100000e+00	2.052330e-04	
197	3.150000e+00	2.053189e-04	
198	3.200000e+00	2.054174e-04	
199	3.250000e+00	2.055307e-04	
200	3.300000e+00	2.056610e-04	
201	0.000000e+00	-5.16074e-36	
202	5.000000e-02	3.193251e-05	
203	1.000000e-01	6.248801e-05	
204	1.500000e-01	9.167394e-05	
205	2.000000e-01	1.194977e-04	
206	2.500000e-01	1.459666e-04	
207	3.000000e-01	1.710881e-04	
208	3.500000e-01	1.948692e-04	
209	4.000000e-01	2.173174e-04	
210	4.500000e-01	2.384398e-04	
211	5.000000e-01	2.582434e-04	
212	5.500000e-01	2.767355e-04	
213	6.000000e-01	2.939230e-04	
214	6.500000e-01	3.098130e-04	
215	7.000000e-01	3.244123e-04	
216	7.500000e-01	3.377280e-04	
217	8.000000e-01	3.497668e-04	
218	8.500000e-01	3.605354e-04	
219	9.000000e-01	3.700407e-04	
220	9.500000e-01	3.782891e-04	
221	1.000000e+00	3.852875e-04	
222	1.050000e+00	3.910432e-04	
223	1.100000e+00	3.955681e-04	
224	1.150000e+00	3.988927e-04	
225	1.200000e+00	4.011140e-04	
226	1.250000e+00	4.024673e-04	
227	1.300000e+00	4.032760e-04	
228	1.350000e+00	4.037921e-04	

Index   v-sweep         -i(vds)         
--------------------------------------------------------------------------------
229	1.400000e+00	4.041527e-04	
230	1.450000e+00	4.044247e-04	
231	1.500000e+00	4.046423e-04	
232	1.550000e+00	4.048237e-04	
233	1.600000e+00	4.049798e-04	
234	1.650000e+00	4.051173e-04	
235	1.700000e+00	4.052406e-04	
236	1.750000e+00	4.053529e-04	
237	1.800000e+00	4.054562e-04	
238	1.850000e+00	4.055522e-04	
239	1.900000e+00	4.056422e-04	
240	1.950000e+00	4.057270e-04	
241	2.000000e+00	4.058074e-04	
242	2.050000e+00	4.058840e-04	
243	2.100000e+00	4.059573e-04	
244	2.150000e+00	4.060276e-04	
245	2.200000e+00	4.060954e-04	
246	2.250000e+00	4.061608e-04	
247	2.300000e+00	4.062242e-04	
248	2.350000e+00	4.062857e-04	
249	2.400000e+00	4.063454e-04	
250	2.450000e+00	4.064037e-04	
251	2.500000e+00	4.064605e-04	
252	2.550000e+00	4.065161e-04	
253	2.600000e+00	4.065705e-04	
254	2.650000e+00	4.066240e-04	
255	2.700000e+00	4.066766e-04	
256	2.750000e+00	4.067286e-04	
257	2.800000e+00	4.067802e-04	
258	2.850000e+00	4.068317e-04	
259	2.900000e+00	4.068835e-04	
260	2.950000e+00	4.069359e-04	
261	3.000000e+00	4.069897e-04	
262	3.050000e+00	4.070454e-04	
263	3.100000e+00	4.071040e-04	
264	3.150000e+00	4.071664e-04	
265	3.200000e+00	4.072341e-04	
266	3.250000e+00	4.073084e-04	
267	3.300000e+00	4.073912e-04	
268	0.000000e+00	8.104573e-37	
269	5.000000e-02	3.800437e-05	
270	1.000000e-01	7.479294e-05	
271	1.500000e-01	1.103717e-04	
272	2.000000e-01	1.447465e-04	
273	2.500000e-01	1.779234e-04	
274	3.000000e-01	2.099083e-04	
275	3.500000e-01	2.407068e-04	
276	4.000000e-01	2.703250e-04	
277	4.500000e-01	2.987686e-04	
278	5.000000e-01	3.260433e-04	
279	5.500000e-01	3.521549e-04	
280	6.000000e-01	3.771091e-04	
281	6.500000e-01	4.009115e-04	
282	7.000000e-01	4.235678e-04	
283	7.500000e-01	4.450835e-04	
284	8.000000e-01	4.654644e-04	
285	8.500000e-01	4.847158e-04	
286	9.000000e-01	5.028433e-04	

Index   v-sweep         -i(vds)         
--------------------------------------------------------------------------------
287	9.500000e-01	5.198523e-04	
288	1.000000e+00	5.357482e-04	
289	1.050000e+00	5.505364e-04	
290	1.100000e+00	5.642222e-04	
291	1.150000e+00	5.768106e-04	
292	1.200000e+00	5.883067e-04	
293	1.250000e+00	5.987153e-04	
294	1.300000e+00	6.080410e-04	
295	1.350000e+00	6.162876e-04	
296	1.400000e+00	6.234585e-04	
297	1.450000e+00	6.295559e-04	
298	1.500000e+00	6.345817e-04	
299	1.550000e+00	6.385434e-04	
300	1.600000e+00	6.414773e-04	
301	1.650000e+00	6.435004e-04	
302	1.700000e+00	6.448349e-04	
303	1.750000e+00	6.457263e-04	
304	1.800000e+00	6.463539e-04	
305	1.850000e+00	6.468234e-04	
306	1.900000e+00	6.471933e-04	
307	1.950000e+00	6.474971e-04	
308	2.000000e+00	6.477547e-04	
309	2.050000e+00	6.479785e-04	
310	2.100000e+00	6.481769e-04	
311	2.150000e+00	6.483554e-04	
312	2.200000e+00	6.485181e-04	
313	2.250000e+00	6.486679e-04	
314	2.300000e+00	6.488070e-04	
315	2.350000e+00	6.489371e-04	
316	2.400000e+00	6.490596e-04	
317	2.450000e+00	6.491755e-04	
318	2.500000e+00	6.492857e-04	
319	2.550000e+00	6.493909e-04	
320	2.600000e+00	6.494916e-04	
321	2.650000e+00	6.495884e-04	
322	2.700000e+00	6.496816e-04	
323	2.750000e+00	6.497717e-04	
324	2.800000e+00	6.498589e-04	
325	2.850000e+00	6.499435e-04	
326	2.900000e+00	6.500257e-04	
327	2.950000e+00	6.501058e-04	
328	3.000000e+00	6.501840e-04	
329	3.050000e+00	6.502605e-04	
330	3.100000e+00	6.503356e-04	
331	3.150000e+00	6.504095e-04	
332	3.200000e+00	6.504826e-04	
333	3.250000e+00	6.505553e-04	
334	3.300000e+00	6.506281e-04	
335	0.000000e+00	4.550273e-36	
336	5.000000e-02	4.215969e-05	
337	1.000000e-01	8.326208e-05	
338	1.500000e-01	1.233119e-04	
339	2.000000e-01	1.623138e-04	
340	2.500000e-01	2.002724e-04	
341	3.000000e-01	2.371924e-04	
342	3.500000e-01	2.730784e-04	
343	4.000000e-01	3.079350e-04	
344	4.500000e-01	3.417668e-04	

Index   v-sweep         -i(vds)         
--------------------------------------------------------------------------------
345	5.000000e-01	3.745783e-04	
346	5.500000e-01	4.063740e-04	
347	6.000000e-01	4.371585e-04	
348	6.500000e-01	4.669362e-04	
349	7.000000e-01	4.957117e-04	
350	7.500000e-01	5.234893e-04	
351	8.000000e-01	5.502735e-04	
352	8.500000e-01	5.760687e-04	
353	9.000000e-01	6.008793e-04	
354	9.500000e-01	6.247096e-04	
355	1.000000e+00	6.475640e-04	
356	1.050000e+00	6.694468e-04	
357	1.100000e+00	6.903622e-04	
358	1.150000e+00	7.103146e-04	
359	1.200000e+00	7.293081e-04	
360	1.250000e+00	7.473470e-04	
361	1.300000e+00	7.644354e-04	
362	1.350000e+00	7.805775e-04	
363	1.400000e+00	7.957773e-04	
364	1.450000e+00	8.100388e-04	
365	1.500000e+00	8.233659e-04	
366	1.550000e+00	8.357625e-04	
367	1.600000e+00	8.472321e-04	
368	1.650000e+00	8.577782e-04	
369	1.700000e+00	8.674037e-04	
370	1.750000e+00	8.761109e-04	
371	1.800000e+00	8.839014e-04	
372	1.850000e+00	8.907748e-04	
373	1.900000e+00	8.967287e-04	
374	1.950000e+00	9.017579e-04	
375	2.000000e+00	9.058585e-04	
376	2.050000e+00	9.090448e-04	
377	2.100000e+00	9.113886e-04	
378	2.150000e+00	9.130468e-04	
379	2.200000e+00	9.142182e-04	
380	2.250000e+00	9.150718e-04	
381	2.300000e+00	9.157215e-04	
382	2.350000e+00	9.162374e-04	
383	2.400000e+00	9.166618e-04	
384	2.450000e+00	9.170214e-04	
385	2.500000e+00	9.173330e-04	
386	2.550000e+00	9.176082e-04	
387	2.600000e+00	9.178549e-04	
388	2.650000e+00	9.180789e-04	
389	2.700000e+00	9.182843e-04	
390	2.750000e+00	9.184743e-04	
391	2.800000e+00	9.186514e-04	
392	2.850000e+00	9.188175e-04	
393	2.900000e+00	9.189741e-04	
394	2.950000e+00	9.191225e-04	
395	3.000000e+00	9.192636e-04	
396	3.050000e+00	9.193984e-04	
397	3.100000e+00	9.195275e-04	
398	3.150000e+00	9.196515e-04	
399	3.200000e+00	9.197709e-04	
400	3.250000e+00	9.198863e-04	
401	3.300000e+00	9.199979e-04	
Note: No ".plot", ".print", or ".fourier" lines; no simulations run
