
Note: Compatibility modes selected: hs

Warning: m=xx on .subckt line will override multiplier m hierarchy!


Circuit: ***************************

Doing analysis at TEMP = -40.000000 and TNOM = -40.000000


No. of Data Rows : 402
                          ***************************
                          DC transfer characteristic  Mon Jan  9 13:58:12  2023
--------------------------------------------------------------------------------
Index   v-sweep         -i(vds)         
--------------------------------------------------------------------------------
0	0.000000e+00	-2.52957e-24	
1	5.000000e-02	2.375950e-07	
2	1.000000e-01	3.114013e-07	
3	1.500000e-01	3.228567e-07	
4	2.000000e-01	3.265104e-07	
5	2.500000e-01	3.287918e-07	
6	3.000000e-01	3.305811e-07	
7	3.500000e-01	3.321193e-07	
8	4.000000e-01	3.335039e-07	
9	4.500000e-01	3.347840e-07	
10	5.000000e-01	3.359883e-07	
11	5.500000e-01	3.371349e-07	
12	6.000000e-01	3.382359e-07	
13	6.500000e-01	3.393001e-07	
14	7.000000e-01	3.403338e-07	
15	7.500000e-01	3.413420e-07	
16	8.000000e-01	3.423283e-07	
17	8.500000e-01	3.432959e-07	
18	9.000000e-01	3.442470e-07	
19	9.500000e-01	3.451838e-07	
20	1.000000e+00	3.461078e-07	
21	1.050000e+00	3.470205e-07	
22	1.100000e+00	3.479229e-07	
23	1.150000e+00	3.488161e-07	
24	1.200000e+00	3.497010e-07	
25	1.250000e+00	3.505782e-07	
26	1.300000e+00	3.514485e-07	
27	1.350000e+00	3.523125e-07	
28	1.400000e+00	3.531706e-07	
29	1.450000e+00	3.540234e-07	
30	1.500000e+00	3.548712e-07	
31	1.550000e+00	3.557146e-07	
32	1.600000e+00	3.565539e-07	
33	1.650000e+00	3.573896e-07	
34	1.700000e+00	3.582221e-07	
35	1.750000e+00	3.590518e-07	
36	1.800000e+00	3.598793e-07	
37	1.850000e+00	3.607052e-07	
38	1.900000e+00	3.615301e-07	
39	1.950000e+00	3.623547e-07	
40	2.000000e+00	3.631799e-07	
41	2.050000e+00	3.640066e-07	
42	2.100000e+00	3.648360e-07	
43	2.150000e+00	3.656692e-07	
44	2.200000e+00	3.665076e-07	
45	2.250000e+00	3.673528e-07	
46	2.300000e+00	3.682064e-07	
47	2.350000e+00	3.690705e-07	
48	2.400000e+00	3.699471e-07	
49	2.450000e+00	3.708385e-07	
50	2.500000e+00	3.717474e-07	
51	2.550000e+00	3.726764e-07	
52	2.600000e+00	3.736287e-07	
53	2.650000e+00	3.746073e-07	
54	2.700000e+00	3.756160e-07	

Index   v-sweep         -i(vds)         
--------------------------------------------------------------------------------
55	2.750000e+00	3.766584e-07	
56	2.800000e+00	3.777385e-07	
57	2.850000e+00	3.788606e-07	
58	2.900000e+00	3.800293e-07	
59	2.950000e+00	3.812493e-07	
60	3.000000e+00	3.825258e-07	
61	3.050000e+00	3.838641e-07	
62	3.100000e+00	3.852698e-07	
63	3.150000e+00	3.867488e-07	
64	3.200000e+00	3.883073e-07	
65	3.250000e+00	3.899517e-07	
66	3.300000e+00	3.916887e-07	
67	0.000000e+00	-3.63179e-22	
68	5.000000e-02	2.400454e-06	
69	1.000000e-01	4.506467e-06	
70	1.500000e-01	6.326004e-06	
71	2.000000e-01	7.866832e-06	
72	2.500000e-01	9.136613e-06	
73	3.000000e-01	1.014318e-05	
74	3.500000e-01	1.089552e-05	
75	4.000000e-01	1.140786e-05	
76	4.500000e-01	1.171361e-05	
77	5.000000e-01	1.187971e-05	
78	5.500000e-01	1.197520e-05	
79	6.000000e-01	1.203805e-05	
80	6.500000e-01	1.208433e-05	
81	7.000000e-01	1.212105e-05	
82	7.500000e-01	1.215168e-05	
83	8.000000e-01	1.217811e-05	
84	8.500000e-01	1.220150e-05	
85	9.000000e-01	1.222258e-05	
86	9.500000e-01	1.224185e-05	
87	1.000000e+00	1.225967e-05	
88	1.050000e+00	1.227630e-05	
89	1.100000e+00	1.229194e-05	
90	1.150000e+00	1.230673e-05	
91	1.200000e+00	1.232080e-05	
92	1.250000e+00	1.233424e-05	
93	1.300000e+00	1.234713e-05	
94	1.350000e+00	1.235954e-05	
95	1.400000e+00	1.237151e-05	
96	1.450000e+00	1.238310e-05	
97	1.500000e+00	1.239435e-05	
98	1.550000e+00	1.240527e-05	
99	1.600000e+00	1.241592e-05	
100	1.650000e+00	1.242630e-05	
101	1.700000e+00	1.243645e-05	
102	1.750000e+00	1.244637e-05	
103	1.800000e+00	1.245610e-05	
104	1.850000e+00	1.246564e-05	
105	1.900000e+00	1.247502e-05	
106	1.950000e+00	1.248424e-05	
107	2.000000e+00	1.249333e-05	
108	2.050000e+00	1.250229e-05	
109	2.100000e+00	1.251115e-05	
110	2.150000e+00	1.251992e-05	
111	2.200000e+00	1.252863e-05	
112	2.250000e+00	1.253729e-05	

Index   v-sweep         -i(vds)         
--------------------------------------------------------------------------------
113	2.300000e+00	1.254594e-05	
114	2.350000e+00	1.255459e-05	
115	2.400000e+00	1.256328e-05	
116	2.450000e+00	1.257205e-05	
117	2.500000e+00	1.258094e-05	
118	2.550000e+00	1.259000e-05	
119	2.600000e+00	1.259927e-05	
120	2.650000e+00	1.260882e-05	
121	2.700000e+00	1.261870e-05	
122	2.750000e+00	1.262900e-05	
123	2.800000e+00	1.263977e-05	
124	2.850000e+00	1.265112e-05	
125	2.900000e+00	1.266312e-05	
126	2.950000e+00	1.267588e-05	
127	3.000000e+00	1.268950e-05	
128	3.050000e+00	1.270410e-05	
129	3.100000e+00	1.271980e-05	
130	3.150000e+00	1.273672e-05	
131	3.200000e+00	1.275501e-05	
132	3.250000e+00	1.277481e-05	
133	3.300000e+00	1.279627e-05	
134	0.000000e+00	3.840645e-37	
135	5.000000e-02	4.266880e-06	
136	1.000000e-01	8.235349e-06	
137	1.500000e-01	1.191246e-05	
138	2.000000e-01	1.530506e-05	
139	2.500000e-01	1.841981e-05	
140	3.000000e-01	2.126317e-05	
141	3.500000e-01	2.384139e-05	
142	4.000000e-01	2.616055e-05	
143	4.500000e-01	2.822650e-05	
144	5.000000e-01	3.004484e-05	
145	5.500000e-01	3.162086e-05	
146	6.000000e-01	3.295941e-05	
147	6.500000e-01	3.406476e-05	
148	7.000000e-01	3.494098e-05	
149	7.500000e-01	3.559570e-05	
150	8.000000e-01	3.605225e-05	
151	8.500000e-01	3.635851e-05	
152	9.000000e-01	3.656851e-05	
153	9.500000e-01	3.672101e-05	
154	1.000000e+00	3.683844e-05	
155	1.050000e+00	3.693328e-05	
156	1.100000e+00	3.701271e-05	
157	1.150000e+00	3.708112e-05	
158	1.200000e+00	3.714129e-05	
159	1.250000e+00	3.719513e-05	
160	1.300000e+00	3.724394e-05	
161	1.350000e+00	3.728869e-05	
162	1.400000e+00	3.733008e-05	
163	1.450000e+00	3.736866e-05	
164	1.500000e+00	3.740484e-05	
165	1.550000e+00	3.743897e-05	
166	1.600000e+00	3.747132e-05	
167	1.650000e+00	3.750210e-05	
168	1.700000e+00	3.753149e-05	
169	1.750000e+00	3.755966e-05	
170	1.800000e+00	3.758673e-05	

Index   v-sweep         -i(vds)         
--------------------------------------------------------------------------------
171	1.850000e+00	3.761281e-05	
172	1.900000e+00	3.763799e-05	
173	1.950000e+00	3.766235e-05	
174	2.000000e+00	3.768598e-05	
175	2.050000e+00	3.770892e-05	
176	2.100000e+00	3.773125e-05	
177	2.150000e+00	3.775300e-05	
178	2.200000e+00	3.777423e-05	
179	2.250000e+00	3.779499e-05	
180	2.300000e+00	3.781532e-05	
181	2.350000e+00	3.783527e-05	
182	2.400000e+00	3.785489e-05	
183	2.450000e+00	3.787422e-05	
184	2.500000e+00	3.789333e-05	
185	2.550000e+00	3.791227e-05	
186	2.600000e+00	3.793113e-05	
187	2.650000e+00	3.794996e-05	
188	2.700000e+00	3.796888e-05	
189	2.750000e+00	3.798798e-05	
190	2.800000e+00	3.800737e-05	
191	2.850000e+00	3.802718e-05	
192	2.900000e+00	3.804756e-05	
193	2.950000e+00	3.806868e-05	
194	3.000000e+00	3.809070e-05	
195	3.050000e+00	3.811384e-05	
196	3.100000e+00	3.813830e-05	
197	3.150000e+00	3.816433e-05	
198	3.200000e+00	3.819218e-05	
199	3.250000e+00	3.822215e-05	
200	3.300000e+00	3.825452e-05	
201	0.000000e+00	-1.01933e-36	
202	5.000000e-02	5.708215e-06	
203	1.000000e-01	1.113001e-05	
204	1.500000e-01	1.627140e-05	
205	2.000000e-01	2.113823e-05	
206	2.500000e-01	2.573623e-05	
207	3.000000e-01	3.007096e-05	
208	3.500000e-01	3.414785e-05	
209	4.000000e-01	3.797219e-05	
210	4.500000e-01	4.154912e-05	
211	5.000000e-01	4.488365e-05	
212	5.500000e-01	4.798064e-05	
213	6.000000e-01	5.084479e-05	
214	6.500000e-01	5.348062e-05	
215	7.000000e-01	5.589245e-05	
216	7.500000e-01	5.808429e-05	
217	8.000000e-01	6.005975e-05	
218	8.500000e-01	6.182176e-05	
219	9.000000e-01	6.337211e-05	
220	9.500000e-01	6.471066e-05	
221	1.000000e+00	6.583471e-05	
222	1.050000e+00	6.674074e-05	
223	1.100000e+00	6.743420e-05	
224	1.150000e+00	6.794305e-05	
225	1.200000e+00	6.831364e-05	
226	1.250000e+00	6.859048e-05	
227	1.300000e+00	6.880545e-05	
228	1.350000e+00	6.897881e-05	

Index   v-sweep         -i(vds)         
--------------------------------------------------------------------------------
229	1.400000e+00	6.912316e-05	
230	1.450000e+00	6.924653e-05	
231	1.500000e+00	6.935418e-05	
232	1.550000e+00	6.944971e-05	
233	1.600000e+00	6.953565e-05	
234	1.650000e+00	6.961384e-05	
235	1.700000e+00	6.968565e-05	
236	1.750000e+00	6.975213e-05	
237	1.800000e+00	6.981408e-05	
238	1.850000e+00	6.987217e-05	
239	1.900000e+00	6.992690e-05	
240	1.950000e+00	6.997869e-05	
241	2.000000e+00	7.002790e-05	
242	2.050000e+00	7.007481e-05	
243	2.100000e+00	7.011968e-05	
244	2.150000e+00	7.016270e-05	
245	2.200000e+00	7.020407e-05	
246	2.250000e+00	7.024392e-05	
247	2.300000e+00	7.028241e-05	
248	2.350000e+00	7.031964e-05	
249	2.400000e+00	7.035573e-05	
250	2.450000e+00	7.039077e-05	
251	2.500000e+00	7.042485e-05	
252	2.550000e+00	7.045806e-05	
253	2.600000e+00	7.049048e-05	
254	2.650000e+00	7.052219e-05	
255	2.700000e+00	7.055329e-05	
256	2.750000e+00	7.058387e-05	
257	2.800000e+00	7.061404e-05	
258	2.850000e+00	7.064389e-05	
259	2.900000e+00	7.067357e-05	
260	2.950000e+00	7.070322e-05	
261	3.000000e+00	7.073300e-05	
262	3.050000e+00	7.076309e-05	
263	3.100000e+00	7.079371e-05	
264	3.150000e+00	7.082509e-05	
265	3.200000e+00	7.085749e-05	
266	3.250000e+00	7.089121e-05	
267	3.300000e+00	7.092658e-05	
268	0.000000e+00	7.689857e-22	
269	5.000000e-02	6.781477e-06	
270	1.000000e-01	1.329570e-05	
271	1.500000e-01	1.954767e-05	
272	2.000000e-01	2.554227e-05	
273	2.500000e-01	3.128428e-05	
274	3.000000e-01	3.677836e-05	
275	3.500000e-01	4.202909e-05	
276	4.000000e-01	4.704094e-05	
277	4.500000e-01	5.181827e-05	
278	5.000000e-01	5.636536e-05	
279	5.500000e-01	6.068637e-05	
280	6.000000e-01	6.478539e-05	
281	6.500000e-01	6.866639e-05	
282	7.000000e-01	7.233323e-05	
283	7.500000e-01	7.578970e-05	
284	8.000000e-01	7.903943e-05	
285	8.500000e-01	8.208594e-05	
286	9.000000e-01	8.493261e-05	

Index   v-sweep         -i(vds)         
--------------------------------------------------------------------------------
287	9.500000e-01	8.758258e-05	
288	1.000000e+00	9.003875e-05	
289	1.050000e+00	9.230358e-05	
290	1.100000e+00	9.437892e-05	
291	1.150000e+00	9.626553e-05	
292	1.200000e+00	9.796236e-05	
293	1.250000e+00	9.946548e-05	
294	1.300000e+00	1.007670e-04	
295	1.350000e+00	1.018569e-04	
296	1.400000e+00	1.027314e-04	
297	1.450000e+00	1.034070e-04	
298	1.500000e+00	1.039209e-04	
299	1.550000e+00	1.043160e-04	
300	1.600000e+00	1.046276e-04	
301	1.650000e+00	1.048807e-04	
302	1.700000e+00	1.050920e-04	
303	1.750000e+00	1.052725e-04	
304	1.800000e+00	1.054297e-04	
305	1.850000e+00	1.055688e-04	
306	1.900000e+00	1.056935e-04	
307	1.950000e+00	1.058066e-04	
308	2.000000e+00	1.059102e-04	
309	2.050000e+00	1.060057e-04	
310	2.100000e+00	1.060945e-04	
311	2.150000e+00	1.061774e-04	
312	2.200000e+00	1.062553e-04	
313	2.250000e+00	1.063288e-04	
314	2.300000e+00	1.063984e-04	
315	2.350000e+00	1.064646e-04	
316	2.400000e+00	1.065277e-04	
317	2.450000e+00	1.065881e-04	
318	2.500000e+00	1.066459e-04	
319	2.550000e+00	1.067016e-04	
320	2.600000e+00	1.067552e-04	
321	2.650000e+00	1.068069e-04	
322	2.700000e+00	1.068569e-04	
323	2.750000e+00	1.069054e-04	
324	2.800000e+00	1.069524e-04	
325	2.850000e+00	1.069981e-04	
326	2.900000e+00	1.070427e-04	
327	2.950000e+00	1.070862e-04	
328	3.000000e+00	1.071288e-04	
329	3.050000e+00	1.071706e-04	
330	3.100000e+00	1.072118e-04	
331	3.150000e+00	1.072526e-04	
332	3.200000e+00	1.072931e-04	
333	3.250000e+00	1.073336e-04	
334	3.300000e+00	1.073742e-04	
335	0.000000e+00	3.966770e-21	
336	5.000000e-02	7.553208e-06	
337	1.000000e-01	1.486136e-05	
338	1.500000e-01	2.192853e-05	
339	2.000000e-01	2.875875e-05	
340	2.500000e-01	3.535595e-05	
341	3.000000e-01	4.172398e-05	
342	3.500000e-01	4.786663e-05	
343	4.000000e-01	5.378761e-05	
344	4.500000e-01	5.949055e-05	

Index   v-sweep         -i(vds)         
--------------------------------------------------------------------------------
345	5.000000e-01	6.497903e-05	
346	5.500000e-01	7.025653e-05	
347	6.000000e-01	7.532649e-05	
348	6.500000e-01	8.019227e-05	
349	7.000000e-01	8.485715e-05	
350	7.500000e-01	8.932436e-05	
351	8.000000e-01	9.359704e-05	
352	8.500000e-01	9.767829e-05	
353	9.000000e-01	1.015711e-04	
354	9.500000e-01	1.052784e-04	
355	1.000000e+00	1.088031e-04	
356	1.050000e+00	1.121479e-04	
357	1.100000e+00	1.153155e-04	
358	1.150000e+00	1.183084e-04	
359	1.200000e+00	1.211289e-04	
360	1.250000e+00	1.237792e-04	
361	1.300000e+00	1.262610e-04	
362	1.350000e+00	1.285756e-04	
363	1.400000e+00	1.307234e-04	
364	1.450000e+00	1.327036e-04	
365	1.500000e+00	1.345131e-04	
366	1.550000e+00	1.361453e-04	
367	1.600000e+00	1.375896e-04	
368	1.650000e+00	1.388321e-04	
369	1.700000e+00	1.398633e-04	
370	1.750000e+00	1.406900e-04	
371	1.800000e+00	1.413401e-04	
372	1.850000e+00	1.418519e-04	
373	1.900000e+00	1.422613e-04	
374	1.950000e+00	1.425963e-04	
375	2.000000e+00	1.428768e-04	
376	2.050000e+00	1.431164e-04	
377	2.100000e+00	1.433250e-04	
378	2.150000e+00	1.435093e-04	
379	2.200000e+00	1.436742e-04	
380	2.250000e+00	1.438234e-04	
381	2.300000e+00	1.439597e-04	
382	2.350000e+00	1.440851e-04	
383	2.400000e+00	1.442013e-04	
384	2.450000e+00	1.443097e-04	
385	2.500000e+00	1.444113e-04	
386	2.550000e+00	1.445069e-04	
387	2.600000e+00	1.445972e-04	
388	2.650000e+00	1.446830e-04	
389	2.700000e+00	1.447646e-04	
390	2.750000e+00	1.448424e-04	
391	2.800000e+00	1.449170e-04	
392	2.850000e+00	1.449885e-04	
393	2.900000e+00	1.450572e-04	
394	2.950000e+00	1.451235e-04	
395	3.000000e+00	1.451874e-04	
396	3.050000e+00	1.452493e-04	
397	3.100000e+00	1.453092e-04	
398	3.150000e+00	1.453674e-04	
399	3.200000e+00	1.454240e-04	
400	3.250000e+00	1.454792e-04	
401	3.300000e+00	1.455332e-04	
Note: No ".plot", ".print", or ".fourier" lines; no simulations run
