
Note: Compatibility modes selected: hs

Warning: m=xx on .subckt line will override multiplier m hierarchy!


Circuit: ***************************

Doing analysis at TEMP = 125.000000 and TNOM = 125.000000


No. of Data Rows : 402
                          ***************************
                          DC transfer characteristic  Mon Jan  9 13:58:12  2023
--------------------------------------------------------------------------------
Index   v-sweep         -i(vds)         
--------------------------------------------------------------------------------
0	0.000000e+00	6.520203e-24	
1	5.000000e-02	5.808569e-08	
2	1.000000e-01	1.026634e-07	
3	1.500000e-01	1.352574e-07	
4	2.000000e-01	1.563490e-07	
5	2.500000e-01	1.666710e-07	
6	3.000000e-01	1.695765e-07	
7	3.500000e-01	1.702413e-07	
8	4.000000e-01	1.705177e-07	
9	4.500000e-01	1.706960e-07	
10	5.000000e-01	1.708353e-07	
11	5.500000e-01	1.709540e-07	
12	6.000000e-01	1.710599e-07	
13	6.500000e-01	1.711571e-07	
14	7.000000e-01	1.712478e-07	
15	7.500000e-01	1.713335e-07	
16	8.000000e-01	1.714153e-07	
17	8.500000e-01	1.714939e-07	
18	9.000000e-01	1.715698e-07	
19	9.500000e-01	1.716434e-07	
20	1.000000e+00	1.717151e-07	
21	1.050000e+00	1.717852e-07	
22	1.100000e+00	1.718537e-07	
23	1.150000e+00	1.719209e-07	
24	1.200000e+00	1.719870e-07	
25	1.250000e+00	1.720520e-07	
26	1.300000e+00	1.721160e-07	
27	1.350000e+00	1.721792e-07	
28	1.400000e+00	1.722417e-07	
29	1.450000e+00	1.723034e-07	
30	1.500000e+00	1.723645e-07	
31	1.550000e+00	1.724250e-07	
32	1.600000e+00	1.724849e-07	
33	1.650000e+00	1.725443e-07	
34	1.700000e+00	1.726034e-07	
35	1.750000e+00	1.726620e-07	
36	1.800000e+00	1.727204e-07	
37	1.850000e+00	1.727786e-07	
38	1.900000e+00	1.728367e-07	
39	1.950000e+00	1.728950e-07	
40	2.000000e+00	1.729535e-07	
41	2.050000e+00	1.730126e-07	
42	2.100000e+00	1.730725e-07	
43	2.150000e+00	1.731337e-07	
44	2.200000e+00	1.731967e-07	
45	2.250000e+00	1.732620e-07	
46	2.300000e+00	1.733303e-07	
47	2.350000e+00	1.734024e-07	
48	2.400000e+00	1.734794e-07	
49	2.450000e+00	1.735622e-07	
50	2.500000e+00	1.736523e-07	
51	2.550000e+00	1.737509e-07	
52	2.600000e+00	1.738598e-07	
53	2.650000e+00	1.739808e-07	
54	2.700000e+00	1.741158e-07	

Index   v-sweep         -i(vds)         
--------------------------------------------------------------------------------
55	2.750000e+00	1.742671e-07	
56	2.800000e+00	1.744371e-07	
57	2.850000e+00	1.746284e-07	
58	2.900000e+00	1.748439e-07	
59	2.950000e+00	1.750868e-07	
60	3.000000e+00	1.753602e-07	
61	3.050000e+00	1.756677e-07	
62	3.100000e+00	1.760131e-07	
63	3.150000e+00	1.764003e-07	
64	3.200000e+00	1.768335e-07	
65	3.250000e+00	1.773171e-07	
66	3.300000e+00	1.778556e-07	
67	0.000000e+00	-2.44685e-23	
68	5.000000e-02	1.536634e-07	
69	1.000000e-01	2.930564e-07	
70	1.500000e-01	4.196796e-07	
71	2.000000e-01	5.339208e-07	
72	2.500000e-01	6.359050e-07	
73	3.000000e-01	7.256953e-07	
74	3.500000e-01	8.033419e-07	
75	4.000000e-01	8.688958e-07	
76	4.500000e-01	9.224171e-07	
77	5.000000e-01	9.639956e-07	
78	5.500000e-01	9.938199e-07	
79	6.000000e-01	1.012462e-06	
80	6.500000e-01	1.021810e-06	
81	7.000000e-01	1.025726e-06	
82	7.500000e-01	1.027555e-06	
83	8.000000e-01	1.028654e-06	
84	8.500000e-01	1.029445e-06	
85	9.000000e-01	1.030076e-06	
86	9.500000e-01	1.030608e-06	
87	1.000000e+00	1.031076e-06	
88	1.050000e+00	1.031496e-06	
89	1.100000e+00	1.031881e-06	
90	1.150000e+00	1.032238e-06	
91	1.200000e+00	1.032573e-06	
92	1.250000e+00	1.032889e-06	
93	1.300000e+00	1.033190e-06	
94	1.350000e+00	1.033477e-06	
95	1.400000e+00	1.033753e-06	
96	1.450000e+00	1.034019e-06	
97	1.500000e+00	1.034276e-06	
98	1.550000e+00	1.034526e-06	
99	1.600000e+00	1.034769e-06	
100	1.650000e+00	1.035005e-06	
101	1.700000e+00	1.035236e-06	
102	1.750000e+00	1.035462e-06	
103	1.800000e+00	1.035683e-06	
104	1.850000e+00	1.035900e-06	
105	1.900000e+00	1.036113e-06	
106	1.950000e+00	1.036322e-06	
107	2.000000e+00	1.036528e-06	
108	2.050000e+00	1.036732e-06	
109	2.100000e+00	1.036933e-06	
110	2.150000e+00	1.037132e-06	
111	2.200000e+00	1.037329e-06	
112	2.250000e+00	1.037526e-06	

Index   v-sweep         -i(vds)         
--------------------------------------------------------------------------------
113	2.300000e+00	1.037722e-06	
114	2.350000e+00	1.037920e-06	
115	2.400000e+00	1.038120e-06	
116	2.450000e+00	1.038325e-06	
117	2.500000e+00	1.038536e-06	
118	2.550000e+00	1.038756e-06	
119	2.600000e+00	1.038988e-06	
120	2.650000e+00	1.039237e-06	
121	2.700000e+00	1.039506e-06	
122	2.750000e+00	1.039801e-06	
123	2.800000e+00	1.040129e-06	
124	2.850000e+00	1.040496e-06	
125	2.900000e+00	1.040911e-06	
126	2.950000e+00	1.041384e-06	
127	3.000000e+00	1.041923e-06	
128	3.050000e+00	1.042542e-06	
129	3.100000e+00	1.043253e-06	
130	3.150000e+00	1.044069e-06	
131	3.200000e+00	1.045007e-06	
132	3.250000e+00	1.046083e-06	
133	3.300000e+00	1.047315e-06	
134	0.000000e+00	2.982680e-22	
135	5.000000e-02	2.408817e-07	
136	1.000000e-01	4.679941e-07	
137	1.500000e-01	6.828316e-07	
138	2.000000e-01	8.857779e-07	
139	2.500000e-01	1.076953e-06	
140	3.000000e-01	1.256415e-06	
141	3.500000e-01	1.424207e-06	
142	4.000000e-01	1.580369e-06	
143	4.500000e-01	1.724937e-06	
144	5.000000e-01	1.857953e-06	
145	5.500000e-01	1.979452e-06	
146	6.000000e-01	2.089476e-06	
147	6.500000e-01	2.188063e-06	
148	7.000000e-01	2.275256e-06	
149	7.500000e-01	2.351099e-06	
150	8.000000e-01	2.415644e-06	
151	8.500000e-01	2.468962e-06	
152	9.000000e-01	2.511168e-06	
153	9.500000e-01	2.542509e-06	
154	1.000000e+00	2.563628e-06	
155	1.050000e+00	2.576158e-06	
156	1.100000e+00	2.582981e-06	
157	1.150000e+00	2.586888e-06	
158	1.200000e+00	2.589441e-06	
159	1.250000e+00	2.591316e-06	
160	1.300000e+00	2.592807e-06	
161	1.350000e+00	2.594056e-06	
162	1.400000e+00	2.595138e-06	
163	1.450000e+00	2.596100e-06	
164	1.500000e+00	2.596970e-06	
165	1.550000e+00	2.597768e-06	
166	1.600000e+00	2.598508e-06	
167	1.650000e+00	2.599201e-06	
168	1.700000e+00	2.599853e-06	
169	1.750000e+00	2.600471e-06	
170	1.800000e+00	2.601060e-06	

Index   v-sweep         -i(vds)         
--------------------------------------------------------------------------------
171	1.850000e+00	2.601624e-06	
172	1.900000e+00	2.602164e-06	
173	1.950000e+00	2.602685e-06	
174	2.000000e+00	2.603189e-06	
175	2.050000e+00	2.603676e-06	
176	2.100000e+00	2.604149e-06	
177	2.150000e+00	2.604609e-06	
178	2.200000e+00	2.605057e-06	
179	2.250000e+00	2.605494e-06	
180	2.300000e+00	2.605921e-06	
181	2.350000e+00	2.606340e-06	
182	2.400000e+00	2.606750e-06	
183	2.450000e+00	2.607153e-06	
184	2.500000e+00	2.607549e-06	
185	2.550000e+00	2.607941e-06	
186	2.600000e+00	2.608328e-06	
187	2.650000e+00	2.608714e-06	
188	2.700000e+00	2.609099e-06	
189	2.750000e+00	2.609487e-06	
190	2.800000e+00	2.609882e-06	
191	2.850000e+00	2.610286e-06	
192	2.900000e+00	2.610707e-06	
193	2.950000e+00	2.611151e-06	
194	3.000000e+00	2.611625e-06	
195	3.050000e+00	2.612140e-06	
196	3.100000e+00	2.612706e-06	
197	3.150000e+00	2.613338e-06	
198	3.200000e+00	2.614051e-06	
199	3.250000e+00	2.614864e-06	
200	3.300000e+00	2.615796e-06	
201	0.000000e+00	4.206593e-22	
202	5.000000e-02	3.171593e-07	
203	1.000000e-01	6.213414e-07	
204	1.500000e-01	9.140347e-07	
205	2.000000e-01	1.195618e-06	
206	2.500000e-01	1.466208e-06	
207	3.000000e-01	1.725858e-06	
208	3.500000e-01	1.974607e-06	
209	4.000000e-01	2.212489e-06	
210	4.500000e-01	2.439539e-06	
211	5.000000e-01	2.655791e-06	
212	5.500000e-01	2.861278e-06	
213	6.000000e-01	3.056034e-06	
214	6.500000e-01	3.240092e-06	
215	7.000000e-01	3.413486e-06	
216	7.500000e-01	3.576248e-06	
217	8.000000e-01	3.728413e-06	
218	8.500000e-01	3.870014e-06	
219	9.000000e-01	4.001084e-06	
220	9.500000e-01	4.121657e-06	
221	1.000000e+00	4.231767e-06	
222	1.050000e+00	4.331449e-06	
223	1.100000e+00	4.420739e-06	
224	1.150000e+00	4.499678e-06	
225	1.200000e+00	4.568311e-06	
226	1.250000e+00	4.626696e-06	
227	1.300000e+00	4.674923e-06	
228	1.350000e+00	4.713156e-06	

Index   v-sweep         -i(vds)         
--------------------------------------------------------------------------------
229	1.400000e+00	4.741762e-06	
230	1.450000e+00	4.761596e-06	
231	1.500000e+00	4.774372e-06	
232	1.550000e+00	4.782435e-06	
233	1.600000e+00	4.787796e-06	
234	1.650000e+00	4.791663e-06	
235	1.700000e+00	4.794660e-06	
236	1.750000e+00	4.797110e-06	
237	1.800000e+00	4.799190e-06	
238	1.850000e+00	4.801005e-06	
239	1.900000e+00	4.802622e-06	
240	1.950000e+00	4.804085e-06	
241	2.000000e+00	4.805426e-06	
242	2.050000e+00	4.806667e-06	
243	2.100000e+00	4.807825e-06	
244	2.150000e+00	4.808914e-06	
245	2.200000e+00	4.809942e-06	
246	2.250000e+00	4.810918e-06	
247	2.300000e+00	4.811850e-06	
248	2.350000e+00	4.812741e-06	
249	2.400000e+00	4.813597e-06	
250	2.450000e+00	4.814421e-06	
251	2.500000e+00	4.815217e-06	
252	2.550000e+00	4.815987e-06	
253	2.600000e+00	4.816733e-06	
254	2.650000e+00	4.817459e-06	
255	2.700000e+00	4.818165e-06	
256	2.750000e+00	4.818853e-06	
257	2.800000e+00	4.819525e-06	
258	2.850000e+00	4.820183e-06	
259	2.900000e+00	4.820828e-06	
260	2.950000e+00	4.821461e-06	
261	3.000000e+00	4.822087e-06	
262	3.050000e+00	4.822706e-06	
263	3.100000e+00	4.823323e-06	
264	3.150000e+00	4.823941e-06	
265	3.200000e+00	4.824568e-06	
266	3.250000e+00	4.825209e-06	
267	3.300000e+00	4.825873e-06	
268	0.000000e+00	-3.67627e-22	
269	5.000000e-02	3.818825e-07	
270	1.000000e-01	7.516855e-07	
271	1.500000e-01	1.110891e-06	
272	2.000000e-01	1.459875e-06	
273	2.500000e-01	1.798747e-06	
274	3.000000e-01	2.127558e-06	
275	3.500000e-01	2.446342e-06	
276	4.000000e-01	2.755130e-06	
277	4.500000e-01	3.053952e-06	
278	5.000000e-01	3.342836e-06	
279	5.500000e-01	3.621813e-06	
280	6.000000e-01	3.890912e-06	
281	6.500000e-01	4.150163e-06	
282	7.000000e-01	4.399593e-06	
283	7.500000e-01	4.639232e-06	
284	8.000000e-01	4.869110e-06	
285	8.500000e-01	5.089255e-06	
286	9.000000e-01	5.299695e-06	

Index   v-sweep         -i(vds)         
--------------------------------------------------------------------------------
287	9.500000e-01	5.500460e-06	
288	1.000000e+00	5.691577e-06	
289	1.050000e+00	5.873076e-06	
290	1.100000e+00	6.044985e-06	
291	1.150000e+00	6.207332e-06	
292	1.200000e+00	6.360146e-06	
293	1.250000e+00	6.503455e-06	
294	1.300000e+00	6.637287e-06	
295	1.350000e+00	6.761672e-06	
296	1.400000e+00	6.876637e-06	
297	1.450000e+00	6.982212e-06	
298	1.500000e+00	7.078428e-06	
299	1.550000e+00	7.165314e-06	
300	1.600000e+00	7.242907e-06	
301	1.650000e+00	7.311243e-06	
302	1.700000e+00	7.370374e-06	
303	1.750000e+00	7.420373e-06	
304	1.800000e+00	7.461368e-06	
305	1.850000e+00	7.493627e-06	
306	1.900000e+00	7.517731e-06	
307	1.950000e+00	7.534830e-06	
308	2.000000e+00	7.546648e-06	
309	2.050000e+00	7.554967e-06	
310	2.100000e+00	7.561117e-06	
311	2.150000e+00	7.565910e-06	
312	2.200000e+00	7.569818e-06	
313	2.250000e+00	7.573118e-06	
314	2.300000e+00	7.575980e-06	
315	2.350000e+00	7.578513e-06	
316	2.400000e+00	7.580790e-06	
317	2.450000e+00	7.582865e-06	
318	2.500000e+00	7.584774e-06	
319	2.550000e+00	7.586546e-06	
320	2.600000e+00	7.588203e-06	
321	2.650000e+00	7.589762e-06	
322	2.700000e+00	7.591235e-06	
323	2.750000e+00	7.592635e-06	
324	2.800000e+00	7.593969e-06	
325	2.850000e+00	7.595245e-06	
326	2.900000e+00	7.596470e-06	
327	2.950000e+00	7.597649e-06	
328	3.000000e+00	7.598785e-06	
329	3.050000e+00	7.599884e-06	
330	3.100000e+00	7.600949e-06	
331	3.150000e+00	7.601982e-06	
332	3.200000e+00	7.602986e-06	
333	3.250000e+00	7.603965e-06	
334	3.300000e+00	7.604919e-06	
335	0.000000e+00	-6.47471e-22	
336	5.000000e-02	4.352906e-07	
337	1.000000e-01	8.594285e-07	
338	1.500000e-01	1.273890e-06	
339	2.000000e-01	1.679046e-06	
340	2.500000e-01	2.075004e-06	
341	3.000000e-01	2.461809e-06	
342	3.500000e-01	2.839491e-06	
343	4.000000e-01	3.208077e-06	
344	4.500000e-01	3.567593e-06	

Index   v-sweep         -i(vds)         
--------------------------------------------------------------------------------
345	5.000000e-01	3.918065e-06	
346	5.500000e-01	4.259516e-06	
347	6.000000e-01	4.591974e-06	
348	6.500000e-01	4.915463e-06	
349	7.000000e-01	5.230007e-06	
350	7.500000e-01	5.535633e-06	
351	8.000000e-01	5.832365e-06	
352	8.500000e-01	6.120228e-06	
353	9.000000e-01	6.399247e-06	
354	9.500000e-01	6.669446e-06	
355	1.000000e+00	6.930850e-06	
356	1.050000e+00	7.183484e-06	
357	1.100000e+00	7.427372e-06	
358	1.150000e+00	7.662538e-06	
359	1.200000e+00	7.889007e-06	
360	1.250000e+00	8.106804e-06	
361	1.300000e+00	8.315951e-06	
362	1.350000e+00	8.516474e-06	
363	1.400000e+00	8.708396e-06	
364	1.450000e+00	8.891741e-06	
365	1.500000e+00	9.066534e-06	
366	1.550000e+00	9.232798e-06	
367	1.600000e+00	9.390556e-06	
368	1.650000e+00	9.539834e-06	
369	1.700000e+00	9.680653e-06	
370	1.750000e+00	9.813039e-06	
371	1.800000e+00	9.937015e-06	
372	1.850000e+00	1.005260e-05	
373	1.900000e+00	1.015983e-05	
374	1.950000e+00	1.025872e-05	
375	2.000000e+00	1.034930e-05	
376	2.050000e+00	1.043159e-05	
377	2.100000e+00	1.050562e-05	
378	2.150000e+00	1.057142e-05	
379	2.200000e+00	1.062903e-05	
380	2.250000e+00	1.067852e-05	
381	2.300000e+00	1.071998e-05	
382	2.350000e+00	1.075363e-05	
383	2.400000e+00	1.077991e-05	
384	2.450000e+00	1.079968e-05	
385	2.500000e+00	1.081426e-05	
386	2.550000e+00	1.082508e-05	
387	2.600000e+00	1.083337e-05	
388	2.650000e+00	1.083995e-05	
389	2.700000e+00	1.084538e-05	
390	2.750000e+00	1.084998e-05	
391	2.800000e+00	1.085397e-05	
392	2.850000e+00	1.085750e-05	
393	2.900000e+00	1.086068e-05	
394	2.950000e+00	1.086356e-05	
395	3.000000e+00	1.086621e-05	
396	3.050000e+00	1.086867e-05	
397	3.100000e+00	1.087096e-05	
398	3.150000e+00	1.087311e-05	
399	3.200000e+00	1.087514e-05	
400	3.250000e+00	1.087706e-05	
401	3.300000e+00	1.087888e-05	
Note: No ".plot", ".print", or ".fourier" lines; no simulations run
