
Note: Compatibility modes selected: hs

Warning: m=xx on .subckt line will override multiplier m hierarchy!


Circuit: ***************************

Doing analysis at TEMP = 125.000000 and TNOM = 125.000000


No. of Data Rows : 402
                          ***************************
                          DC transfer characteristic  Mon Jan  9 13:58:12  2023
--------------------------------------------------------------------------------
Index   v-sweep         -i(vds)         
--------------------------------------------------------------------------------
0	0.000000e+00	2.862718e-22	
1	5.000000e-02	9.219234e-07	
2	1.000000e-01	1.622321e-06	
3	1.500000e-01	2.112921e-06	
4	2.000000e-01	2.405584e-06	
5	2.500000e-01	2.535416e-06	
6	3.000000e-01	2.580526e-06	
7	3.500000e-01	2.600517e-06	
8	4.000000e-01	2.613161e-06	
9	4.500000e-01	2.622781e-06	
10	5.000000e-01	2.630777e-06	
11	5.500000e-01	2.637750e-06	
12	6.000000e-01	2.644012e-06	
13	6.500000e-01	2.649750e-06	
14	7.000000e-01	2.655082e-06	
15	7.500000e-01	2.660091e-06	
16	8.000000e-01	2.664836e-06	
17	8.500000e-01	2.669360e-06	
18	9.000000e-01	2.673698e-06	
19	9.500000e-01	2.677876e-06	
20	1.000000e+00	2.681916e-06	
21	1.050000e+00	2.685833e-06	
22	1.100000e+00	2.689643e-06	
23	1.150000e+00	2.693357e-06	
24	1.200000e+00	2.696985e-06	
25	1.250000e+00	2.700536e-06	
26	1.300000e+00	2.704017e-06	
27	1.350000e+00	2.707435e-06	
28	1.400000e+00	2.710794e-06	
29	1.450000e+00	2.714100e-06	
30	1.500000e+00	2.717356e-06	
31	1.550000e+00	2.720568e-06	
32	1.600000e+00	2.723739e-06	
33	1.650000e+00	2.726871e-06	
34	1.700000e+00	2.729968e-06	
35	1.750000e+00	2.733034e-06	
36	1.800000e+00	2.736071e-06	
37	1.850000e+00	2.739083e-06	
38	1.900000e+00	2.742074e-06	
39	1.950000e+00	2.745048e-06	
40	2.000000e+00	2.748008e-06	
41	2.050000e+00	2.750961e-06	
42	2.100000e+00	2.753912e-06	
43	2.150000e+00	2.756867e-06	
44	2.200000e+00	2.759834e-06	
45	2.250000e+00	2.762821e-06	
46	2.300000e+00	2.765839e-06	
47	2.350000e+00	2.768896e-06	
48	2.400000e+00	2.772006e-06	
49	2.450000e+00	2.775181e-06	
50	2.500000e+00	2.778437e-06	
51	2.550000e+00	2.781789e-06	
52	2.600000e+00	2.785255e-06	
53	2.650000e+00	2.788855e-06	
54	2.700000e+00	2.792609e-06	

Index   v-sweep         -i(vds)         
--------------------------------------------------------------------------------
55	2.750000e+00	2.796540e-06	
56	2.800000e+00	2.800673e-06	
57	2.850000e+00	2.805034e-06	
58	2.900000e+00	2.809650e-06	
59	2.950000e+00	2.814552e-06	
60	3.000000e+00	2.819771e-06	
61	3.050000e+00	2.825341e-06	
62	3.100000e+00	2.831296e-06	
63	3.150000e+00	2.837675e-06	
64	3.200000e+00	2.844515e-06	
65	3.250000e+00	2.851859e-06	
66	3.300000e+00	2.859748e-06	
67	0.000000e+00	-2.35578e-26	
68	5.000000e-02	2.939312e-06	
69	1.000000e-01	5.618876e-06	
70	1.500000e-01	8.048932e-06	
71	2.000000e-01	1.023469e-05	
72	2.500000e-01	1.218013e-05	
73	3.000000e-01	1.388893e-05	
74	3.500000e-01	1.536473e-05	
75	4.000000e-01	1.661129e-05	
76	4.500000e-01	1.763276e-05	
77	5.000000e-01	1.843446e-05	
78	5.500000e-01	1.902520e-05	
79	6.000000e-01	1.942394e-05	
80	6.500000e-01	1.967054e-05	
81	7.000000e-01	1.982113e-05	
82	7.500000e-01	1.992088e-05	
83	8.000000e-01	1.999393e-05	
84	8.500000e-01	2.005164e-05	
85	9.000000e-01	2.009962e-05	
86	9.500000e-01	2.014091e-05	
87	1.000000e+00	2.017736e-05	
88	1.050000e+00	2.021012e-05	
89	1.100000e+00	2.024000e-05	
90	1.150000e+00	2.026754e-05	
91	1.200000e+00	2.029317e-05	
92	1.250000e+00	2.031719e-05	
93	1.300000e+00	2.033984e-05	
94	1.350000e+00	2.036132e-05	
95	1.400000e+00	2.038178e-05	
96	1.450000e+00	2.040135e-05	
97	1.500000e+00	2.042012e-05	
98	1.550000e+00	2.043818e-05	
99	1.600000e+00	2.045562e-05	
100	1.650000e+00	2.047248e-05	
101	1.700000e+00	2.048882e-05	
102	1.750000e+00	2.050469e-05	
103	1.800000e+00	2.052014e-05	
104	1.850000e+00	2.053519e-05	
105	1.900000e+00	2.054987e-05	
106	1.950000e+00	2.056422e-05	
107	2.000000e+00	2.057827e-05	
108	2.050000e+00	2.059204e-05	
109	2.100000e+00	2.060555e-05	
110	2.150000e+00	2.061882e-05	
111	2.200000e+00	2.063189e-05	
112	2.250000e+00	2.064478e-05	

Index   v-sweep         -i(vds)         
--------------------------------------------------------------------------------
113	2.300000e+00	2.065752e-05	
114	2.350000e+00	2.067013e-05	
115	2.400000e+00	2.068266e-05	
116	2.450000e+00	2.069515e-05	
117	2.500000e+00	2.070763e-05	
118	2.550000e+00	2.072017e-05	
119	2.600000e+00	2.073281e-05	
120	2.650000e+00	2.074563e-05	
121	2.700000e+00	2.075870e-05	
122	2.750000e+00	2.077209e-05	
123	2.800000e+00	2.078592e-05	
124	2.850000e+00	2.080026e-05	
125	2.900000e+00	2.081525e-05	
126	2.950000e+00	2.083100e-05	
127	3.000000e+00	2.084765e-05	
128	3.050000e+00	2.086535e-05	
129	3.100000e+00	2.088425e-05	
130	3.150000e+00	2.090454e-05	
131	3.200000e+00	2.092639e-05	
132	3.250000e+00	2.095001e-05	
133	3.300000e+00	2.097560e-05	
134	0.000000e+00	5.512038e-26	
135	5.000000e-02	4.704930e-06	
136	1.000000e-01	9.148046e-06	
137	1.500000e-01	1.333922e-05	
138	2.000000e-01	1.728336e-05	
139	2.500000e-01	2.098411e-05	
140	3.000000e-01	2.444482e-05	
141	3.500000e-01	2.766870e-05	
142	4.000000e-01	3.065888e-05	
143	4.500000e-01	3.341848e-05	
144	5.000000e-01	3.595054e-05	
145	5.500000e-01	3.825808e-05	
146	6.000000e-01	4.034410e-05	
147	6.500000e-01	4.221157e-05	
148	7.000000e-01	4.386348e-05	
149	7.500000e-01	4.530290e-05	
150	8.000000e-01	4.653314e-05	
151	8.500000e-01	4.755813e-05	
152	9.000000e-01	4.838359e-05	
153	9.500000e-01	4.901996e-05	
154	1.000000e+00	4.948820e-05	
155	1.050000e+00	4.982330e-05	
156	1.100000e+00	5.006593e-05	
157	1.150000e+00	5.024901e-05	
158	1.200000e+00	5.039381e-05	
159	1.250000e+00	5.051306e-05	
160	1.300000e+00	5.061441e-05	
161	1.350000e+00	5.070267e-05	
162	1.400000e+00	5.078100e-05	
163	1.450000e+00	5.085156e-05	
164	1.500000e+00	5.091589e-05	
165	1.550000e+00	5.097511e-05	
166	1.600000e+00	5.103008e-05	
167	1.650000e+00	5.108145e-05	
168	1.700000e+00	5.112974e-05	
169	1.750000e+00	5.117536e-05	
170	1.800000e+00	5.121865e-05	

Index   v-sweep         -i(vds)         
--------------------------------------------------------------------------------
171	1.850000e+00	5.125988e-05	
172	1.900000e+00	5.129928e-05	
173	1.950000e+00	5.133706e-05	
174	2.000000e+00	5.137336e-05	
175	2.050000e+00	5.140834e-05	
176	2.100000e+00	5.144212e-05	
177	2.150000e+00	5.147479e-05	
178	2.200000e+00	5.150647e-05	
179	2.250000e+00	5.153722e-05	
180	2.300000e+00	5.156712e-05	
181	2.350000e+00	5.159625e-05	
182	2.400000e+00	5.162466e-05	
183	2.450000e+00	5.165242e-05	
184	2.500000e+00	5.167959e-05	
185	2.550000e+00	5.170623e-05	
186	2.600000e+00	5.173240e-05	
187	2.650000e+00	5.175818e-05	
188	2.700000e+00	5.178363e-05	
189	2.750000e+00	5.180884e-05	
190	2.800000e+00	5.183392e-05	
191	2.850000e+00	5.185896e-05	
192	2.900000e+00	5.188408e-05	
193	2.950000e+00	5.190944e-05	
194	3.000000e+00	5.193517e-05	
195	3.050000e+00	5.196147e-05	
196	3.100000e+00	5.198852e-05	
197	3.150000e+00	5.201655e-05	
198	3.200000e+00	5.204582e-05	
199	3.250000e+00	5.207658e-05	
200	3.300000e+00	5.210914e-05	
201	0.000000e+00	3.633131e-25	
202	5.000000e-02	6.199472e-06	
203	1.000000e-01	1.214347e-05	
204	1.500000e-01	1.784148e-05	
205	2.000000e-01	2.329806e-05	
206	2.500000e-01	2.851654e-05	
207	3.000000e-01	3.349993e-05	
208	3.500000e-01	3.825115e-05	
209	4.000000e-01	4.277302e-05	
210	4.500000e-01	4.706834e-05	
211	5.000000e-01	5.113987e-05	
212	5.500000e-01	5.499034e-05	
213	6.000000e-01	5.862240e-05	
214	6.500000e-01	6.203869e-05	
215	7.000000e-01	6.524183e-05	
216	7.500000e-01	6.823435e-05	
217	8.000000e-01	7.101879e-05	
218	8.500000e-01	7.359763e-05	
219	9.000000e-01	7.597330e-05	
220	9.500000e-01	7.814819e-05	
221	1.000000e+00	8.012465e-05	
222	1.050000e+00	8.190496e-05	
223	1.100000e+00	8.349134e-05	
224	1.150000e+00	8.488595e-05	
225	1.200000e+00	8.609097e-05	
226	1.250000e+00	8.710910e-05	
227	1.300000e+00	8.794514e-05	
228	1.350000e+00	8.860992e-05	

Index   v-sweep         -i(vds)         
--------------------------------------------------------------------------------
229	1.400000e+00	8.912506e-05	
230	1.450000e+00	8.952179e-05	
231	1.500000e+00	8.983217e-05	
232	1.550000e+00	9.008179e-05	
233	1.600000e+00	9.028849e-05	
234	1.650000e+00	9.046414e-05	
235	1.700000e+00	9.061668e-05	
236	1.750000e+00	9.075149e-05	
237	1.800000e+00	9.087237e-05	
238	1.850000e+00	9.098205e-05	
239	1.900000e+00	9.108254e-05	
240	1.950000e+00	9.117537e-05	
241	2.000000e+00	9.126174e-05	
242	2.050000e+00	9.134257e-05	
243	2.100000e+00	9.141861e-05	
244	2.150000e+00	9.149048e-05	
245	2.200000e+00	9.155866e-05	
246	2.250000e+00	9.162358e-05	
247	2.300000e+00	9.168559e-05	
248	2.350000e+00	9.174499e-05	
249	2.400000e+00	9.180202e-05	
250	2.450000e+00	9.185692e-05	
251	2.500000e+00	9.190986e-05	
252	2.550000e+00	9.196102e-05	
253	2.600000e+00	9.201054e-05	
254	2.650000e+00	9.205857e-05	
255	2.700000e+00	9.210522e-05	
256	2.750000e+00	9.215060e-05	
257	2.800000e+00	9.219483e-05	
258	2.850000e+00	9.223800e-05	
259	2.900000e+00	9.228024e-05	
260	2.950000e+00	9.232165e-05	
261	3.000000e+00	9.236236e-05	
262	3.050000e+00	9.240248e-05	
263	3.100000e+00	9.244219e-05	
264	3.150000e+00	9.248162e-05	
265	3.200000e+00	9.252099e-05	
266	3.250000e+00	9.256049e-05	
267	3.300000e+00	9.260038e-05	
268	0.000000e+00	-1.08223e-25	
269	5.000000e-02	7.444876e-06	
270	1.000000e-01	1.464450e-05	
271	1.500000e-01	2.160796e-05	
272	2.000000e-01	2.833948e-05	
273	2.500000e-01	3.484206e-05	
274	3.000000e-01	4.111840e-05	
275	3.500000e-01	4.717107e-05	
276	4.000000e-01	5.300261e-05	
277	4.500000e-01	5.861553e-05	
278	5.000000e-01	6.401228e-05	
279	5.500000e-01	6.919529e-05	
280	6.000000e-01	7.416696e-05	
281	6.500000e-01	7.892966e-05	
282	7.000000e-01	8.348572e-05	
283	7.500000e-01	8.783743e-05	
284	8.000000e-01	9.198708e-05	
285	8.500000e-01	9.593690e-05	
286	9.000000e-01	9.968909e-05	

Index   v-sweep         -i(vds)         
--------------------------------------------------------------------------------
287	9.500000e-01	1.032458e-04	
288	1.000000e+00	1.066093e-04	
289	1.050000e+00	1.097815e-04	
290	1.100000e+00	1.127646e-04	
291	1.150000e+00	1.155605e-04	
292	1.200000e+00	1.181713e-04	
293	1.250000e+00	1.205989e-04	
294	1.300000e+00	1.228452e-04	
295	1.350000e+00	1.249117e-04	
296	1.400000e+00	1.268000e-04	
297	1.450000e+00	1.285115e-04	
298	1.500000e+00	1.300469e-04	
299	1.550000e+00	1.314066e-04	
300	1.600000e+00	1.325904e-04	
301	1.650000e+00	1.335986e-04	
302	1.700000e+00	1.344356e-04	
303	1.750000e+00	1.351144e-04	
304	1.800000e+00	1.356587e-04	
305	1.850000e+00	1.360969e-04	
306	1.900000e+00	1.364557e-04	
307	1.950000e+00	1.367557e-04	
308	2.000000e+00	1.370117e-04	
309	2.050000e+00	1.372344e-04	
310	2.100000e+00	1.374312e-04	
311	2.150000e+00	1.376074e-04	
312	2.200000e+00	1.377670e-04	
313	2.250000e+00	1.379129e-04	
314	2.300000e+00	1.380474e-04	
315	2.350000e+00	1.381723e-04	
316	2.400000e+00	1.382888e-04	
317	2.450000e+00	1.383983e-04	
318	2.500000e+00	1.385014e-04	
319	2.550000e+00	1.385991e-04	
320	2.600000e+00	1.386919e-04	
321	2.650000e+00	1.387804e-04	
322	2.700000e+00	1.388649e-04	
323	2.750000e+00	1.389459e-04	
324	2.800000e+00	1.390237e-04	
325	2.850000e+00	1.390986e-04	
326	2.900000e+00	1.391709e-04	
327	2.950000e+00	1.392407e-04	
328	3.000000e+00	1.393083e-04	
329	3.050000e+00	1.393738e-04	
330	3.100000e+00	1.394374e-04	
331	3.150000e+00	1.394993e-04	
332	3.200000e+00	1.395597e-04	
333	3.250000e+00	1.396187e-04	
334	3.300000e+00	1.396764e-04	
335	0.000000e+00	2.478098e-25	
336	5.000000e-02	8.468730e-06	
337	1.000000e-01	1.670446e-05	
338	1.500000e-01	2.471590e-05	
339	2.000000e-01	3.250696e-05	
340	2.500000e-01	4.008033e-05	
341	3.000000e-01	4.743839e-05	
342	3.500000e-01	5.458342e-05	
343	4.000000e-01	6.151766e-05	
344	4.500000e-01	6.824332e-05	

Index   v-sweep         -i(vds)         
--------------------------------------------------------------------------------
345	5.000000e-01	7.476258e-05	
346	5.500000e-01	8.107760e-05	
347	6.000000e-01	8.719050e-05	
348	6.500000e-01	9.310338e-05	
349	7.000000e-01	9.881832e-05	
350	7.500000e-01	1.043374e-04	
351	8.000000e-01	1.096626e-04	
352	8.500000e-01	1.147959e-04	
353	9.000000e-01	1.197393e-04	
354	9.500000e-01	1.244948e-04	
355	1.000000e+00	1.290642e-04	
356	1.050000e+00	1.334495e-04	
357	1.100000e+00	1.376526e-04	
358	1.150000e+00	1.416753e-04	
359	1.200000e+00	1.455194e-04	
360	1.250000e+00	1.491867e-04	
361	1.300000e+00	1.526790e-04	
362	1.350000e+00	1.559980e-04	
363	1.400000e+00	1.591454e-04	
364	1.450000e+00	1.621228e-04	
365	1.500000e+00	1.649320e-04	
366	1.550000e+00	1.675743e-04	
367	1.600000e+00	1.700512e-04	
368	1.650000e+00	1.723641e-04	
369	1.700000e+00	1.745140e-04	
370	1.750000e+00	1.765018e-04	
371	1.800000e+00	1.783276e-04	
372	1.850000e+00	1.799912e-04	
373	1.900000e+00	1.814911e-04	
374	1.950000e+00	1.828246e-04	
375	2.000000e+00	1.839886e-04	
376	2.050000e+00	1.849828e-04	
377	2.100000e+00	1.858139e-04	
378	2.150000e+00	1.864994e-04	
379	2.200000e+00	1.870640e-04	
380	2.250000e+00	1.875333e-04	
381	2.300000e+00	1.879293e-04	
382	2.350000e+00	1.882691e-04	
383	2.400000e+00	1.885654e-04	
384	2.450000e+00	1.888274e-04	
385	2.500000e+00	1.890621e-04	
386	2.550000e+00	1.892745e-04	
387	2.600000e+00	1.894686e-04	
388	2.650000e+00	1.896472e-04	
389	2.700000e+00	1.898128e-04	
390	2.750000e+00	1.899672e-04	
391	2.800000e+00	1.901119e-04	
392	2.850000e+00	1.902482e-04	
393	2.900000e+00	1.903769e-04	
394	2.950000e+00	1.904991e-04	
395	3.000000e+00	1.906154e-04	
396	3.050000e+00	1.907263e-04	
397	3.100000e+00	1.908325e-04	
398	3.150000e+00	1.909344e-04	
399	3.200000e+00	1.910323e-04	
400	3.250000e+00	1.911266e-04	
401	3.300000e+00	1.912177e-04	
Note: No ".plot", ".print", or ".fourier" lines; no simulations run
