
Note: Compatibility modes selected: hs

Warning: m=xx on .subckt line will override multiplier m hierarchy!


Circuit: ***************************

Doing analysis at TEMP = 25.000000 and TNOM = 25.000000


No. of Data Rows : 402
                          ***************************
                          DC transfer characteristic  Mon Jan  9 13:58:11  2023
--------------------------------------------------------------------------------
Index   v-sweep         -i(vds)         
--------------------------------------------------------------------------------
0	0.000000e+00	7.566024e-33	
1	5.000000e-02	8.297880e-07	
2	1.000000e-01	1.382193e-06	
3	1.500000e-01	1.688617e-06	
4	2.000000e-01	1.821644e-06	
5	2.500000e-01	1.878071e-06	
6	3.000000e-01	1.909745e-06	
7	3.500000e-01	1.932230e-06	
8	4.000000e-01	1.950274e-06	
9	4.500000e-01	1.965720e-06	
10	5.000000e-01	1.979457e-06	
11	5.500000e-01	1.991977e-06	
12	6.000000e-01	2.003585e-06	
13	6.500000e-01	2.014481e-06	
14	7.000000e-01	2.024807e-06	
15	7.500000e-01	2.034665e-06	
16	8.000000e-01	2.044132e-06	
17	8.500000e-01	2.053268e-06	
18	9.000000e-01	2.062119e-06	
19	9.500000e-01	2.070724e-06	
20	1.000000e+00	2.079112e-06	
21	1.050000e+00	2.087310e-06	
22	1.100000e+00	2.095338e-06	
23	1.150000e+00	2.103215e-06	
24	1.200000e+00	2.110956e-06	
25	1.250000e+00	2.118574e-06	
26	1.300000e+00	2.126081e-06	
27	1.350000e+00	2.133486e-06	
28	1.400000e+00	2.140798e-06	
29	1.450000e+00	2.148025e-06	
30	1.500000e+00	2.155175e-06	
31	1.550000e+00	2.162253e-06	
32	1.600000e+00	2.169265e-06	
33	1.650000e+00	2.176217e-06	
34	1.700000e+00	2.183114e-06	
35	1.750000e+00	2.189961e-06	
36	1.800000e+00	2.196764e-06	
37	1.850000e+00	2.203527e-06	
38	1.900000e+00	2.210258e-06	
39	1.950000e+00	2.216960e-06	
40	2.000000e+00	2.223642e-06	
41	2.050000e+00	2.230309e-06	
42	2.100000e+00	2.236970e-06	
43	2.150000e+00	2.243634e-06	
44	2.200000e+00	2.250310e-06	
45	2.250000e+00	2.257009e-06	
46	2.300000e+00	2.263742e-06	
47	2.350000e+00	2.270523e-06	
48	2.400000e+00	2.277366e-06	
49	2.450000e+00	2.284287e-06	
50	2.500000e+00	2.291303e-06	
51	2.550000e+00	2.298435e-06	
52	2.600000e+00	2.305701e-06	
53	2.650000e+00	2.313127e-06	
54	2.700000e+00	2.320735e-06	

Index   v-sweep         -i(vds)         
--------------------------------------------------------------------------------
55	2.750000e+00	2.328553e-06	
56	2.800000e+00	2.336610e-06	
57	2.850000e+00	2.344935e-06	
58	2.900000e+00	2.353563e-06	
59	2.950000e+00	2.362529e-06	
60	3.000000e+00	2.371870e-06	
61	3.050000e+00	2.381627e-06	
62	3.100000e+00	2.391843e-06	
63	3.150000e+00	2.402562e-06	
64	3.200000e+00	2.413832e-06	
65	3.250000e+00	2.425704e-06	
66	3.300000e+00	2.438230e-06	
67	0.000000e+00	4.407052e-32	
68	5.000000e-02	3.670031e-06	
69	1.000000e-01	6.963299e-06	
70	1.500000e-01	9.893176e-06	
71	2.000000e-01	1.247254e-05	
72	2.500000e-01	1.471386e-05	
73	3.000000e-01	1.662934e-05	
74	3.500000e-01	1.823127e-05	
75	4.000000e-01	1.953281e-05	
76	4.500000e-01	2.055015e-05	
77	5.000000e-01	2.130767e-05	
78	5.500000e-01	2.184609e-05	
79	6.000000e-01	2.222256e-05	
80	6.500000e-01	2.249345e-05	
81	7.000000e-01	2.269888e-05	
82	7.500000e-01	2.286289e-05	
83	8.000000e-01	2.299934e-05	
84	8.500000e-01	2.311647e-05	
85	9.000000e-01	2.321943e-05	
86	9.500000e-01	2.331162e-05	
87	1.000000e+00	2.339534e-05	
88	1.050000e+00	2.347227e-05	
89	1.100000e+00	2.354363e-05	
90	1.150000e+00	2.361032e-05	
91	1.200000e+00	2.367307e-05	
92	1.250000e+00	2.373245e-05	
93	1.300000e+00	2.378889e-05	
94	1.350000e+00	2.384277e-05	
95	1.400000e+00	2.389439e-05	
96	1.450000e+00	2.394400e-05	
97	1.500000e+00	2.399182e-05	
98	1.550000e+00	2.403802e-05	
99	1.600000e+00	2.408276e-05	
100	1.650000e+00	2.412618e-05	
101	1.700000e+00	2.416839e-05	
102	1.750000e+00	2.420950e-05	
103	1.800000e+00	2.424959e-05	
104	1.850000e+00	2.428874e-05	
105	1.900000e+00	2.432704e-05	
106	1.950000e+00	2.436454e-05	
107	2.000000e+00	2.440132e-05	
108	2.050000e+00	2.443742e-05	
109	2.100000e+00	2.447291e-05	
110	2.150000e+00	2.450786e-05	
111	2.200000e+00	2.454230e-05	
112	2.250000e+00	2.457632e-05	

Index   v-sweep         -i(vds)         
--------------------------------------------------------------------------------
113	2.300000e+00	2.460997e-05	
114	2.350000e+00	2.464333e-05	
115	2.400000e+00	2.467647e-05	
116	2.450000e+00	2.470947e-05	
117	2.500000e+00	2.474244e-05	
118	2.550000e+00	2.477546e-05	
119	2.600000e+00	2.480865e-05	
120	2.650000e+00	2.484215e-05	
121	2.700000e+00	2.487608e-05	
122	2.750000e+00	2.491060e-05	
123	2.800000e+00	2.494588e-05	
124	2.850000e+00	2.498210e-05	
125	2.900000e+00	2.501945e-05	
126	2.950000e+00	2.505816e-05	
127	3.000000e+00	2.509846e-05	
128	3.050000e+00	2.514060e-05	
129	3.100000e+00	2.518486e-05	
130	3.150000e+00	2.523154e-05	
131	3.200000e+00	2.528094e-05	
132	3.250000e+00	2.533341e-05	
133	3.300000e+00	2.538931e-05	
134	0.000000e+00	1.802970e-31	
135	5.000000e-02	5.929873e-06	
136	1.000000e-01	1.147116e-05	
137	1.500000e-01	1.663553e-05	
138	2.000000e-01	2.143425e-05	
139	2.500000e-01	2.587817e-05	
140	3.000000e-01	2.997777e-05	
141	3.500000e-01	3.374315e-05	
142	4.000000e-01	3.718402e-05	
143	4.500000e-01	4.030977e-05	
144	5.000000e-01	4.312936e-05	
145	5.500000e-01	4.565139e-05	
146	6.000000e-01	4.788402e-05	
147	6.500000e-01	4.983494e-05	
148	7.000000e-01	5.151147e-05	
149	7.500000e-01	5.292135e-05	
150	8.000000e-01	5.407546e-05	
151	8.500000e-01	5.499376e-05	
152	9.000000e-01	5.571050e-05	
153	9.500000e-01	5.626988e-05	
154	1.000000e+00	5.671425e-05	
155	1.050000e+00	5.707661e-05	
156	1.100000e+00	5.738009e-05	
157	1.150000e+00	5.764033e-05	
158	1.200000e+00	5.786798e-05	
159	1.250000e+00	5.807039e-05	
160	1.300000e+00	5.825282e-05	
161	1.350000e+00	5.841908e-05	
162	1.400000e+00	5.857203e-05	
163	1.450000e+00	5.871384e-05	
164	1.500000e+00	5.884623e-05	
165	1.550000e+00	5.897052e-05	
166	1.600000e+00	5.908781e-05	
167	1.650000e+00	5.919897e-05	
168	1.700000e+00	5.930473e-05	
169	1.750000e+00	5.940570e-05	
170	1.800000e+00	5.950239e-05	

Index   v-sweep         -i(vds)         
--------------------------------------------------------------------------------
171	1.850000e+00	5.959523e-05	
172	1.900000e+00	5.968459e-05	
173	1.950000e+00	5.977080e-05	
174	2.000000e+00	5.985414e-05	
175	2.050000e+00	5.993486e-05	
176	2.100000e+00	6.001316e-05	
177	2.150000e+00	6.008925e-05	
178	2.200000e+00	6.016330e-05	
179	2.250000e+00	6.023547e-05	
180	2.300000e+00	6.030592e-05	
181	2.350000e+00	6.037478e-05	
182	2.400000e+00	6.044220e-05	
183	2.450000e+00	6.050833e-05	
184	2.500000e+00	6.057329e-05	
185	2.550000e+00	6.063724e-05	
186	2.600000e+00	6.070033e-05	
187	2.650000e+00	6.076275e-05	
188	2.700000e+00	6.082466e-05	
189	2.750000e+00	6.088628e-05	
190	2.800000e+00	6.094783e-05	
191	2.850000e+00	6.100955e-05	
192	2.900000e+00	6.107173e-05	
193	2.950000e+00	6.113466e-05	
194	3.000000e+00	6.119867e-05	
195	3.050000e+00	6.126415e-05	
196	3.100000e+00	6.133148e-05	
197	3.150000e+00	6.140112e-05	
198	3.200000e+00	6.147355e-05	
199	3.250000e+00	6.154929e-05	
200	3.300000e+00	6.162892e-05	
201	0.000000e+00	9.560178e-31	
202	5.000000e-02	7.676612e-06	
203	1.000000e-01	1.497236e-05	
204	1.500000e-01	2.189719e-05	
205	2.000000e-01	2.846075e-05	
206	2.500000e-01	3.467241e-05	
207	3.000000e-01	4.054123e-05	
208	3.500000e-01	4.607600e-05	
209	4.000000e-01	5.128525e-05	
210	4.500000e-01	5.617720e-05	
211	5.000000e-01	6.075985e-05	
212	5.500000e-01	6.504087e-05	
213	6.000000e-01	6.902770e-05	
214	6.500000e-01	7.272744e-05	
215	7.000000e-01	7.614685e-05	
216	7.500000e-01	7.929225e-05	
217	8.000000e-01	8.216944e-05	
218	8.500000e-01	8.478343e-05	
219	9.000000e-01	8.713814e-05	
220	9.500000e-01	8.923599e-05	
221	1.000000e+00	9.107779e-05	
222	1.050000e+00	9.266397e-05	
223	1.100000e+00	9.399910e-05	
224	1.150000e+00	9.509895e-05	
225	1.200000e+00	9.599385e-05	
226	1.250000e+00	9.672289e-05	
227	1.300000e+00	9.732416e-05	
228	1.350000e+00	9.782893e-05	

Index   v-sweep         -i(vds)         
--------------------------------------------------------------------------------
229	1.400000e+00	9.826069e-05	
230	1.450000e+00	9.863648e-05	
231	1.500000e+00	9.896859e-05	
232	1.550000e+00	9.926597e-05	
233	1.600000e+00	9.953524e-05	
234	1.650000e+00	9.978138e-05	
235	1.700000e+00	1.000082e-04	
236	1.750000e+00	1.002188e-04	
237	1.800000e+00	1.004153e-04	
238	1.850000e+00	1.005998e-04	
239	1.900000e+00	1.007738e-04	
240	1.950000e+00	1.009386e-04	
241	2.000000e+00	1.010952e-04	
242	2.050000e+00	1.012445e-04	
243	2.100000e+00	1.013872e-04	
244	2.150000e+00	1.015241e-04	
245	2.200000e+00	1.016556e-04	
246	2.250000e+00	1.017822e-04	
247	2.300000e+00	1.019044e-04	
248	2.350000e+00	1.020226e-04	
249	2.400000e+00	1.021371e-04	
250	2.450000e+00	1.022481e-04	
251	2.500000e+00	1.023559e-04	
252	2.550000e+00	1.024609e-04	
253	2.600000e+00	1.025632e-04	
254	2.650000e+00	1.026630e-04	
255	2.700000e+00	1.027607e-04	
256	2.750000e+00	1.028564e-04	
257	2.800000e+00	1.029504e-04	
258	2.850000e+00	1.030429e-04	
259	2.900000e+00	1.031342e-04	
260	2.950000e+00	1.032247e-04	
261	3.000000e+00	1.033146e-04	
262	3.050000e+00	1.034042e-04	
263	3.100000e+00	1.034941e-04	
264	3.150000e+00	1.035846e-04	
265	3.200000e+00	1.036762e-04	
266	3.250000e+00	1.037695e-04	
267	3.300000e+00	1.038651e-04	
268	0.000000e+00	8.910246e-31	
269	5.000000e-02	9.031761e-06	
270	1.000000e-01	1.769864e-05	
271	1.500000e-01	2.600906e-05	
272	2.000000e-01	3.397119e-05	
273	2.500000e-01	4.159303e-05	
274	3.000000e-01	4.888232e-05	
275	3.500000e-01	5.584663e-05	
276	4.000000e-01	6.249330e-05	
277	4.500000e-01	6.882950e-05	
278	5.000000e-01	7.486218e-05	
279	5.500000e-01	8.059810e-05	
280	6.000000e-01	8.604383e-05	
281	6.500000e-01	9.120575e-05	
282	7.000000e-01	9.609002e-05	
283	7.500000e-01	1.007026e-04	
284	8.000000e-01	1.050492e-04	
285	8.500000e-01	1.091353e-04	
286	9.000000e-01	1.129661e-04	

Index   v-sweep         -i(vds)         
--------------------------------------------------------------------------------
287	9.500000e-01	1.165462e-04	
288	1.000000e+00	1.198800e-04	
289	1.050000e+00	1.229707e-04	
290	1.100000e+00	1.258209e-04	
291	1.150000e+00	1.284310e-04	
292	1.200000e+00	1.307995e-04	
293	1.250000e+00	1.329224e-04	
294	1.300000e+00	1.347940e-04	
295	1.350000e+00	1.364119e-04	
296	1.400000e+00	1.377832e-04	
297	1.450000e+00	1.389299e-04	
298	1.500000e+00	1.398854e-04	
299	1.550000e+00	1.406864e-04	
300	1.600000e+00	1.413659e-04	
301	1.650000e+00	1.419507e-04	
302	1.700000e+00	1.424614e-04	
303	1.750000e+00	1.429132e-04	
304	1.800000e+00	1.433178e-04	
305	1.850000e+00	1.436839e-04	
306	1.900000e+00	1.440181e-04	
307	1.950000e+00	1.443256e-04	
308	2.000000e+00	1.446105e-04	
309	2.050000e+00	1.448760e-04	
310	2.100000e+00	1.451247e-04	
311	2.150000e+00	1.453588e-04	
312	2.200000e+00	1.455800e-04	
313	2.250000e+00	1.457897e-04	
314	2.300000e+00	1.459894e-04	
315	2.350000e+00	1.461799e-04	
316	2.400000e+00	1.463622e-04	
317	2.450000e+00	1.465370e-04	
318	2.500000e+00	1.467051e-04	
319	2.550000e+00	1.468670e-04	
320	2.600000e+00	1.470232e-04	
321	2.650000e+00	1.471743e-04	
322	2.700000e+00	1.473206e-04	
323	2.750000e+00	1.474624e-04	
324	2.800000e+00	1.476003e-04	
325	2.850000e+00	1.477344e-04	
326	2.900000e+00	1.478652e-04	
327	2.950000e+00	1.479929e-04	
328	3.000000e+00	1.481179e-04	
329	3.050000e+00	1.482405e-04	
330	3.100000e+00	1.483611e-04	
331	3.150000e+00	1.484801e-04	
332	3.200000e+00	1.485978e-04	
333	3.250000e+00	1.487148e-04	
334	3.300000e+00	1.488315e-04	
335	0.000000e+00	-5.93339e-31	
336	5.000000e-02	1.008594e-05	
337	1.000000e-01	1.982653e-05	
338	1.500000e-01	2.922885e-05	
339	2.000000e-01	3.829984e-05	
340	2.500000e-01	4.704628e-05	
341	3.000000e-01	5.547478e-05	
342	3.500000e-01	6.359181e-05	
343	4.000000e-01	7.140366e-05	
344	4.500000e-01	7.891650e-05	

Index   v-sweep         -i(vds)         
--------------------------------------------------------------------------------
345	5.000000e-01	8.613635e-05	
346	5.500000e-01	9.306908e-05	
347	6.000000e-01	9.972041e-05	
348	6.500000e-01	1.060959e-04	
349	7.000000e-01	1.122011e-04	
350	7.500000e-01	1.180412e-04	
351	8.000000e-01	1.236214e-04	
352	8.500000e-01	1.289467e-04	
353	9.000000e-01	1.340219e-04	
354	9.500000e-01	1.388517e-04	
355	1.000000e+00	1.434407e-04	
356	1.050000e+00	1.477930e-04	
357	1.100000e+00	1.519125e-04	
358	1.150000e+00	1.558030e-04	
359	1.200000e+00	1.594675e-04	
360	1.250000e+00	1.629083e-04	
361	1.300000e+00	1.661269e-04	
362	1.350000e+00	1.691230e-04	
363	1.400000e+00	1.718943e-04	
364	1.450000e+00	1.744358e-04	
365	1.500000e+00	1.767394e-04	
366	1.550000e+00	1.787958e-04	
367	1.600000e+00	1.805990e-04	
368	1.650000e+00	1.821531e-04	
369	1.700000e+00	1.834760e-04	
370	1.750000e+00	1.845973e-04	
371	1.800000e+00	1.855510e-04	
372	1.850000e+00	1.863695e-04	
373	1.900000e+00	1.870800e-04	
374	1.950000e+00	1.877041e-04	
375	2.000000e+00	1.882587e-04	
376	2.050000e+00	1.887568e-04	
377	2.100000e+00	1.892084e-04	
378	2.150000e+00	1.896211e-04	
379	2.200000e+00	1.900012e-04	
380	2.250000e+00	1.903534e-04	
381	2.300000e+00	1.906816e-04	
382	2.350000e+00	1.909890e-04	
383	2.400000e+00	1.912782e-04	
384	2.450000e+00	1.915514e-04	
385	2.500000e+00	1.918103e-04	
386	2.550000e+00	1.920565e-04	
387	2.600000e+00	1.922913e-04	
388	2.650000e+00	1.925158e-04	
389	2.700000e+00	1.927309e-04	
390	2.750000e+00	1.929376e-04	
391	2.800000e+00	1.931365e-04	
392	2.850000e+00	1.933282e-04	
393	2.900000e+00	1.935135e-04	
394	2.950000e+00	1.936927e-04	
395	3.000000e+00	1.938664e-04	
396	3.050000e+00	1.940350e-04	
397	3.100000e+00	1.941990e-04	
398	3.150000e+00	1.943587e-04	
399	3.200000e+00	1.945147e-04	
400	3.250000e+00	1.946672e-04	
401	3.300000e+00	1.948168e-04	
Note: No ".plot", ".print", or ".fourier" lines; no simulations run
