
Note: Compatibility modes selected: hs

Warning: m=xx on .subckt line will override multiplier m hierarchy!


Circuit: ***************************

Doing analysis at TEMP = -40.000000 and TNOM = -40.000000


No. of Data Rows : 402
                          ***************************
                          DC transfer characteristic  Mon Jan  9 13:58:11  2023
--------------------------------------------------------------------------------
Index   v-sweep         -i(vds)         
--------------------------------------------------------------------------------
0	0.000000e+00	2.094100e-22	
1	5.000000e-02	8.024385e-07	
2	1.000000e-01	1.023168e-06	
3	1.500000e-01	1.037955e-06	
4	2.000000e-01	1.040487e-06	
5	2.500000e-01	1.041865e-06	
6	3.000000e-01	1.042943e-06	
7	3.500000e-01	1.043898e-06	
8	4.000000e-01	1.044786e-06	
9	4.500000e-01	1.045634e-06	
10	5.000000e-01	1.046455e-06	
11	5.500000e-01	1.047255e-06	
12	6.000000e-01	1.048040e-06	
13	6.500000e-01	1.048813e-06	
14	7.000000e-01	1.049577e-06	
15	7.500000e-01	1.050333e-06	
16	8.000000e-01	1.051082e-06	
17	8.500000e-01	1.051825e-06	
18	9.000000e-01	1.052563e-06	
19	9.500000e-01	1.053297e-06	
20	1.000000e+00	1.054027e-06	
21	1.050000e+00	1.054754e-06	
22	1.100000e+00	1.055477e-06	
23	1.150000e+00	1.056198e-06	
24	1.200000e+00	1.056917e-06	
25	1.250000e+00	1.057633e-06	
26	1.300000e+00	1.058347e-06	
27	1.350000e+00	1.059060e-06	
28	1.400000e+00	1.059770e-06	
29	1.450000e+00	1.060479e-06	
30	1.500000e+00	1.061187e-06	
31	1.550000e+00	1.061894e-06	
32	1.600000e+00	1.062599e-06	
33	1.650000e+00	1.063304e-06	
34	1.700000e+00	1.064009e-06	
35	1.750000e+00	1.064713e-06	
36	1.800000e+00	1.065418e-06	
37	1.850000e+00	1.066124e-06	
38	1.900000e+00	1.066831e-06	
39	1.950000e+00	1.067542e-06	
40	2.000000e+00	1.068256e-06	
41	2.050000e+00	1.068976e-06	
42	2.100000e+00	1.069702e-06	
43	2.150000e+00	1.070438e-06	
44	2.200000e+00	1.071186e-06	
45	2.250000e+00	1.071948e-06	
46	2.300000e+00	1.072728e-06	
47	2.350000e+00	1.073530e-06	
48	2.400000e+00	1.074357e-06	
49	2.450000e+00	1.075214e-06	
50	2.500000e+00	1.076108e-06	
51	2.550000e+00	1.077043e-06	
52	2.600000e+00	1.078026e-06	
53	2.650000e+00	1.079064e-06	
54	2.700000e+00	1.080166e-06	

Index   v-sweep         -i(vds)         
--------------------------------------------------------------------------------
55	2.750000e+00	1.081339e-06	
56	2.800000e+00	1.082592e-06	
57	2.850000e+00	1.083935e-06	
58	2.900000e+00	1.085378e-06	
59	2.950000e+00	1.086933e-06	
60	3.000000e+00	1.088611e-06	
61	3.050000e+00	1.090424e-06	
62	3.100000e+00	1.092384e-06	
63	3.150000e+00	1.094506e-06	
64	3.200000e+00	1.096803e-06	
65	3.250000e+00	1.099290e-06	
66	3.300000e+00	1.101983e-06	
67	0.000000e+00	-4.63377e-21	
68	5.000000e-02	6.744422e-06	
69	1.000000e-01	1.265620e-05	
70	1.500000e-01	1.773812e-05	
71	2.000000e-01	2.199312e-05	
72	2.500000e-01	2.542450e-05	
73	3.000000e-01	2.803674e-05	
74	3.500000e-01	2.983913e-05	
75	4.000000e-01	3.086645e-05	
76	4.500000e-01	3.127447e-05	
77	5.000000e-01	3.139402e-05	
78	5.500000e-01	3.143830e-05	
79	6.000000e-01	3.146251e-05	
80	6.500000e-01	3.147934e-05	
81	7.000000e-01	3.149262e-05	
82	7.500000e-01	3.150390e-05	
83	8.000000e-01	3.151389e-05	
84	8.500000e-01	3.152300e-05	
85	9.000000e-01	3.153146e-05	
86	9.500000e-01	3.153943e-05	
87	1.000000e+00	3.154702e-05	
88	1.050000e+00	3.155429e-05	
89	1.100000e+00	3.156130e-05	
90	1.150000e+00	3.156809e-05	
91	1.200000e+00	3.157470e-05	
92	1.250000e+00	3.158115e-05	
93	1.300000e+00	3.158746e-05	
94	1.350000e+00	3.159365e-05	
95	1.400000e+00	3.159973e-05	
96	1.450000e+00	3.160571e-05	
97	1.500000e+00	3.161161e-05	
98	1.550000e+00	3.161742e-05	
99	1.600000e+00	3.162317e-05	
100	1.650000e+00	3.162885e-05	
101	1.700000e+00	3.163448e-05	
102	1.750000e+00	3.164005e-05	
103	1.800000e+00	3.164557e-05	
104	1.850000e+00	3.165105e-05	
105	1.900000e+00	3.165649e-05	
106	1.950000e+00	3.166190e-05	
107	2.000000e+00	3.166728e-05	
108	2.050000e+00	3.167265e-05	
109	2.100000e+00	3.167802e-05	
110	2.150000e+00	3.168340e-05	
111	2.200000e+00	3.168881e-05	
112	2.250000e+00	3.169428e-05	

Index   v-sweep         -i(vds)         
--------------------------------------------------------------------------------
113	2.300000e+00	3.169983e-05	
114	2.350000e+00	3.170551e-05	
115	2.400000e+00	3.171134e-05	
116	2.450000e+00	3.171739e-05	
117	2.500000e+00	3.172372e-05	
118	2.550000e+00	3.173041e-05	
119	2.600000e+00	3.173753e-05	
120	2.650000e+00	3.174518e-05	
121	2.700000e+00	3.175348e-05	
122	2.750000e+00	3.176255e-05	
123	2.800000e+00	3.177254e-05	
124	2.850000e+00	3.178360e-05	
125	2.900000e+00	3.179590e-05	
126	2.950000e+00	3.180964e-05	
127	3.000000e+00	3.182503e-05	
128	3.050000e+00	3.184229e-05	
129	3.100000e+00	3.186167e-05	
130	3.150000e+00	3.188344e-05	
131	3.200000e+00	3.190787e-05	
132	3.250000e+00	3.193528e-05	
133	3.300000e+00	3.196597e-05	
134	0.000000e+00	-5.25864e-22	
135	5.000000e-02	1.218744e-05	
136	1.000000e-01	2.359321e-05	
137	1.500000e-01	3.421966e-05	
138	2.000000e-01	4.406915e-05	
139	2.500000e-01	5.314402e-05	
140	3.000000e-01	6.144661e-05	
141	3.500000e-01	6.897927e-05	
142	4.000000e-01	7.574437e-05	
143	4.500000e-01	8.174434e-05	
144	5.000000e-01	8.698165e-05	
145	5.500000e-01	9.145899e-05	
146	6.000000e-01	9.517951e-05	
147	6.500000e-01	9.814755e-05	
148	7.000000e-01	1.003714e-04	
149	7.500000e-01	1.018737e-04	
150	8.000000e-01	1.027292e-04	
151	8.500000e-01	1.031278e-04	
152	9.000000e-01	1.033063e-04	
153	9.500000e-01	1.034010e-04	
154	1.000000e+00	1.034617e-04	
155	1.050000e+00	1.035061e-04	
156	1.100000e+00	1.035415e-04	
157	1.150000e+00	1.035713e-04	
158	1.200000e+00	1.035974e-04	
159	1.250000e+00	1.036208e-04	
160	1.300000e+00	1.036421e-04	
161	1.350000e+00	1.036619e-04	
162	1.400000e+00	1.036805e-04	
163	1.450000e+00	1.036981e-04	
164	1.500000e+00	1.037148e-04	
165	1.550000e+00	1.037308e-04	
166	1.600000e+00	1.037462e-04	
167	1.650000e+00	1.037611e-04	
168	1.700000e+00	1.037755e-04	
169	1.750000e+00	1.037895e-04	
170	1.800000e+00	1.038032e-04	

Index   v-sweep         -i(vds)         
--------------------------------------------------------------------------------
171	1.850000e+00	1.038165e-04	
172	1.900000e+00	1.038296e-04	
173	1.950000e+00	1.038424e-04	
174	2.000000e+00	1.038550e-04	
175	2.050000e+00	1.038674e-04	
176	2.100000e+00	1.038795e-04	
177	2.150000e+00	1.038915e-04	
178	2.200000e+00	1.039034e-04	
179	2.250000e+00	1.039151e-04	
180	2.300000e+00	1.039266e-04	
181	2.350000e+00	1.039381e-04	
182	2.400000e+00	1.039495e-04	
183	2.450000e+00	1.039609e-04	
184	2.500000e+00	1.039723e-04	
185	2.550000e+00	1.039837e-04	
186	2.600000e+00	1.039953e-04	
187	2.650000e+00	1.040071e-04	
188	2.700000e+00	1.040193e-04	
189	2.750000e+00	1.040318e-04	
190	2.800000e+00	1.040450e-04	
191	2.850000e+00	1.040590e-04	
192	2.900000e+00	1.040740e-04	
193	2.950000e+00	1.040903e-04	
194	3.000000e+00	1.041082e-04	
195	3.050000e+00	1.041279e-04	
196	3.100000e+00	1.041500e-04	
197	3.150000e+00	1.041747e-04	
198	3.200000e+00	1.042028e-04	
199	3.250000e+00	1.042345e-04	
200	3.300000e+00	1.042706e-04	
201	0.000000e+00	-4.29160e-37	
202	5.000000e-02	1.655525e-05	
203	1.000000e-01	3.240765e-05	
204	1.500000e-01	4.755917e-05	
205	2.000000e-01	6.201176e-05	
206	2.500000e-01	7.576736e-05	
207	3.000000e-01	8.882790e-05	
208	3.500000e-01	1.011953e-04	
209	4.000000e-01	1.128716e-04	
210	4.500000e-01	1.238586e-04	
211	5.000000e-01	1.341583e-04	
212	5.500000e-01	1.437725e-04	
213	6.000000e-01	1.527033e-04	
214	6.500000e-01	1.609525e-04	
215	7.000000e-01	1.685220e-04	
216	7.500000e-01	1.754139e-04	
217	8.000000e-01	1.816300e-04	
218	8.500000e-01	1.871724e-04	
219	9.000000e-01	1.920431e-04	
220	9.500000e-01	1.962445e-04	
221	1.000000e+00	1.997793e-04	
222	1.050000e+00	2.026518e-04	
223	1.100000e+00	2.048700e-04	
224	1.150000e+00	2.064545e-04	
225	1.200000e+00	2.074645e-04	
226	1.250000e+00	2.080338e-04	
227	1.300000e+00	2.083425e-04	
228	1.350000e+00	2.085239e-04	

Index   v-sweep         -i(vds)         
--------------------------------------------------------------------------------
229	1.400000e+00	2.086440e-04	
230	1.450000e+00	2.087321e-04	
231	1.500000e+00	2.088015e-04	
232	1.550000e+00	2.088591e-04	
233	1.600000e+00	2.089087e-04	
234	1.650000e+00	2.089525e-04	
235	1.700000e+00	2.089919e-04	
236	1.750000e+00	2.090280e-04	
237	1.800000e+00	2.090615e-04	
238	1.850000e+00	2.090927e-04	
239	1.900000e+00	2.091222e-04	
240	1.950000e+00	2.091502e-04	
241	2.000000e+00	2.091768e-04	
242	2.050000e+00	2.092024e-04	
243	2.100000e+00	2.092270e-04	
244	2.150000e+00	2.092508e-04	
245	2.200000e+00	2.092738e-04	
246	2.250000e+00	2.092961e-04	
247	2.300000e+00	2.093178e-04	
248	2.350000e+00	2.093390e-04	
249	2.400000e+00	2.093597e-04	
250	2.450000e+00	2.093799e-04	
251	2.500000e+00	2.093998e-04	
252	2.550000e+00	2.094193e-04	
253	2.600000e+00	2.094384e-04	
254	2.650000e+00	2.094573e-04	
255	2.700000e+00	2.094759e-04	
256	2.750000e+00	2.094943e-04	
257	2.800000e+00	2.095125e-04	
258	2.850000e+00	2.095307e-04	
259	2.900000e+00	2.095489e-04	
260	2.950000e+00	2.095672e-04	
261	3.000000e+00	2.095857e-04	
262	3.050000e+00	2.096047e-04	
263	3.100000e+00	2.096243e-04	
264	3.150000e+00	2.096448e-04	
265	3.200000e+00	2.096665e-04	
266	3.250000e+00	2.096897e-04	
267	3.300000e+00	2.097150e-04	
268	0.000000e+00	-4.47112e-36	
269	5.000000e-02	1.980890e-05	
270	1.000000e-01	3.900057e-05	
271	1.500000e-01	5.757659e-05	
272	2.000000e-01	7.553854e-05	
273	2.500000e-01	9.288797e-05	
274	3.000000e-01	1.096265e-04	
275	3.500000e-01	1.257556e-04	
276	4.000000e-01	1.412769e-04	
277	4.500000e-01	1.561919e-04	
278	5.000000e-01	1.705021e-04	
279	5.500000e-01	1.842092e-04	
280	6.000000e-01	1.973147e-04	
281	6.500000e-01	2.098201e-04	
282	7.000000e-01	2.217269e-04	
283	7.500000e-01	2.330367e-04	
284	8.000000e-01	2.437510e-04	
285	8.500000e-01	2.538713e-04	
286	9.000000e-01	2.633992e-04	

Index   v-sweep         -i(vds)         
--------------------------------------------------------------------------------
287	9.500000e-01	2.723361e-04	
288	1.000000e+00	2.806836e-04	
289	1.050000e+00	2.884433e-04	
290	1.100000e+00	2.956165e-04	
291	1.150000e+00	3.022049e-04	
292	1.200000e+00	3.082099e-04	
293	1.250000e+00	3.136331e-04	
294	1.300000e+00	3.184761e-04	
295	1.350000e+00	3.227406e-04	
296	1.400000e+00	3.264283e-04	
297	1.450000e+00	3.295419e-04	
298	1.500000e+00	3.320851e-04	
299	1.550000e+00	3.340670e-04	
300	1.600000e+00	3.355107e-04	
301	1.650000e+00	3.364755e-04	
302	1.700000e+00	3.370745e-04	
303	1.750000e+00	3.374429e-04	
304	1.800000e+00	3.376831e-04	
305	1.850000e+00	3.378527e-04	
306	1.900000e+00	3.379815e-04	
307	1.950000e+00	3.380847e-04	
308	2.000000e+00	3.381710e-04	
309	2.050000e+00	3.382454e-04	
310	2.100000e+00	3.383111e-04	
311	2.150000e+00	3.383701e-04	
312	2.200000e+00	3.384239e-04	
313	2.250000e+00	3.384735e-04	
314	2.300000e+00	3.385197e-04	
315	2.350000e+00	3.385631e-04	
316	2.400000e+00	3.386041e-04	
317	2.450000e+00	3.386430e-04	
318	2.500000e+00	3.386801e-04	
319	2.550000e+00	3.387157e-04	
320	2.600000e+00	3.387500e-04	
321	2.650000e+00	3.387830e-04	
322	2.700000e+00	3.388150e-04	
323	2.750000e+00	3.388460e-04	
324	2.800000e+00	3.388761e-04	
325	2.850000e+00	3.389054e-04	
326	2.900000e+00	3.389340e-04	
327	2.950000e+00	3.389620e-04	
328	3.000000e+00	3.389893e-04	
329	3.050000e+00	3.390162e-04	
330	3.100000e+00	3.390426e-04	
331	3.150000e+00	3.390685e-04	
332	3.200000e+00	3.390942e-04	
333	3.250000e+00	3.391197e-04	
334	3.300000e+00	3.391450e-04	
335	0.000000e+00	9.404620e-37	
336	5.000000e-02	2.205813e-05	
337	1.000000e-01	4.358254e-05	
338	1.500000e-01	6.457448e-05	
339	2.000000e-01	8.503518e-05	
340	2.500000e-01	1.049659e-04	
341	3.000000e-01	1.243678e-04	
342	3.500000e-01	1.432422e-04	
343	4.000000e-01	1.615903e-04	
344	4.500000e-01	1.794133e-04	

Index   v-sweep         -i(vds)         
--------------------------------------------------------------------------------
345	5.000000e-01	1.967124e-04	
346	5.500000e-01	2.134889e-04	
347	6.000000e-01	2.297440e-04	
348	6.500000e-01	2.454789e-04	
349	7.000000e-01	2.606947e-04	
350	7.500000e-01	2.753928e-04	
351	8.000000e-01	2.895743e-04	
352	8.500000e-01	3.032404e-04	
353	9.000000e-01	3.163924e-04	
354	9.500000e-01	3.290313e-04	
355	1.000000e+00	3.411585e-04	
356	1.050000e+00	3.527751e-04	
357	1.100000e+00	3.638823e-04	
358	1.150000e+00	3.744814e-04	
359	1.200000e+00	3.845734e-04	
360	1.250000e+00	3.941595e-04	
361	1.300000e+00	4.032411e-04	
362	1.350000e+00	4.118191e-04	
363	1.400000e+00	4.198948e-04	
364	1.450000e+00	4.274694e-04	
365	1.500000e+00	4.345440e-04	
366	1.550000e+00	4.411198e-04	
367	1.600000e+00	4.471980e-04	
368	1.650000e+00	4.527796e-04	
369	1.700000e+00	4.578658e-04	
370	1.750000e+00	4.624577e-04	
371	1.800000e+00	4.665564e-04	
372	1.850000e+00	4.701632e-04	
373	1.900000e+00	4.732793e-04	
374	1.950000e+00	4.759070e-04	
375	2.000000e+00	4.780503e-04	
376	2.050000e+00	4.797202e-04	
377	2.100000e+00	4.809458e-04	
378	2.150000e+00	4.817907e-04	
379	2.200000e+00	4.823527e-04	
380	2.250000e+00	4.827316e-04	
381	2.300000e+00	4.829998e-04	
382	2.350000e+00	4.832010e-04	
383	2.400000e+00	4.833598e-04	
384	2.450000e+00	4.834904e-04	
385	2.500000e+00	4.836013e-04	
386	2.550000e+00	4.836979e-04	
387	2.600000e+00	4.837837e-04	
388	2.650000e+00	4.838610e-04	
389	2.700000e+00	4.839317e-04	
390	2.750000e+00	4.839969e-04	
391	2.800000e+00	4.840577e-04	
392	2.850000e+00	4.841146e-04	
393	2.900000e+00	4.841684e-04	
394	2.950000e+00	4.842194e-04	
395	3.000000e+00	4.842680e-04	
396	3.050000e+00	4.843145e-04	
397	3.100000e+00	4.843591e-04	
398	3.150000e+00	4.844021e-04	
399	3.200000e+00	4.844436e-04	
400	3.250000e+00	4.844838e-04	
401	3.300000e+00	4.845228e-04	
Note: No ".plot", ".print", or ".fourier" lines; no simulations run
