
Note: Compatibility modes selected: hs

Warning: m=xx on .subckt line will override multiplier m hierarchy!


Circuit: ***************************

Doing analysis at TEMP = 25.000000 and TNOM = 25.000000


No. of Data Rows : 402
                          ***************************
                          DC transfer characteristic  Mon Jan  9 13:58:11  2023
--------------------------------------------------------------------------------
Index   v-sweep         -i(vds)         
--------------------------------------------------------------------------------
0	0.000000e+00	-2.09679e-31	
1	5.000000e-02	7.797718e-06	
2	1.000000e-01	1.229543e-05	
3	1.500000e-01	1.400845e-05	
4	2.000000e-01	1.440188e-05	
5	2.500000e-01	1.452683e-05	
6	3.000000e-01	1.459681e-05	
7	3.500000e-01	1.464832e-05	
8	4.000000e-01	1.469115e-05	
9	4.500000e-01	1.472905e-05	
10	5.000000e-01	1.476376e-05	
11	5.500000e-01	1.479626e-05	
12	6.000000e-01	1.482712e-05	
13	6.500000e-01	1.485673e-05	
14	7.000000e-01	1.488534e-05	
15	7.500000e-01	1.491314e-05	
16	8.000000e-01	1.494027e-05	
17	8.500000e-01	1.496684e-05	
18	9.000000e-01	1.499293e-05	
19	9.500000e-01	1.501860e-05	
20	1.000000e+00	1.504390e-05	
21	1.050000e+00	1.506889e-05	
22	1.100000e+00	1.509359e-05	
23	1.150000e+00	1.511804e-05	
24	1.200000e+00	1.514226e-05	
25	1.250000e+00	1.516627e-05	
26	1.300000e+00	1.519010e-05	
27	1.350000e+00	1.521375e-05	
28	1.400000e+00	1.523726e-05	
29	1.450000e+00	1.526062e-05	
30	1.500000e+00	1.528385e-05	
31	1.550000e+00	1.530697e-05	
32	1.600000e+00	1.532998e-05	
33	1.650000e+00	1.535290e-05	
34	1.700000e+00	1.537574e-05	
35	1.750000e+00	1.539851e-05	
36	1.800000e+00	1.542123e-05	
37	1.850000e+00	1.544393e-05	
38	1.900000e+00	1.546661e-05	
39	1.950000e+00	1.548931e-05	
40	2.000000e+00	1.551206e-05	
41	2.050000e+00	1.553488e-05	
42	2.100000e+00	1.555783e-05	
43	2.150000e+00	1.558093e-05	
44	2.200000e+00	1.560425e-05	
45	2.250000e+00	1.562784e-05	
46	2.300000e+00	1.565176e-05	
47	2.350000e+00	1.567610e-05	
48	2.400000e+00	1.570093e-05	
49	2.450000e+00	1.572634e-05	
50	2.500000e+00	1.575243e-05	
51	2.550000e+00	1.577931e-05	
52	2.600000e+00	1.580709e-05	
53	2.650000e+00	1.583591e-05	
54	2.700000e+00	1.586591e-05	

Index   v-sweep         -i(vds)         
--------------------------------------------------------------------------------
55	2.750000e+00	1.589723e-05	
56	2.800000e+00	1.593002e-05	
57	2.850000e+00	1.596447e-05	
58	2.900000e+00	1.600076e-05	
59	2.950000e+00	1.603906e-05	
60	3.000000e+00	1.607959e-05	
61	3.050000e+00	1.612256e-05	
62	3.100000e+00	1.616819e-05	
63	3.150000e+00	1.621673e-05	
64	3.200000e+00	1.626840e-05	
65	3.250000e+00	1.632348e-05	
66	3.300000e+00	1.638223e-05	
67	0.000000e+00	-1.99157e-30	
68	5.000000e-02	4.300910e-05	
69	1.000000e-01	8.153515e-05	
70	1.500000e-01	1.156789e-04	
71	2.000000e-01	1.455386e-04	
72	2.500000e-01	1.712100e-04	
73	3.000000e-01	1.927870e-04	
74	3.500000e-01	2.103633e-04	
75	4.000000e-01	2.240384e-04	
76	4.500000e-01	2.339458e-04	
77	5.000000e-01	2.403700e-04	
78	5.500000e-01	2.440195e-04	
79	6.000000e-01	2.459936e-04	
80	6.500000e-01	2.471584e-04	
81	7.000000e-01	2.479395e-04	
82	7.500000e-01	2.485197e-04	
83	8.000000e-01	2.489825e-04	
84	8.500000e-01	2.493703e-04	
85	9.000000e-01	2.497068e-04	
86	9.500000e-01	2.500062e-04	
87	1.000000e+00	2.502777e-04	
88	1.050000e+00	2.505275e-04	
89	1.100000e+00	2.507601e-04	
90	1.150000e+00	2.509786e-04	
91	1.200000e+00	2.511854e-04	
92	1.250000e+00	2.513824e-04	
93	1.300000e+00	2.515710e-04	
94	1.350000e+00	2.517523e-04	
95	1.400000e+00	2.519273e-04	
96	1.450000e+00	2.520967e-04	
97	1.500000e+00	2.522612e-04	
98	1.550000e+00	2.524214e-04	
99	1.600000e+00	2.525776e-04	
100	1.650000e+00	2.527302e-04	
101	1.700000e+00	2.528797e-04	
102	1.750000e+00	2.530262e-04	
103	1.800000e+00	2.531701e-04	
104	1.850000e+00	2.533115e-04	
105	1.900000e+00	2.534508e-04	
106	1.950000e+00	2.535880e-04	
107	2.000000e+00	2.537236e-04	
108	2.050000e+00	2.538575e-04	
109	2.100000e+00	2.539902e-04	
110	2.150000e+00	2.541218e-04	
111	2.200000e+00	2.542526e-04	
112	2.250000e+00	2.543830e-04	

Index   v-sweep         -i(vds)         
--------------------------------------------------------------------------------
113	2.300000e+00	2.545133e-04	
114	2.350000e+00	2.546441e-04	
115	2.400000e+00	2.547757e-04	
116	2.450000e+00	2.549089e-04	
117	2.500000e+00	2.550443e-04	
118	2.550000e+00	2.551826e-04	
119	2.600000e+00	2.553247e-04	
120	2.650000e+00	2.554717e-04	
121	2.700000e+00	2.556246e-04	
122	2.750000e+00	2.557847e-04	
123	2.800000e+00	2.559533e-04	
124	2.850000e+00	2.561320e-04	
125	2.900000e+00	2.563224e-04	
126	2.950000e+00	2.565264e-04	
127	3.000000e+00	2.567458e-04	
128	3.050000e+00	2.569828e-04	
129	3.100000e+00	2.572396e-04	
130	3.150000e+00	2.575187e-04	
131	3.200000e+00	2.578227e-04	
132	3.250000e+00	2.581543e-04	
133	3.300000e+00	2.585164e-04	
134	0.000000e+00	-1.05246e-29	
135	5.000000e-02	7.184566e-05	
136	1.000000e-01	1.392373e-04	
137	1.500000e-01	2.022614e-04	
138	2.000000e-01	2.610024e-04	
139	2.500000e-01	3.155428e-04	
140	3.000000e-01	3.659631e-04	
141	3.500000e-01	4.123417e-04	
142	4.000000e-01	4.547549e-04	
143	4.500000e-01	4.932767e-04	
144	5.000000e-01	5.279783e-04	
145	5.500000e-01	5.589279e-04	
146	6.000000e-01	5.861891e-04	
147	6.500000e-01	6.098188e-04	
148	7.000000e-01	6.298643e-04	
149	7.500000e-01	6.463595e-04	
150	8.000000e-01	6.593362e-04	
151	8.500000e-01	6.689022e-04	
152	9.000000e-01	6.754444e-04	
153	9.500000e-01	6.797278e-04	
154	1.000000e+00	6.825836e-04	
155	1.050000e+00	6.846000e-04	
156	1.100000e+00	6.861152e-04	
157	1.150000e+00	6.873153e-04	
158	1.200000e+00	6.883060e-04	
159	1.250000e+00	6.891501e-04	
160	1.300000e+00	6.898873e-04	
161	1.350000e+00	6.905436e-04	
162	1.400000e+00	6.911371e-04	
163	1.450000e+00	6.916803e-04	
164	1.500000e+00	6.921827e-04	
165	1.550000e+00	6.926514e-04	
166	1.600000e+00	6.930916e-04	
167	1.650000e+00	6.935077e-04	
168	1.700000e+00	6.939030e-04	
169	1.750000e+00	6.942802e-04	
170	1.800000e+00	6.946416e-04	

Index   v-sweep         -i(vds)         
--------------------------------------------------------------------------------
171	1.850000e+00	6.949890e-04	
172	1.900000e+00	6.953240e-04	
173	1.950000e+00	6.956479e-04	
174	2.000000e+00	6.959618e-04	
175	2.050000e+00	6.962666e-04	
176	2.100000e+00	6.965633e-04	
177	2.150000e+00	6.968525e-04	
178	2.200000e+00	6.971350e-04	
179	2.250000e+00	6.974114e-04	
180	2.300000e+00	6.976822e-04	
181	2.350000e+00	6.979482e-04	
182	2.400000e+00	6.982098e-04	
183	2.450000e+00	6.984678e-04	
184	2.500000e+00	6.987229e-04	
185	2.550000e+00	6.989758e-04	
186	2.600000e+00	6.992276e-04	
187	2.650000e+00	6.994792e-04	
188	2.700000e+00	6.997319e-04	
189	2.750000e+00	6.999871e-04	
190	2.800000e+00	7.002464e-04	
191	2.850000e+00	7.005117e-04	
192	2.900000e+00	7.007851e-04	
193	2.950000e+00	7.010690e-04	
194	3.000000e+00	7.013661e-04	
195	3.050000e+00	7.016796e-04	
196	3.100000e+00	7.020126e-04	
197	3.150000e+00	7.023691e-04	
198	3.200000e+00	7.027532e-04	
199	3.250000e+00	7.031693e-04	
200	3.300000e+00	7.036223e-04	
201	0.000000e+00	-2.89693e-30	
202	5.000000e-02	9.354947e-05	
203	1.000000e-01	1.828931e-04	
204	1.500000e-01	2.681023e-04	
205	2.000000e-01	3.492472e-04	
206	2.500000e-01	4.263965e-04	
207	3.000000e-01	4.996176e-04	
208	3.500000e-01	5.689763e-04	
209	4.000000e-01	6.345373e-04	
210	4.500000e-01	6.963638e-04	
211	5.000000e-01	7.545174e-04	
212	5.500000e-01	8.090587e-04	
213	6.000000e-01	8.600463e-04	
214	6.500000e-01	9.075373e-04	
215	7.000000e-01	9.515869e-04	
216	7.500000e-01	9.922479e-04	
217	8.000000e-01	1.029570e-03	
218	8.500000e-01	1.063598e-03	
219	9.000000e-01	1.094371e-03	
220	9.500000e-01	1.121918e-03	
221	1.000000e+00	1.146250e-03	
222	1.050000e+00	1.167352e-03	
223	1.100000e+00	1.185174e-03	
224	1.150000e+00	1.199650e-03	
225	1.200000e+00	1.210802e-03	
226	1.250000e+00	1.218944e-03	
227	1.300000e+00	1.224729e-03	
228	1.350000e+00	1.228884e-03	

Index   v-sweep         -i(vds)         
--------------------------------------------------------------------------------
229	1.400000e+00	1.231975e-03	
230	1.450000e+00	1.234375e-03	
231	1.500000e+00	1.236309e-03	
232	1.550000e+00	1.237920e-03	
233	1.600000e+00	1.239297e-03	
234	1.650000e+00	1.240500e-03	
235	1.700000e+00	1.241568e-03	
236	1.750000e+00	1.242530e-03	
237	1.800000e+00	1.243407e-03	
238	1.850000e+00	1.244214e-03	
239	1.900000e+00	1.244963e-03	
240	1.950000e+00	1.245663e-03	
241	2.000000e+00	1.246321e-03	
242	2.050000e+00	1.246944e-03	
243	2.100000e+00	1.247534e-03	
244	2.150000e+00	1.248098e-03	
245	2.200000e+00	1.248636e-03	
246	2.250000e+00	1.249154e-03	
247	2.300000e+00	1.249651e-03	
248	2.350000e+00	1.250132e-03	
249	2.400000e+00	1.250596e-03	
250	2.450000e+00	1.251046e-03	
251	2.500000e+00	1.251484e-03	
252	2.550000e+00	1.251909e-03	
253	2.600000e+00	1.252324e-03	
254	2.650000e+00	1.252730e-03	
255	2.700000e+00	1.253127e-03	
256	2.750000e+00	1.253516e-03	
257	2.800000e+00	1.253900e-03	
258	2.850000e+00	1.254279e-03	
259	2.900000e+00	1.254654e-03	
260	2.950000e+00	1.255028e-03	
261	3.000000e+00	1.255403e-03	
262	3.050000e+00	1.255780e-03	
263	3.100000e+00	1.256163e-03	
264	3.150000e+00	1.256554e-03	
265	3.200000e+00	1.256958e-03	
266	3.250000e+00	1.257377e-03	
267	3.300000e+00	1.257817e-03	
268	0.000000e+00	-7.12817e-31	
269	5.000000e-02	1.093156e-04	
270	1.000000e-01	2.147576e-04	
271	1.500000e-01	3.163842e-04	
272	2.000000e-01	4.142523e-04	
273	2.500000e-01	5.084177e-04	
274	3.000000e-01	5.989357e-04	
275	3.500000e-01	6.858602e-04	
276	4.000000e-01	7.692444e-04	
277	4.500000e-01	8.491405e-04	
278	5.000000e-01	9.255999e-04	
279	5.500000e-01	9.986729e-04	
280	6.000000e-01	1.068409e-03	
281	6.500000e-01	1.134856e-03	
282	7.000000e-01	1.198063e-03	
283	7.500000e-01	1.258075e-03	
284	8.000000e-01	1.314938e-03	
285	8.500000e-01	1.368696e-03	
286	9.000000e-01	1.419391e-03	

Index   v-sweep         -i(vds)         
--------------------------------------------------------------------------------
287	9.500000e-01	1.467067e-03	
288	1.000000e+00	1.511760e-03	
289	1.050000e+00	1.553510e-03	
290	1.100000e+00	1.592348e-03	
291	1.150000e+00	1.628303e-03	
292	1.200000e+00	1.661396e-03	
293	1.250000e+00	1.691635e-03	
294	1.300000e+00	1.719010e-03	
295	1.350000e+00	1.743481e-03	
296	1.400000e+00	1.764963e-03	
297	1.450000e+00	1.783327e-03	
298	1.500000e+00	1.798443e-03	
299	1.550000e+00	1.810333e-03	
300	1.600000e+00	1.819328e-03	
301	1.650000e+00	1.826027e-03	
302	1.700000e+00	1.831072e-03	
303	1.750000e+00	1.834974e-03	
304	1.800000e+00	1.838087e-03	
305	1.850000e+00	1.840646e-03	
306	1.900000e+00	1.842803e-03	
307	1.950000e+00	1.844662e-03	
308	2.000000e+00	1.846293e-03	
309	2.050000e+00	1.847746e-03	
310	2.100000e+00	1.849056e-03	
311	2.150000e+00	1.850250e-03	
312	2.200000e+00	1.851349e-03	
313	2.250000e+00	1.852367e-03	
314	2.300000e+00	1.853318e-03	
315	2.350000e+00	1.854210e-03	
316	2.400000e+00	1.855051e-03	
317	2.450000e+00	1.855848e-03	
318	2.500000e+00	1.856606e-03	
319	2.550000e+00	1.857330e-03	
320	2.600000e+00	1.858023e-03	
321	2.650000e+00	1.858689e-03	
322	2.700000e+00	1.859329e-03	
323	2.750000e+00	1.859947e-03	
324	2.800000e+00	1.860545e-03	
325	2.850000e+00	1.861125e-03	
326	2.900000e+00	1.861688e-03	
327	2.950000e+00	1.862235e-03	
328	3.000000e+00	1.862770e-03	
329	3.050000e+00	1.863292e-03	
330	3.100000e+00	1.863805e-03	
331	3.150000e+00	1.864309e-03	
332	3.200000e+00	1.864808e-03	
333	3.250000e+00	1.865302e-03	
334	3.300000e+00	1.865796e-03	
335	0.000000e+00	-2.52491e-29	
336	5.000000e-02	1.203669e-04	
337	1.000000e-01	2.372175e-04	
338	1.500000e-01	3.505982e-04	
339	2.000000e-01	4.605550e-04	
340	2.500000e-01	5.671329e-04	
341	3.000000e-01	6.703765e-04	
342	3.500000e-01	7.703296e-04	
343	4.000000e-01	8.670353e-04	
344	4.500000e-01	9.605362e-04	

Index   v-sweep         -i(vds)         
--------------------------------------------------------------------------------
345	5.000000e-01	1.050874e-03	
346	5.500000e-01	1.138090e-03	
347	6.000000e-01	1.222226e-03	
348	6.500000e-01	1.303320e-03	
349	7.000000e-01	1.381412e-03	
350	7.500000e-01	1.456542e-03	
351	8.000000e-01	1.528746e-03	
352	8.500000e-01	1.598063e-03	
353	9.000000e-01	1.664529e-03	
354	9.500000e-01	1.728180e-03	
355	1.000000e+00	1.789051e-03	
356	1.050000e+00	1.847178e-03	
357	1.100000e+00	1.902593e-03	
358	1.150000e+00	1.955330e-03	
359	1.200000e+00	2.005419e-03	
360	1.250000e+00	2.052890e-03	
361	1.300000e+00	2.097772e-03	
362	1.350000e+00	2.140090e-03	
363	1.400000e+00	2.179866e-03	
364	1.450000e+00	2.217117e-03	
365	1.500000e+00	2.251851e-03	
366	1.550000e+00	2.284068e-03	
367	1.600000e+00	2.313746e-03	
368	1.650000e+00	2.340837e-03	
369	1.700000e+00	2.365252e-03	
370	1.750000e+00	2.386849e-03	
371	1.800000e+00	2.405449e-03	
372	1.850000e+00	2.420910e-03	
373	1.900000e+00	2.433278e-03	
374	1.950000e+00	2.442891e-03	
375	2.000000e+00	2.450295e-03	
376	2.050000e+00	2.456053e-03	
377	2.100000e+00	2.460628e-03	
378	2.150000e+00	2.464354e-03	
379	2.200000e+00	2.467461e-03	
380	2.250000e+00	2.470108e-03	
381	2.300000e+00	2.472405e-03	
382	2.350000e+00	2.474431e-03	
383	2.400000e+00	2.476241e-03	
384	2.450000e+00	2.477877e-03	
385	2.500000e+00	2.479370e-03	
386	2.550000e+00	2.480744e-03	
387	2.600000e+00	2.482018e-03	
388	2.650000e+00	2.483206e-03	
389	2.700000e+00	2.484320e-03	
390	2.750000e+00	2.485370e-03	
391	2.800000e+00	2.486363e-03	
392	2.850000e+00	2.487308e-03	
393	2.900000e+00	2.488208e-03	
394	2.950000e+00	2.489068e-03	
395	3.000000e+00	2.489894e-03	
396	3.050000e+00	2.490687e-03	
397	3.100000e+00	2.491452e-03	
398	3.150000e+00	2.492190e-03	
399	3.200000e+00	2.492905e-03	
400	3.250000e+00	2.493598e-03	
401	3.300000e+00	2.494272e-03	
Note: No ".plot", ".print", or ".fourier" lines; no simulations run
