
Note: Compatibility modes selected: hs

Warning: m=xx on .subckt line will override multiplier m hierarchy!


Circuit: ***************************

Doing analysis at TEMP = -40.000000 and TNOM = -40.000000


No. of Data Rows : 402
                          ***************************
                          DC transfer characteristic  Mon Jan  9 13:58:12  2023
--------------------------------------------------------------------------------
Index   v-sweep         -i(vds)         
--------------------------------------------------------------------------------
0	0.000000e+00	3.311952e-24	
1	5.000000e-02	3.883216e-08	
2	1.000000e-01	5.471217e-08	
3	1.500000e-01	5.692468e-08	
4	2.000000e-01	5.720268e-08	
5	2.500000e-01	5.732358e-08	
6	3.000000e-01	5.740922e-08	
7	3.500000e-01	5.748077e-08	
8	4.000000e-01	5.754481e-08	
9	4.500000e-01	5.760418e-08	
10	5.000000e-01	5.766034e-08	
11	5.500000e-01	5.771415e-08	
12	6.000000e-01	5.776617e-08	
13	6.500000e-01	5.781676e-08	
14	7.000000e-01	5.786620e-08	
15	7.500000e-01	5.791467e-08	
16	8.000000e-01	5.796233e-08	
17	8.500000e-01	5.800930e-08	
18	9.000000e-01	5.805567e-08	
19	9.500000e-01	5.810151e-08	
20	1.000000e+00	5.814689e-08	
21	1.050000e+00	5.819185e-08	
22	1.100000e+00	5.823645e-08	
23	1.150000e+00	5.828072e-08	
24	1.200000e+00	5.832468e-08	
25	1.250000e+00	5.836838e-08	
26	1.300000e+00	5.841182e-08	
27	1.350000e+00	5.845504e-08	
28	1.400000e+00	5.849805e-08	
29	1.450000e+00	5.854087e-08	
30	1.500000e+00	5.858352e-08	
31	1.550000e+00	5.862603e-08	
32	1.600000e+00	5.866841e-08	
33	1.650000e+00	5.871070e-08	
34	1.700000e+00	5.875293e-08	
35	1.750000e+00	5.879515e-08	
36	1.800000e+00	5.883741e-08	
37	1.850000e+00	5.887979e-08	
38	1.900000e+00	5.892238e-08	
39	1.950000e+00	5.896529e-08	
40	2.000000e+00	5.900867e-08	
41	2.050000e+00	5.905269e-08	
42	2.100000e+00	5.909757e-08	
43	2.150000e+00	5.914354e-08	
44	2.200000e+00	5.919091e-08	
45	2.250000e+00	5.924003e-08	
46	2.300000e+00	5.929128e-08	
47	2.350000e+00	5.934512e-08	
48	2.400000e+00	5.940207e-08	
49	2.450000e+00	5.946270e-08	
50	2.500000e+00	5.952768e-08	
51	2.550000e+00	5.959771e-08	
52	2.600000e+00	5.967359e-08	
53	2.650000e+00	5.975618e-08	
54	2.700000e+00	5.984643e-08	

Index   v-sweep         -i(vds)         
--------------------------------------------------------------------------------
55	2.750000e+00	5.994536e-08	
56	2.800000e+00	6.005406e-08	
57	2.850000e+00	6.017373e-08	
58	2.900000e+00	6.030561e-08	
59	2.950000e+00	6.045105e-08	
60	3.000000e+00	6.061145e-08	
61	3.050000e+00	6.078831e-08	
62	3.100000e+00	6.098319e-08	
63	3.150000e+00	6.119773e-08	
64	3.200000e+00	6.143365e-08	
65	3.250000e+00	6.169271e-08	
66	3.300000e+00	6.197678e-08	
67	0.000000e+00	-9.41600e-23	
68	5.000000e-02	2.538780e-07	
69	1.000000e-01	4.784113e-07	
70	1.500000e-01	6.737878e-07	
71	2.000000e-01	8.401976e-07	
72	2.500000e-01	9.778384e-07	
73	3.000000e-01	1.086931e-06	
74	3.500000e-01	1.167777e-06	
75	4.000000e-01	1.221034e-06	
76	4.500000e-01	1.249135e-06	
77	5.000000e-01	1.260007e-06	
78	5.500000e-01	1.264057e-06	
79	6.000000e-01	1.266104e-06	
80	6.500000e-01	1.267443e-06	
81	7.000000e-01	1.268453e-06	
82	7.500000e-01	1.269281e-06	
83	8.000000e-01	1.269993e-06	
84	8.500000e-01	1.270625e-06	
85	9.000000e-01	1.271199e-06	
86	9.500000e-01	1.271729e-06	
87	1.000000e+00	1.272224e-06	
88	1.050000e+00	1.272691e-06	
89	1.100000e+00	1.273134e-06	
90	1.150000e+00	1.273558e-06	
91	1.200000e+00	1.273966e-06	
92	1.250000e+00	1.274359e-06	
93	1.300000e+00	1.274740e-06	
94	1.350000e+00	1.275110e-06	
95	1.400000e+00	1.275470e-06	
96	1.450000e+00	1.275821e-06	
97	1.500000e+00	1.276165e-06	
98	1.550000e+00	1.276501e-06	
99	1.600000e+00	1.276831e-06	
100	1.650000e+00	1.277156e-06	
101	1.700000e+00	1.277475e-06	
102	1.750000e+00	1.277789e-06	
103	1.800000e+00	1.278099e-06	
104	1.850000e+00	1.278406e-06	
105	1.900000e+00	1.278708e-06	
106	1.950000e+00	1.279008e-06	
107	2.000000e+00	1.279305e-06	
108	2.050000e+00	1.279601e-06	
109	2.100000e+00	1.279897e-06	
110	2.150000e+00	1.280193e-06	
111	2.200000e+00	1.280492e-06	
112	2.250000e+00	1.280794e-06	

Index   v-sweep         -i(vds)         
--------------------------------------------------------------------------------
113	2.300000e+00	1.281104e-06	
114	2.350000e+00	1.281423e-06	
115	2.400000e+00	1.281756e-06	
116	2.450000e+00	1.282107e-06	
117	2.500000e+00	1.282481e-06	
118	2.550000e+00	1.282884e-06	
119	2.600000e+00	1.283325e-06	
120	2.650000e+00	1.283811e-06	
121	2.700000e+00	1.284352e-06	
122	2.750000e+00	1.284959e-06	
123	2.800000e+00	1.285644e-06	
124	2.850000e+00	1.286422e-06	
125	2.900000e+00	1.287307e-06	
126	2.950000e+00	1.288316e-06	
127	3.000000e+00	1.289468e-06	
128	3.050000e+00	1.290782e-06	
129	3.100000e+00	1.292281e-06	
130	3.150000e+00	1.293988e-06	
131	3.200000e+00	1.295927e-06	
132	3.250000e+00	1.298125e-06	
133	3.300000e+00	1.300611e-06	
134	0.000000e+00	-6.00985e-22	
135	5.000000e-02	4.533427e-07	
136	1.000000e-01	8.783593e-07	
137	1.500000e-01	1.275219e-06	
138	2.000000e-01	1.644090e-06	
139	2.500000e-01	1.985140e-06	
140	3.000000e-01	2.298535e-06	
141	3.500000e-01	2.584439e-06	
142	4.000000e-01	2.843018e-06	
143	4.500000e-01	3.074436e-06	
144	5.000000e-01	3.278859e-06	
145	5.500000e-01	3.456454e-06	
146	6.000000e-01	3.607397e-06	
147	6.500000e-01	3.731885e-06	
148	7.000000e-01	3.830178e-06	
149	7.500000e-01	3.902750e-06	
150	8.000000e-01	3.950875e-06	
151	8.500000e-01	3.978324e-06	
152	9.000000e-01	3.992409e-06	
153	9.500000e-01	4.000077e-06	
154	1.000000e+00	4.004917e-06	
155	1.050000e+00	4.008379e-06	
156	1.100000e+00	4.011075e-06	
157	1.150000e+00	4.013297e-06	
158	1.200000e+00	4.015200e-06	
159	1.250000e+00	4.016874e-06	
160	1.300000e+00	4.018378e-06	
161	1.350000e+00	4.019750e-06	
162	1.400000e+00	4.021017e-06	
163	1.450000e+00	4.022199e-06	
164	1.500000e+00	4.023309e-06	
165	1.550000e+00	4.024360e-06	
166	1.600000e+00	4.025359e-06	
167	1.650000e+00	4.026314e-06	
168	1.700000e+00	4.027231e-06	
169	1.750000e+00	4.028114e-06	
170	1.800000e+00	4.028966e-06	

Index   v-sweep         -i(vds)         
--------------------------------------------------------------------------------
171	1.850000e+00	4.029792e-06	
172	1.900000e+00	4.030594e-06	
173	1.950000e+00	4.031373e-06	
174	2.000000e+00	4.032133e-06	
175	2.050000e+00	4.032875e-06	
176	2.100000e+00	4.033601e-06	
177	2.150000e+00	4.034312e-06	
178	2.200000e+00	4.035009e-06	
179	2.250000e+00	4.035695e-06	
180	2.300000e+00	4.036370e-06	
181	2.350000e+00	4.037037e-06	
182	2.400000e+00	4.037697e-06	
183	2.450000e+00	4.038354e-06	
184	2.500000e+00	4.039011e-06	
185	2.550000e+00	4.039672e-06	
186	2.600000e+00	4.040343e-06	
187	2.650000e+00	4.041032e-06	
188	2.700000e+00	4.041745e-06	
189	2.750000e+00	4.042495e-06	
190	2.800000e+00	4.043294e-06	
191	2.850000e+00	4.044156e-06	
192	2.900000e+00	4.045102e-06	
193	2.950000e+00	4.046151e-06	
194	3.000000e+00	4.047329e-06	
195	3.050000e+00	4.048664e-06	
196	3.100000e+00	4.050188e-06	
197	3.150000e+00	4.051939e-06	
198	3.200000e+00	4.053956e-06	
199	3.250000e+00	4.056286e-06	
200	3.300000e+00	4.058980e-06	
201	0.000000e+00	-9.26820e-22	
202	5.000000e-02	6.201265e-07	
203	1.000000e-01	1.213997e-06	
204	1.500000e-01	1.781758e-06	
205	2.000000e-01	2.323557e-06	
206	2.500000e-01	2.839540e-06	
207	3.000000e-01	3.329851e-06	
208	3.500000e-01	3.794634e-06	
209	4.000000e-01	4.234031e-06	
210	4.500000e-01	4.648184e-06	
211	5.000000e-01	5.037235e-06	
212	5.500000e-01	5.401323e-06	
213	6.000000e-01	5.740586e-06	
214	6.500000e-01	6.055164e-06	
215	7.000000e-01	6.345192e-06	
216	7.500000e-01	6.610809e-06	
217	8.000000e-01	6.852148e-06	
218	8.500000e-01	7.069345e-06	
219	9.000000e-01	7.262535e-06	
220	9.500000e-01	7.431854e-06	
221	1.000000e+00	7.577441e-06	
222	1.050000e+00	7.699449e-06	
223	1.100000e+00	7.798085e-06	
224	1.150000e+00	7.873740e-06	
225	1.200000e+00	7.927485e-06	
226	1.250000e+00	7.962237e-06	
227	1.300000e+00	7.983388e-06	
228	1.350000e+00	7.996593e-06	

Index   v-sweep         -i(vds)         
--------------------------------------------------------------------------------
229	1.400000e+00	8.005535e-06	
230	1.450000e+00	8.012112e-06	
231	1.500000e+00	8.017272e-06	
232	1.550000e+00	8.021515e-06	
233	1.600000e+00	8.025128e-06	
234	1.650000e+00	8.028285e-06	
235	1.700000e+00	8.031097e-06	
236	1.750000e+00	8.033642e-06	
237	1.800000e+00	8.035973e-06	
238	1.850000e+00	8.038131e-06	
239	1.900000e+00	8.040143e-06	
240	1.950000e+00	8.042033e-06	
241	2.000000e+00	8.043820e-06	
242	2.050000e+00	8.045516e-06	
243	2.100000e+00	8.047134e-06	
244	2.150000e+00	8.048683e-06	
245	2.200000e+00	8.050172e-06	
246	2.250000e+00	8.051605e-06	
247	2.300000e+00	8.052990e-06	
248	2.350000e+00	8.054330e-06	
249	2.400000e+00	8.055631e-06	
250	2.450000e+00	8.056895e-06	
251	2.500000e+00	8.058127e-06	
252	2.550000e+00	8.059328e-06	
253	2.600000e+00	8.060503e-06	
254	2.650000e+00	8.061653e-06	
255	2.700000e+00	8.062783e-06	
256	2.750000e+00	8.063896e-06	
257	2.800000e+00	8.064997e-06	
258	2.850000e+00	8.066091e-06	
259	2.900000e+00	8.067185e-06	
260	2.950000e+00	8.068289e-06	
261	3.000000e+00	8.069414e-06	
262	3.050000e+00	8.070574e-06	
263	3.100000e+00	8.071787e-06	
264	3.150000e+00	8.073073e-06	
265	3.200000e+00	8.074460e-06	
266	3.250000e+00	8.075979e-06	
267	3.300000e+00	8.077665e-06	
268	0.000000e+00	1.014993e-21	
269	5.000000e-02	7.508370e-07	
270	1.000000e-01	1.477920e-06	
271	1.500000e-01	2.181372e-06	
272	2.000000e-01	2.861318e-06	
273	2.500000e-01	3.517880e-06	
274	3.000000e-01	4.151180e-06	
275	3.500000e-01	4.761340e-06	
276	4.000000e-01	5.348479e-06	
277	4.500000e-01	5.912717e-06	
278	5.000000e-01	6.454174e-06	
279	5.500000e-01	6.972967e-06	
280	6.000000e-01	7.469215e-06	
281	6.500000e-01	7.943033e-06	
282	7.000000e-01	8.394537e-06	
283	7.500000e-01	8.823843e-06	
284	8.000000e-01	9.231065e-06	
285	8.500000e-01	9.616317e-06	
286	9.000000e-01	9.979712e-06	

Index   v-sweep         -i(vds)         
--------------------------------------------------------------------------------
287	9.500000e-01	1.032136e-05	
288	1.000000e+00	1.064138e-05	
289	1.050000e+00	1.093987e-05	
290	1.100000e+00	1.121694e-05	
291	1.150000e+00	1.147271e-05	
292	1.200000e+00	1.170728e-05	
293	1.250000e+00	1.192074e-05	
294	1.300000e+00	1.211322e-05	
295	1.350000e+00	1.228478e-05	
296	1.400000e+00	1.243554e-05	
297	1.450000e+00	1.256556e-05	
298	1.500000e+00	1.267492e-05	
299	1.550000e+00	1.276376e-05	
300	1.600000e+00	1.283244e-05	
301	1.650000e+00	1.288225e-05	
302	1.700000e+00	1.291627e-05	
303	1.750000e+00	1.293909e-05	
304	1.800000e+00	1.295491e-05	
305	1.850000e+00	1.296650e-05	
306	1.900000e+00	1.297549e-05	
307	1.950000e+00	1.298276e-05	
308	2.000000e+00	1.298887e-05	
309	2.050000e+00	1.299413e-05	
310	2.100000e+00	1.299875e-05	
311	2.150000e+00	1.300290e-05	
312	2.200000e+00	1.300665e-05	
313	2.250000e+00	1.301009e-05	
314	2.300000e+00	1.301328e-05	
315	2.350000e+00	1.301625e-05	
316	2.400000e+00	1.301904e-05	
317	2.450000e+00	1.302167e-05	
318	2.500000e+00	1.302416e-05	
319	2.550000e+00	1.302653e-05	
320	2.600000e+00	1.302880e-05	
321	2.650000e+00	1.303097e-05	
322	2.700000e+00	1.303306e-05	
323	2.750000e+00	1.303507e-05	
324	2.800000e+00	1.303702e-05	
325	2.850000e+00	1.303890e-05	
326	2.900000e+00	1.304073e-05	
327	2.950000e+00	1.304251e-05	
328	3.000000e+00	1.304424e-05	
329	3.050000e+00	1.304593e-05	
330	3.100000e+00	1.304758e-05	
331	3.150000e+00	1.304920e-05	
332	3.200000e+00	1.305080e-05	
333	3.250000e+00	1.305239e-05	
334	3.300000e+00	1.305396e-05	
335	0.000000e+00	-3.68109e-21	
336	5.000000e-02	8.469978e-07	
337	1.000000e-01	1.672877e-06	
338	1.500000e-01	2.477739e-06	
339	2.000000e-01	3.261685e-06	
340	2.500000e-01	4.024817e-06	
341	3.000000e-01	4.767233e-06	
342	3.500000e-01	5.489035e-06	
343	4.000000e-01	6.190320e-06	
344	4.500000e-01	6.871187e-06	

Index   v-sweep         -i(vds)         
--------------------------------------------------------------------------------
345	5.000000e-01	7.531735e-06	
346	5.500000e-01	8.172059e-06	
347	6.000000e-01	8.792258e-06	
348	6.500000e-01	9.392428e-06	
349	7.000000e-01	9.972663e-06	
350	7.500000e-01	1.053306e-05	
351	8.000000e-01	1.107371e-05	
352	8.500000e-01	1.159471e-05	
353	9.000000e-01	1.209616e-05	
354	9.500000e-01	1.257814e-05	
355	1.000000e+00	1.304075e-05	
356	1.050000e+00	1.348408e-05	
357	1.100000e+00	1.390822e-05	
358	1.150000e+00	1.431327e-05	
359	1.200000e+00	1.469930e-05	
360	1.250000e+00	1.506642e-05	
361	1.300000e+00	1.541471e-05	
362	1.350000e+00	1.574425e-05	
363	1.400000e+00	1.605514e-05	
364	1.450000e+00	1.634746e-05	
365	1.500000e+00	1.662129e-05	
366	1.550000e+00	1.687673e-05	
367	1.600000e+00	1.711384e-05	
368	1.650000e+00	1.733271e-05	
369	1.700000e+00	1.753340e-05	
370	1.750000e+00	1.771599e-05	
371	1.800000e+00	1.788052e-05	
372	1.850000e+00	1.802704e-05	
373	1.900000e+00	1.815555e-05	
374	1.950000e+00	1.826601e-05	
375	2.000000e+00	1.835839e-05	
376	2.050000e+00	1.843274e-05	
377	2.100000e+00	1.848975e-05	
378	2.150000e+00	1.853143e-05	
379	2.200000e+00	1.856122e-05	
380	2.250000e+00	1.858280e-05	
381	2.300000e+00	1.859901e-05	
382	2.350000e+00	1.861172e-05	
383	2.400000e+00	1.862205e-05	
384	2.450000e+00	1.863071e-05	
385	2.500000e+00	1.863817e-05	
386	2.550000e+00	1.864471e-05	
387	2.600000e+00	1.865054e-05	
388	2.650000e+00	1.865581e-05	
389	2.700000e+00	1.866062e-05	
390	2.750000e+00	1.866506e-05	
391	2.800000e+00	1.866918e-05	
392	2.850000e+00	1.867303e-05	
393	2.900000e+00	1.867666e-05	
394	2.950000e+00	1.868008e-05	
395	3.000000e+00	1.868333e-05	
396	3.050000e+00	1.868643e-05	
397	3.100000e+00	1.868938e-05	
398	3.150000e+00	1.869222e-05	
399	3.200000e+00	1.869495e-05	
400	3.250000e+00	1.869758e-05	
401	3.300000e+00	1.870011e-05	
Note: No ".plot", ".print", or ".fourier" lines; no simulations run
