
Note: Compatibility modes selected: hs

Warning: m=xx on .subckt line will override multiplier m hierarchy!


Circuit: ***************************

Doing analysis at TEMP = 125.000000 and TNOM = 125.000000


No. of Data Rows : 402
                          ***************************
                          DC transfer characteristic  Mon Jan  9 13:58:12  2023
--------------------------------------------------------------------------------
Index   v-sweep         -i(vds)         
--------------------------------------------------------------------------------
0	0.000000e+00	2.882693e-22	
1	5.000000e-02	1.260459e-06	
2	1.000000e-01	2.146623e-06	
3	1.500000e-01	2.726555e-06	
4	2.000000e-01	3.024567e-06	
5	2.500000e-01	3.108190e-06	
6	3.000000e-01	3.121828e-06	
7	3.500000e-01	3.125909e-06	
8	4.000000e-01	3.128210e-06	
9	4.500000e-01	3.129936e-06	
10	5.000000e-01	3.131399e-06	
11	5.500000e-01	3.132716e-06	
12	6.000000e-01	3.133938e-06	
13	6.500000e-01	3.135096e-06	
14	7.000000e-01	3.136205e-06	
15	7.500000e-01	3.137276e-06	
16	8.000000e-01	3.138318e-06	
17	8.500000e-01	3.139336e-06	
18	9.000000e-01	3.140333e-06	
19	9.500000e-01	3.141313e-06	
20	1.000000e+00	3.142279e-06	
21	1.050000e+00	3.143231e-06	
22	1.100000e+00	3.144172e-06	
23	1.150000e+00	3.145103e-06	
24	1.200000e+00	3.146025e-06	
25	1.250000e+00	3.146939e-06	
26	1.300000e+00	3.147845e-06	
27	1.350000e+00	3.148745e-06	
28	1.400000e+00	3.149639e-06	
29	1.450000e+00	3.150528e-06	
30	1.500000e+00	3.151411e-06	
31	1.550000e+00	3.152290e-06	
32	1.600000e+00	3.153165e-06	
33	1.650000e+00	3.154036e-06	
34	1.700000e+00	3.154904e-06	
35	1.750000e+00	3.155770e-06	
36	1.800000e+00	3.156633e-06	
37	1.850000e+00	3.157495e-06	
38	1.900000e+00	3.158358e-06	
39	1.950000e+00	3.159222e-06	
40	2.000000e+00	3.160090e-06	
41	2.050000e+00	3.160963e-06	
42	2.100000e+00	3.161845e-06	
43	2.150000e+00	3.162739e-06	
44	2.200000e+00	3.163649e-06	
45	2.250000e+00	3.164580e-06	
46	2.300000e+00	3.165539e-06	
47	2.350000e+00	3.166533e-06	
48	2.400000e+00	3.167569e-06	
49	2.450000e+00	3.168657e-06	
50	2.500000e+00	3.169808e-06	
51	2.550000e+00	3.171034e-06	
52	2.600000e+00	3.172350e-06	
53	2.650000e+00	3.173769e-06	
54	2.700000e+00	3.175309e-06	

Index   v-sweep         -i(vds)         
--------------------------------------------------------------------------------
55	2.750000e+00	3.176988e-06	
56	2.800000e+00	3.178827e-06	
57	2.850000e+00	3.180847e-06	
58	2.900000e+00	3.183073e-06	
59	2.950000e+00	3.185529e-06	
60	3.000000e+00	3.188243e-06	
61	3.050000e+00	3.191244e-06	
62	3.100000e+00	3.194563e-06	
63	3.150000e+00	3.198231e-06	
64	3.200000e+00	3.202284e-06	
65	3.250000e+00	3.206758e-06	
66	3.300000e+00	3.211688e-06	
67	0.000000e+00	-4.85058e-21	
68	5.000000e-02	3.606065e-06	
69	1.000000e-01	6.815781e-06	
70	1.500000e-01	9.695964e-06	
71	2.000000e-01	1.226281e-05	
72	2.500000e-01	1.452055e-05	
73	3.000000e-01	1.647063e-05	
74	3.500000e-01	1.811390e-05	
75	4.000000e-01	1.945125e-05	
76	4.500000e-01	2.048418e-05	
77	5.000000e-01	2.121634e-05	
78	5.500000e-01	2.166051e-05	
79	6.000000e-01	2.186522e-05	
80	6.500000e-01	2.193713e-05	
81	7.000000e-01	2.196491e-05	
82	7.500000e-01	2.197977e-05	
83	8.000000e-01	2.198989e-05	
84	8.500000e-01	2.199779e-05	
85	9.000000e-01	2.200445e-05	
86	9.500000e-01	2.201033e-05	
87	1.000000e+00	2.201566e-05	
88	1.050000e+00	2.202059e-05	
89	1.100000e+00	2.202521e-05	
90	1.150000e+00	2.202960e-05	
91	1.200000e+00	2.203379e-05	
92	1.250000e+00	2.203782e-05	
93	1.300000e+00	2.204171e-05	
94	1.350000e+00	2.204548e-05	
95	1.400000e+00	2.204915e-05	
96	1.450000e+00	2.205273e-05	
97	1.500000e+00	2.205623e-05	
98	1.550000e+00	2.205967e-05	
99	1.600000e+00	2.206304e-05	
100	1.650000e+00	2.206635e-05	
101	1.700000e+00	2.206962e-05	
102	1.750000e+00	2.207283e-05	
103	1.800000e+00	2.207601e-05	
104	1.850000e+00	2.207915e-05	
105	1.900000e+00	2.208225e-05	
106	1.950000e+00	2.208531e-05	
107	2.000000e+00	2.208835e-05	
108	2.050000e+00	2.209137e-05	
109	2.100000e+00	2.209436e-05	
110	2.150000e+00	2.209734e-05	
111	2.200000e+00	2.210031e-05	
112	2.250000e+00	2.210327e-05	

Index   v-sweep         -i(vds)         
--------------------------------------------------------------------------------
113	2.300000e+00	2.210625e-05	
114	2.350000e+00	2.210924e-05	
115	2.400000e+00	2.211227e-05	
116	2.450000e+00	2.211535e-05	
117	2.500000e+00	2.211852e-05	
118	2.550000e+00	2.212179e-05	
119	2.600000e+00	2.212520e-05	
120	2.650000e+00	2.212880e-05	
121	2.700000e+00	2.213263e-05	
122	2.750000e+00	2.213675e-05	
123	2.800000e+00	2.214123e-05	
124	2.850000e+00	2.214614e-05	
125	2.900000e+00	2.215157e-05	
126	2.950000e+00	2.215761e-05	
127	3.000000e+00	2.216437e-05	
128	3.050000e+00	2.217197e-05	
129	3.100000e+00	2.218053e-05	
130	3.150000e+00	2.219021e-05	
131	3.200000e+00	2.220116e-05	
132	3.250000e+00	2.221354e-05	
133	3.300000e+00	2.222753e-05	
134	0.000000e+00	-9.24497e-26	
135	5.000000e-02	5.701324e-06	
136	1.000000e-01	1.102459e-05	
137	1.500000e-01	1.603648e-05	
138	2.000000e-01	2.075310e-05	
139	2.500000e-01	2.517858e-05	
140	3.000000e-01	2.931424e-05	
141	3.500000e-01	3.316072e-05	
142	4.000000e-01	3.671850e-05	
143	4.500000e-01	3.998803e-05	
144	5.000000e-01	4.296976e-05	
145	5.500000e-01	4.566415e-05	
146	6.000000e-01	4.807167e-05	
147	6.500000e-01	5.019285e-05	
148	7.000000e-01	5.202830e-05	
149	7.500000e-01	5.357882e-05	
150	8.000000e-01	5.484563e-05	
151	8.500000e-01	5.583116e-05	
152	9.000000e-01	5.654138e-05	
153	9.500000e-01	5.699371e-05	
154	1.000000e+00	5.723540e-05	
155	1.050000e+00	5.734857e-05	
156	1.100000e+00	5.740486e-05	
157	1.150000e+00	5.743847e-05	
158	1.200000e+00	5.746204e-05	
159	1.250000e+00	5.748039e-05	
160	1.300000e+00	5.749566e-05	
161	1.350000e+00	5.750892e-05	
162	1.400000e+00	5.752077e-05	
163	1.450000e+00	5.753158e-05	
164	1.500000e+00	5.754158e-05	
165	1.550000e+00	5.755094e-05	
166	1.600000e+00	5.755979e-05	
167	1.650000e+00	5.756820e-05	
168	1.700000e+00	5.757624e-05	
169	1.750000e+00	5.758398e-05	
170	1.800000e+00	5.759144e-05	

Index   v-sweep         -i(vds)         
--------------------------------------------------------------------------------
171	1.850000e+00	5.759867e-05	
172	1.900000e+00	5.760569e-05	
173	1.950000e+00	5.761252e-05	
174	2.000000e+00	5.761918e-05	
175	2.050000e+00	5.762570e-05	
176	2.100000e+00	5.763208e-05	
177	2.150000e+00	5.763834e-05	
178	2.200000e+00	5.764448e-05	
179	2.250000e+00	5.765053e-05	
180	2.300000e+00	5.765647e-05	
181	2.350000e+00	5.766234e-05	
182	2.400000e+00	5.766813e-05	
183	2.450000e+00	5.767385e-05	
184	2.500000e+00	5.767952e-05	
185	2.550000e+00	5.768514e-05	
186	2.600000e+00	5.769074e-05	
187	2.650000e+00	5.769633e-05	
188	2.700000e+00	5.770195e-05	
189	2.750000e+00	5.770761e-05	
190	2.800000e+00	5.771338e-05	
191	2.850000e+00	5.771929e-05	
192	2.900000e+00	5.772540e-05	
193	2.950000e+00	5.773181e-05	
194	3.000000e+00	5.773859e-05	
195	3.050000e+00	5.774587e-05	
196	3.100000e+00	5.775376e-05	
197	3.150000e+00	5.776242e-05	
198	3.200000e+00	5.777203e-05	
199	3.250000e+00	5.778277e-05	
200	3.300000e+00	5.779489e-05	
201	0.000000e+00	-2.71751e-25	
202	5.000000e-02	7.463097e-06	
203	1.000000e-01	1.457406e-05	
204	1.500000e-01	2.139943e-05	
205	2.000000e-01	2.795525e-05	
206	2.500000e-01	3.424560e-05	
207	3.000000e-01	4.027173e-05	
208	3.500000e-01	4.603421e-05	
209	4.000000e-01	5.153345e-05	
210	4.500000e-01	5.676983e-05	
211	5.000000e-01	6.174372e-05	
212	5.500000e-01	6.645549e-05	
213	6.000000e-01	7.090550e-05	
214	6.500000e-01	7.509412e-05	
215	7.000000e-01	7.902172e-05	
216	7.500000e-01	8.268866e-05	
217	8.000000e-01	8.609533e-05	
218	8.500000e-01	8.924210e-05	
219	9.000000e-01	9.212937e-05	
220	9.500000e-01	9.475753e-05	
221	1.000000e+00	9.712702e-05	
222	1.050000e+00	9.923831e-05	
223	1.100000e+00	1.010920e-04	
224	1.150000e+00	1.026887e-04	
225	1.200000e+00	1.040297e-04	
226	1.250000e+00	1.051168e-04	
227	1.300000e+00	1.059544e-04	
228	1.350000e+00	1.065525e-04	

Index   v-sweep         -i(vds)         
--------------------------------------------------------------------------------
229	1.400000e+00	1.069366e-04	
230	1.450000e+00	1.071572e-04	
231	1.500000e+00	1.072796e-04	
232	1.550000e+00	1.073529e-04	
233	1.600000e+00	1.074024e-04	
234	1.650000e+00	1.074394e-04	
235	1.700000e+00	1.074692e-04	
236	1.750000e+00	1.074943e-04	
237	1.800000e+00	1.075162e-04	
238	1.850000e+00	1.075358e-04	
239	1.900000e+00	1.075536e-04	
240	1.950000e+00	1.075701e-04	
241	2.000000e+00	1.075854e-04	
242	2.050000e+00	1.075998e-04	
243	2.100000e+00	1.076135e-04	
244	2.150000e+00	1.076265e-04	
245	2.200000e+00	1.076390e-04	
246	2.250000e+00	1.076510e-04	
247	2.300000e+00	1.076625e-04	
248	2.350000e+00	1.076737e-04	
249	2.400000e+00	1.076845e-04	
250	2.450000e+00	1.076951e-04	
251	2.500000e+00	1.077053e-04	
252	2.550000e+00	1.077154e-04	
253	2.600000e+00	1.077251e-04	
254	2.650000e+00	1.077347e-04	
255	2.700000e+00	1.077441e-04	
256	2.750000e+00	1.077534e-04	
257	2.800000e+00	1.077624e-04	
258	2.850000e+00	1.077714e-04	
259	2.900000e+00	1.077802e-04	
260	2.950000e+00	1.077889e-04	
261	3.000000e+00	1.077976e-04	
262	3.050000e+00	1.078062e-04	
263	3.100000e+00	1.078149e-04	
264	3.150000e+00	1.078235e-04	
265	3.200000e+00	1.078324e-04	
266	3.250000e+00	1.078414e-04	
267	3.300000e+00	1.078508e-04	
268	0.000000e+00	-3.01457e-27	
269	5.000000e-02	8.885808e-06	
270	1.000000e-01	1.744721e-05	
271	1.500000e-01	2.575064e-05	
272	2.000000e-01	3.381207e-05	
273	2.500000e-01	4.163553e-05	
274	3.000000e-01	4.922220e-05	
275	3.500000e-01	5.657261e-05	
276	4.000000e-01	6.368709e-05	
277	4.500000e-01	7.056597e-05	
278	5.000000e-01	7.720957e-05	
279	5.500000e-01	8.361818e-05	
280	6.000000e-01	8.979211e-05	
281	6.500000e-01	9.573167e-05	
282	7.000000e-01	1.014372e-04	
283	7.500000e-01	1.069089e-04	
284	8.000000e-01	1.121472e-04	
285	8.500000e-01	1.171523e-04	
286	9.000000e-01	1.219245e-04	

Index   v-sweep         -i(vds)         
--------------------------------------------------------------------------------
287	9.500000e-01	1.264643e-04	
288	1.000000e+00	1.307718e-04	
289	1.050000e+00	1.348473e-04	
290	1.100000e+00	1.386913e-04	
291	1.150000e+00	1.423039e-04	
292	1.200000e+00	1.456855e-04	
293	1.250000e+00	1.488365e-04	
294	1.300000e+00	1.517571e-04	
295	1.350000e+00	1.544477e-04	
296	1.400000e+00	1.569086e-04	
297	1.450000e+00	1.591402e-04	
298	1.500000e+00	1.611430e-04	
299	1.550000e+00	1.629174e-04	
300	1.600000e+00	1.644642e-04	
301	1.650000e+00	1.657843e-04	
302	1.700000e+00	1.668795e-04	
303	1.750000e+00	1.677534e-04	
304	1.800000e+00	1.684136e-04	
305	1.850000e+00	1.688771e-04	
306	1.900000e+00	1.691776e-04	
307	1.950000e+00	1.693639e-04	
308	2.000000e+00	1.694823e-04	
309	2.050000e+00	1.695636e-04	
310	2.100000e+00	1.696240e-04	
311	2.150000e+00	1.696720e-04	
312	2.200000e+00	1.697120e-04	
313	2.250000e+00	1.697464e-04	
314	2.300000e+00	1.697768e-04	
315	2.350000e+00	1.698043e-04	
316	2.400000e+00	1.698294e-04	
317	2.450000e+00	1.698526e-04	
318	2.500000e+00	1.698742e-04	
319	2.550000e+00	1.698946e-04	
320	2.600000e+00	1.699139e-04	
321	2.650000e+00	1.699323e-04	
322	2.700000e+00	1.699498e-04	
323	2.750000e+00	1.699667e-04	
324	2.800000e+00	1.699829e-04	
325	2.850000e+00	1.699985e-04	
326	2.900000e+00	1.700137e-04	
327	2.950000e+00	1.700284e-04	
328	3.000000e+00	1.700427e-04	
329	3.050000e+00	1.700567e-04	
330	3.100000e+00	1.700703e-04	
331	3.150000e+00	1.700836e-04	
332	3.200000e+00	1.700966e-04	
333	3.250000e+00	1.701093e-04	
334	3.300000e+00	1.701219e-04	
335	0.000000e+00	5.926116e-25	
336	5.000000e-02	9.991864e-06	
337	1.000000e-01	1.968658e-05	
338	1.500000e-01	2.915049e-05	
339	2.000000e-01	3.839952e-05	
340	2.500000e-01	4.743762e-05	
341	3.000000e-01	5.626594e-05	
342	3.500000e-01	6.488494e-05	
343	4.000000e-01	7.329492e-05	
344	4.500000e-01	8.149615e-05	

Index   v-sweep         -i(vds)         
--------------------------------------------------------------------------------
345	5.000000e-01	8.948888e-05	
346	5.500000e-01	9.727335e-05	
347	6.000000e-01	1.048498e-04	
348	6.500000e-01	1.122186e-04	
349	7.000000e-01	1.193798e-04	
350	7.500000e-01	1.263338e-04	
351	8.000000e-01	1.330809e-04	
352	8.500000e-01	1.396212e-04	
353	9.000000e-01	1.459550e-04	
354	9.500000e-01	1.520825e-04	
355	1.000000e+00	1.580041e-04	
356	1.050000e+00	1.637200e-04	
357	1.100000e+00	1.692304e-04	
358	1.150000e+00	1.745355e-04	
359	1.200000e+00	1.796357e-04	
360	1.250000e+00	1.845311e-04	
361	1.300000e+00	1.892221e-04	
362	1.350000e+00	1.937088e-04	
363	1.400000e+00	1.979916e-04	
364	1.450000e+00	2.020707e-04	
365	1.500000e+00	2.059462e-04	
366	1.550000e+00	2.096186e-04	
367	1.600000e+00	2.130880e-04	
368	1.650000e+00	2.163547e-04	
369	1.700000e+00	2.194190e-04	
370	1.750000e+00	2.222811e-04	
371	1.800000e+00	2.249412e-04	
372	1.850000e+00	2.273998e-04	
373	1.900000e+00	2.296571e-04	
374	1.950000e+00	2.317134e-04	
375	2.000000e+00	2.335691e-04	
376	2.050000e+00	2.352247e-04	
377	2.100000e+00	2.366807e-04	
378	2.150000e+00	2.379383e-04	
379	2.200000e+00	2.389988e-04	
380	2.250000e+00	2.398655e-04	
381	2.300000e+00	2.405443e-04	
382	2.350000e+00	2.410481e-04	
383	2.400000e+00	2.414009e-04	
384	2.450000e+00	2.416386e-04	
385	2.500000e+00	2.417997e-04	
386	2.550000e+00	2.419139e-04	
387	2.600000e+00	2.419999e-04	
388	2.650000e+00	2.420683e-04	
389	2.700000e+00	2.421251e-04	
390	2.750000e+00	2.421738e-04	
391	2.800000e+00	2.422166e-04	
392	2.850000e+00	2.422550e-04	
393	2.900000e+00	2.422899e-04	
394	2.950000e+00	2.423220e-04	
395	3.000000e+00	2.423518e-04	
396	3.050000e+00	2.423797e-04	
397	3.100000e+00	2.424060e-04	
398	3.150000e+00	2.424310e-04	
399	3.200000e+00	2.424547e-04	
400	3.250000e+00	2.424774e-04	
401	3.300000e+00	2.424992e-04	
Note: No ".plot", ".print", or ".fourier" lines; no simulations run
