
Note: Compatibility modes selected: hs

Warning: m=xx on .subckt line will override multiplier m hierarchy!


Circuit: ***************************

Doing analysis at TEMP = -40.000000 and TNOM = -40.000000


No. of Data Rows : 402
                          ***************************
                          DC transfer characteristic  Mon Jan  9 13:58:11  2023
--------------------------------------------------------------------------------
Index   v-sweep         -i(vds)         
--------------------------------------------------------------------------------
0	0.000000e+00	4.226196e-23	
1	5.000000e-02	3.827403e-07	
2	1.000000e-01	4.781536e-07	
3	1.500000e-01	4.916024e-07	
4	2.000000e-01	4.966440e-07	
5	2.500000e-01	5.000246e-07	
6	3.000000e-01	5.027628e-07	
7	3.500000e-01	5.051602e-07	
8	4.000000e-01	5.073445e-07	
9	4.500000e-01	5.093822e-07	
10	5.000000e-01	5.113123e-07	
11	5.500000e-01	5.131600e-07	
12	6.000000e-01	5.149424e-07	
13	6.500000e-01	5.166718e-07	
14	7.000000e-01	5.183573e-07	
15	7.500000e-01	5.200058e-07	
16	8.000000e-01	5.216226e-07	
17	8.500000e-01	5.232122e-07	
18	9.000000e-01	5.247779e-07	
19	9.500000e-01	5.263226e-07	
20	1.000000e+00	5.278488e-07	
21	1.050000e+00	5.293583e-07	
22	1.100000e+00	5.308530e-07	
23	1.150000e+00	5.323342e-07	
24	1.200000e+00	5.338031e-07	
25	1.250000e+00	5.352610e-07	
26	1.300000e+00	5.367087e-07	
27	1.350000e+00	5.381472e-07	
28	1.400000e+00	5.395771e-07	
29	1.450000e+00	5.409992e-07	
30	1.500000e+00	5.424141e-07	
31	1.550000e+00	5.438226e-07	
32	1.600000e+00	5.452252e-07	
33	1.650000e+00	5.466225e-07	
34	1.700000e+00	5.480154e-07	
35	1.750000e+00	5.494046e-07	
36	1.800000e+00	5.507908e-07	
37	1.850000e+00	5.521751e-07	
38	1.900000e+00	5.535584e-07	
39	1.950000e+00	5.549421e-07	
40	2.000000e+00	5.563274e-07	
41	2.050000e+00	5.577160e-07	
42	2.100000e+00	5.591096e-07	
43	2.150000e+00	5.605103e-07	
44	2.200000e+00	5.619203e-07	
45	2.250000e+00	5.633423e-07	
46	2.300000e+00	5.647790e-07	
47	2.350000e+00	5.662336e-07	
48	2.400000e+00	5.677096e-07	
49	2.450000e+00	5.692108e-07	
50	2.500000e+00	5.707413e-07	
51	2.550000e+00	5.723058e-07	
52	2.600000e+00	5.739091e-07	
53	2.650000e+00	5.755565e-07	
54	2.700000e+00	5.772537e-07	

Index   v-sweep         -i(vds)         
--------------------------------------------------------------------------------
55	2.750000e+00	5.790069e-07	
56	2.800000e+00	5.808225e-07	
57	2.850000e+00	5.827075e-07	
58	2.900000e+00	5.846691e-07	
59	2.950000e+00	5.867152e-07	
60	3.000000e+00	5.888539e-07	
61	3.050000e+00	5.910939e-07	
62	3.100000e+00	5.934442e-07	
63	3.150000e+00	5.959142e-07	
64	3.200000e+00	5.985138e-07	
65	3.250000e+00	6.012534e-07	
66	3.300000e+00	6.041436e-07	
67	0.000000e+00	1.283917e-21	
68	5.000000e-02	4.766430e-06	
69	1.000000e-01	8.929987e-06	
70	1.500000e-01	1.250701e-05	
71	2.000000e-01	1.551346e-05	
72	2.500000e-01	1.796518e-05	
73	3.000000e-01	1.987864e-05	
74	3.500000e-01	2.127388e-05	
75	4.000000e-01	2.218690e-05	
76	4.500000e-01	2.270591e-05	
77	5.000000e-01	2.298318e-05	
78	5.500000e-01	2.314644e-05	
79	6.000000e-01	2.325707e-05	
80	6.500000e-01	2.334027e-05	
81	7.000000e-01	2.340726e-05	
82	7.500000e-01	2.346371e-05	
83	8.000000e-01	2.351281e-05	
84	8.500000e-01	2.355650e-05	
85	9.000000e-01	2.359607e-05	
86	9.500000e-01	2.363239e-05	
87	1.000000e+00	2.366608e-05	
88	1.050000e+00	2.369761e-05	
89	1.100000e+00	2.372732e-05	
90	1.150000e+00	2.375549e-05	
91	1.200000e+00	2.378233e-05	
92	1.250000e+00	2.380801e-05	
93	1.300000e+00	2.383269e-05	
94	1.350000e+00	2.385646e-05	
95	1.400000e+00	2.387945e-05	
96	1.450000e+00	2.390171e-05	
97	1.500000e+00	2.392334e-05	
98	1.550000e+00	2.394438e-05	
99	1.600000e+00	2.396489e-05	
100	1.650000e+00	2.398491e-05	
101	1.700000e+00	2.400450e-05	
102	1.750000e+00	2.402368e-05	
103	1.800000e+00	2.404248e-05	
104	1.850000e+00	2.406095e-05	
105	1.900000e+00	2.407910e-05	
106	1.950000e+00	2.409698e-05	
107	2.000000e+00	2.411460e-05	
108	2.050000e+00	2.413201e-05	
109	2.100000e+00	2.414923e-05	
110	2.150000e+00	2.416631e-05	
111	2.200000e+00	2.418327e-05	
112	2.250000e+00	2.420018e-05	

Index   v-sweep         -i(vds)         
--------------------------------------------------------------------------------
113	2.300000e+00	2.421709e-05	
114	2.350000e+00	2.423404e-05	
115	2.400000e+00	2.425112e-05	
116	2.450000e+00	2.426840e-05	
117	2.500000e+00	2.428596e-05	
118	2.550000e+00	2.430389e-05	
119	2.600000e+00	2.432232e-05	
120	2.650000e+00	2.434136e-05	
121	2.700000e+00	2.436113e-05	
122	2.750000e+00	2.438179e-05	
123	2.800000e+00	2.440349e-05	
124	2.850000e+00	2.442640e-05	
125	2.900000e+00	2.445072e-05	
126	2.950000e+00	2.447664e-05	
127	3.000000e+00	2.450439e-05	
128	3.050000e+00	2.453418e-05	
129	3.100000e+00	2.456627e-05	
130	3.150000e+00	2.460093e-05	
131	3.200000e+00	2.463843e-05	
132	3.250000e+00	2.467906e-05	
133	3.300000e+00	2.472314e-05	
134	0.000000e+00	3.009700e-36	
135	5.000000e-02	8.556277e-06	
136	1.000000e-01	1.650478e-05	
137	1.500000e-01	2.385973e-05	
138	2.000000e-01	3.063493e-05	
139	2.500000e-01	3.684380e-05	
140	3.000000e-01	4.249939e-05	
141	3.500000e-01	4.761435e-05	
142	4.000000e-01	5.220092e-05	
143	4.500000e-01	5.627090e-05	
144	5.000000e-01	5.983559e-05	
145	5.500000e-01	6.290558e-05	
146	6.000000e-01	6.549050e-05	
147	6.500000e-01	6.759883e-05	
148	7.000000e-01	6.923977e-05	
149	7.500000e-01	7.043543e-05	
150	8.000000e-01	7.124967e-05	
151	8.500000e-01	7.179207e-05	
152	9.000000e-01	7.216749e-05	
153	9.500000e-01	7.244402e-05	
154	1.000000e+00	7.265973e-05	
155	1.050000e+00	7.283576e-05	
156	1.100000e+00	7.298438e-05	
157	1.150000e+00	7.311318e-05	
158	1.200000e+00	7.322705e-05	
159	1.250000e+00	7.332934e-05	
160	1.300000e+00	7.342241e-05	
161	1.350000e+00	7.350796e-05	
162	1.400000e+00	7.358729e-05	
163	1.450000e+00	7.366138e-05	
164	1.500000e+00	7.373101e-05	
165	1.550000e+00	7.379679e-05	
166	1.600000e+00	7.385922e-05	
167	1.650000e+00	7.391871e-05	
168	1.700000e+00	7.397559e-05	
169	1.750000e+00	7.403015e-05	
170	1.800000e+00	7.408264e-05	

Index   v-sweep         -i(vds)         
--------------------------------------------------------------------------------
171	1.850000e+00	7.413325e-05	
172	1.900000e+00	7.418216e-05	
173	1.950000e+00	7.422953e-05	
174	2.000000e+00	7.427550e-05	
175	2.050000e+00	7.432017e-05	
176	2.100000e+00	7.436367e-05	
177	2.150000e+00	7.440609e-05	
178	2.200000e+00	7.444753e-05	
179	2.250000e+00	7.448807e-05	
180	2.300000e+00	7.452782e-05	
181	2.350000e+00	7.456686e-05	
182	2.400000e+00	7.460529e-05	
183	2.450000e+00	7.464323e-05	
184	2.500000e+00	7.468078e-05	
185	2.550000e+00	7.471810e-05	
186	2.600000e+00	7.475532e-05	
187	2.650000e+00	7.479261e-05	
188	2.700000e+00	7.483018e-05	
189	2.750000e+00	7.486824e-05	
190	2.800000e+00	7.490703e-05	
191	2.850000e+00	7.494684e-05	
192	2.900000e+00	7.498797e-05	
193	2.950000e+00	7.503077e-05	
194	3.000000e+00	7.507563e-05	
195	3.050000e+00	7.512296e-05	
196	3.100000e+00	7.517323e-05	
197	3.150000e+00	7.522694e-05	
198	3.200000e+00	7.528464e-05	
199	3.250000e+00	7.534692e-05	
200	3.300000e+00	7.541441e-05	
201	0.000000e+00	2.891131e-36	
202	5.000000e-02	1.144208e-05	
203	1.000000e-01	2.230472e-05	
204	1.500000e-01	3.259984e-05	
205	2.000000e-01	4.233907e-05	
206	2.500000e-01	5.153376e-05	
207	3.000000e-01	6.019500e-05	
208	3.500000e-01	6.833359e-05	
209	4.000000e-01	7.596005e-05	
210	4.500000e-01	8.308466e-05	
211	5.000000e-01	8.971738e-05	
212	5.500000e-01	9.586790e-05	
213	6.000000e-01	1.015456e-04	
214	6.500000e-01	1.067595e-04	
215	7.000000e-01	1.115181e-04	
216	7.500000e-01	1.158293e-04	
217	8.000000e-01	1.197001e-04	
218	8.500000e-01	1.231359e-04	
219	9.000000e-01	1.261393e-04	
220	9.500000e-01	1.287087e-04	
221	1.000000e+00	1.308374e-04	
222	1.050000e+00	1.325213e-04	
223	1.100000e+00	1.337845e-04	
224	1.150000e+00	1.347008e-04	
225	1.200000e+00	1.353688e-04	
226	1.250000e+00	1.358720e-04	
227	1.300000e+00	1.362666e-04	
228	1.350000e+00	1.365879e-04	

Index   v-sweep         -i(vds)         
--------------------------------------------------------------------------------
229	1.400000e+00	1.368575e-04	
230	1.450000e+00	1.370893e-04	
231	1.500000e+00	1.372927e-04	
232	1.550000e+00	1.374739e-04	
233	1.600000e+00	1.376375e-04	
234	1.650000e+00	1.377869e-04	
235	1.700000e+00	1.379243e-04	
236	1.750000e+00	1.380519e-04	
237	1.800000e+00	1.381710e-04	
238	1.850000e+00	1.382829e-04	
239	1.900000e+00	1.383884e-04	
240	1.950000e+00	1.384885e-04	
241	2.000000e+00	1.385836e-04	
242	2.050000e+00	1.386744e-04	
243	2.100000e+00	1.387614e-04	
244	2.150000e+00	1.388448e-04	
245	2.200000e+00	1.389251e-04	
246	2.250000e+00	1.390026e-04	
247	2.300000e+00	1.390774e-04	
248	2.350000e+00	1.391498e-04	
249	2.400000e+00	1.392201e-04	
250	2.450000e+00	1.392884e-04	
251	2.500000e+00	1.393548e-04	
252	2.550000e+00	1.394197e-04	
253	2.600000e+00	1.394830e-04	
254	2.650000e+00	1.395451e-04	
255	2.700000e+00	1.396060e-04	
256	2.750000e+00	1.396660e-04	
257	2.800000e+00	1.397253e-04	
258	2.850000e+00	1.397841e-04	
259	2.900000e+00	1.398428e-04	
260	2.950000e+00	1.399015e-04	
261	3.000000e+00	1.399608e-04	
262	3.050000e+00	1.400209e-04	
263	3.100000e+00	1.400824e-04	
264	3.150000e+00	1.401457e-04	
265	3.200000e+00	1.402114e-04	
266	3.250000e+00	1.402802e-04	
267	3.300000e+00	1.403527e-04	
268	0.000000e+00	3.636717e-21	
269	5.000000e-02	1.356130e-05	
270	1.000000e-01	2.658534e-05	
271	1.500000e-01	3.908189e-05	
272	2.000000e-01	5.106052e-05	
273	2.500000e-01	6.253060e-05	
274	3.000000e-01	7.350129e-05	
275	3.500000e-01	8.398159e-05	
276	4.000000e-01	9.398027e-05	
277	4.500000e-01	1.035059e-04	
278	5.000000e-01	1.125670e-04	
279	5.500000e-01	1.211717e-04	
280	6.000000e-01	1.293280e-04	
281	6.500000e-01	1.370439e-04	
282	7.000000e-01	1.443269e-04	
283	7.500000e-01	1.511845e-04	
284	8.000000e-01	1.576239e-04	
285	8.500000e-01	1.636520e-04	
286	9.000000e-01	1.692754e-04	

Index   v-sweep         -i(vds)         
--------------------------------------------------------------------------------
287	9.500000e-01	1.745003e-04	
288	1.000000e+00	1.793323e-04	
289	1.050000e+00	1.837759e-04	
290	1.100000e+00	1.878344e-04	
291	1.150000e+00	1.915082e-04	
292	1.200000e+00	1.947937e-04	
293	1.250000e+00	1.976808e-04	
294	1.300000e+00	2.001514e-04	
295	1.350000e+00	2.021871e-04	
296	1.400000e+00	2.037924e-04	
297	1.450000e+00	2.050179e-04	
298	1.500000e+00	2.059479e-04	
299	1.550000e+00	2.066665e-04	
300	1.600000e+00	2.072378e-04	
301	1.650000e+00	2.077056e-04	
302	1.700000e+00	2.080989e-04	
303	1.750000e+00	2.084369e-04	
304	1.800000e+00	2.087328e-04	
305	1.850000e+00	2.089959e-04	
306	1.900000e+00	2.092326e-04	
307	1.950000e+00	2.094480e-04	
308	2.000000e+00	2.096457e-04	
309	2.050000e+00	2.098285e-04	
310	2.100000e+00	2.099987e-04	
311	2.150000e+00	2.101580e-04	
312	2.200000e+00	2.103078e-04	
313	2.250000e+00	2.104494e-04	
314	2.300000e+00	2.105837e-04	
315	2.350000e+00	2.107115e-04	
316	2.400000e+00	2.108336e-04	
317	2.450000e+00	2.109504e-04	
318	2.500000e+00	2.110625e-04	
319	2.550000e+00	2.111704e-04	
320	2.600000e+00	2.112743e-04	
321	2.650000e+00	2.113748e-04	
322	2.700000e+00	2.114719e-04	
323	2.750000e+00	2.115662e-04	
324	2.800000e+00	2.116577e-04	
325	2.850000e+00	2.117468e-04	
326	2.900000e+00	2.118337e-04	
327	2.950000e+00	2.119186e-04	
328	3.000000e+00	2.120019e-04	
329	3.050000e+00	2.120839e-04	
330	3.100000e+00	2.121648e-04	
331	3.150000e+00	2.122451e-04	
332	3.200000e+00	2.123251e-04	
333	3.250000e+00	2.124053e-04	
334	3.300000e+00	2.124863e-04	
335	0.000000e+00	1.507117e-20	
336	5.000000e-02	1.506374e-05	
337	1.000000e-01	2.963752e-05	
338	1.500000e-01	4.372925e-05	
339	2.000000e-01	5.734670e-05	
340	2.500000e-01	7.049750e-05	
341	3.000000e-01	8.318913e-05	
342	3.500000e-01	9.542896e-05	
343	4.000000e-01	1.072242e-04	
344	4.500000e-01	1.185819e-04	

Index   v-sweep         -i(vds)         
--------------------------------------------------------------------------------
345	5.000000e-01	1.295090e-04	
346	5.500000e-01	1.400125e-04	
347	6.000000e-01	1.500988e-04	
348	6.500000e-01	1.597747e-04	
349	7.000000e-01	1.690464e-04	
350	7.500000e-01	1.779205e-04	
351	8.000000e-01	1.864029e-04	
352	8.500000e-01	1.944998e-04	
353	9.000000e-01	2.022170e-04	
354	9.500000e-01	2.095604e-04	
355	1.000000e+00	2.165354e-04	
356	1.050000e+00	2.231475e-04	
357	1.100000e+00	2.294018e-04	
358	1.150000e+00	2.353034e-04	
359	1.200000e+00	2.408566e-04	
360	1.250000e+00	2.460654e-04	
361	1.300000e+00	2.509333e-04	
362	1.350000e+00	2.554621e-04	
363	1.400000e+00	2.596520e-04	
364	1.450000e+00	2.634999e-04	
365	1.500000e+00	2.669979e-04	
366	1.550000e+00	2.701302e-04	
367	1.600000e+00	2.728726e-04	
368	1.650000e+00	2.751984e-04	
369	1.700000e+00	2.770986e-04	
370	1.750000e+00	2.786039e-04	
371	1.800000e+00	2.797822e-04	
372	1.850000e+00	2.807119e-04	
373	1.900000e+00	2.814602e-04	
374	1.950000e+00	2.820768e-04	
375	2.000000e+00	2.825965e-04	
376	2.050000e+00	2.830434e-04	
377	2.100000e+00	2.834344e-04	
378	2.150000e+00	2.837814e-04	
379	2.200000e+00	2.840931e-04	
380	2.250000e+00	2.843761e-04	
381	2.300000e+00	2.846353e-04	
382	2.350000e+00	2.848744e-04	
383	2.400000e+00	2.850965e-04	
384	2.450000e+00	2.853040e-04	
385	2.500000e+00	2.854987e-04	
386	2.550000e+00	2.856824e-04	
387	2.600000e+00	2.858562e-04	
388	2.650000e+00	2.860213e-04	
389	2.700000e+00	2.861786e-04	
390	2.750000e+00	2.863289e-04	
391	2.800000e+00	2.864729e-04	
392	2.850000e+00	2.866111e-04	
393	2.900000e+00	2.867442e-04	
394	2.950000e+00	2.868725e-04	
395	3.000000e+00	2.869964e-04	
396	3.050000e+00	2.871164e-04	
397	3.100000e+00	2.872327e-04	
398	3.150000e+00	2.873458e-04	
399	3.200000e+00	2.874559e-04	
400	3.250000e+00	2.875635e-04	
401	3.300000e+00	2.876688e-04	
Note: No ".plot", ".print", or ".fourier" lines; no simulations run
