
Note: Compatibility modes selected: hs

Warning: m=xx on .subckt line will override multiplier m hierarchy!


Circuit: ***************************

Doing analysis at TEMP = -40.000000 and TNOM = -40.000000


No. of Data Rows : 402
                          ***************************
                          DC transfer characteristic  Mon Jan  9 13:58:11  2023
--------------------------------------------------------------------------------
Index   v-sweep         -i(vds)         
--------------------------------------------------------------------------------
0	0.000000e+00	3.527892e-23	
1	5.000000e-02	7.503268e-07	
2	1.000000e-01	9.587210e-07	
3	1.500000e-01	9.747234e-07	
4	2.000000e-01	9.779193e-07	
5	2.500000e-01	9.797401e-07	
6	3.000000e-01	9.811682e-07	
7	3.500000e-01	9.824211e-07	
8	4.000000e-01	9.835757e-07	
9	4.500000e-01	9.846674e-07	
10	5.000000e-01	9.857151e-07	
11	5.500000e-01	9.867303e-07	
12	6.000000e-01	9.877204e-07	
13	6.500000e-01	9.886904e-07	
14	7.000000e-01	9.896441e-07	
15	7.500000e-01	9.905843e-07	
16	8.000000e-01	9.915129e-07	
17	8.500000e-01	9.924316e-07	
18	9.000000e-01	9.933418e-07	
19	9.500000e-01	9.942445e-07	
20	1.000000e+00	9.951405e-07	
21	1.050000e+00	9.960307e-07	
22	1.100000e+00	9.969156e-07	
23	1.150000e+00	9.977957e-07	
24	1.200000e+00	9.986715e-07	
25	1.250000e+00	9.995434e-07	
26	1.300000e+00	1.000412e-06	
27	1.350000e+00	1.001277e-06	
28	1.400000e+00	1.002139e-06	
29	1.450000e+00	1.002999e-06	
30	1.500000e+00	1.003856e-06	
31	1.550000e+00	1.004711e-06	
32	1.600000e+00	1.005564e-06	
33	1.650000e+00	1.006417e-06	
34	1.700000e+00	1.007268e-06	
35	1.750000e+00	1.008120e-06	
36	1.800000e+00	1.008974e-06	
37	1.850000e+00	1.009829e-06	
38	1.900000e+00	1.010689e-06	
39	1.950000e+00	1.011554e-06	
40	2.000000e+00	1.012427e-06	
41	2.050000e+00	1.013312e-06	
42	2.100000e+00	1.014211e-06	
43	2.150000e+00	1.015128e-06	
44	2.200000e+00	1.016068e-06	
45	2.250000e+00	1.017037e-06	
46	2.300000e+00	1.018040e-06	
47	2.350000e+00	1.019086e-06	
48	2.400000e+00	1.020181e-06	
49	2.450000e+00	1.021335e-06	
50	2.500000e+00	1.022558e-06	
51	2.550000e+00	1.023861e-06	
52	2.600000e+00	1.025256e-06	
53	2.650000e+00	1.026757e-06	
54	2.700000e+00	1.028376e-06	

Index   v-sweep         -i(vds)         
--------------------------------------------------------------------------------
55	2.750000e+00	1.030131e-06	
56	2.800000e+00	1.032037e-06	
57	2.850000e+00	1.034113e-06	
58	2.900000e+00	1.036377e-06	
59	2.950000e+00	1.038849e-06	
60	3.000000e+00	1.041551e-06	
61	3.050000e+00	1.044504e-06	
62	3.100000e+00	1.047732e-06	
63	3.150000e+00	1.051259e-06	
64	3.200000e+00	1.055111e-06	
65	3.250000e+00	1.059313e-06	
66	3.300000e+00	1.063894e-06	
67	0.000000e+00	-1.17097e-37	
68	5.000000e-02	6.480283e-06	
69	1.000000e-01	1.216481e-05	
70	1.500000e-01	1.705872e-05	
71	2.000000e-01	2.116725e-05	
72	2.500000e-01	2.449593e-05	
73	3.000000e-01	2.705136e-05	
74	3.500000e-01	2.884434e-05	
75	4.000000e-01	2.990707e-05	
76	4.500000e-01	3.037150e-05	
77	5.000000e-01	3.052970e-05	
78	5.500000e-01	3.059509e-05	
79	6.000000e-01	3.063261e-05	
80	6.500000e-01	3.065899e-05	
81	7.000000e-01	3.067977e-05	
82	7.500000e-01	3.069723e-05	
83	8.000000e-01	3.071252e-05	
84	8.500000e-01	3.072629e-05	
85	9.000000e-01	3.073894e-05	
86	9.500000e-01	3.075071e-05	
87	1.000000e+00	3.076180e-05	
88	1.050000e+00	3.077233e-05	
89	1.100000e+00	3.078239e-05	
90	1.150000e+00	3.079206e-05	
91	1.200000e+00	3.080140e-05	
92	1.250000e+00	3.081045e-05	
93	1.300000e+00	3.081925e-05	
94	1.350000e+00	3.082782e-05	
95	1.400000e+00	3.083620e-05	
96	1.450000e+00	3.084440e-05	
97	1.500000e+00	3.085245e-05	
98	1.550000e+00	3.086035e-05	
99	1.600000e+00	3.086812e-05	
100	1.650000e+00	3.087577e-05	
101	1.700000e+00	3.088332e-05	
102	1.750000e+00	3.089077e-05	
103	1.800000e+00	3.089813e-05	
104	1.850000e+00	3.090542e-05	
105	1.900000e+00	3.091264e-05	
106	1.950000e+00	3.091980e-05	
107	2.000000e+00	3.092692e-05	
108	2.050000e+00	3.093403e-05	
109	2.100000e+00	3.094114e-05	
110	2.150000e+00	3.094828e-05	
111	2.200000e+00	3.095550e-05	
112	2.250000e+00	3.096283e-05	

Index   v-sweep         -i(vds)         
--------------------------------------------------------------------------------
113	2.300000e+00	3.097035e-05	
114	2.350000e+00	3.097811e-05	
115	2.400000e+00	3.098621e-05	
116	2.450000e+00	3.099476e-05	
117	2.500000e+00	3.100387e-05	
118	2.550000e+00	3.101369e-05	
119	2.600000e+00	3.102438e-05	
120	2.650000e+00	3.103613e-05	
121	2.700000e+00	3.104917e-05	
122	2.750000e+00	3.106373e-05	
123	2.800000e+00	3.108009e-05	
124	2.850000e+00	3.109854e-05	
125	2.900000e+00	3.111943e-05	
126	2.950000e+00	3.114312e-05	
127	3.000000e+00	3.117001e-05	
128	3.050000e+00	3.120052e-05	
129	3.100000e+00	3.123512e-05	
130	3.150000e+00	3.127431e-05	
131	3.200000e+00	3.131861e-05	
132	3.250000e+00	3.136861e-05	
133	3.300000e+00	3.142487e-05	
134	0.000000e+00	1.904791e-37	
135	5.000000e-02	1.164862e-05	
136	1.000000e-01	2.254560e-05	
137	1.500000e-01	3.269532e-05	
138	2.000000e-01	4.210212e-05	
139	2.500000e-01	5.077035e-05	
140	3.000000e-01	5.870430e-05	
141	3.500000e-01	6.590825e-05	
142	4.000000e-01	7.238650e-05	
143	4.500000e-01	7.814330e-05	
144	5.000000e-01	8.318297e-05	
145	5.500000e-01	8.750992e-05	
146	6.000000e-01	9.112882e-05	
147	6.500000e-01	9.404521e-05	
148	7.000000e-01	9.626751e-05	
149	7.500000e-01	9.781537e-05	
150	8.000000e-01	9.875111e-05	
151	8.500000e-01	9.923524e-05	
152	9.000000e-01	9.947998e-05	
153	9.500000e-01	9.962110e-05	
154	1.000000e+00	9.971552e-05	
155	1.050000e+00	9.978584e-05	
156	1.100000e+00	9.984210e-05	
157	1.150000e+00	9.988931e-05	
158	1.200000e+00	9.993030e-05	
159	1.250000e+00	9.996677e-05	
160	1.300000e+00	9.999980e-05	
161	1.350000e+00	1.000302e-04	
162	1.400000e+00	1.000584e-04	
163	1.450000e+00	1.000848e-04	
164	1.500000e+00	1.001098e-04	
165	1.550000e+00	1.001335e-04	
166	1.600000e+00	1.001562e-04	
167	1.650000e+00	1.001780e-04	
168	1.700000e+00	1.001989e-04	
169	1.750000e+00	1.002191e-04	
170	1.800000e+00	1.002387e-04	

Index   v-sweep         -i(vds)         
--------------------------------------------------------------------------------
171	1.850000e+00	1.002578e-04	
172	1.900000e+00	1.002763e-04	
173	1.950000e+00	1.002944e-04	
174	2.000000e+00	1.003120e-04	
175	2.050000e+00	1.003293e-04	
176	2.100000e+00	1.003463e-04	
177	2.150000e+00	1.003629e-04	
178	2.200000e+00	1.003792e-04	
179	2.250000e+00	1.003954e-04	
180	2.300000e+00	1.004113e-04	
181	2.350000e+00	1.004270e-04	
182	2.400000e+00	1.004427e-04	
183	2.450000e+00	1.004583e-04	
184	2.500000e+00	1.004740e-04	
185	2.550000e+00	1.004898e-04	
186	2.600000e+00	1.005060e-04	
187	2.650000e+00	1.005226e-04	
188	2.700000e+00	1.005399e-04	
189	2.750000e+00	1.005582e-04	
190	2.800000e+00	1.005778e-04	
191	2.850000e+00	1.005990e-04	
192	2.900000e+00	1.006222e-04	
193	2.950000e+00	1.006480e-04	
194	3.000000e+00	1.006770e-04	
195	3.050000e+00	1.007098e-04	
196	3.100000e+00	1.007471e-04	
197	3.150000e+00	1.007899e-04	
198	3.200000e+00	1.008389e-04	
199	3.250000e+00	1.008954e-04	
200	3.300000e+00	1.009603e-04	
201	0.000000e+00	1.084738e-37	
202	5.000000e-02	1.573597e-05	
203	1.000000e-01	3.079200e-05	
204	1.500000e-01	4.517173e-05	
205	2.000000e-01	5.887878e-05	
206	2.500000e-01	7.191675e-05	
207	3.000000e-01	8.428919e-05	
208	3.500000e-01	9.599967e-05	
209	4.000000e-01	1.070517e-04	
210	4.500000e-01	1.174488e-04	
211	5.000000e-01	1.271945e-04	
212	5.500000e-01	1.362922e-04	
213	6.000000e-01	1.447454e-04	
214	6.500000e-01	1.525575e-04	
215	7.000000e-01	1.597319e-04	
216	7.500000e-01	1.662720e-04	
217	8.000000e-01	1.721811e-04	
218	8.500000e-01	1.774625e-04	
219	9.000000e-01	1.821195e-04	
220	9.500000e-01	1.861555e-04	
221	1.000000e+00	1.895737e-04	
222	1.050000e+00	1.923780e-04	
223	1.100000e+00	1.945747e-04	
224	1.150000e+00	1.961802e-04	
225	1.200000e+00	1.972461e-04	
226	1.250000e+00	1.978927e-04	
227	1.300000e+00	1.982798e-04	
228	1.350000e+00	1.985282e-04	

Index   v-sweep         -i(vds)         
--------------------------------------------------------------------------------
229	1.400000e+00	1.987026e-04	
230	1.450000e+00	1.988349e-04	
231	1.500000e+00	1.989410e-04	
232	1.550000e+00	1.990297e-04	
233	1.600000e+00	1.991062e-04	
234	1.650000e+00	1.991737e-04	
235	1.700000e+00	1.992343e-04	
236	1.750000e+00	1.992895e-04	
237	1.800000e+00	1.993403e-04	
238	1.850000e+00	1.993876e-04	
239	1.900000e+00	1.994320e-04	
240	1.950000e+00	1.994738e-04	
241	2.000000e+00	1.995134e-04	
242	2.050000e+00	1.995512e-04	
243	2.100000e+00	1.995874e-04	
244	2.150000e+00	1.996221e-04	
245	2.200000e+00	1.996555e-04	
246	2.250000e+00	1.996878e-04	
247	2.300000e+00	1.997191e-04	
248	2.350000e+00	1.997495e-04	
249	2.400000e+00	1.997790e-04	
250	2.450000e+00	1.998077e-04	
251	2.500000e+00	1.998358e-04	
252	2.550000e+00	1.998633e-04	
253	2.600000e+00	1.998902e-04	
254	2.650000e+00	1.999166e-04	
255	2.700000e+00	1.999426e-04	
256	2.750000e+00	1.999683e-04	
257	2.800000e+00	1.999938e-04	
258	2.850000e+00	2.000193e-04	
259	2.900000e+00	2.000449e-04	
260	2.950000e+00	2.000708e-04	
261	3.000000e+00	2.000975e-04	
262	3.050000e+00	2.001251e-04	
263	3.100000e+00	2.001542e-04	
264	3.150000e+00	2.001853e-04	
265	3.200000e+00	2.002189e-04	
266	3.250000e+00	2.002560e-04	
267	3.300000e+00	2.002972e-04	
268	0.000000e+00	-6.17348e-36	
269	5.000000e-02	1.874891e-05	
270	1.000000e-01	3.689701e-05	
271	1.500000e-01	5.444723e-05	
272	2.000000e-01	7.140249e-05	
273	2.500000e-01	8.776568e-05	
274	3.000000e-01	1.035397e-04	
275	3.500000e-01	1.187274e-04	
276	4.000000e-01	1.333316e-04	
277	4.500000e-01	1.473551e-04	
278	5.000000e-01	1.608009e-04	
279	5.500000e-01	1.736716e-04	
280	6.000000e-01	1.859701e-04	
281	6.500000e-01	1.976992e-04	
282	7.000000e-01	2.088615e-04	
283	7.500000e-01	2.194600e-04	
284	8.000000e-01	2.294972e-04	
285	8.500000e-01	2.389759e-04	
286	9.000000e-01	2.478988e-04	

Index   v-sweep         -i(vds)         
--------------------------------------------------------------------------------
287	9.500000e-01	2.562686e-04	
288	1.000000e+00	2.640878e-04	
289	1.050000e+00	2.713592e-04	
290	1.100000e+00	2.780853e-04	
291	1.150000e+00	2.842686e-04	
292	1.200000e+00	2.899116e-04	
293	1.250000e+00	2.950167e-04	
294	1.300000e+00	2.995861e-04	
295	1.350000e+00	3.036217e-04	
296	1.400000e+00	3.071253e-04	
297	1.450000e+00	3.100980e-04	
298	1.500000e+00	3.125411e-04	
299	1.550000e+00	3.144592e-04	
300	1.600000e+00	3.158725e-04	
301	1.650000e+00	3.168428e-04	
302	1.700000e+00	3.174822e-04	
303	1.750000e+00	3.179106e-04	
304	1.800000e+00	3.182137e-04	
305	1.850000e+00	3.184413e-04	
306	1.900000e+00	3.186214e-04	
307	1.950000e+00	3.187698e-04	
308	2.000000e+00	3.188958e-04	
309	2.050000e+00	3.190056e-04	
310	2.100000e+00	3.191030e-04	
311	2.150000e+00	3.191907e-04	
312	2.200000e+00	3.192708e-04	
313	2.250000e+00	3.193446e-04	
314	2.300000e+00	3.194132e-04	
315	2.350000e+00	3.194773e-04	
316	2.400000e+00	3.195378e-04	
317	2.450000e+00	3.195950e-04	
318	2.500000e+00	3.196494e-04	
319	2.550000e+00	3.197014e-04	
320	2.600000e+00	3.197511e-04	
321	2.650000e+00	3.197990e-04	
322	2.700000e+00	3.198451e-04	
323	2.750000e+00	3.198896e-04	
324	2.800000e+00	3.199327e-04	
325	2.850000e+00	3.199745e-04	
326	2.900000e+00	3.200152e-04	
327	2.950000e+00	3.200548e-04	
328	3.000000e+00	3.200935e-04	
329	3.050000e+00	3.201313e-04	
330	3.100000e+00	3.201685e-04	
331	3.150000e+00	3.202051e-04	
332	3.200000e+00	3.202413e-04	
333	3.250000e+00	3.202773e-04	
334	3.300000e+00	3.203134e-04	
335	0.000000e+00	3.517434e-37	
336	5.000000e-02	2.081844e-05	
337	1.000000e-01	4.111404e-05	
338	1.500000e-01	6.088911e-05	
339	2.000000e-01	8.014595e-05	
340	2.500000e-01	9.888684e-05	
341	3.000000e-01	1.171140e-04	
342	3.500000e-01	1.348298e-04	
343	4.000000e-01	1.520365e-04	
344	4.500000e-01	1.687362e-04	

Index   v-sweep         -i(vds)         
--------------------------------------------------------------------------------
345	5.000000e-01	1.849312e-04	
346	5.500000e-01	2.006238e-04	
347	6.000000e-01	2.158161e-04	
348	6.500000e-01	2.305104e-04	
349	7.000000e-01	2.447088e-04	
350	7.500000e-01	2.584136e-04	
351	8.000000e-01	2.716268e-04	
352	8.500000e-01	2.843507e-04	
353	9.000000e-01	2.965874e-04	
354	9.500000e-01	3.083390e-04	
355	1.000000e+00	3.196077e-04	
356	1.050000e+00	3.303956e-04	
357	1.100000e+00	3.407048e-04	
358	1.150000e+00	3.505374e-04	
359	1.200000e+00	3.598954e-04	
360	1.250000e+00	3.687809e-04	
361	1.300000e+00	3.771960e-04	
362	1.350000e+00	3.851427e-04	
363	1.400000e+00	3.926230e-04	
364	1.450000e+00	3.996388e-04	
365	1.500000e+00	4.061921e-04	
366	1.550000e+00	4.122847e-04	
367	1.600000e+00	4.179184e-04	
368	1.650000e+00	4.230950e-04	
369	1.700000e+00	4.278158e-04	
370	1.750000e+00	4.320820e-04	
371	1.800000e+00	4.358944e-04	
372	1.850000e+00	4.392529e-04	
373	1.900000e+00	4.421563e-04	
374	1.950000e+00	4.446024e-04	
375	2.000000e+00	4.465899e-04	
376	2.050000e+00	4.481279e-04	
377	2.100000e+00	4.492550e-04	
378	2.150000e+00	4.500515e-04	
379	2.200000e+00	4.506152e-04	
380	2.250000e+00	4.510275e-04	
381	2.300000e+00	4.513426e-04	
382	2.350000e+00	4.515937e-04	
383	2.400000e+00	4.518008e-04	
384	2.450000e+00	4.519767e-04	
385	2.500000e+00	4.521295e-04	
386	2.550000e+00	4.522646e-04	
387	2.600000e+00	4.523859e-04	
388	2.650000e+00	4.524962e-04	
389	2.700000e+00	4.525974e-04	
390	2.750000e+00	4.526911e-04	
391	2.800000e+00	4.527785e-04	
392	2.850000e+00	4.528605e-04	
393	2.900000e+00	4.529379e-04	
394	2.950000e+00	4.530112e-04	
395	3.000000e+00	4.530809e-04	
396	3.050000e+00	4.531476e-04	
397	3.100000e+00	4.532114e-04	
398	3.150000e+00	4.532728e-04	
399	3.200000e+00	4.533319e-04	
400	3.250000e+00	4.533890e-04	
401	3.300000e+00	4.534442e-04	
Note: No ".plot", ".print", or ".fourier" lines; no simulations run
