
Note: Compatibility modes selected: hs

Warning: m=xx on .subckt line will override multiplier m hierarchy!


Circuit: ***************************

Doing analysis at TEMP = -40.000000 and TNOM = -40.000000


No. of Data Rows : 402
                          ***************************
                          DC transfer characteristic  Mon Jan  9 13:58:12  2023
--------------------------------------------------------------------------------
Index   v-sweep         -i(vds)         
--------------------------------------------------------------------------------
0	0.000000e+00	3.041677e-24	
1	5.000000e-02	1.878397e-08	
2	1.000000e-01	2.598430e-08	
3	1.500000e-01	2.679681e-08	
4	2.000000e-01	2.688649e-08	
5	2.500000e-01	2.692432e-08	
6	3.000000e-01	2.695128e-08	
7	3.500000e-01	2.697420e-08	
8	4.000000e-01	2.699511e-08	
9	4.500000e-01	2.701481e-08	
10	5.000000e-01	2.703373e-08	
11	5.500000e-01	2.705208e-08	
12	6.000000e-01	2.707001e-08	
13	6.500000e-01	2.708760e-08	
14	7.000000e-01	2.710493e-08	
15	7.500000e-01	2.712204e-08	
16	8.000000e-01	2.713897e-08	
17	8.500000e-01	2.715574e-08	
18	9.000000e-01	2.717238e-08	
19	9.500000e-01	2.718890e-08	
20	1.000000e+00	2.720532e-08	
21	1.050000e+00	2.722164e-08	
22	1.100000e+00	2.723789e-08	
23	1.150000e+00	2.725406e-08	
24	1.200000e+00	2.727017e-08	
25	1.250000e+00	2.728621e-08	
26	1.300000e+00	2.730220e-08	
27	1.350000e+00	2.731815e-08	
28	1.400000e+00	2.733404e-08	
29	1.450000e+00	2.734990e-08	
30	1.500000e+00	2.736572e-08	
31	1.550000e+00	2.738150e-08	
32	1.600000e+00	2.739726e-08	
33	1.650000e+00	2.741300e-08	
34	1.700000e+00	2.742873e-08	
35	1.750000e+00	2.744445e-08	
36	1.800000e+00	2.746018e-08	
37	1.850000e+00	2.747593e-08	
38	1.900000e+00	2.749173e-08	
39	1.950000e+00	2.750761e-08	
40	2.000000e+00	2.752358e-08	
41	2.050000e+00	2.753970e-08	
42	2.100000e+00	2.755601e-08	
43	2.150000e+00	2.757257e-08	
44	2.200000e+00	2.758944e-08	
45	2.250000e+00	2.760670e-08	
46	2.300000e+00	2.762445e-08	
47	2.350000e+00	2.764280e-08	
48	2.400000e+00	2.766185e-08	
49	2.450000e+00	2.768175e-08	
50	2.500000e+00	2.770265e-08	
51	2.550000e+00	2.772472e-08	
52	2.600000e+00	2.774814e-08	
53	2.650000e+00	2.777313e-08	
54	2.700000e+00	2.779991e-08	

Index   v-sweep         -i(vds)         
--------------------------------------------------------------------------------
55	2.750000e+00	2.782871e-08	
56	2.800000e+00	2.785981e-08	
57	2.850000e+00	2.789349e-08	
58	2.900000e+00	2.793005e-08	
59	2.950000e+00	2.796982e-08	
60	3.000000e+00	2.801313e-08	
61	3.050000e+00	2.806035e-08	
62	3.100000e+00	2.811186e-08	
63	3.150000e+00	2.816806e-08	
64	3.200000e+00	2.822938e-08	
65	3.250000e+00	2.829623e-08	
66	3.300000e+00	2.836909e-08	
67	0.000000e+00	2.345779e-23	
68	5.000000e-02	1.259847e-07	
69	1.000000e-01	2.371533e-07	
70	1.500000e-01	3.335538e-07	
71	2.000000e-01	4.152358e-07	
72	2.500000e-01	4.822535e-07	
73	3.000000e-01	5.346754e-07	
74	3.500000e-01	5.726204e-07	
75	4.000000e-01	5.964433e-07	
76	4.500000e-01	6.077306e-07	
77	5.000000e-01	6.113809e-07	
78	5.500000e-01	6.125659e-07	
79	6.000000e-01	6.131310e-07	
80	6.500000e-01	6.134944e-07	
81	7.000000e-01	6.137697e-07	
82	7.500000e-01	6.139977e-07	
83	8.000000e-01	6.141967e-07	
84	8.500000e-01	6.143764e-07	
85	9.000000e-01	6.145420e-07	
86	9.500000e-01	6.146972e-07	
87	1.000000e+00	6.148442e-07	
88	1.050000e+00	6.149847e-07	
89	1.100000e+00	6.151197e-07	
90	1.150000e+00	6.152503e-07	
91	1.200000e+00	6.153771e-07	
92	1.250000e+00	6.155006e-07	
93	1.300000e+00	6.156213e-07	
94	1.350000e+00	6.157394e-07	
95	1.400000e+00	6.158554e-07	
96	1.450000e+00	6.159694e-07	
97	1.500000e+00	6.160816e-07	
98	1.550000e+00	6.161923e-07	
99	1.600000e+00	6.163015e-07	
100	1.650000e+00	6.164094e-07	
101	1.700000e+00	6.165161e-07	
102	1.750000e+00	6.166217e-07	
103	1.800000e+00	6.167263e-07	
104	1.850000e+00	6.168301e-07	
105	1.900000e+00	6.169331e-07	
106	1.950000e+00	6.170354e-07	
107	2.000000e+00	6.171372e-07	
108	2.050000e+00	6.172387e-07	
109	2.100000e+00	6.173400e-07	
110	2.150000e+00	6.174416e-07	
111	2.200000e+00	6.175437e-07	
112	2.250000e+00	6.176468e-07	

Index   v-sweep         -i(vds)         
--------------------------------------------------------------------------------
113	2.300000e+00	6.177515e-07	
114	2.350000e+00	6.178585e-07	
115	2.400000e+00	6.179687e-07	
116	2.450000e+00	6.180832e-07	
117	2.500000e+00	6.182032e-07	
118	2.550000e+00	6.183303e-07	
119	2.600000e+00	6.184662e-07	
120	2.650000e+00	6.186130e-07	
121	2.700000e+00	6.187730e-07	
122	2.750000e+00	6.189490e-07	
123	2.800000e+00	6.191439e-07	
124	2.850000e+00	6.193611e-07	
125	2.900000e+00	6.196045e-07	
126	2.950000e+00	6.198782e-07	
127	3.000000e+00	6.201867e-07	
128	3.050000e+00	6.205351e-07	
129	3.100000e+00	6.209287e-07	
130	3.150000e+00	6.213734e-07	
131	3.200000e+00	6.218754e-07	
132	3.250000e+00	6.224416e-07	
133	3.300000e+00	6.230789e-07	
134	0.000000e+00	-3.83523e-22	
135	5.000000e-02	2.266056e-07	
136	1.000000e-01	4.390258e-07	
137	1.500000e-01	6.373028e-07	
138	2.000000e-01	8.214789e-07	
139	2.500000e-01	9.915960e-07	
140	3.000000e-01	1.147696e-06	
141	3.500000e-01	1.289822e-06	
142	4.000000e-01	1.418015e-06	
143	4.500000e-01	1.532319e-06	
144	5.000000e-01	1.632778e-06	
145	5.500000e-01	1.719439e-06	
146	6.000000e-01	1.792356e-06	
147	6.500000e-01	1.851597e-06	
148	7.000000e-01	1.897279e-06	
149	7.500000e-01	1.929677e-06	
150	8.000000e-01	1.949650e-06	
151	8.500000e-01	1.959727e-06	
152	9.000000e-01	1.964205e-06	
153	9.500000e-01	1.966405e-06	
154	1.000000e+00	1.967725e-06	
155	1.050000e+00	1.968650e-06	
156	1.100000e+00	1.969368e-06	
157	1.150000e+00	1.969963e-06	
158	1.200000e+00	1.970476e-06	
159	1.250000e+00	1.970933e-06	
160	1.300000e+00	1.971347e-06	
161	1.350000e+00	1.971730e-06	
162	1.400000e+00	1.972088e-06	
163	1.450000e+00	1.972425e-06	
164	1.500000e+00	1.972745e-06	
165	1.550000e+00	1.973051e-06	
166	1.600000e+00	1.973346e-06	
167	1.650000e+00	1.973629e-06	
168	1.700000e+00	1.973904e-06	
169	1.750000e+00	1.974170e-06	
170	1.800000e+00	1.974430e-06	

Index   v-sweep         -i(vds)         
--------------------------------------------------------------------------------
171	1.850000e+00	1.974683e-06	
172	1.900000e+00	1.974931e-06	
173	1.950000e+00	1.975174e-06	
174	2.000000e+00	1.975412e-06	
175	2.050000e+00	1.975646e-06	
176	2.100000e+00	1.975876e-06	
177	2.150000e+00	1.976102e-06	
178	2.200000e+00	1.976326e-06	
179	2.250000e+00	1.976546e-06	
180	2.300000e+00	1.976765e-06	
181	2.350000e+00	1.976981e-06	
182	2.400000e+00	1.977196e-06	
183	2.450000e+00	1.977410e-06	
184	2.500000e+00	1.977624e-06	
185	2.550000e+00	1.977839e-06	
186	2.600000e+00	1.978056e-06	
187	2.650000e+00	1.978277e-06	
188	2.700000e+00	1.978505e-06	
189	2.750000e+00	1.978741e-06	
190	2.800000e+00	1.978988e-06	
191	2.850000e+00	1.979251e-06	
192	2.900000e+00	1.979534e-06	
193	2.950000e+00	1.979842e-06	
194	3.000000e+00	1.980181e-06	
195	3.050000e+00	1.980558e-06	
196	3.100000e+00	1.980981e-06	
197	3.150000e+00	1.981459e-06	
198	3.200000e+00	1.982002e-06	
199	3.250000e+00	1.982622e-06	
200	3.300000e+00	1.983332e-06	
201	0.000000e+00	1.750830e-22	
202	5.000000e-02	3.113442e-07	
203	1.000000e-01	6.096498e-07	
204	1.500000e-01	8.949533e-07	
205	2.000000e-01	1.167291e-06	
206	2.500000e-01	1.426700e-06	
207	3.000000e-01	1.673216e-06	
208	3.500000e-01	1.906876e-06	
209	4.000000e-01	2.127715e-06	
210	4.500000e-01	2.335769e-06	
211	5.000000e-01	2.531075e-06	
212	5.500000e-01	2.713668e-06	
213	6.000000e-01	2.883584e-06	
214	6.500000e-01	3.040858e-06	
215	7.000000e-01	3.185528e-06	
216	7.500000e-01	3.317628e-06	
217	8.000000e-01	3.437195e-06	
218	8.500000e-01	3.544267e-06	
219	9.000000e-01	3.638882e-06	
220	9.500000e-01	3.721083e-06	
221	1.000000e+00	3.790920e-06	
222	1.050000e+00	3.848460e-06	
223	1.100000e+00	3.893826e-06	
224	1.150000e+00	3.927297e-06	
225	1.200000e+00	3.949643e-06	
226	1.250000e+00	3.962795e-06	
227	1.300000e+00	3.969937e-06	
228	1.350000e+00	3.973980e-06	

Index   v-sweep         -i(vds)         
--------------------------------------------------------------------------------
229	1.400000e+00	3.976550e-06	
230	1.450000e+00	3.978377e-06	
231	1.500000e+00	3.979787e-06	
232	1.550000e+00	3.980939e-06	
233	1.600000e+00	3.981921e-06	
234	1.650000e+00	3.982782e-06	
235	1.700000e+00	3.983554e-06	
236	1.750000e+00	3.984258e-06	
237	1.800000e+00	3.984907e-06	
238	1.850000e+00	3.985513e-06	
239	1.900000e+00	3.986082e-06	
240	1.950000e+00	3.986622e-06	
241	2.000000e+00	3.987135e-06	
242	2.050000e+00	3.987627e-06	
243	2.100000e+00	3.988100e-06	
244	2.150000e+00	3.988556e-06	
245	2.200000e+00	3.988997e-06	
246	2.250000e+00	3.989424e-06	
247	2.300000e+00	3.989840e-06	
248	2.350000e+00	3.990245e-06	
249	2.400000e+00	3.990641e-06	
250	2.450000e+00	3.991028e-06	
251	2.500000e+00	3.991407e-06	
252	2.550000e+00	3.991778e-06	
253	2.600000e+00	3.992144e-06	
254	2.650000e+00	3.992503e-06	
255	2.700000e+00	3.992857e-06	
256	2.750000e+00	3.993207e-06	
257	2.800000e+00	3.993554e-06	
258	2.850000e+00	3.993899e-06	
259	2.900000e+00	3.994244e-06	
260	2.950000e+00	3.994591e-06	
261	3.000000e+00	3.994942e-06	
262	3.050000e+00	3.995302e-06	
263	3.100000e+00	3.995672e-06	
264	3.150000e+00	3.996060e-06	
265	3.200000e+00	3.996471e-06	
266	3.250000e+00	3.996913e-06	
267	3.300000e+00	3.997394e-06	
268	0.000000e+00	-3.70923e-22	
269	5.000000e-02	3.779601e-07	
270	1.000000e-01	7.442214e-07	
271	1.500000e-01	1.098815e-06	
272	2.000000e-01	1.441770e-06	
273	2.500000e-01	1.773119e-06	
274	3.000000e-01	2.092891e-06	
275	3.500000e-01	2.401116e-06	
276	4.000000e-01	2.697825e-06	
277	4.500000e-01	2.983049e-06	
278	5.000000e-01	3.256816e-06	
279	5.500000e-01	3.519157e-06	
280	6.000000e-01	3.770102e-06	
281	6.500000e-01	4.009681e-06	
282	7.000000e-01	4.237923e-06	
283	7.500000e-01	4.454858e-06	
284	8.000000e-01	4.660516e-06	
285	8.500000e-01	4.854925e-06	
286	9.000000e-01	5.038116e-06	

Index   v-sweep         -i(vds)         
--------------------------------------------------------------------------------
287	9.500000e-01	5.210118e-06	
288	1.000000e+00	5.370959e-06	
289	1.050000e+00	5.520670e-06	
290	1.100000e+00	5.659280e-06	
291	1.150000e+00	5.786817e-06	
292	1.200000e+00	5.903313e-06	
293	1.250000e+00	6.008795e-06	
294	1.300000e+00	6.103296e-06	
295	1.350000e+00	6.186848e-06	
296	1.400000e+00	6.259488e-06	
297	1.450000e+00	6.321261e-06	
298	1.500000e+00	6.372239e-06	
299	1.550000e+00	6.412564e-06	
300	1.600000e+00	6.442584e-06	
301	1.650000e+00	6.463182e-06	
302	1.700000e+00	6.476203e-06	
303	1.750000e+00	6.484177e-06	
304	1.800000e+00	6.489271e-06	
305	1.850000e+00	6.492791e-06	
306	1.900000e+00	6.495417e-06	
307	1.950000e+00	6.497496e-06	
308	2.000000e+00	6.499218e-06	
309	2.050000e+00	6.500692e-06	
310	2.100000e+00	6.501987e-06	
311	2.150000e+00	6.503147e-06	
312	2.200000e+00	6.504202e-06	
313	2.250000e+00	6.505172e-06	
314	2.300000e+00	6.506074e-06	
315	2.350000e+00	6.506919e-06	
316	2.400000e+00	6.507716e-06	
317	2.450000e+00	6.508473e-06	
318	2.500000e+00	6.509194e-06	
319	2.550000e+00	6.509885e-06	
320	2.600000e+00	6.510548e-06	
321	2.650000e+00	6.511188e-06	
322	2.700000e+00	6.511807e-06	
323	2.750000e+00	6.512406e-06	
324	2.800000e+00	6.512989e-06	
325	2.850000e+00	6.513555e-06	
326	2.900000e+00	6.514108e-06	
327	2.950000e+00	6.514648e-06	
328	3.000000e+00	6.515176e-06	
329	3.050000e+00	6.515694e-06	
330	3.100000e+00	6.516202e-06	
331	3.150000e+00	6.516703e-06	
332	3.200000e+00	6.517197e-06	
333	3.250000e+00	6.517686e-06	
334	3.300000e+00	6.518173e-06	
335	0.000000e+00	4.638015e-22	
336	5.000000e-02	4.269053e-07	
337	1.000000e-01	8.434922e-07	
338	1.500000e-01	1.249786e-06	
339	2.000000e-01	1.645811e-06	
340	2.500000e-01	2.031592e-06	
341	3.000000e-01	2.407154e-06	
342	3.500000e-01	2.772522e-06	
343	4.000000e-01	3.127721e-06	
344	4.500000e-01	3.472774e-06	

Index   v-sweep         -i(vds)         
--------------------------------------------------------------------------------
345	5.000000e-01	3.807707e-06	
346	5.500000e-01	4.132545e-06	
347	6.000000e-01	4.447310e-06	
348	6.500000e-01	4.752029e-06	
349	7.000000e-01	5.046724e-06	
350	7.500000e-01	5.331420e-06	
351	8.000000e-01	5.606142e-06	
352	8.500000e-01	5.870913e-06	
353	9.000000e-01	6.125758e-06	
354	9.500000e-01	6.370699e-06	
355	1.000000e+00	6.605762e-06	
356	1.050000e+00	6.830970e-06	
357	1.100000e+00	7.046347e-06	
358	1.150000e+00	7.251916e-06	
359	1.200000e+00	7.447700e-06	
360	1.250000e+00	7.633725e-06	
361	1.300000e+00	7.810012e-06	
362	1.350000e+00	7.976586e-06	
363	1.400000e+00	8.133469e-06	
364	1.450000e+00	8.280686e-06	
365	1.500000e+00	8.418258e-06	
366	1.550000e+00	8.546210e-06	
367	1.600000e+00	8.664564e-06	
368	1.650000e+00	8.773344e-06	
369	1.700000e+00	8.872572e-06	
370	1.750000e+00	8.962271e-06	
371	1.800000e+00	9.042465e-06	
372	1.850000e+00	9.113181e-06	
373	1.900000e+00	9.174447e-06	
374	1.950000e+00	9.226308e-06	
375	2.000000e+00	9.268846e-06	
376	2.050000e+00	9.302256e-06	
377	2.100000e+00	9.327036e-06	
378	2.150000e+00	9.344288e-06	
379	2.200000e+00	9.355802e-06	
380	2.250000e+00	9.363528e-06	
381	2.300000e+00	9.368951e-06	
382	2.350000e+00	9.372985e-06	
383	2.400000e+00	9.376148e-06	
384	2.450000e+00	9.378737e-06	
385	2.500000e+00	9.380927e-06	
386	2.550000e+00	9.382830e-06	
387	2.600000e+00	9.384516e-06	
388	2.650000e+00	9.386035e-06	
389	2.700000e+00	9.387421e-06	
390	2.750000e+00	9.388699e-06	
391	2.800000e+00	9.389888e-06	
392	2.850000e+00	9.391003e-06	
393	2.900000e+00	9.392054e-06	
394	2.950000e+00	9.393051e-06	
395	3.000000e+00	9.394000e-06	
396	3.050000e+00	9.394908e-06	
397	3.100000e+00	9.395779e-06	
398	3.150000e+00	9.396618e-06	
399	3.200000e+00	9.397428e-06	
400	3.250000e+00	9.398211e-06	
401	3.300000e+00	9.398971e-06	
Note: No ".plot", ".print", or ".fourier" lines; no simulations run
