
Note: Compatibility modes selected: hs

Warning: m=xx on .subckt line will override multiplier m hierarchy!


Circuit: ***************************

Doing analysis at TEMP = 25.000000 and TNOM = 25.000000


No. of Data Rows : 402
                          ***************************
                          DC transfer characteristic  Mon Jan  9 13:58:11  2023
--------------------------------------------------------------------------------
Index   v-sweep         -i(vds)         
--------------------------------------------------------------------------------
0	0.000000e+00	1.821930e-23	
1	5.000000e-02	1.823236e-07	
2	1.000000e-01	2.862324e-07	
3	1.500000e-01	3.205690e-07	
4	2.000000e-01	3.250366e-07	
5	2.500000e-01	3.259973e-07	
6	3.000000e-01	3.265046e-07	
7	3.500000e-01	3.268817e-07	
8	4.000000e-01	3.272009e-07	
9	4.500000e-01	3.274876e-07	
10	5.000000e-01	3.277534e-07	
11	5.500000e-01	3.280044e-07	
12	6.000000e-01	3.282445e-07	
13	6.500000e-01	3.284761e-07	
14	7.000000e-01	3.287009e-07	
15	7.500000e-01	3.289201e-07	
16	8.000000e-01	3.291347e-07	
17	8.500000e-01	3.293453e-07	
18	9.000000e-01	3.295526e-07	
19	9.500000e-01	3.297569e-07	
20	1.000000e+00	3.299586e-07	
21	1.050000e+00	3.301581e-07	
22	1.100000e+00	3.303554e-07	
23	1.150000e+00	3.305510e-07	
24	1.200000e+00	3.307449e-07	
25	1.250000e+00	3.309373e-07	
26	1.300000e+00	3.311283e-07	
27	1.350000e+00	3.313181e-07	
28	1.400000e+00	3.315067e-07	
29	1.450000e+00	3.316943e-07	
30	1.500000e+00	3.318810e-07	
31	1.550000e+00	3.320669e-07	
32	1.600000e+00	3.322520e-07	
33	1.650000e+00	3.324366e-07	
34	1.700000e+00	3.326207e-07	
35	1.750000e+00	3.328047e-07	
36	1.800000e+00	3.329887e-07	
37	1.850000e+00	3.331731e-07	
38	1.900000e+00	3.333583e-07	
39	1.950000e+00	3.335449e-07	
40	2.000000e+00	3.337334e-07	
41	2.050000e+00	3.339248e-07	
42	2.100000e+00	3.341199e-07	
43	2.150000e+00	3.343200e-07	
44	2.200000e+00	3.345263e-07	
45	2.250000e+00	3.347406e-07	
46	2.300000e+00	3.349645e-07	
47	2.350000e+00	3.352004e-07	
48	2.400000e+00	3.354505e-07	
49	2.450000e+00	3.357176e-07	
50	2.500000e+00	3.360048e-07	
51	2.550000e+00	3.363154e-07	
52	2.600000e+00	3.366531e-07	
53	2.650000e+00	3.370221e-07	
54	2.700000e+00	3.374267e-07	

Index   v-sweep         -i(vds)         
--------------------------------------------------------------------------------
55	2.750000e+00	3.378719e-07	
56	2.800000e+00	3.383627e-07	
57	2.850000e+00	3.389047e-07	
58	2.900000e+00	3.395039e-07	
59	2.950000e+00	3.401666e-07	
60	3.000000e+00	3.408995e-07	
61	3.050000e+00	3.417095e-07	
62	3.100000e+00	3.426042e-07	
63	3.150000e+00	3.435911e-07	
64	3.200000e+00	3.446785e-07	
65	3.250000e+00	3.458746e-07	
66	3.300000e+00	3.471882e-07	
67	0.000000e+00	1.868031e-22	
68	5.000000e-02	8.653388e-07	
69	1.000000e-01	1.637963e-06	
70	1.500000e-01	2.318264e-06	
71	2.000000e-01	2.906641e-06	
72	2.500000e-01	3.403509e-06	
73	3.000000e-01	3.809328e-06	
74	3.500000e-01	4.124697e-06	
75	4.000000e-01	4.350702e-06	
76	4.500000e-01	4.490611e-06	
77	5.000000e-01	4.557178e-06	
78	5.500000e-01	4.581483e-06	
79	6.000000e-01	4.591378e-06	
80	6.500000e-01	4.596918e-06	
81	7.000000e-01	4.600774e-06	
82	7.500000e-01	4.603799e-06	
83	8.000000e-01	4.606337e-06	
84	8.500000e-01	4.608558e-06	
85	9.000000e-01	4.610554e-06	
86	9.500000e-01	4.612383e-06	
87	1.000000e+00	4.614084e-06	
88	1.050000e+00	4.615683e-06	
89	1.100000e+00	4.617197e-06	
90	1.150000e+00	4.618642e-06	
91	1.200000e+00	4.620027e-06	
92	1.250000e+00	4.621362e-06	
93	1.300000e+00	4.622654e-06	
94	1.350000e+00	4.623907e-06	
95	1.400000e+00	4.625125e-06	
96	1.450000e+00	4.626314e-06	
97	1.500000e+00	4.627476e-06	
98	1.550000e+00	4.628613e-06	
99	1.600000e+00	4.629729e-06	
100	1.650000e+00	4.630824e-06	
101	1.700000e+00	4.631902e-06	
102	1.750000e+00	4.632962e-06	
103	1.800000e+00	4.634008e-06	
104	1.850000e+00	4.635040e-06	
105	1.900000e+00	4.636059e-06	
106	1.950000e+00	4.637069e-06	
107	2.000000e+00	4.638069e-06	
108	2.050000e+00	4.639064e-06	
109	2.100000e+00	4.640055e-06	
110	2.150000e+00	4.641046e-06	
111	2.200000e+00	4.642042e-06	
112	2.250000e+00	4.643049e-06	

Index   v-sweep         -i(vds)         
--------------------------------------------------------------------------------
113	2.300000e+00	4.644074e-06	
114	2.350000e+00	4.645126e-06	
115	2.400000e+00	4.646215e-06	
116	2.450000e+00	4.647356e-06	
117	2.500000e+00	4.648564e-06	
118	2.550000e+00	4.649858e-06	
119	2.600000e+00	4.651260e-06	
120	2.650000e+00	4.652795e-06	
121	2.700000e+00	4.654492e-06	
122	2.750000e+00	4.656384e-06	
123	2.800000e+00	4.658510e-06	
124	2.850000e+00	4.660909e-06	
125	2.900000e+00	4.663630e-06	
126	2.950000e+00	4.666722e-06	
127	3.000000e+00	4.670241e-06	
128	3.050000e+00	4.674250e-06	
129	3.100000e+00	4.678812e-06	
130	3.150000e+00	4.683999e-06	
131	3.200000e+00	4.689888e-06	
132	3.250000e+00	4.696559e-06	
133	3.300000e+00	4.704099e-06	
134	0.000000e+00	1.211149e-22	
135	5.000000e-02	1.490298e-06	
136	1.000000e-01	2.892055e-06	
137	1.500000e-01	4.205616e-06	
138	2.000000e-01	5.431325e-06	
139	2.500000e-01	6.569526e-06	
140	3.000000e-01	7.620560e-06	
141	3.500000e-01	8.584770e-06	
142	4.000000e-01	9.462498e-06	
143	4.500000e-01	1.025409e-05	
144	5.000000e-01	1.095989e-05	
145	5.500000e-01	1.158027e-05	
146	6.000000e-01	1.211559e-05	
147	6.500000e-01	1.256630e-05	
148	7.000000e-01	1.293296e-05	
149	7.500000e-01	1.321648e-05	
150	8.000000e-01	1.341901e-05	
151	8.500000e-01	1.354673e-05	
152	9.000000e-01	1.361572e-05	
153	9.500000e-01	1.365068e-05	
154	1.000000e+00	1.367037e-05	
155	1.050000e+00	1.368332e-05	
156	1.100000e+00	1.369291e-05	
157	1.150000e+00	1.370057e-05	
158	1.200000e+00	1.370701e-05	
159	1.250000e+00	1.371261e-05	
160	1.300000e+00	1.371759e-05	
161	1.350000e+00	1.372211e-05	
162	1.400000e+00	1.372627e-05	
163	1.450000e+00	1.373014e-05	
164	1.500000e+00	1.373376e-05	
165	1.550000e+00	1.373719e-05	
166	1.600000e+00	1.374044e-05	
167	1.650000e+00	1.374355e-05	
168	1.700000e+00	1.374653e-05	
169	1.750000e+00	1.374939e-05	
170	1.800000e+00	1.375216e-05	

Index   v-sweep         -i(vds)         
--------------------------------------------------------------------------------
171	1.850000e+00	1.375484e-05	
172	1.900000e+00	1.375744e-05	
173	1.950000e+00	1.375997e-05	
174	2.000000e+00	1.376244e-05	
175	2.050000e+00	1.376485e-05	
176	2.100000e+00	1.376720e-05	
177	2.150000e+00	1.376951e-05	
178	2.200000e+00	1.377177e-05	
179	2.250000e+00	1.377399e-05	
180	2.300000e+00	1.377618e-05	
181	2.350000e+00	1.377833e-05	
182	2.400000e+00	1.378047e-05	
183	2.450000e+00	1.378258e-05	
184	2.500000e+00	1.378470e-05	
185	2.550000e+00	1.378681e-05	
186	2.600000e+00	1.378895e-05	
187	2.650000e+00	1.379113e-05	
188	2.700000e+00	1.379337e-05	
189	2.750000e+00	1.379570e-05	
190	2.800000e+00	1.379816e-05	
191	2.850000e+00	1.380079e-05	
192	2.900000e+00	1.380364e-05	
193	2.950000e+00	1.380677e-05	
194	3.000000e+00	1.381024e-05	
195	3.050000e+00	1.381415e-05	
196	3.100000e+00	1.381857e-05	
197	3.150000e+00	1.382362e-05	
198	3.200000e+00	1.382940e-05	
199	3.250000e+00	1.383606e-05	
200	3.300000e+00	1.384372e-05	
201	0.000000e+00	-1.41904e-31	
202	5.000000e-02	2.013239e-06	
203	1.000000e-01	3.945070e-06	
204	1.500000e-01	5.795792e-06	
205	2.000000e-01	7.565700e-06	
206	2.500000e-01	9.255092e-06	
207	3.000000e-01	1.086426e-05	
208	3.500000e-01	1.239350e-05	
209	4.000000e-01	1.384311e-05	
210	4.500000e-01	1.521336e-05	
211	5.000000e-01	1.650457e-05	
212	5.500000e-01	1.771701e-05	
213	6.000000e-01	1.885097e-05	
214	6.500000e-01	1.990675e-05	
215	7.000000e-01	2.088463e-05	
216	7.500000e-01	2.178489e-05	
217	8.000000e-01	2.260784e-05	
218	8.500000e-01	2.335375e-05	
219	9.000000e-01	2.402293e-05	
220	9.500000e-01	2.461569e-05	
221	1.000000e+00	2.513236e-05	
222	1.050000e+00	2.557332e-05	
223	1.100000e+00	2.593910e-05	
224	1.150000e+00	2.623056e-05	
225	1.200000e+00	2.644961e-05	
226	1.250000e+00	2.660115e-05	
227	1.300000e+00	2.669661e-05	
228	1.350000e+00	2.675398e-05	

Index   v-sweep         -i(vds)         
--------------------------------------------------------------------------------
229	1.400000e+00	2.678997e-05	
230	1.450000e+00	2.681469e-05	
231	1.500000e+00	2.683317e-05	
232	1.550000e+00	2.684789e-05	
233	1.600000e+00	2.686015e-05	
234	1.650000e+00	2.687070e-05	
235	1.700000e+00	2.688000e-05	
236	1.750000e+00	2.688836e-05	
237	1.800000e+00	2.689597e-05	
238	1.850000e+00	2.690299e-05	
239	1.900000e+00	2.690951e-05	
240	1.950000e+00	2.691563e-05	
241	2.000000e+00	2.692140e-05	
242	2.050000e+00	2.692687e-05	
243	2.100000e+00	2.693208e-05	
244	2.150000e+00	2.693707e-05	
245	2.200000e+00	2.694185e-05	
246	2.250000e+00	2.694646e-05	
247	2.300000e+00	2.695091e-05	
248	2.350000e+00	2.695522e-05	
249	2.400000e+00	2.695939e-05	
250	2.450000e+00	2.696345e-05	
251	2.500000e+00	2.696741e-05	
252	2.550000e+00	2.697126e-05	
253	2.600000e+00	2.697503e-05	
254	2.650000e+00	2.697872e-05	
255	2.700000e+00	2.698234e-05	
256	2.750000e+00	2.698590e-05	
257	2.800000e+00	2.698941e-05	
258	2.850000e+00	2.699289e-05	
259	2.900000e+00	2.699635e-05	
260	2.950000e+00	2.699982e-05	
261	3.000000e+00	2.700333e-05	
262	3.050000e+00	2.700691e-05	
263	3.100000e+00	2.701061e-05	
264	3.150000e+00	2.701449e-05	
265	3.200000e+00	2.701861e-05	
266	3.250000e+00	2.702305e-05	
267	3.300000e+00	2.702791e-05	
268	0.000000e+00	-8.75659e-32	
269	5.000000e-02	2.427906e-06	
270	1.000000e-01	4.782515e-06	
271	1.500000e-01	7.064077e-06	
272	2.000000e-01	9.272841e-06	
273	2.500000e-01	1.140906e-05	
274	3.000000e-01	1.347297e-05	
275	3.500000e-01	1.546483e-05	
276	4.000000e-01	1.738488e-05	
277	4.500000e-01	1.923337e-05	
278	5.000000e-01	2.101053e-05	
279	5.500000e-01	2.271662e-05	
280	6.000000e-01	2.435188e-05	
281	6.500000e-01	2.591654e-05	
282	7.000000e-01	2.741085e-05	
283	7.500000e-01	2.883505e-05	
284	8.000000e-01	3.018938e-05	
285	8.500000e-01	3.147407e-05	
286	9.000000e-01	3.268936e-05	

Index   v-sweep         -i(vds)         
--------------------------------------------------------------------------------
287	9.500000e-01	3.383549e-05	
288	1.000000e+00	3.491270e-05	
289	1.050000e+00	3.592122e-05	
290	1.100000e+00	3.686128e-05	
291	1.150000e+00	3.773313e-05	
292	1.200000e+00	3.853699e-05	
293	1.250000e+00	3.927310e-05	
294	1.300000e+00	3.994170e-05	
295	1.350000e+00	4.054303e-05	
296	1.400000e+00	4.107735e-05	
297	1.450000e+00	4.154492e-05	
298	1.500000e+00	4.194609e-05	
299	1.550000e+00	4.228131e-05	
300	1.600000e+00	4.255149e-05	
301	1.650000e+00	4.275866e-05	
302	1.700000e+00	4.290784e-05	
303	1.750000e+00	4.300918e-05	
304	1.800000e+00	4.307680e-05	
305	1.850000e+00	4.312350e-05	
306	1.900000e+00	4.315771e-05	
307	1.950000e+00	4.318427e-05	
308	2.000000e+00	4.320586e-05	
309	2.050000e+00	4.322405e-05	
310	2.100000e+00	4.323981e-05	
311	2.150000e+00	4.325373e-05	
312	2.200000e+00	4.326624e-05	
313	2.250000e+00	4.327763e-05	
314	2.300000e+00	4.328811e-05	
315	2.350000e+00	4.329784e-05	
316	2.400000e+00	4.330693e-05	
317	2.450000e+00	4.331549e-05	
318	2.500000e+00	4.332359e-05	
319	2.550000e+00	4.333128e-05	
320	2.600000e+00	4.333862e-05	
321	2.650000e+00	4.334565e-05	
322	2.700000e+00	4.335240e-05	
323	2.750000e+00	4.335890e-05	
324	2.800000e+00	4.336517e-05	
325	2.850000e+00	4.337124e-05	
326	2.900000e+00	4.337713e-05	
327	2.950000e+00	4.338285e-05	
328	3.000000e+00	4.338841e-05	
329	3.050000e+00	4.339384e-05	
330	3.100000e+00	4.339914e-05	
331	3.150000e+00	4.340434e-05	
332	3.200000e+00	4.340944e-05	
333	3.250000e+00	4.341448e-05	
334	3.300000e+00	4.341947e-05	
335	0.000000e+00	1.460717e-30	
336	5.000000e-02	2.740205e-06	
337	1.000000e-01	5.415361e-06	
338	1.500000e-01	8.025673e-06	
339	2.000000e-01	1.057135e-05	
340	2.500000e-01	1.305259e-05	
341	3.000000e-01	1.546960e-05	
342	3.500000e-01	1.782259e-05	
343	4.000000e-01	2.011175e-05	
344	4.500000e-01	2.233729e-05	

Index   v-sweep         -i(vds)         
--------------------------------------------------------------------------------
345	5.000000e-01	2.449940e-05	
346	5.500000e-01	2.659830e-05	
347	6.000000e-01	2.863418e-05	
348	6.500000e-01	3.060723e-05	
349	7.000000e-01	3.251767e-05	
350	7.500000e-01	3.436567e-05	
351	8.000000e-01	3.615145e-05	
352	8.500000e-01	3.787520e-05	
353	9.000000e-01	3.953711e-05	
354	9.500000e-01	4.113739e-05	
355	1.000000e+00	4.267621e-05	
356	1.050000e+00	4.415379e-05	
357	1.100000e+00	4.557031e-05	
358	1.150000e+00	4.692596e-05	
359	1.200000e+00	4.822094e-05	
360	1.250000e+00	4.945544e-05	
361	1.300000e+00	5.062964e-05	
362	1.350000e+00	5.174375e-05	
363	1.400000e+00	5.279794e-05	
364	1.450000e+00	5.379241e-05	
365	1.500000e+00	5.472735e-05	
366	1.550000e+00	5.560293e-05	
367	1.600000e+00	5.641935e-05	
368	1.650000e+00	5.717680e-05	
369	1.700000e+00	5.787545e-05	
370	1.750000e+00	5.851549e-05	
371	1.800000e+00	5.909709e-05	
372	1.850000e+00	5.962045e-05	
373	1.900000e+00	6.008573e-05	
374	1.950000e+00	6.049315e-05	
375	2.000000e+00	6.084294e-05	
376	2.050000e+00	6.113555e-05	
377	2.100000e+00	6.137197e-05	
378	2.150000e+00	6.155474e-05	
379	2.200000e+00	6.168958e-05	
380	2.250000e+00	6.178616e-05	
381	2.300000e+00	6.185563e-05	
382	2.350000e+00	6.190727e-05	
383	2.400000e+00	6.194734e-05	
384	2.450000e+00	6.197971e-05	
385	2.500000e+00	6.200676e-05	
386	2.550000e+00	6.202997e-05	
387	2.600000e+00	6.205032e-05	
388	2.650000e+00	6.206847e-05	
389	2.700000e+00	6.208487e-05	
390	2.750000e+00	6.209986e-05	
391	2.800000e+00	6.211369e-05	
392	2.850000e+00	6.212655e-05	
393	2.900000e+00	6.213859e-05	
394	2.950000e+00	6.214993e-05	
395	3.000000e+00	6.216065e-05	
396	3.050000e+00	6.217084e-05	
397	3.100000e+00	6.218056e-05	
398	3.150000e+00	6.218985e-05	
399	3.200000e+00	6.219878e-05	
400	3.250000e+00	6.220736e-05	
401	3.300000e+00	6.221564e-05	
Note: No ".plot", ".print", or ".fourier" lines; no simulations run
