
Note: Compatibility modes selected: hs

Warning: m=xx on .subckt line will override multiplier m hierarchy!


Circuit: ***************************

Doing analysis at TEMP = -40.000000 and TNOM = -40.000000


No. of Data Rows : 402
                          ***************************
                          DC transfer characteristic  Mon Jan  9 13:58:12  2023
--------------------------------------------------------------------------------
Index   v-sweep         -i(vds)         
--------------------------------------------------------------------------------
0	0.000000e+00	-4.75884e-24	
1	5.000000e-02	1.810041e-07	
2	1.000000e-01	2.642420e-07	
3	1.500000e-01	2.849610e-07	
4	2.000000e-01	2.902431e-07	
5	2.500000e-01	2.930047e-07	
6	3.000000e-01	2.949990e-07	
7	3.500000e-01	2.966281e-07	
8	4.000000e-01	2.980408e-07	
9	4.500000e-01	2.993090e-07	
10	5.000000e-01	3.004733e-07	
11	5.500000e-01	3.015591e-07	
12	6.000000e-01	3.025833e-07	
13	6.500000e-01	3.035580e-07	
14	7.000000e-01	3.044917e-07	
15	7.500000e-01	3.053913e-07	
16	8.000000e-01	3.062617e-07	
17	8.500000e-01	3.071071e-07	
18	9.000000e-01	3.079307e-07	
19	9.500000e-01	3.087352e-07	
20	1.000000e+00	3.095227e-07	
21	1.050000e+00	3.102952e-07	
22	1.100000e+00	3.110542e-07	
23	1.150000e+00	3.118009e-07	
24	1.200000e+00	3.125366e-07	
25	1.250000e+00	3.132623e-07	
26	1.300000e+00	3.139788e-07	
27	1.350000e+00	3.146869e-07	
28	1.400000e+00	3.153873e-07	
29	1.450000e+00	3.160805e-07	
30	1.500000e+00	3.167673e-07	
31	1.550000e+00	3.174480e-07	
32	1.600000e+00	3.181233e-07	
33	1.650000e+00	3.187935e-07	
34	1.700000e+00	3.194593e-07	
35	1.750000e+00	3.201212e-07	
36	1.800000e+00	3.207796e-07	
37	1.850000e+00	3.214353e-07	
38	1.900000e+00	3.220888e-07	
39	1.950000e+00	3.227409e-07	
40	2.000000e+00	3.233924e-07	
41	2.050000e+00	3.240443e-07	
42	2.100000e+00	3.246976e-07	
43	2.150000e+00	3.253535e-07	
44	2.200000e+00	3.260132e-07	
45	2.250000e+00	3.266783e-07	
46	2.300000e+00	3.273503e-07	
47	2.350000e+00	3.280310e-07	
48	2.400000e+00	3.287224e-07	
49	2.450000e+00	3.294266e-07	
50	2.500000e+00	3.301461e-07	
51	2.550000e+00	3.308832e-07	
52	2.600000e+00	3.316409e-07	
53	2.650000e+00	3.324220e-07	
54	2.700000e+00	3.332298e-07	

Index   v-sweep         -i(vds)         
--------------------------------------------------------------------------------
55	2.750000e+00	3.340677e-07	
56	2.800000e+00	3.349392e-07	
57	2.850000e+00	3.358484e-07	
58	2.900000e+00	3.367992e-07	
59	2.950000e+00	3.377960e-07	
60	3.000000e+00	3.388434e-07	
61	3.050000e+00	3.399461e-07	
62	3.100000e+00	3.411092e-07	
63	3.150000e+00	3.423380e-07	
64	3.200000e+00	3.436379e-07	
65	3.250000e+00	3.450146e-07	
66	3.300000e+00	3.464741e-07	
67	0.000000e+00	-9.53619e-23	
68	5.000000e-02	1.251821e-06	
69	1.000000e-01	2.358318e-06	
70	1.500000e-01	3.324166e-06	
71	2.000000e-01	4.153872e-06	
72	2.500000e-01	4.851808e-06	
73	3.000000e-01	5.422281e-06	
74	3.500000e-01	5.869730e-06	
75	4.000000e-01	6.199504e-06	
76	4.500000e-01	6.420919e-06	
77	5.000000e-01	6.554880e-06	
78	5.500000e-01	6.634097e-06	
79	6.000000e-01	6.685235e-06	
80	6.500000e-01	6.721961e-06	
81	7.000000e-01	6.750508e-06	
82	7.500000e-01	6.773920e-06	
83	8.000000e-01	6.793847e-06	
84	8.500000e-01	6.811264e-06	
85	9.000000e-01	6.826795e-06	
86	9.500000e-01	6.840857e-06	
87	1.000000e+00	6.853743e-06	
88	1.050000e+00	6.865669e-06	
89	1.100000e+00	6.876795e-06	
90	1.150000e+00	6.887245e-06	
91	1.200000e+00	6.897115e-06	
92	1.250000e+00	6.906485e-06	
93	1.300000e+00	6.915416e-06	
94	1.350000e+00	6.923962e-06	
95	1.400000e+00	6.932164e-06	
96	1.450000e+00	6.940060e-06	
97	1.500000e+00	6.947681e-06	
98	1.550000e+00	6.955052e-06	
99	1.600000e+00	6.962198e-06	
100	1.650000e+00	6.969137e-06	
101	1.700000e+00	6.975887e-06	
102	1.750000e+00	6.982464e-06	
103	1.800000e+00	6.988883e-06	
104	1.850000e+00	6.995155e-06	
105	1.900000e+00	7.001293e-06	
106	1.950000e+00	7.007308e-06	
107	2.000000e+00	7.013211e-06	
108	2.050000e+00	7.019013e-06	
109	2.100000e+00	7.024727e-06	
110	2.150000e+00	7.030363e-06	
111	2.200000e+00	7.035935e-06	
112	2.250000e+00	7.041457e-06	

Index   v-sweep         -i(vds)         
--------------------------------------------------------------------------------
113	2.300000e+00	7.046945e-06	
114	2.350000e+00	7.052416e-06	
115	2.400000e+00	7.057890e-06	
116	2.450000e+00	7.063389e-06	
117	2.500000e+00	7.068937e-06	
118	2.550000e+00	7.074563e-06	
119	2.600000e+00	7.080296e-06	
120	2.650000e+00	7.086171e-06	
121	2.700000e+00	7.092224e-06	
122	2.750000e+00	7.098497e-06	
123	2.800000e+00	7.105034e-06	
124	2.850000e+00	7.111885e-06	
125	2.900000e+00	7.119101e-06	
126	2.950000e+00	7.126741e-06	
127	3.000000e+00	7.134866e-06	
128	3.050000e+00	7.143542e-06	
129	3.100000e+00	7.152838e-06	
130	3.150000e+00	7.162829e-06	
131	3.200000e+00	7.173595e-06	
132	3.250000e+00	7.185220e-06	
133	3.300000e+00	7.197791e-06	
134	0.000000e+00	-2.32074e-37	
135	5.000000e-02	2.163918e-06	
136	1.000000e-01	4.177015e-06	
137	1.500000e-01	6.043601e-06	
138	2.000000e-01	7.767835e-06	
139	2.500000e-01	9.353731e-06	
140	3.000000e-01	1.080516e-05	
141	3.500000e-01	1.212585e-05	
142	4.000000e-01	1.331939e-05	
143	4.500000e-01	1.438923e-05	
144	5.000000e-01	1.533867e-05	
145	5.500000e-01	1.617080e-05	
146	6.000000e-01	1.688849e-05	
147	6.500000e-01	1.749419e-05	
148	7.000000e-01	1.798986e-05	
149	7.500000e-01	1.837757e-05	
150	8.000000e-01	1.866345e-05	
151	8.500000e-01	1.886449e-05	
152	9.000000e-01	1.900594e-05	
153	9.500000e-01	1.910972e-05	
154	1.000000e+00	1.918988e-05	
155	1.050000e+00	1.925463e-05	
156	1.100000e+00	1.930880e-05	
157	1.150000e+00	1.935536e-05	
158	1.200000e+00	1.939622e-05	
159	1.250000e+00	1.943268e-05	
160	1.300000e+00	1.946565e-05	
161	1.350000e+00	1.949578e-05	
162	1.400000e+00	1.952356e-05	
163	1.450000e+00	1.954938e-05	
164	1.500000e+00	1.957352e-05	
165	1.550000e+00	1.959621e-05	
166	1.600000e+00	1.961766e-05	
167	1.650000e+00	1.963800e-05	
168	1.700000e+00	1.965737e-05	
169	1.750000e+00	1.967587e-05	
170	1.800000e+00	1.969359e-05	

Index   v-sweep         -i(vds)         
--------------------------------------------------------------------------------
171	1.850000e+00	1.971062e-05	
172	1.900000e+00	1.972701e-05	
173	1.950000e+00	1.974283e-05	
174	2.000000e+00	1.975812e-05	
175	2.050000e+00	1.977293e-05	
176	2.100000e+00	1.978729e-05	
177	2.150000e+00	1.980126e-05	
178	2.200000e+00	1.981485e-05	
179	2.250000e+00	1.982810e-05	
180	2.300000e+00	1.984104e-05	
181	2.350000e+00	1.985370e-05	
182	2.400000e+00	1.986612e-05	
183	2.450000e+00	1.987832e-05	
184	2.500000e+00	1.989034e-05	
185	2.550000e+00	1.990222e-05	
186	2.600000e+00	1.991400e-05	
187	2.650000e+00	1.992573e-05	
188	2.700000e+00	1.993745e-05	
189	2.750000e+00	1.994924e-05	
190	2.800000e+00	1.996116e-05	
191	2.850000e+00	1.997327e-05	
192	2.900000e+00	1.998567e-05	
193	2.950000e+00	1.999844e-05	
194	3.000000e+00	2.001169e-05	
195	3.050000e+00	2.002553e-05	
196	3.100000e+00	2.004008e-05	
197	3.150000e+00	2.005547e-05	
198	3.200000e+00	2.007185e-05	
199	3.250000e+00	2.008937e-05	
200	3.300000e+00	2.010820e-05	
201	0.000000e+00	-1.63490e-36	
202	5.000000e-02	2.883995e-06	
203	1.000000e-01	5.619872e-06	
204	1.500000e-01	8.211433e-06	
205	2.000000e-01	1.066236e-05	
206	2.500000e-01	1.297622e-05	
207	3.000000e-01	1.515647e-05	
208	3.500000e-01	1.720645e-05	
209	4.000000e-01	1.912941e-05	
210	4.500000e-01	2.092848e-05	
211	5.000000e-01	2.260669e-05	
212	5.500000e-01	2.416698e-05	
213	6.000000e-01	2.561217e-05	
214	6.500000e-01	2.694496e-05	
215	7.000000e-01	2.816791e-05	
216	7.500000e-01	2.928344e-05	
217	8.000000e-01	3.029368e-05	
218	8.500000e-01	3.120042e-05	
219	9.000000e-01	3.200475e-05	
220	9.500000e-01	3.270662e-05	
221	1.000000e+00	3.330426e-05	
222	1.050000e+00	3.379471e-05	
223	1.100000e+00	3.417854e-05	
224	1.150000e+00	3.446750e-05	
225	1.200000e+00	3.468345e-05	
226	1.250000e+00	3.484847e-05	
227	1.300000e+00	3.497894e-05	
228	1.350000e+00	3.508563e-05	

Index   v-sweep         -i(vds)         
--------------------------------------------------------------------------------
229	1.400000e+00	3.517539e-05	
230	1.450000e+00	3.525269e-05	
231	1.500000e+00	3.532053e-05	
232	1.550000e+00	3.538098e-05	
233	1.600000e+00	3.543553e-05	
234	1.650000e+00	3.548526e-05	
235	1.700000e+00	3.553099e-05	
236	1.750000e+00	3.557335e-05	
237	1.800000e+00	3.561285e-05	
238	1.850000e+00	3.564988e-05	
239	1.900000e+00	3.568476e-05	
240	1.950000e+00	3.571775e-05	
241	2.000000e+00	3.574907e-05	
242	2.050000e+00	3.577890e-05	
243	2.100000e+00	3.580740e-05	
244	2.150000e+00	3.583469e-05	
245	2.200000e+00	3.586090e-05	
246	2.250000e+00	3.588612e-05	
247	2.300000e+00	3.591044e-05	
248	2.350000e+00	3.593393e-05	
249	2.400000e+00	3.595667e-05	
250	2.450000e+00	3.597871e-05	
251	2.500000e+00	3.600012e-05	
252	2.550000e+00	3.602095e-05	
253	2.600000e+00	3.604125e-05	
254	2.650000e+00	3.606108e-05	
255	2.700000e+00	3.608049e-05	
256	2.750000e+00	3.609955e-05	
257	2.800000e+00	3.611831e-05	
258	2.850000e+00	3.613685e-05	
259	2.900000e+00	3.615524e-05	
260	2.950000e+00	3.617357e-05	
261	3.000000e+00	3.619194e-05	
262	3.050000e+00	3.621045e-05	
263	3.100000e+00	3.622923e-05	
264	3.150000e+00	3.624841e-05	
265	3.200000e+00	3.626815e-05	
266	3.250000e+00	3.628862e-05	
267	3.300000e+00	3.631000e-05	
268	0.000000e+00	5.287647e-22	
269	5.000000e-02	3.435444e-06	
270	1.000000e-01	6.729780e-06	
271	1.500000e-01	9.886264e-06	
272	2.000000e-01	1.290806e-05	
273	2.500000e-01	1.579826e-05	
274	3.000000e-01	1.855985e-05	
275	3.500000e-01	2.119573e-05	
276	4.000000e-01	2.370875e-05	
277	4.500000e-01	2.610164e-05	
278	5.000000e-01	2.837709e-05	
279	5.500000e-01	3.053768e-05	
280	6.000000e-01	3.258595e-05	
281	6.500000e-01	3.452434e-05	
282	7.000000e-01	3.635522e-05	
283	7.500000e-01	3.808088e-05	
284	8.000000e-01	3.970355e-05	
285	8.500000e-01	4.122534e-05	
286	9.000000e-01	4.264827e-05	

Index   v-sweep         -i(vds)         
--------------------------------------------------------------------------------
287	9.500000e-01	4.397423e-05	
288	1.000000e+00	4.520491e-05	
289	1.050000e+00	4.634175e-05	
290	1.100000e+00	4.738572e-05	
291	1.150000e+00	4.833708e-05	
292	1.200000e+00	4.919479e-05	
293	1.250000e+00	4.995576e-05	
294	1.300000e+00	5.061435e-05	
295	1.350000e+00	5.116424e-05	
296	1.400000e+00	5.160500e-05	
297	1.450000e+00	5.194831e-05	
298	1.500000e+00	5.221475e-05	
299	1.550000e+00	5.242508e-05	
300	1.600000e+00	5.259545e-05	
301	1.650000e+00	5.273710e-05	
302	1.700000e+00	5.285764e-05	
303	1.750000e+00	5.296225e-05	
304	1.800000e+00	5.305452e-05	
305	1.850000e+00	5.313702e-05	
306	1.900000e+00	5.321162e-05	
307	1.950000e+00	5.327973e-05	
308	2.000000e+00	5.334241e-05	
309	2.050000e+00	5.340049e-05	
310	2.100000e+00	5.345464e-05	
311	2.150000e+00	5.350538e-05	
312	2.200000e+00	5.355315e-05	
313	2.250000e+00	5.359830e-05	
314	2.300000e+00	5.364114e-05	
315	2.350000e+00	5.368190e-05	
316	2.400000e+00	5.372080e-05	
317	2.450000e+00	5.375803e-05	
318	2.500000e+00	5.379373e-05	
319	2.550000e+00	5.382805e-05	
320	2.600000e+00	5.386111e-05	
321	2.650000e+00	5.389302e-05	
322	2.700000e+00	5.392386e-05	
323	2.750000e+00	5.395373e-05	
324	2.800000e+00	5.398272e-05	
325	2.850000e+00	5.401090e-05	
326	2.900000e+00	5.403835e-05	
327	2.950000e+00	5.406515e-05	
328	3.000000e+00	5.409138e-05	
329	3.050000e+00	5.411714e-05	
330	3.100000e+00	5.414252e-05	
331	3.150000e+00	5.416762e-05	
332	3.200000e+00	5.419258e-05	
333	3.250000e+00	5.421751e-05	
334	3.300000e+00	5.424258e-05	
335	0.000000e+00	1.957656e-21	
336	5.000000e-02	3.845863e-06	
337	1.000000e-01	7.559882e-06	
338	1.500000e-01	1.114480e-05	
339	2.000000e-01	1.460330e-05	
340	2.500000e-01	1.793799e-05	
341	3.000000e-01	2.115142e-05	
342	3.500000e-01	2.424606e-05	
343	4.000000e-01	2.722434e-05	
344	4.500000e-01	3.008861e-05	

Index   v-sweep         -i(vds)         
--------------------------------------------------------------------------------
345	5.000000e-01	3.284119e-05	
346	5.500000e-01	3.548431e-05	
347	6.000000e-01	3.802016e-05	
348	6.500000e-01	4.045087e-05	
349	7.000000e-01	4.277853e-05	
350	7.500000e-01	4.500516e-05	
351	8.000000e-01	4.713273e-05	
352	8.500000e-01	4.916316e-05	
353	9.000000e-01	5.109831e-05	
354	9.500000e-01	5.293998e-05	
355	1.000000e+00	5.468993e-05	
356	1.050000e+00	5.634983e-05	
357	1.100000e+00	5.792128e-05	
358	1.150000e+00	5.940578e-05	
359	1.200000e+00	6.080471e-05	
360	1.250000e+00	6.211926e-05	
361	1.300000e+00	6.335035e-05	
362	1.350000e+00	6.449849e-05	
363	1.400000e+00	6.556347e-05	
364	1.450000e+00	6.654390e-05	
365	1.500000e+00	6.743652e-05	
366	1.550000e+00	6.823537e-05	
367	1.600000e+00	6.893204e-05	
368	1.650000e+00	6.951917e-05	
369	1.700000e+00	6.999735e-05	
370	1.750000e+00	7.037888e-05	
371	1.800000e+00	7.068309e-05	
372	1.850000e+00	7.092913e-05	
373	1.900000e+00	7.113227e-05	
374	1.950000e+00	7.130359e-05	
375	2.000000e+00	7.145090e-05	
376	2.050000e+00	7.157971e-05	
377	2.100000e+00	7.169397e-05	
378	2.150000e+00	7.179653e-05	
379	2.200000e+00	7.188956e-05	
380	2.250000e+00	7.197467e-05	
381	2.300000e+00	7.205312e-05	
382	2.350000e+00	7.212590e-05	
383	2.400000e+00	7.219380e-05	
384	2.450000e+00	7.225746e-05	
385	2.500000e+00	7.231741e-05	
386	2.550000e+00	7.237407e-05	
387	2.600000e+00	7.242783e-05	
388	2.650000e+00	7.247897e-05	
389	2.700000e+00	7.252777e-05	
390	2.750000e+00	7.257445e-05	
391	2.800000e+00	7.261920e-05	
392	2.850000e+00	7.266221e-05	
393	2.900000e+00	7.270361e-05	
394	2.950000e+00	7.274354e-05	
395	3.000000e+00	7.278214e-05	
396	3.050000e+00	7.281950e-05	
397	3.100000e+00	7.285574e-05	
398	3.150000e+00	7.289096e-05	
399	3.200000e+00	7.292527e-05	
400	3.250000e+00	7.295877e-05	
401	3.300000e+00	7.299158e-05	
Note: No ".plot", ".print", or ".fourier" lines; no simulations run
