
Note: Compatibility modes selected: hs

Warning: m=xx on .subckt line will override multiplier m hierarchy!


Circuit: ***************************

Doing analysis at TEMP = -40.000000 and TNOM = -40.000000


No. of Data Rows : 402
                          ***************************
                          DC transfer characteristic  Mon Jan  9 13:58:12  2023
--------------------------------------------------------------------------------
Index   v-sweep         -i(vds)         
--------------------------------------------------------------------------------
0	0.000000e+00	1.878643e-23	
1	5.000000e-02	2.904614e-07	
2	1.000000e-01	4.179904e-07	
3	1.500000e-01	4.572354e-07	
4	2.000000e-01	4.725179e-07	
5	2.500000e-01	4.818572e-07	
6	3.000000e-01	4.889510e-07	
7	3.500000e-01	4.948870e-07	
8	4.000000e-01	5.001125e-07	
9	4.500000e-01	5.048548e-07	
10	5.000000e-01	5.092461e-07	
11	5.500000e-01	5.133705e-07	
12	6.000000e-01	5.172849e-07	
13	6.500000e-01	5.210299e-07	
14	7.000000e-01	5.246354e-07	
15	7.500000e-01	5.281240e-07	
16	8.000000e-01	5.315135e-07	
17	8.500000e-01	5.348178e-07	
18	9.000000e-01	5.380483e-07	
19	9.500000e-01	5.412142e-07	
20	1.000000e+00	5.443233e-07	
21	1.050000e+00	5.473819e-07	
22	1.100000e+00	5.503957e-07	
23	1.150000e+00	5.533691e-07	
24	1.200000e+00	5.563063e-07	
25	1.250000e+00	5.592107e-07	
26	1.300000e+00	5.620854e-07	
27	1.350000e+00	5.649330e-07	
28	1.400000e+00	5.677560e-07	
29	1.450000e+00	5.705565e-07	
30	1.500000e+00	5.733364e-07	
31	1.550000e+00	5.760976e-07	
32	1.600000e+00	5.788416e-07	
33	1.650000e+00	5.815701e-07	
34	1.700000e+00	5.842846e-07	
35	1.750000e+00	5.869866e-07	
36	1.800000e+00	5.896776e-07	
37	1.850000e+00	5.923592e-07	
38	1.900000e+00	5.950332e-07	
39	1.950000e+00	5.977012e-07	
40	2.000000e+00	6.003653e-07	
41	2.050000e+00	6.030276e-07	
42	2.100000e+00	6.056905e-07	
43	2.150000e+00	6.083565e-07	
44	2.200000e+00	6.110286e-07	
45	2.250000e+00	6.137099e-07	
46	2.300000e+00	6.164041e-07	
47	2.350000e+00	6.191150e-07	
48	2.400000e+00	6.218471e-07	
49	2.450000e+00	6.246051e-07	
50	2.500000e+00	6.273942e-07	
51	2.550000e+00	6.302203e-07	
52	2.600000e+00	6.330896e-07	
53	2.650000e+00	6.360090e-07	
54	2.700000e+00	6.389860e-07	

Index   v-sweep         -i(vds)         
--------------------------------------------------------------------------------
55	2.750000e+00	6.420285e-07	
56	2.800000e+00	6.451453e-07	
57	2.850000e+00	6.483457e-07	
58	2.900000e+00	6.516397e-07	
59	2.950000e+00	6.550382e-07	
60	3.000000e+00	6.585525e-07	
61	3.050000e+00	6.621950e-07	
62	3.100000e+00	6.659785e-07	
63	3.150000e+00	6.699170e-07	
64	3.200000e+00	6.740250e-07	
65	3.250000e+00	6.783179e-07	
66	3.300000e+00	6.828120e-07	
67	0.000000e+00	-8.15395e-23	
68	5.000000e-02	2.353822e-06	
69	1.000000e-01	4.409618e-06	
70	1.500000e-01	6.183500e-06	
71	2.000000e-01	7.690615e-06	
72	2.500000e-01	8.945316e-06	
73	3.000000e-01	9.961511e-06	
74	3.500000e-01	1.075368e-05	
75	4.000000e-01	1.134012e-05	
76	4.500000e-01	1.175044e-05	
77	5.000000e-01	1.202978e-05	
78	5.500000e-01	1.222522e-05	
79	6.000000e-01	1.237017e-05	
80	6.500000e-01	1.248401e-05	
81	7.000000e-01	1.257756e-05	
82	7.500000e-01	1.265711e-05	
83	8.000000e-01	1.272651e-05	
84	8.500000e-01	1.278826e-05	
85	9.000000e-01	1.284404e-05	
86	9.500000e-01	1.289507e-05	
87	1.000000e+00	1.294221e-05	
88	1.050000e+00	1.298612e-05	
89	1.100000e+00	1.302731e-05	
90	1.150000e+00	1.306617e-05	
91	1.200000e+00	1.310303e-05	
92	1.250000e+00	1.313813e-05	
93	1.300000e+00	1.317168e-05	
94	1.350000e+00	1.320387e-05	
95	1.400000e+00	1.323485e-05	
96	1.450000e+00	1.326472e-05	
97	1.500000e+00	1.329361e-05	
98	1.550000e+00	1.332160e-05	
99	1.600000e+00	1.334878e-05	
100	1.650000e+00	1.337521e-05	
101	1.700000e+00	1.340095e-05	
102	1.750000e+00	1.342607e-05	
103	1.800000e+00	1.345061e-05	
104	1.850000e+00	1.347461e-05	
105	1.900000e+00	1.349812e-05	
106	1.950000e+00	1.352117e-05	
107	2.000000e+00	1.354380e-05	
108	2.050000e+00	1.356606e-05	
109	2.100000e+00	1.358796e-05	
110	2.150000e+00	1.360956e-05	
111	2.200000e+00	1.363088e-05	
112	2.250000e+00	1.365197e-05	

Index   v-sweep         -i(vds)         
--------------------------------------------------------------------------------
113	2.300000e+00	1.367287e-05	
114	2.350000e+00	1.369363e-05	
115	2.400000e+00	1.371429e-05	
116	2.450000e+00	1.373490e-05	
117	2.500000e+00	1.375554e-05	
118	2.550000e+00	1.377626e-05	
119	2.600000e+00	1.379714e-05	
120	2.650000e+00	1.381826e-05	
121	2.700000e+00	1.383970e-05	
122	2.750000e+00	1.386157e-05	
123	2.800000e+00	1.388397e-05	
124	2.850000e+00	1.390700e-05	
125	2.900000e+00	1.393081e-05	
126	2.950000e+00	1.395552e-05	
127	3.000000e+00	1.398128e-05	
128	3.050000e+00	1.400824e-05	
129	3.100000e+00	1.403659e-05	
130	3.150000e+00	1.406649e-05	
131	3.200000e+00	1.409815e-05	
132	3.250000e+00	1.413177e-05	
133	3.300000e+00	1.416758e-05	
134	0.000000e+00	1.589838e-21	
135	5.000000e-02	3.943168e-06	
136	1.000000e-01	7.574572e-06	
137	1.500000e-01	1.090808e-05	
138	2.000000e-01	1.395680e-05	
139	2.500000e-01	1.673314e-05	
140	3.000000e-01	1.924879e-05	
141	3.500000e-01	2.151475e-05	
142	4.000000e-01	2.354128e-05	
143	4.500000e-01	2.533780e-05	
144	5.000000e-01	2.691266e-05	
145	5.500000e-01	2.827280e-05	
146	6.000000e-01	2.942337e-05	
147	6.500000e-01	3.036868e-05	
148	7.000000e-01	3.111749e-05	
149	7.500000e-01	3.169199e-05	
150	8.000000e-01	3.212861e-05	
151	8.500000e-01	3.246587e-05	
152	9.000000e-01	3.273421e-05	
153	9.500000e-01	3.295449e-05	
154	1.000000e+00	3.314038e-05	
155	1.050000e+00	3.330089e-05	
156	1.100000e+00	3.344211e-05	
157	1.150000e+00	3.356825e-05	
158	1.200000e+00	3.368236e-05	
159	1.250000e+00	3.378665e-05	
160	1.300000e+00	3.388281e-05	
161	1.350000e+00	3.397213e-05	
162	1.400000e+00	3.405562e-05	
163	1.450000e+00	3.413409e-05	
164	1.500000e+00	3.420818e-05	
165	1.550000e+00	3.427845e-05	
166	1.600000e+00	3.434533e-05	
167	1.650000e+00	3.440919e-05	
168	1.700000e+00	3.447035e-05	
169	1.750000e+00	3.452908e-05	
170	1.800000e+00	3.458561e-05	

Index   v-sweep         -i(vds)         
--------------------------------------------------------------------------------
171	1.850000e+00	3.464014e-05	
172	1.900000e+00	3.469284e-05	
173	1.950000e+00	3.474386e-05	
174	2.000000e+00	3.479336e-05	
175	2.050000e+00	3.484143e-05	
176	2.100000e+00	3.488821e-05	
177	2.150000e+00	3.493378e-05	
178	2.200000e+00	3.497825e-05	
179	2.250000e+00	3.502171e-05	
180	2.300000e+00	3.506423e-05	
181	2.350000e+00	3.510592e-05	
182	2.400000e+00	3.514686e-05	
183	2.450000e+00	3.518714e-05	
184	2.500000e+00	3.522687e-05	
185	2.550000e+00	3.526613e-05	
186	2.600000e+00	3.530505e-05	
187	2.650000e+00	3.534375e-05	
188	2.700000e+00	3.538236e-05	
189	2.750000e+00	3.542104e-05	
190	2.800000e+00	3.545995e-05	
191	2.850000e+00	3.549926e-05	
192	2.900000e+00	3.553918e-05	
193	2.950000e+00	3.557992e-05	
194	3.000000e+00	3.562173e-05	
195	3.050000e+00	3.566487e-05	
196	3.100000e+00	3.570963e-05	
197	3.150000e+00	3.575631e-05	
198	3.200000e+00	3.580526e-05	
199	3.250000e+00	3.585684e-05	
200	3.300000e+00	3.591145e-05	
201	0.000000e+00	-7.89689e-21	
202	5.000000e-02	5.117503e-06	
203	1.000000e-01	9.929795e-06	
204	1.500000e-01	1.444845e-05	
205	2.000000e-01	1.868454e-05	
206	2.500000e-01	2.264860e-05	
207	3.000000e-01	2.635072e-05	
208	3.500000e-01	2.980047e-05	
209	4.000000e-01	3.300700e-05	
210	4.500000e-01	3.597894e-05	
211	5.000000e-01	3.872442e-05	
212	5.500000e-01	4.125103e-05	
213	6.000000e-01	4.356564e-05	
214	6.500000e-01	4.567421e-05	
215	7.000000e-01	4.758136e-05	
216	7.500000e-01	4.928967e-05	
217	8.000000e-01	5.079882e-05	
218	8.500000e-01	5.210525e-05	
219	9.000000e-01	5.320504e-05	
220	9.500000e-01	5.410228e-05	
221	1.000000e+00	5.481739e-05	
222	1.050000e+00	5.538437e-05	
223	1.100000e+00	5.583923e-05	
224	1.150000e+00	5.621178e-05	
225	1.200000e+00	5.652389e-05	
226	1.250000e+00	5.679092e-05	
227	1.300000e+00	5.702359e-05	
228	1.350000e+00	5.722948e-05	

Index   v-sweep         -i(vds)         
--------------------------------------------------------------------------------
229	1.400000e+00	5.741407e-05	
230	1.450000e+00	5.758137e-05	
231	1.500000e+00	5.773444e-05	
232	1.550000e+00	5.787558e-05	
233	1.600000e+00	5.800663e-05	
234	1.650000e+00	5.812901e-05	
235	1.700000e+00	5.824390e-05	
236	1.750000e+00	5.835225e-05	
237	1.800000e+00	5.845483e-05	
238	1.850000e+00	5.855229e-05	
239	1.900000e+00	5.864520e-05	
240	1.950000e+00	5.873400e-05	
241	2.000000e+00	5.881911e-05	
242	2.050000e+00	5.890088e-05	
243	2.100000e+00	5.897959e-05	
244	2.150000e+00	5.905551e-05	
245	2.200000e+00	5.912888e-05	
246	2.250000e+00	5.919990e-05	
247	2.300000e+00	5.926876e-05	
248	2.350000e+00	5.933564e-05	
249	2.400000e+00	5.940068e-05	
250	2.450000e+00	5.946404e-05	
251	2.500000e+00	5.952586e-05	
252	2.550000e+00	5.958629e-05	
253	2.600000e+00	5.964547e-05	
254	2.650000e+00	5.970355e-05	
255	2.700000e+00	5.976068e-05	
256	2.750000e+00	5.981702e-05	
257	2.800000e+00	5.987277e-05	
258	2.850000e+00	5.992810e-05	
259	2.900000e+00	5.998325e-05	
260	2.950000e+00	6.003843e-05	
261	3.000000e+00	6.009392e-05	
262	3.050000e+00	6.015000e-05	
263	3.100000e+00	6.020699e-05	
264	3.150000e+00	6.026525e-05	
265	3.200000e+00	6.032514e-05	
266	3.250000e+00	6.038711e-05	
267	3.300000e+00	6.045161e-05	
268	0.000000e+00	-1.18972e-20	
269	5.000000e-02	5.998629e-06	
270	1.000000e-01	1.170638e-05	
271	1.500000e-01	1.713286e-05	
272	2.000000e-01	2.228728e-05	
273	2.500000e-01	2.717851e-05	
274	3.000000e-01	3.181507e-05	
275	3.500000e-01	3.620517e-05	
276	4.000000e-01	4.035665e-05	
277	4.500000e-01	4.427705e-05	
278	5.000000e-01	4.797358e-05	
279	5.500000e-01	5.145314e-05	
280	6.000000e-01	5.472225e-05	
281	6.500000e-01	5.778707e-05	
282	7.000000e-01	6.065330e-05	
283	7.500000e-01	6.332611e-05	
284	8.000000e-01	6.580989e-05	
285	8.500000e-01	6.810798e-05	
286	9.000000e-01	7.022209e-05	

Index   v-sweep         -i(vds)         
--------------------------------------------------------------------------------
287	9.500000e-01	7.215144e-05	
288	1.000000e+00	7.389178e-05	
289	1.050000e+00	7.543493e-05	
290	1.100000e+00	7.677116e-05	
291	1.150000e+00	7.789655e-05	
292	1.200000e+00	7.882196e-05	
293	1.250000e+00	7.957424e-05	
294	1.300000e+00	8.018766e-05	
295	1.350000e+00	8.069444e-05	
296	1.400000e+00	8.112047e-05	
297	1.450000e+00	8.148507e-05	
298	1.500000e+00	8.180230e-05	
299	1.550000e+00	8.208233e-05	
300	1.600000e+00	8.233266e-05	
301	1.650000e+00	8.255885e-05	
302	1.700000e+00	8.276514e-05	
303	1.750000e+00	8.295476e-05	
304	1.800000e+00	8.313027e-05	
305	1.850000e+00	8.329370e-05	
306	1.900000e+00	8.344668e-05	
307	1.950000e+00	8.359054e-05	
308	2.000000e+00	8.372638e-05	
309	2.050000e+00	8.385512e-05	
310	2.100000e+00	8.397752e-05	
311	2.150000e+00	8.409425e-05	
312	2.200000e+00	8.420586e-05	
313	2.250000e+00	8.431283e-05	
314	2.300000e+00	8.441559e-05	
315	2.350000e+00	8.451451e-05	
316	2.400000e+00	8.460990e-05	
317	2.450000e+00	8.470205e-05	
318	2.500000e+00	8.479123e-05	
319	2.550000e+00	8.487768e-05	
320	2.600000e+00	8.496160e-05	
321	2.650000e+00	8.504321e-05	
322	2.700000e+00	8.512272e-05	
323	2.750000e+00	8.520030e-05	
324	2.800000e+00	8.527617e-05	
325	2.850000e+00	8.535052e-05	
326	2.900000e+00	8.542358e-05	
327	2.950000e+00	8.549556e-05	
328	3.000000e+00	8.556671e-05	
329	3.050000e+00	8.563731e-05	
330	3.100000e+00	8.570765e-05	
331	3.150000e+00	8.577806e-05	
332	3.200000e+00	8.584890e-05	
333	3.250000e+00	8.592057e-05	
334	3.300000e+00	8.599351e-05	
335	0.000000e+00	-1.18025e-20	
336	5.000000e-02	6.667440e-06	
337	1.000000e-01	1.306119e-05	
338	1.500000e-01	1.918920e-05	
339	2.000000e-01	2.505917e-05	
340	2.500000e-01	3.067854e-05	
341	3.000000e-01	3.605449e-05	
342	3.500000e-01	4.119396e-05	
343	4.000000e-01	4.610367e-05	
344	4.500000e-01	5.079009e-05	

Index   v-sweep         -i(vds)         
--------------------------------------------------------------------------------
345	5.000000e-01	5.525945e-05	
346	5.500000e-01	5.951779e-05	
347	6.000000e-01	6.357088e-05	
348	6.500000e-01	6.742428e-05	
349	7.000000e-01	7.108330e-05	
350	7.500000e-01	7.455299e-05	
351	8.000000e-01	7.783810e-05	
352	8.500000e-01	8.094302e-05	
353	9.000000e-01	8.387171e-05	
354	9.500000e-01	8.662751e-05	
355	1.000000e+00	8.921291e-05	
356	1.050000e+00	9.162915e-05	
357	1.100000e+00	9.387555e-05	
358	1.150000e+00	9.594863e-05	
359	1.200000e+00	9.784110e-05	
360	1.250000e+00	9.954167e-05	
361	1.300000e+00	1.010375e-04	
362	1.350000e+00	1.023210e-04	
363	1.400000e+00	1.033982e-04	
364	1.450000e+00	1.042909e-04	
365	1.500000e+00	1.050301e-04	
366	1.550000e+00	1.056475e-04	
367	1.600000e+00	1.061701e-04	
368	1.650000e+00	1.066192e-04	
369	1.700000e+00	1.070108e-04	
370	1.750000e+00	1.073569e-04	
371	1.800000e+00	1.076662e-04	
372	1.850000e+00	1.079455e-04	
373	1.900000e+00	1.082001e-04	
374	1.950000e+00	1.084339e-04	
375	2.000000e+00	1.086500e-04	
376	2.050000e+00	1.088510e-04	
377	2.100000e+00	1.090389e-04	
378	2.150000e+00	1.092154e-04	
379	2.200000e+00	1.093818e-04	
380	2.250000e+00	1.095393e-04	
381	2.300000e+00	1.096888e-04	
382	2.350000e+00	1.098312e-04	
383	2.400000e+00	1.099673e-04	
384	2.450000e+00	1.100974e-04	
385	2.500000e+00	1.102224e-04	
386	2.550000e+00	1.103424e-04	
387	2.600000e+00	1.104581e-04	
388	2.650000e+00	1.105697e-04	
389	2.700000e+00	1.106776e-04	
390	2.750000e+00	1.107821e-04	
391	2.800000e+00	1.108834e-04	
392	2.850000e+00	1.109818e-04	
393	2.900000e+00	1.110776e-04	
394	2.950000e+00	1.111710e-04	
395	3.000000e+00	1.112622e-04	
396	3.050000e+00	1.113516e-04	
397	3.100000e+00	1.114394e-04	
398	3.150000e+00	1.115258e-04	
399	3.200000e+00	1.116112e-04	
400	3.250000e+00	1.116960e-04	
401	3.300000e+00	1.117805e-04	
Note: No ".plot", ".print", or ".fourier" lines; no simulations run
