
Note: Compatibility modes selected: hs

Warning: m=xx on .subckt line will override multiplier m hierarchy!


Circuit: ***************************

Doing analysis at TEMP = 125.000000 and TNOM = 125.000000


No. of Data Rows : 402
                          ***************************
                          DC transfer characteristic  Mon Jan  9 13:58:12  2023
--------------------------------------------------------------------------------
Index   v-sweep         -i(vds)         
--------------------------------------------------------------------------------
0	0.000000e+00	-1.41327e-24	
1	5.000000e-02	3.737986e-05	
2	1.000000e-01	6.690057e-05	
3	1.500000e-01	8.919134e-05	
4	2.000000e-01	1.049592e-04	
5	2.500000e-01	1.152596e-04	
6	3.000000e-01	1.216746e-04	
7	3.500000e-01	1.258691e-04	
8	4.000000e-01	1.289518e-04	
9	4.500000e-01	1.314722e-04	
10	5.000000e-01	1.336837e-04	
11	5.500000e-01	1.357097e-04	
12	6.000000e-01	1.376158e-04	
13	6.500000e-01	1.394399e-04	
14	7.000000e-01	1.412056e-04	
15	7.500000e-01	1.429281e-04	
16	8.000000e-01	1.446182e-04	
17	8.500000e-01	1.462834e-04	
18	9.000000e-01	1.479292e-04	
19	9.500000e-01	1.495600e-04	
20	1.000000e+00	1.511788e-04	
21	1.050000e+00	1.527883e-04	
22	1.100000e+00	1.543906e-04	
23	1.150000e+00	1.559874e-04	
24	1.200000e+00	1.575799e-04	
25	1.250000e+00	1.591694e-04	
26	1.300000e+00	1.607567e-04	
27	1.350000e+00	1.623429e-04	
28	1.400000e+00	1.639284e-04	
29	1.450000e+00	1.655139e-04	
30	1.500000e+00	1.671000e-04	
31	1.550000e+00	1.686871e-04	
32	1.600000e+00	1.702756e-04	
33	1.650000e+00	1.718658e-04	
34	1.700000e+00	1.734582e-04	
35	1.750000e+00	1.750530e-04	
36	1.800000e+00	1.766506e-04	
37	1.850000e+00	1.782512e-04	
38	1.900000e+00	1.798552e-04	
39	1.950000e+00	1.814629e-04	
40	2.000000e+00	1.830748e-04	
41	2.050000e+00	1.846911e-04	
42	2.100000e+00	1.863125e-04	
43	2.150000e+00	1.879395e-04	
44	2.200000e+00	1.895727e-04	
45	2.250000e+00	1.912129e-04	
46	2.300000e+00	1.928608e-04	
47	2.350000e+00	1.945177e-04	
48	2.400000e+00	1.961844e-04	
49	2.450000e+00	1.978624e-04	
50	2.500000e+00	1.995532e-04	
51	2.550000e+00	2.012584e-04	
52	2.600000e+00	2.029799e-04	
53	2.650000e+00	2.047200e-04	
54	2.700000e+00	2.064809e-04	

Index   v-sweep         -i(vds)         
--------------------------------------------------------------------------------
55	2.750000e+00	2.082653e-04	
56	2.800000e+00	2.100763e-04	
57	2.850000e+00	2.119172e-04	
58	2.900000e+00	2.137915e-04	
59	2.950000e+00	2.157032e-04	
60	3.000000e+00	2.176568e-04	
61	3.050000e+00	2.196569e-04	
62	3.100000e+00	2.217089e-04	
63	3.150000e+00	2.238182e-04	
64	3.200000e+00	2.259911e-04	
65	3.250000e+00	2.282341e-04	
66	3.300000e+00	2.305544e-04	
67	0.000000e+00	-2.32109e-24	
68	5.000000e-02	1.015692e-04	
69	1.000000e-01	1.934175e-04	
70	1.500000e-01	2.760592e-04	
71	2.000000e-01	3.499357e-04	
72	2.500000e-01	4.154528e-04	
73	3.000000e-01	4.729898e-04	
74	3.500000e-01	5.229033e-04	
75	4.000000e-01	5.655323e-04	
76	4.500000e-01	6.012131e-04	
77	5.000000e-01	6.303247e-04	
78	5.500000e-01	6.533938e-04	
79	6.000000e-01	6.712328e-04	
80	6.500000e-01	6.849429e-04	
81	7.000000e-01	6.956762e-04	
82	7.500000e-01	7.043775e-04	
83	8.000000e-01	7.117070e-04	
84	8.500000e-01	7.180947e-04	
85	9.000000e-01	7.238166e-04	
86	9.500000e-01	7.290529e-04	
87	1.000000e+00	7.339243e-04	
88	1.050000e+00	7.385142e-04	
89	1.100000e+00	7.428819e-04	
90	1.150000e+00	7.470706e-04	
91	1.200000e+00	7.511128e-04	
92	1.250000e+00	7.550333e-04	
93	1.300000e+00	7.588513e-04	
94	1.350000e+00	7.625822e-04	
95	1.400000e+00	7.662382e-04	
96	1.450000e+00	7.698293e-04	
97	1.500000e+00	7.733638e-04	
98	1.550000e+00	7.768485e-04	
99	1.600000e+00	7.802892e-04	
100	1.650000e+00	7.836908e-04	
101	1.700000e+00	7.870575e-04	
102	1.750000e+00	7.903929e-04	
103	1.800000e+00	7.937002e-04	
104	1.850000e+00	7.969821e-04	
105	1.900000e+00	8.002411e-04	
106	1.950000e+00	8.034794e-04	
107	2.000000e+00	8.066989e-04	
108	2.050000e+00	8.099016e-04	
109	2.100000e+00	8.130893e-04	
110	2.150000e+00	8.162637e-04	
111	2.200000e+00	8.194265e-04	
112	2.250000e+00	8.225796e-04	

Index   v-sweep         -i(vds)         
--------------------------------------------------------------------------------
113	2.300000e+00	8.257249e-04	
114	2.350000e+00	8.288646e-04	
115	2.400000e+00	8.320008e-04	
116	2.450000e+00	8.351362e-04	
117	2.500000e+00	8.382738e-04	
118	2.550000e+00	8.414167e-04	
119	2.600000e+00	8.445688e-04	
120	2.650000e+00	8.477342e-04	
121	2.700000e+00	8.509178e-04	
122	2.750000e+00	8.541249e-04	
123	2.800000e+00	8.573618e-04	
124	2.850000e+00	8.606351e-04	
125	2.900000e+00	8.639526e-04	
126	2.950000e+00	8.673228e-04	
127	3.000000e+00	8.707552e-04	
128	3.050000e+00	8.742602e-04	
129	3.100000e+00	8.778492e-04	
130	3.150000e+00	8.815350e-04	
131	3.200000e+00	8.853314e-04	
132	3.250000e+00	8.892533e-04	
133	3.300000e+00	8.933173e-04	
134	0.000000e+00	3.213644e-19	
135	5.000000e-02	1.482961e-04	
136	1.000000e-01	2.867997e-04	
137	1.500000e-01	4.159438e-04	
138	2.000000e-01	5.360990e-04	
139	2.500000e-01	6.476079e-04	
140	3.000000e-01	7.507939e-04	
141	3.500000e-01	8.459631e-04	
142	4.000000e-01	9.334040e-04	
143	4.500000e-01	1.013387e-03	
144	5.000000e-01	1.086161e-03	
145	5.500000e-01	1.151951e-03	
146	6.000000e-01	1.210952e-03	
147	6.500000e-01	1.263324e-03	
148	7.000000e-01	1.309191e-03	
149	7.500000e-01	1.348674e-03	
150	8.000000e-01	1.381962e-03	
151	8.500000e-01	1.409452e-03	
152	9.000000e-01	1.431847e-03	
153	9.500000e-01	1.450079e-03	
154	1.000000e+00	1.465112e-03	
155	1.050000e+00	1.477770e-03	
156	1.100000e+00	1.488679e-03	
157	1.150000e+00	1.498291e-03	
158	1.200000e+00	1.506928e-03	
159	1.250000e+00	1.514814e-03	
160	1.300000e+00	1.522113e-03	
161	1.350000e+00	1.528944e-03	
162	1.400000e+00	1.535395e-03	
163	1.450000e+00	1.541534e-03	
164	1.500000e+00	1.547411e-03	
165	1.550000e+00	1.553067e-03	
166	1.600000e+00	1.558535e-03	
167	1.650000e+00	1.563840e-03	
168	1.700000e+00	1.569005e-03	
169	1.750000e+00	1.574045e-03	
170	1.800000e+00	1.578977e-03	

Index   v-sweep         -i(vds)         
--------------------------------------------------------------------------------
171	1.850000e+00	1.583811e-03	
172	1.900000e+00	1.588559e-03	
173	1.950000e+00	1.593229e-03	
174	2.000000e+00	1.597829e-03	
175	2.050000e+00	1.602366e-03	
176	2.100000e+00	1.606846e-03	
177	2.150000e+00	1.611273e-03	
178	2.200000e+00	1.615652e-03	
179	2.250000e+00	1.619988e-03	
180	2.300000e+00	1.624285e-03	
181	2.350000e+00	1.628546e-03	
182	2.400000e+00	1.632774e-03	
183	2.450000e+00	1.636974e-03	
184	2.500000e+00	1.641149e-03	
185	2.550000e+00	1.645303e-03	
186	2.600000e+00	1.649440e-03	
187	2.650000e+00	1.653564e-03	
188	2.700000e+00	1.657682e-03	
189	2.750000e+00	1.661797e-03	
190	2.800000e+00	1.665918e-03	
191	2.850000e+00	1.670051e-03	
192	2.900000e+00	1.674204e-03	
193	2.950000e+00	1.678387e-03	
194	3.000000e+00	1.682610e-03	
195	3.050000e+00	1.686885e-03	
196	3.100000e+00	1.691224e-03	
197	3.150000e+00	1.695643e-03	
198	3.200000e+00	1.700157e-03	
199	3.250000e+00	1.704786e-03	
200	3.300000e+00	1.709547e-03	
201	0.000000e+00	-2.87321e-19	
202	5.000000e-02	1.825476e-04	
203	1.000000e-01	3.557043e-04	
204	1.500000e-01	5.198310e-04	
205	2.000000e-01	6.752333e-04	
206	2.500000e-01	8.221948e-04	
207	3.000000e-01	9.609850e-04	
208	3.500000e-01	1.091863e-03	
209	4.000000e-01	1.215075e-03	
210	4.500000e-01	1.330859e-03	
211	5.000000e-01	1.439439e-03	
212	5.500000e-01	1.541029e-03	
213	6.000000e-01	1.635828e-03	
214	6.500000e-01	1.724018e-03	
215	7.000000e-01	1.805764e-03	
216	7.500000e-01	1.881203e-03	
217	8.000000e-01	1.950442e-03	
218	8.500000e-01	2.013544e-03	
219	9.000000e-01	2.070525e-03	
220	9.500000e-01	2.121354e-03	
221	1.000000e+00	2.165999e-03	
222	1.050000e+00	2.204514e-03	
223	1.100000e+00	2.237173e-03	
224	1.150000e+00	2.264549e-03	
225	1.200000e+00	2.287446e-03	
226	1.250000e+00	2.306738e-03	
227	1.300000e+00	2.323219e-03	
228	1.350000e+00	2.337538e-03	

Index   v-sweep         -i(vds)         
--------------------------------------------------------------------------------
229	1.400000e+00	2.350193e-03	
230	1.450000e+00	2.361554e-03	
231	1.500000e+00	2.371898e-03	
232	1.550000e+00	2.381429e-03	
233	1.600000e+00	2.390302e-03	
234	1.650000e+00	2.398634e-03	
235	1.700000e+00	2.406517e-03	
236	1.750000e+00	2.414021e-03	
237	1.800000e+00	2.421203e-03	
238	1.850000e+00	2.428108e-03	
239	1.900000e+00	2.434773e-03	
240	1.950000e+00	2.441229e-03	
241	2.000000e+00	2.447501e-03	
242	2.050000e+00	2.453609e-03	
243	2.100000e+00	2.459573e-03	
244	2.150000e+00	2.465406e-03	
245	2.200000e+00	2.471122e-03	
246	2.250000e+00	2.476732e-03	
247	2.300000e+00	2.482246e-03	
248	2.350000e+00	2.487673e-03	
249	2.400000e+00	2.493021e-03	
250	2.450000e+00	2.498295e-03	
251	2.500000e+00	2.503504e-03	
252	2.550000e+00	2.508652e-03	
253	2.600000e+00	2.513745e-03	
254	2.650000e+00	2.518788e-03	
255	2.700000e+00	2.523788e-03	
256	2.750000e+00	2.528750e-03	
257	2.800000e+00	2.533680e-03	
258	2.850000e+00	2.538585e-03	
259	2.900000e+00	2.543472e-03	
260	2.950000e+00	2.548349e-03	
261	3.000000e+00	2.553225e-03	
262	3.050000e+00	2.558110e-03	
263	3.100000e+00	2.563016e-03	
264	3.150000e+00	2.567955e-03	
265	3.200000e+00	2.572944e-03	
266	3.250000e+00	2.577997e-03	
267	3.300000e+00	2.583133e-03	
268	0.000000e+00	-1.73435e-19	
269	5.000000e-02	2.081493e-04	
270	1.000000e-01	4.074633e-04	
271	1.500000e-01	5.982449e-04	
272	2.000000e-01	7.807463e-04	
273	2.500000e-01	9.552012e-04	
274	3.000000e-01	1.121833e-03	
275	3.500000e-01	1.280858e-03	
276	4.000000e-01	1.432483e-03	
277	4.500000e-01	1.576910e-03	
278	5.000000e-01	1.714333e-03	
279	5.500000e-01	1.844938e-03	
280	6.000000e-01	1.968904e-03	
281	6.500000e-01	2.086401e-03	
282	7.000000e-01	2.197591e-03	
283	7.500000e-01	2.302624e-03	
284	8.000000e-01	2.401640e-03	
285	8.500000e-01	2.494762e-03	
286	9.000000e-01	2.582095e-03	

Index   v-sweep         -i(vds)         
--------------------------------------------------------------------------------
287	9.500000e-01	2.663718e-03	
288	1.000000e+00	2.739676e-03	
289	1.050000e+00	2.809973e-03	
290	1.100000e+00	2.874558e-03	
291	1.150000e+00	2.933328e-03	
292	1.200000e+00	2.986146e-03	
293	1.250000e+00	3.032909e-03	
294	1.300000e+00	3.073655e-03	
295	1.350000e+00	3.108672e-03	
296	1.400000e+00	3.138522e-03	
297	1.450000e+00	3.163955e-03	
298	1.500000e+00	3.185765e-03	
299	1.550000e+00	3.204677e-03	
300	1.600000e+00	3.221295e-03	
301	1.650000e+00	3.236098e-03	
302	1.700000e+00	3.249458e-03	
303	1.750000e+00	3.261656e-03	
304	1.800000e+00	3.272911e-03	
305	1.850000e+00	3.283388e-03	
306	1.900000e+00	3.293219e-03	
307	1.950000e+00	3.302506e-03	
308	2.000000e+00	3.311330e-03	
309	2.050000e+00	3.319758e-03	
310	2.100000e+00	3.327843e-03	
311	2.150000e+00	3.335629e-03	
312	2.200000e+00	3.343152e-03	
313	2.250000e+00	3.350442e-03	
314	2.300000e+00	3.357526e-03	
315	2.350000e+00	3.364425e-03	
316	2.400000e+00	3.371158e-03	
317	2.450000e+00	3.377742e-03	
318	2.500000e+00	3.384189e-03	
319	2.550000e+00	3.390513e-03	
320	2.600000e+00	3.396724e-03	
321	2.650000e+00	3.402833e-03	
322	2.700000e+00	3.408847e-03	
323	2.750000e+00	3.414776e-03	
324	2.800000e+00	3.420627e-03	
325	2.850000e+00	3.426407e-03	
326	2.900000e+00	3.432124e-03	
327	2.950000e+00	3.437786e-03	
328	3.000000e+00	3.443400e-03	
329	3.050000e+00	3.448976e-03	
330	3.100000e+00	3.454522e-03	
331	3.150000e+00	3.460049e-03	
332	3.200000e+00	3.465569e-03	
333	3.250000e+00	3.471094e-03	
334	3.300000e+00	3.476639e-03	
335	0.000000e+00	3.724999e-19	
336	5.000000e-02	2.275691e-04	
337	1.000000e-01	4.468921e-04	
338	1.500000e-01	6.582269e-04	
339	2.000000e-01	8.617831e-04	
340	2.500000e-01	1.057754e-03	
341	3.000000e-01	1.246326e-03	
342	3.500000e-01	1.427678e-03	
343	4.000000e-01	1.601985e-03	
344	4.500000e-01	1.769417e-03	

Index   v-sweep         -i(vds)         
--------------------------------------------------------------------------------
345	5.000000e-01	1.930139e-03	
346	5.500000e-01	2.084310e-03	
347	6.000000e-01	2.232084e-03	
348	6.500000e-01	2.373612e-03	
349	7.000000e-01	2.509038e-03	
350	7.500000e-01	2.638500e-03	
351	8.000000e-01	2.762130e-03	
352	8.500000e-01	2.880054e-03	
353	9.000000e-01	2.992389e-03	
354	9.500000e-01	3.099243e-03	
355	1.000000e+00	3.200713e-03	
356	1.050000e+00	3.296881e-03	
357	1.100000e+00	3.387810e-03	
358	1.150000e+00	3.473537e-03	
359	1.200000e+00	3.554067e-03	
360	1.250000e+00	3.629361e-03	
361	1.300000e+00	3.699330e-03	
362	1.350000e+00	3.763827e-03	
363	1.400000e+00	3.822664e-03	
364	1.450000e+00	3.875657e-03	
365	1.500000e+00	3.922713e-03	
366	1.550000e+00	3.963935e-03	
367	1.600000e+00	3.999678e-03	
368	1.650000e+00	4.030530e-03	
369	1.700000e+00	4.057199e-03	
370	1.750000e+00	4.080404e-03	
371	1.800000e+00	4.100792e-03	
372	1.850000e+00	4.118906e-03	
373	1.900000e+00	4.135185e-03	
374	1.950000e+00	4.149974e-03	
375	2.000000e+00	4.163542e-03	
376	2.050000e+00	4.176103e-03	
377	2.100000e+00	4.187823e-03	
378	2.150000e+00	4.198835e-03	
379	2.200000e+00	4.209244e-03	
380	2.250000e+00	4.219136e-03	
381	2.300000e+00	4.228581e-03	
382	2.350000e+00	4.237637e-03	
383	2.400000e+00	4.246350e-03	
384	2.450000e+00	4.254761e-03	
385	2.500000e+00	4.262904e-03	
386	2.550000e+00	4.270807e-03	
387	2.600000e+00	4.278494e-03	
388	2.650000e+00	4.285987e-03	
389	2.700000e+00	4.293305e-03	
390	2.750000e+00	4.300462e-03	
391	2.800000e+00	4.307473e-03	
392	2.850000e+00	4.314352e-03	
393	2.900000e+00	4.321108e-03	
394	2.950000e+00	4.327754e-03	
395	3.000000e+00	4.334298e-03	
396	3.050000e+00	4.340750e-03	
397	3.100000e+00	4.347120e-03	
398	3.150000e+00	4.353417e-03	
399	3.200000e+00	4.359651e-03	
400	3.250000e+00	4.365832e-03	
401	3.300000e+00	4.371972e-03	
Note: No ".plot", ".print", or ".fourier" lines; no simulations run
