
Note: Compatibility modes selected: hs

Warning: m=xx on .subckt line will override multiplier m hierarchy!


Circuit: ***************************

Doing analysis at TEMP = 125.000000 and TNOM = 125.000000


No. of Data Rows : 402
                          ***************************
                          DC transfer characteristic  Mon Jan  9 13:58:12  2023
--------------------------------------------------------------------------------
Index   v-sweep         -i(vds)         
--------------------------------------------------------------------------------
0	0.000000e+00	-3.25519e-23	
1	5.000000e-02	2.198314e-07	
2	1.000000e-01	3.803585e-07	
3	1.500000e-01	4.885761e-07	
4	2.000000e-01	5.474423e-07	
5	2.500000e-01	5.665964e-07	
6	3.000000e-01	5.702625e-07	
7	3.500000e-01	5.714067e-07	
8	4.000000e-01	5.720618e-07	
9	4.500000e-01	5.725522e-07	
10	5.000000e-01	5.729639e-07	
11	5.500000e-01	5.733294e-07	
12	6.000000e-01	5.736644e-07	
13	6.500000e-01	5.739776e-07	
14	7.000000e-01	5.742743e-07	
15	7.500000e-01	5.745581e-07	
16	8.000000e-01	5.748314e-07	
17	8.500000e-01	5.750960e-07	
18	9.000000e-01	5.753534e-07	
19	9.500000e-01	5.756045e-07	
20	1.000000e+00	5.758502e-07	
21	1.050000e+00	5.760913e-07	
22	1.100000e+00	5.763282e-07	
23	1.150000e+00	5.765614e-07	
24	1.200000e+00	5.767913e-07	
25	1.250000e+00	5.770182e-07	
26	1.300000e+00	5.772425e-07	
27	1.350000e+00	5.774643e-07	
28	1.400000e+00	5.776839e-07	
29	1.450000e+00	5.779015e-07	
30	1.500000e+00	5.781172e-07	
31	1.550000e+00	5.783312e-07	
32	1.600000e+00	5.785437e-07	
33	1.650000e+00	5.787549e-07	
34	1.700000e+00	5.789649e-07	
35	1.750000e+00	5.791740e-07	
36	1.800000e+00	5.793825e-07	
37	1.850000e+00	5.795907e-07	
38	1.900000e+00	5.797991e-07	
39	1.950000e+00	5.800083e-07	
40	2.000000e+00	5.802191e-07	
41	2.050000e+00	5.804323e-07	
42	2.100000e+00	5.806492e-07	
43	2.150000e+00	5.808711e-07	
44	2.200000e+00	5.810997e-07	
45	2.250000e+00	5.813370e-07	
46	2.300000e+00	5.815855e-07	
47	2.350000e+00	5.818478e-07	
48	2.400000e+00	5.821272e-07	
49	2.450000e+00	5.824275e-07	
50	2.500000e+00	5.827526e-07	
51	2.550000e+00	5.831074e-07	
52	2.600000e+00	5.834971e-07	
53	2.650000e+00	5.839274e-07	
54	2.700000e+00	5.844048e-07	

Index   v-sweep         -i(vds)         
--------------------------------------------------------------------------------
55	2.750000e+00	5.849362e-07	
56	2.800000e+00	5.855293e-07	
57	2.850000e+00	5.861922e-07	
58	2.900000e+00	5.869339e-07	
59	2.950000e+00	5.877637e-07	
60	3.000000e+00	5.886918e-07	
61	3.050000e+00	5.897289e-07	
62	3.100000e+00	5.908863e-07	
63	3.150000e+00	5.921759e-07	
64	3.200000e+00	5.936103e-07	
65	3.250000e+00	5.952026e-07	
66	3.300000e+00	5.969663e-07	
67	0.000000e+00	5.119941e-22	
68	5.000000e-02	6.383901e-07	
69	1.000000e-01	1.213055e-06	
70	1.500000e-01	1.730779e-06	
71	2.000000e-01	2.193293e-06	
72	2.500000e-01	2.601132e-06	
73	3.000000e-01	2.954557e-06	
74	3.500000e-01	3.253776e-06	
75	4.000000e-01	3.499016e-06	
76	4.500000e-01	3.690609e-06	
77	5.000000e-01	3.829237e-06	
78	5.500000e-01	3.916978e-06	
79	6.000000e-01	3.961182e-06	
80	6.500000e-01	3.978894e-06	
81	7.000000e-01	3.986504e-06	
82	7.500000e-01	3.990823e-06	
83	8.000000e-01	3.993846e-06	
84	8.500000e-01	3.996226e-06	
85	9.000000e-01	3.998227e-06	
86	9.500000e-01	3.999980e-06	
87	1.000000e+00	4.001557e-06	
88	1.050000e+00	4.003003e-06	
89	1.100000e+00	4.004345e-06	
90	1.150000e+00	4.005606e-06	
91	1.200000e+00	4.006799e-06	
92	1.250000e+00	4.007936e-06	
93	1.300000e+00	4.009024e-06	
94	1.350000e+00	4.010072e-06	
95	1.400000e+00	4.011084e-06	
96	1.450000e+00	4.012064e-06	
97	1.500000e+00	4.013016e-06	
98	1.550000e+00	4.013943e-06	
99	1.600000e+00	4.014848e-06	
100	1.650000e+00	4.015733e-06	
101	1.700000e+00	4.016599e-06	
102	1.750000e+00	4.017449e-06	
103	1.800000e+00	4.018283e-06	
104	1.850000e+00	4.019104e-06	
105	1.900000e+00	4.019912e-06	
106	1.950000e+00	4.020709e-06	
107	2.000000e+00	4.021495e-06	
108	2.050000e+00	4.022273e-06	
109	2.100000e+00	4.023043e-06	
110	2.150000e+00	4.023808e-06	
111	2.200000e+00	4.024570e-06	
112	2.250000e+00	4.025333e-06	

Index   v-sweep         -i(vds)         
--------------------------------------------------------------------------------
113	2.300000e+00	4.026099e-06	
114	2.350000e+00	4.026875e-06	
115	2.400000e+00	4.027666e-06	
116	2.450000e+00	4.028479e-06	
117	2.500000e+00	4.029325e-06	
118	2.550000e+00	4.030214e-06	
119	2.600000e+00	4.031160e-06	
120	2.650000e+00	4.032180e-06	
121	2.700000e+00	4.033291e-06	
122	2.750000e+00	4.034515e-06	
123	2.800000e+00	4.035878e-06	
124	2.850000e+00	4.037408e-06	
125	2.900000e+00	4.039136e-06	
126	2.950000e+00	4.041098e-06	
127	3.000000e+00	4.043335e-06	
128	3.050000e+00	4.045889e-06	
129	3.100000e+00	4.048809e-06	
130	3.150000e+00	4.052147e-06	
131	3.200000e+00	4.055960e-06	
132	3.250000e+00	4.060307e-06	
133	3.300000e+00	4.065256e-06	
134	0.000000e+00	-1.47616e-21	
135	5.000000e-02	1.021212e-06	
136	1.000000e-01	1.981042e-06	
137	1.500000e-01	2.886243e-06	
138	2.000000e-01	3.738528e-06	
139	2.500000e-01	4.538411e-06	
140	3.000000e-01	5.286125e-06	
141	3.500000e-01	5.981834e-06	
142	4.000000e-01	6.625687e-06	
143	4.500000e-01	7.217829e-06	
144	5.000000e-01	7.758407e-06	
145	5.500000e-01	8.247568e-06	
146	6.000000e-01	8.685464e-06	
147	6.500000e-01	9.072253e-06	
148	7.000000e-01	9.408111e-06	
149	7.500000e-01	9.693245e-06	
150	8.000000e-01	9.927941e-06	
151	8.500000e-01	1.011269e-05	
152	9.000000e-01	1.024860e-05	
153	9.500000e-01	1.033862e-05	
154	1.000000e+00	1.039045e-05	
155	1.050000e+00	1.041758e-05	
156	1.100000e+00	1.043264e-05	
157	1.150000e+00	1.044232e-05	
158	1.200000e+00	1.044939e-05	
159	1.250000e+00	1.045500e-05	
160	1.300000e+00	1.045971e-05	
161	1.350000e+00	1.046379e-05	
162	1.400000e+00	1.046743e-05	
163	1.450000e+00	1.047073e-05	
164	1.500000e+00	1.047376e-05	
165	1.550000e+00	1.047658e-05	
166	1.600000e+00	1.047923e-05	
167	1.650000e+00	1.048172e-05	
168	1.700000e+00	1.048409e-05	
169	1.750000e+00	1.048635e-05	
170	1.800000e+00	1.048852e-05	

Index   v-sweep         -i(vds)         
--------------------------------------------------------------------------------
171	1.850000e+00	1.049061e-05	
172	1.900000e+00	1.049262e-05	
173	1.950000e+00	1.049457e-05	
174	2.000000e+00	1.049646e-05	
175	2.050000e+00	1.049829e-05	
176	2.100000e+00	1.050008e-05	
177	2.150000e+00	1.050182e-05	
178	2.200000e+00	1.050353e-05	
179	2.250000e+00	1.050519e-05	
180	2.300000e+00	1.050683e-05	
181	2.350000e+00	1.050843e-05	
182	2.400000e+00	1.051001e-05	
183	2.450000e+00	1.051157e-05	
184	2.500000e+00	1.051310e-05	
185	2.550000e+00	1.051463e-05	
186	2.600000e+00	1.051614e-05	
187	2.650000e+00	1.051766e-05	
188	2.700000e+00	1.051919e-05	
189	2.750000e+00	1.052075e-05	
190	2.800000e+00	1.052235e-05	
191	2.850000e+00	1.052401e-05	
192	2.900000e+00	1.052576e-05	
193	2.950000e+00	1.052762e-05	
194	3.000000e+00	1.052964e-05	
195	3.050000e+00	1.053186e-05	
196	3.100000e+00	1.053433e-05	
197	3.150000e+00	1.053710e-05	
198	3.200000e+00	1.054024e-05	
199	3.250000e+00	1.054383e-05	
200	3.300000e+00	1.054795e-05	
201	0.000000e+00	-3.37440e-26	
202	5.000000e-02	1.354452e-06	
203	1.000000e-01	2.651249e-06	
204	1.500000e-01	3.897117e-06	
205	2.000000e-01	5.093749e-06	
206	2.500000e-01	6.241645e-06	
207	3.000000e-01	7.341019e-06	
208	3.500000e-01	8.392019e-06	
209	4.000000e-01	9.394776e-06	
210	4.500000e-01	1.034942e-05	
211	5.000000e-01	1.125607e-05	
212	5.500000e-01	1.211486e-05	
213	6.000000e-01	1.292591e-05	
214	6.500000e-01	1.368934e-05	
215	7.000000e-01	1.440529e-05	
216	7.500000e-01	1.507387e-05	
217	8.000000e-01	1.569522e-05	
218	8.500000e-01	1.626946e-05	
219	9.000000e-01	1.679671e-05	
220	9.500000e-01	1.727711e-05	
221	1.000000e+00	1.771080e-05	
222	1.050000e+00	1.809791e-05	
223	1.100000e+00	1.843861e-05	
224	1.150000e+00	1.873308e-05	
225	1.200000e+00	1.898160e-05	
226	1.250000e+00	1.918458e-05	
227	1.300000e+00	1.934287e-05	
228	1.350000e+00	1.945843e-05	

Index   v-sweep         -i(vds)         
--------------------------------------------------------------------------------
229	1.400000e+00	1.953587e-05	
230	1.450000e+00	1.958396e-05	
231	1.500000e+00	1.961361e-05	
232	1.550000e+00	1.963320e-05	
233	1.600000e+00	1.964737e-05	
234	1.650000e+00	1.965842e-05	
235	1.700000e+00	1.966751e-05	
236	1.750000e+00	1.967526e-05	
237	1.800000e+00	1.968206e-05	
238	1.850000e+00	1.968815e-05	
239	1.900000e+00	1.969368e-05	
240	1.950000e+00	1.969876e-05	
241	2.000000e+00	1.970348e-05	
242	2.050000e+00	1.970790e-05	
243	2.100000e+00	1.971206e-05	
244	2.150000e+00	1.971600e-05	
245	2.200000e+00	1.971975e-05	
246	2.250000e+00	1.972334e-05	
247	2.300000e+00	1.972678e-05	
248	2.350000e+00	1.973009e-05	
249	2.400000e+00	1.973328e-05	
250	2.450000e+00	1.973637e-05	
251	2.500000e+00	1.973936e-05	
252	2.550000e+00	1.974227e-05	
253	2.600000e+00	1.974510e-05	
254	2.650000e+00	1.974785e-05	
255	2.700000e+00	1.975054e-05	
256	2.750000e+00	1.975318e-05	
257	2.800000e+00	1.975575e-05	
258	2.850000e+00	1.975829e-05	
259	2.900000e+00	1.976078e-05	
260	2.950000e+00	1.976324e-05	
261	3.000000e+00	1.976569e-05	
262	3.050000e+00	1.976813e-05	
263	3.100000e+00	1.977059e-05	
264	3.150000e+00	1.977308e-05	
265	3.200000e+00	1.977563e-05	
266	3.250000e+00	1.977829e-05	
267	3.300000e+00	1.978109e-05	
268	0.000000e+00	-3.50516e-26	
269	5.000000e-02	1.635523e-06	
270	1.000000e-01	3.217573e-06	
271	1.500000e-01	4.752851e-06	
272	2.000000e-01	6.243032e-06	
273	2.500000e-01	7.688599e-06	
274	3.000000e-01	9.089750e-06	
275	3.500000e-01	1.044662e-05	
276	4.000000e-01	1.175931e-05	
277	4.500000e-01	1.302795e-05	
278	5.000000e-01	1.425264e-05	
279	5.500000e-01	1.543348e-05	
280	6.000000e-01	1.657059e-05	
281	6.500000e-01	1.766408e-05	
282	7.000000e-01	1.871405e-05	
283	7.500000e-01	1.972062e-05	
284	8.000000e-01	2.068388e-05	
285	8.500000e-01	2.160395e-05	
286	9.000000e-01	2.248094e-05	

Index   v-sweep         -i(vds)         
--------------------------------------------------------------------------------
287	9.500000e-01	2.331494e-05	
288	1.000000e+00	2.410607e-05	
289	1.050000e+00	2.485444e-05	
290	1.100000e+00	2.556015e-05	
291	1.150000e+00	2.622331e-05	
292	1.200000e+00	2.684402e-05	
293	1.250000e+00	2.742240e-05	
294	1.300000e+00	2.795855e-05	
295	1.350000e+00	2.845258e-05	
296	1.400000e+00	2.890461e-05	
297	1.450000e+00	2.931476e-05	
298	1.500000e+00	2.968315e-05	
299	1.550000e+00	3.000992e-05	
300	1.600000e+00	3.029526e-05	
301	1.650000e+00	3.053940e-05	
302	1.700000e+00	3.074276e-05	
303	1.750000e+00	3.090608e-05	
304	1.800000e+00	3.103102e-05	
305	1.850000e+00	3.112113e-05	
306	1.900000e+00	3.118287e-05	
307	1.950000e+00	3.122467e-05	
308	2.000000e+00	3.125402e-05	
309	2.050000e+00	3.127589e-05	
310	2.100000e+00	3.129311e-05	
311	2.150000e+00	3.130731e-05	
312	2.200000e+00	3.131940e-05	
313	2.250000e+00	3.132996e-05	
314	2.300000e+00	3.133937e-05	
315	2.350000e+00	3.134788e-05	
316	2.400000e+00	3.135567e-05	
317	2.450000e+00	3.136287e-05	
318	2.500000e+00	3.136958e-05	
319	2.550000e+00	3.137587e-05	
320	2.600000e+00	3.138181e-05	
321	2.650000e+00	3.138744e-05	
322	2.700000e+00	3.139281e-05	
323	2.750000e+00	3.139793e-05	
324	2.800000e+00	3.140284e-05	
325	2.850000e+00	3.140757e-05	
326	2.900000e+00	3.141212e-05	
327	2.950000e+00	3.141653e-05	
328	3.000000e+00	3.142079e-05	
329	3.050000e+00	3.142493e-05	
330	3.100000e+00	3.142895e-05	
331	3.150000e+00	3.143286e-05	
332	3.200000e+00	3.143668e-05	
333	3.250000e+00	3.144042e-05	
334	3.300000e+00	3.144408e-05	
335	0.000000e+00	7.402981e-26	
336	5.000000e-02	1.865827e-06	
337	1.000000e-01	3.682457e-06	
338	1.500000e-01	5.456564e-06	
339	2.000000e-01	7.189809e-06	
340	2.500000e-01	8.882657e-06	
341	3.000000e-01	1.053529e-05	
342	3.500000e-01	1.214783e-05	
343	4.000000e-01	1.372037e-05	
344	4.500000e-01	1.525300e-05	

Index   v-sweep         -i(vds)         
--------------------------------------------------------------------------------
345	5.000000e-01	1.674582e-05	
346	5.500000e-01	1.819892e-05	
347	6.000000e-01	1.961240e-05	
348	6.500000e-01	2.098635e-05	
349	7.000000e-01	2.232086e-05	
350	7.500000e-01	2.361602e-05	
351	8.000000e-01	2.487193e-05	
352	8.500000e-01	2.608868e-05	
353	9.000000e-01	2.726635e-05	
354	9.500000e-01	2.840505e-05	
355	1.000000e+00	2.950486e-05	
356	1.050000e+00	3.056587e-05	
357	1.100000e+00	3.158817e-05	
358	1.150000e+00	3.257186e-05	
359	1.200000e+00	3.351703e-05	
360	1.250000e+00	3.442376e-05	
361	1.300000e+00	3.529215e-05	
362	1.350000e+00	3.612228e-05	
363	1.400000e+00	3.691426e-05	
364	1.450000e+00	3.766815e-05	
365	1.500000e+00	3.838407e-05	
366	1.550000e+00	3.906209e-05	
367	1.600000e+00	3.970230e-05	
368	1.650000e+00	4.030480e-05	
369	1.700000e+00	4.086968e-05	
370	1.750000e+00	4.139703e-05	
371	1.800000e+00	4.188693e-05	
372	1.850000e+00	4.233949e-05	
373	1.900000e+00	4.275479e-05	
374	1.950000e+00	4.313295e-05	
375	2.000000e+00	4.347407e-05	
376	2.050000e+00	4.377827e-05	
377	2.100000e+00	4.404573e-05	
378	2.150000e+00	4.427665e-05	
379	2.200000e+00	4.447143e-05	
380	2.250000e+00	4.463080e-05	
381	2.300000e+00	4.475627e-05	
382	2.350000e+00	4.485093e-05	
383	2.400000e+00	4.491998e-05	
384	2.450000e+00	4.497002e-05	
385	2.500000e+00	4.500718e-05	
386	2.550000e+00	4.503591e-05	
387	2.600000e+00	4.505906e-05	
388	2.650000e+00	4.507836e-05	
389	2.700000e+00	4.509492e-05	
390	2.750000e+00	4.510944e-05	
391	2.800000e+00	4.512239e-05	
392	2.850000e+00	4.513410e-05	
393	2.900000e+00	4.514482e-05	
394	2.950000e+00	4.515472e-05	
395	3.000000e+00	4.516393e-05	
396	3.050000e+00	4.517255e-05	
397	3.100000e+00	4.518068e-05	
398	3.150000e+00	4.518837e-05	
399	3.200000e+00	4.519568e-05	
400	3.250000e+00	4.520266e-05	
401	3.300000e+00	4.520933e-05	
Note: No ".plot", ".print", or ".fourier" lines; no simulations run
