
Note: Compatibility modes selected: hs

Warning: m=xx on .subckt line will override multiplier m hierarchy!


Circuit: ***************************

Doing analysis at TEMP = 125.000000 and TNOM = 125.000000


No. of Data Rows : 402
                          ***************************
                          DC transfer characteristic  Mon Jan  9 13:58:12  2023
--------------------------------------------------------------------------------
Index   v-sweep         -i(vds)         
--------------------------------------------------------------------------------
0	0.000000e+00	3.678362e-27	
1	5.000000e-02	1.663753e-06	
2	1.000000e-01	2.935561e-06	
3	1.500000e-01	3.840625e-06	
4	2.000000e-01	4.411107e-06	
5	2.500000e-01	4.713915e-06	
6	3.000000e-01	4.859890e-06	
7	3.500000e-01	4.940266e-06	
8	4.000000e-01	4.994677e-06	
9	4.500000e-01	5.036879e-06	
10	5.000000e-01	5.072192e-06	
11	5.500000e-01	5.103082e-06	
12	6.000000e-01	5.130877e-06	
13	6.500000e-01	5.156376e-06	
14	7.000000e-01	5.180099e-06	
15	7.500000e-01	5.202404e-06	
16	8.000000e-01	5.223551e-06	
17	8.500000e-01	5.243731e-06	
18	9.000000e-01	5.263094e-06	
19	9.500000e-01	5.281755e-06	
20	1.000000e+00	5.299808e-06	
21	1.050000e+00	5.317329e-06	
22	1.100000e+00	5.334381e-06	
23	1.150000e+00	5.351014e-06	
24	1.200000e+00	5.367275e-06	
25	1.250000e+00	5.383199e-06	
26	1.300000e+00	5.398819e-06	
27	1.350000e+00	5.414164e-06	
28	1.400000e+00	5.429256e-06	
29	1.450000e+00	5.444119e-06	
30	1.500000e+00	5.458770e-06	
31	1.550000e+00	5.473228e-06	
32	1.600000e+00	5.487506e-06	
33	1.650000e+00	5.501619e-06	
34	1.700000e+00	5.515581e-06	
35	1.750000e+00	5.529404e-06	
36	1.800000e+00	5.543099e-06	
37	1.850000e+00	5.556680e-06	
38	1.900000e+00	5.570158e-06	
39	1.950000e+00	5.583547e-06	
40	2.000000e+00	5.596859e-06	
41	2.050000e+00	5.610109e-06	
42	2.100000e+00	5.623314e-06	
43	2.150000e+00	5.636491e-06	
44	2.200000e+00	5.649659e-06	
45	2.250000e+00	5.662840e-06	
46	2.300000e+00	5.676058e-06	
47	2.350000e+00	5.689340e-06	
48	2.400000e+00	5.702716e-06	
49	2.450000e+00	5.716217e-06	
50	2.500000e+00	5.729882e-06	
51	2.550000e+00	5.743749e-06	
52	2.600000e+00	5.757862e-06	
53	2.650000e+00	5.772269e-06	
54	2.700000e+00	5.787023e-06	

Index   v-sweep         -i(vds)         
--------------------------------------------------------------------------------
55	2.750000e+00	5.802181e-06	
56	2.800000e+00	5.817803e-06	
57	2.850000e+00	5.833956e-06	
58	2.900000e+00	5.850712e-06	
59	2.950000e+00	5.868148e-06	
60	3.000000e+00	5.886345e-06	
61	3.050000e+00	5.905393e-06	
62	3.100000e+00	5.925383e-06	
63	3.150000e+00	5.946417e-06	
64	3.200000e+00	5.968600e-06	
65	3.250000e+00	5.992043e-06	
66	3.300000e+00	6.016864e-06	
67	0.000000e+00	-1.23815e-25	
68	5.000000e-02	5.474531e-06	
69	1.000000e-01	1.045529e-05	
70	1.500000e-01	1.496251e-05	
71	2.000000e-01	1.901111e-05	
72	2.500000e-01	2.261447e-05	
73	3.000000e-01	2.578542e-05	
74	3.500000e-01	2.853662e-05	
75	4.000000e-01	3.088094e-05	
76	4.500000e-01	3.283226e-05	
77	5.000000e-01	3.440720e-05	
78	5.500000e-01	3.562940e-05	
79	6.000000e-01	3.653730e-05	
80	6.500000e-01	3.719080e-05	
81	7.000000e-01	3.766249e-05	
82	7.500000e-01	3.801571e-05	
83	8.000000e-01	3.829335e-05	
84	8.500000e-01	3.852130e-05	
85	9.000000e-01	3.871498e-05	
86	9.500000e-01	3.888391e-05	
87	1.000000e+00	3.903423e-05	
88	1.050000e+00	3.917010e-05	
89	1.100000e+00	3.929445e-05	
90	1.150000e+00	3.940940e-05	
91	1.200000e+00	3.951655e-05	
92	1.250000e+00	3.961713e-05	
93	1.300000e+00	3.971208e-05	
94	1.350000e+00	3.980217e-05	
95	1.400000e+00	3.988803e-05	
96	1.450000e+00	3.997015e-05	
97	1.500000e+00	4.004898e-05	
98	1.550000e+00	4.012485e-05	
99	1.600000e+00	4.019807e-05	
100	1.650000e+00	4.026890e-05	
101	1.700000e+00	4.033755e-05	
102	1.750000e+00	4.040423e-05	
103	1.800000e+00	4.046910e-05	
104	1.850000e+00	4.053231e-05	
105	1.900000e+00	4.059400e-05	
106	1.950000e+00	4.065428e-05	
107	2.000000e+00	4.071325e-05	
108	2.050000e+00	4.077103e-05	
109	2.100000e+00	4.082771e-05	
110	2.150000e+00	4.088337e-05	
111	2.200000e+00	4.093811e-05	
112	2.250000e+00	4.099202e-05	

Index   v-sweep         -i(vds)         
--------------------------------------------------------------------------------
113	2.300000e+00	4.104518e-05	
114	2.350000e+00	4.109770e-05	
115	2.400000e+00	4.114968e-05	
116	2.450000e+00	4.120123e-05	
117	2.500000e+00	4.125248e-05	
118	2.550000e+00	4.130355e-05	
119	2.600000e+00	4.135460e-05	
120	2.650000e+00	4.140580e-05	
121	2.700000e+00	4.145732e-05	
122	2.750000e+00	4.150937e-05	
123	2.800000e+00	4.156218e-05	
124	2.850000e+00	4.161600e-05	
125	2.900000e+00	4.167109e-05	
126	2.950000e+00	4.172776e-05	
127	3.000000e+00	4.178634e-05	
128	3.050000e+00	4.184718e-05	
129	3.100000e+00	4.191067e-05	
130	3.150000e+00	4.197723e-05	
131	3.200000e+00	4.204731e-05	
132	3.250000e+00	4.212140e-05	
133	3.300000e+00	4.220001e-05	
134	0.000000e+00	-3.51713e-25	
135	5.000000e-02	8.579407e-06	
136	1.000000e-01	1.664829e-05	
137	1.500000e-01	2.422534e-05	
138	2.000000e-01	3.132408e-05	
139	2.500000e-01	3.795654e-05	
140	3.000000e-01	4.413412e-05	
141	3.500000e-01	4.986783e-05	
142	4.000000e-01	5.516836e-05	
143	4.500000e-01	6.004610e-05	
144	5.000000e-01	6.451116e-05	
145	5.500000e-01	6.857336e-05	
146	6.000000e-01	7.224229e-05	
147	6.500000e-01	7.552735e-05	
148	7.000000e-01	7.843780e-05	
149	7.500000e-01	8.098296e-05	
150	8.000000e-01	8.317283e-05	
151	8.500000e-01	8.501951e-05	
152	9.000000e-01	8.654071e-05	
153	9.500000e-01	8.776546e-05	
154	1.000000e+00	8.873763e-05	
155	1.050000e+00	8.951050e-05	
156	1.100000e+00	9.013484e-05	
157	1.150000e+00	9.065103e-05	
158	1.200000e+00	9.108809e-05	
159	1.250000e+00	9.146615e-05	
160	1.300000e+00	9.179916e-05	
161	1.350000e+00	9.209693e-05	
162	1.400000e+00	9.236655e-05	
163	1.450000e+00	9.261323e-05	
164	1.500000e+00	9.284091e-05	
165	1.550000e+00	9.305260e-05	
166	1.600000e+00	9.325068e-05	
167	1.650000e+00	9.343705e-05	
168	1.700000e+00	9.361323e-05	
169	1.750000e+00	9.378047e-05	
170	1.800000e+00	9.393981e-05	

Index   v-sweep         -i(vds)         
--------------------------------------------------------------------------------
171	1.850000e+00	9.409212e-05	
172	1.900000e+00	9.423813e-05	
173	1.950000e+00	9.437847e-05	
174	2.000000e+00	9.451367e-05	
175	2.050000e+00	9.464421e-05	
176	2.100000e+00	9.477049e-05	
177	2.150000e+00	9.489287e-05	
178	2.200000e+00	9.501166e-05	
179	2.250000e+00	9.512715e-05	
180	2.300000e+00	9.523960e-05	
181	2.350000e+00	9.534924e-05	
182	2.400000e+00	9.545630e-05	
183	2.450000e+00	9.556098e-05	
184	2.500000e+00	9.566348e-05	
185	2.550000e+00	9.576402e-05	
186	2.600000e+00	9.586280e-05	
187	2.650000e+00	9.596004e-05	
188	2.700000e+00	9.605596e-05	
189	2.750000e+00	9.615082e-05	
190	2.800000e+00	9.624489e-05	
191	2.850000e+00	9.633846e-05	
192	2.900000e+00	9.643186e-05	
193	2.950000e+00	9.652546e-05	
194	3.000000e+00	9.661967e-05	
195	3.050000e+00	9.671494e-05	
196	3.100000e+00	9.681175e-05	
197	3.150000e+00	9.691067e-05	
198	3.200000e+00	9.701229e-05	
199	3.250000e+00	9.711729e-05	
200	3.300000e+00	9.722638e-05	
201	0.000000e+00	1.299841e-25	
202	5.000000e-02	1.109071e-05	
203	1.000000e-01	2.167516e-05	
204	1.500000e-01	3.177046e-05	
205	2.000000e-01	4.138872e-05	
206	2.500000e-01	5.054065e-05	
207	3.000000e-01	5.923636e-05	
208	3.500000e-01	6.748570e-05	
209	4.000000e-01	7.529820e-05	
210	4.500000e-01	8.268316e-05	
211	5.000000e-01	8.964965e-05	
212	5.500000e-01	9.620650e-05	
213	6.000000e-01	1.023623e-04	
214	6.500000e-01	1.081254e-04	
215	7.000000e-01	1.135038e-04	
216	7.500000e-01	1.185056e-04	
217	8.000000e-01	1.231382e-04	
218	8.500000e-01	1.274089e-04	
219	9.000000e-01	1.313245e-04	
220	9.500000e-01	1.348916e-04	
221	1.000000e+00	1.381159e-04	
222	1.050000e+00	1.410023e-04	
223	1.100000e+00	1.435552e-04	
224	1.150000e+00	1.457792e-04	
225	1.200000e+00	1.476823e-04	
226	1.250000e+00	1.492818e-04	
227	1.300000e+00	1.506087e-04	
228	1.350000e+00	1.517059e-04	

Index   v-sweep         -i(vds)         
--------------------------------------------------------------------------------
229	1.400000e+00	1.526197e-04	
230	1.450000e+00	1.533911e-04	
231	1.500000e+00	1.540530e-04	
232	1.550000e+00	1.546302e-04	
233	1.600000e+00	1.551409e-04	
234	1.650000e+00	1.555984e-04	
235	1.700000e+00	1.560130e-04	
236	1.750000e+00	1.563921e-04	
237	1.800000e+00	1.567415e-04	
238	1.850000e+00	1.570660e-04	
239	1.900000e+00	1.573690e-04	
240	1.950000e+00	1.576534e-04	
241	2.000000e+00	1.579217e-04	
242	2.050000e+00	1.581759e-04	
243	2.100000e+00	1.584174e-04	
244	2.150000e+00	1.586477e-04	
245	2.200000e+00	1.588680e-04	
246	2.250000e+00	1.590792e-04	
247	2.300000e+00	1.592822e-04	
248	2.350000e+00	1.594777e-04	
249	2.400000e+00	1.596664e-04	
250	2.450000e+00	1.598488e-04	
251	2.500000e+00	1.600255e-04	
252	2.550000e+00	1.601969e-04	
253	2.600000e+00	1.603634e-04	
254	2.650000e+00	1.605254e-04	
255	2.700000e+00	1.606833e-04	
256	2.750000e+00	1.608374e-04	
257	2.800000e+00	1.609880e-04	
258	2.850000e+00	1.611355e-04	
259	2.900000e+00	1.612802e-04	
260	2.950000e+00	1.614225e-04	
261	3.000000e+00	1.615628e-04	
262	3.050000e+00	1.617014e-04	
263	3.100000e+00	1.618389e-04	
264	3.150000e+00	1.619757e-04	
265	3.200000e+00	1.621124e-04	
266	3.250000e+00	1.622497e-04	
267	3.300000e+00	1.623881e-04	
268	0.000000e+00	7.396915e-25	
269	5.000000e-02	1.313732e-05	
270	1.000000e-01	2.578188e-05	
271	1.500000e-01	3.794935e-05	
272	2.000000e-01	4.965052e-05	
273	2.500000e-01	6.089483e-05	
274	3.000000e-01	7.169124e-05	
275	3.500000e-01	8.204842e-05	
276	4.000000e-01	9.197485e-05	
277	4.500000e-01	1.014788e-04	
278	5.000000e-01	1.105683e-04	
279	5.500000e-01	1.192514e-04	
280	6.000000e-01	1.275356e-04	
281	6.500000e-01	1.354286e-04	
282	7.000000e-01	1.429377e-04	
283	7.500000e-01	1.500701e-04	
284	8.000000e-01	1.568327e-04	
285	8.500000e-01	1.632324e-04	
286	9.000000e-01	1.692757e-04	

Index   v-sweep         -i(vds)         
--------------------------------------------------------------------------------
287	9.500000e-01	1.749690e-04	
288	1.000000e+00	1.803185e-04	
289	1.050000e+00	1.853299e-04	
290	1.100000e+00	1.900087e-04	
291	1.150000e+00	1.943597e-04	
292	1.200000e+00	1.983872e-04	
293	1.250000e+00	2.020944e-04	
294	1.300000e+00	2.054829e-04	
295	1.350000e+00	2.085528e-04	
296	1.400000e+00	2.113025e-04	
297	1.450000e+00	2.137308e-04	
298	1.500000e+00	2.158411e-04	
299	1.550000e+00	2.176479e-04	
300	1.600000e+00	2.191804e-04	
301	1.650000e+00	2.204782e-04	
302	1.700000e+00	2.215836e-04	
303	1.750000e+00	2.225352e-04	
304	1.800000e+00	2.233645e-04	
305	1.850000e+00	2.240964e-04	
306	1.900000e+00	2.247500e-04	
307	1.950000e+00	2.253397e-04	
308	2.000000e+00	2.258767e-04	
309	2.050000e+00	2.263697e-04	
310	2.100000e+00	2.268256e-04	
311	2.150000e+00	2.272497e-04	
312	2.200000e+00	2.276464e-04	
313	2.250000e+00	2.280192e-04	
314	2.300000e+00	2.283711e-04	
315	2.350000e+00	2.287045e-04	
316	2.400000e+00	2.290214e-04	
317	2.450000e+00	2.293236e-04	
318	2.500000e+00	2.296125e-04	
319	2.550000e+00	2.298895e-04	
320	2.600000e+00	2.301556e-04	
321	2.650000e+00	2.304117e-04	
322	2.700000e+00	2.306587e-04	
323	2.750000e+00	2.308975e-04	
324	2.800000e+00	2.311285e-04	
325	2.850000e+00	2.313524e-04	
326	2.900000e+00	2.315699e-04	
327	2.950000e+00	2.317813e-04	
328	3.000000e+00	2.319872e-04	
329	3.050000e+00	2.321881e-04	
330	3.100000e+00	2.323844e-04	
331	3.150000e+00	2.325766e-04	
332	3.200000e+00	2.327652e-04	
333	3.250000e+00	2.329507e-04	
334	3.300000e+00	2.331338e-04	
335	0.000000e+00	-8.13207e-26	
336	5.000000e-02	1.481692e-05	
337	1.000000e-01	2.915900e-05	
338	1.500000e-01	4.304064e-05	
339	2.000000e-01	5.647148e-05	
340	2.500000e-01	6.945984e-05	
341	3.000000e-01	8.201359e-05	
342	3.500000e-01	9.414039e-05	
343	4.000000e-01	1.058477e-04	
344	4.500000e-01	1.171429e-04	

Index   v-sweep         -i(vds)         
--------------------------------------------------------------------------------
345	5.000000e-01	1.280332e-04	
346	5.500000e-01	1.385254e-04	
347	6.000000e-01	1.486267e-04	
348	6.500000e-01	1.583436e-04	
349	7.000000e-01	1.676828e-04	
350	7.500000e-01	1.766508e-04	
351	8.000000e-01	1.852539e-04	
352	8.500000e-01	1.934982e-04	
353	9.000000e-01	2.013898e-04	
354	9.500000e-01	2.089346e-04	
355	1.000000e+00	2.161384e-04	
356	1.050000e+00	2.230068e-04	
357	1.100000e+00	2.295451e-04	
358	1.150000e+00	2.357587e-04	
359	1.200000e+00	2.416524e-04	
360	1.250000e+00	2.472311e-04	
361	1.300000e+00	2.524991e-04	
362	1.350000e+00	2.574603e-04	
363	1.400000e+00	2.621179e-04	
364	1.450000e+00	2.664743e-04	
365	1.500000e+00	2.705304e-04	
366	1.550000e+00	2.742853e-04	
367	1.600000e+00	2.777359e-04	
368	1.650000e+00	2.808764e-04	
369	1.700000e+00	2.837002e-04	
370	1.750000e+00	2.862036e-04	
371	1.800000e+00	2.883915e-04	
372	1.850000e+00	2.902831e-04	
373	1.900000e+00	2.919103e-04	
374	1.950000e+00	2.933121e-04	
375	2.000000e+00	2.945277e-04	
376	2.050000e+00	2.955915e-04	
377	2.100000e+00	2.965322e-04	
378	2.150000e+00	2.973727e-04	
379	2.200000e+00	2.981307e-04	
380	2.250000e+00	2.988204e-04	
381	2.300000e+00	2.994527e-04	
382	2.350000e+00	3.000365e-04	
383	2.400000e+00	3.005787e-04	
384	2.450000e+00	3.010849e-04	
385	2.500000e+00	3.015600e-04	
386	2.550000e+00	3.020075e-04	
387	2.600000e+00	3.024309e-04	
388	2.650000e+00	3.028326e-04	
389	2.700000e+00	3.032151e-04	
390	2.750000e+00	3.035802e-04	
391	2.800000e+00	3.039296e-04	
392	2.850000e+00	3.042648e-04	
393	2.900000e+00	3.045869e-04	
394	2.950000e+00	3.048972e-04	
395	3.000000e+00	3.051966e-04	
396	3.050000e+00	3.054860e-04	
397	3.100000e+00	3.057661e-04	
398	3.150000e+00	3.060377e-04	
399	3.200000e+00	3.063014e-04	
400	3.250000e+00	3.065580e-04	
401	3.300000e+00	3.068079e-04	
Note: No ".plot", ".print", or ".fourier" lines; no simulations run
