
Note: Compatibility modes selected: hs

Warning: m=xx on .subckt line will override multiplier m hierarchy!


Circuit: ***************************

Doing analysis at TEMP = 125.000000 and TNOM = 125.000000


No. of Data Rows : 402
                          ***************************
                          DC transfer characteristic  Mon Jan  9 13:58:12  2023
--------------------------------------------------------------------------------
Index   v-sweep         -i(vds)         
--------------------------------------------------------------------------------
0	0.000000e+00	5.984163e-22	
1	5.000000e-02	1.168876e-06	
2	1.000000e-01	2.019691e-06	
3	1.500000e-01	2.587740e-06	
4	2.000000e-01	2.889371e-06	
5	2.500000e-01	2.982534e-06	
6	3.000000e-01	3.000167e-06	
7	3.500000e-01	3.005934e-06	
8	4.000000e-01	3.009310e-06	
9	4.500000e-01	3.011858e-06	
10	5.000000e-01	3.014006e-06	
11	5.500000e-01	3.015919e-06	
12	6.000000e-01	3.017676e-06	
13	6.500000e-01	3.019321e-06	
14	7.000000e-01	3.020883e-06	
15	7.500000e-01	3.022378e-06	
16	8.000000e-01	3.023820e-06	
17	8.500000e-01	3.025219e-06	
18	9.000000e-01	3.026581e-06	
19	9.500000e-01	3.027911e-06	
20	1.000000e+00	3.029214e-06	
21	1.050000e+00	3.030494e-06	
22	1.100000e+00	3.031752e-06	
23	1.150000e+00	3.032992e-06	
24	1.200000e+00	3.034216e-06	
25	1.250000e+00	3.035424e-06	
26	1.300000e+00	3.036620e-06	
27	1.350000e+00	3.037803e-06	
28	1.400000e+00	3.038974e-06	
29	1.450000e+00	3.040136e-06	
30	1.500000e+00	3.041288e-06	
31	1.550000e+00	3.042432e-06	
32	1.600000e+00	3.043568e-06	
33	1.650000e+00	3.044698e-06	
34	1.700000e+00	3.045822e-06	
35	1.750000e+00	3.046941e-06	
36	1.800000e+00	3.048057e-06	
37	1.850000e+00	3.049172e-06	
38	1.900000e+00	3.050288e-06	
39	1.950000e+00	3.051408e-06	
40	2.000000e+00	3.052535e-06	
41	2.050000e+00	3.053675e-06	
42	2.100000e+00	3.054834e-06	
43	2.150000e+00	3.056017e-06	
44	2.200000e+00	3.057235e-06	
45	2.250000e+00	3.058496e-06	
46	2.300000e+00	3.059813e-06	
47	2.350000e+00	3.061201e-06	
48	2.400000e+00	3.062675e-06	
49	2.450000e+00	3.064254e-06	
50	2.500000e+00	3.065959e-06	
51	2.550000e+00	3.067815e-06	
52	2.600000e+00	3.069847e-06	
53	2.650000e+00	3.072085e-06	
54	2.700000e+00	3.074563e-06	

Index   v-sweep         -i(vds)         
--------------------------------------------------------------------------------
55	2.750000e+00	3.077314e-06	
56	2.800000e+00	3.080380e-06	
57	2.850000e+00	3.083800e-06	
58	2.900000e+00	3.087622e-06	
59	2.950000e+00	3.091892e-06	
60	3.000000e+00	3.096664e-06	
61	3.050000e+00	3.101992e-06	
62	3.100000e+00	3.107934e-06	
63	3.150000e+00	3.114552e-06	
64	3.200000e+00	3.121909e-06	
65	3.250000e+00	3.130074e-06	
66	3.300000e+00	3.139116e-06	
67	0.000000e+00	1.047876e-25	
68	5.000000e-02	3.466695e-06	
69	1.000000e-01	6.591633e-06	
70	1.500000e-01	9.408846e-06	
71	2.000000e-01	1.192712e-05	
72	2.500000e-01	1.414927e-05	
73	3.000000e-01	1.607673e-05	
74	3.500000e-01	1.771067e-05	
75	4.000000e-01	1.905238e-05	
76	4.500000e-01	2.010366e-05	
77	5.000000e-01	2.086810e-05	
78	5.500000e-01	2.135635e-05	
79	6.000000e-01	2.160604e-05	
80	6.500000e-01	2.170719e-05	
81	7.000000e-01	2.175031e-05	
82	7.500000e-01	2.177438e-05	
83	8.000000e-01	2.179101e-05	
84	8.500000e-01	2.180399e-05	
85	9.000000e-01	2.181483e-05	
86	9.500000e-01	2.182430e-05	
87	1.000000e+00	2.183279e-05	
88	1.050000e+00	2.184056e-05	
89	1.100000e+00	2.184778e-05	
90	1.150000e+00	2.185454e-05	
91	1.200000e+00	2.186095e-05	
92	1.250000e+00	2.186705e-05	
93	1.300000e+00	2.187289e-05	
94	1.350000e+00	2.187851e-05	
95	1.400000e+00	2.188394e-05	
96	1.450000e+00	2.188921e-05	
97	1.500000e+00	2.189432e-05	
98	1.550000e+00	2.189931e-05	
99	1.600000e+00	2.190417e-05	
100	1.650000e+00	2.190893e-05	
101	1.700000e+00	2.191359e-05	
102	1.750000e+00	2.191817e-05	
103	1.800000e+00	2.192266e-05	
104	1.850000e+00	2.192709e-05	
105	1.900000e+00	2.193144e-05	
106	1.950000e+00	2.193574e-05	
107	2.000000e+00	2.193998e-05	
108	2.050000e+00	2.194417e-05	
109	2.100000e+00	2.194833e-05	
110	2.150000e+00	2.195246e-05	
111	2.200000e+00	2.195657e-05	
112	2.250000e+00	2.196068e-05	

Index   v-sweep         -i(vds)         
--------------------------------------------------------------------------------
113	2.300000e+00	2.196481e-05	
114	2.350000e+00	2.196898e-05	
115	2.400000e+00	2.197323e-05	
116	2.450000e+00	2.197759e-05	
117	2.500000e+00	2.198212e-05	
118	2.550000e+00	2.198686e-05	
119	2.600000e+00	2.199189e-05	
120	2.650000e+00	2.199730e-05	
121	2.700000e+00	2.200317e-05	
122	2.750000e+00	2.200962e-05	
123	2.800000e+00	2.201678e-05	
124	2.850000e+00	2.202480e-05	
125	2.900000e+00	2.203384e-05	
126	2.950000e+00	2.204409e-05	
127	3.000000e+00	2.205576e-05	
128	3.050000e+00	2.206907e-05	
129	3.100000e+00	2.208427e-05	
130	3.150000e+00	2.210164e-05	
131	3.200000e+00	2.212148e-05	
132	3.250000e+00	2.214410e-05	
133	3.300000e+00	2.216986e-05	
134	0.000000e+00	-9.04666e-27	
135	5.000000e-02	5.514581e-06	
136	1.000000e-01	1.070304e-05	
137	1.500000e-01	1.559921e-05	
138	2.000000e-01	2.021175e-05	
139	2.500000e-01	2.454334e-05	
140	3.000000e-01	2.859523e-05	
141	3.500000e-01	3.236836e-05	
142	4.000000e-01	3.586356e-05	
143	4.500000e-01	3.908165e-05	
144	5.000000e-01	4.202348e-05	
145	5.500000e-01	4.468986e-05	
146	6.000000e-01	4.708165e-05	
147	6.500000e-01	4.919975e-05	
148	7.000000e-01	5.104510e-05	
149	7.500000e-01	5.261883e-05	
150	8.000000e-01	5.392240e-05	
151	8.500000e-01	5.495819e-05	
152	9.000000e-01	5.573127e-05	
153	9.500000e-01	5.625493e-05	
154	1.000000e+00	5.656474e-05	
155	1.050000e+00	5.672886e-05	
156	1.100000e+00	5.681837e-05	
157	1.150000e+00	5.687439e-05	
158	1.200000e+00	5.691437e-05	
159	1.250000e+00	5.694560e-05	
160	1.300000e+00	5.697147e-05	
161	1.350000e+00	5.699376e-05	
162	1.400000e+00	5.701349e-05	
163	1.450000e+00	5.703131e-05	
164	1.500000e+00	5.704765e-05	
165	1.550000e+00	5.706279e-05	
166	1.600000e+00	5.707697e-05	
167	1.650000e+00	5.709033e-05	
168	1.700000e+00	5.710301e-05	
169	1.750000e+00	5.711510e-05	
170	1.800000e+00	5.712669e-05	

Index   v-sweep         -i(vds)         
--------------------------------------------------------------------------------
171	1.850000e+00	5.713782e-05	
172	1.900000e+00	5.714856e-05	
173	1.950000e+00	5.715896e-05	
174	2.000000e+00	5.716903e-05	
175	2.050000e+00	5.717883e-05	
176	2.100000e+00	5.718837e-05	
177	2.150000e+00	5.719768e-05	
178	2.200000e+00	5.720677e-05	
179	2.250000e+00	5.721567e-05	
180	2.300000e+00	5.722440e-05	
181	2.350000e+00	5.723297e-05	
182	2.400000e+00	5.724139e-05	
183	2.450000e+00	5.724970e-05	
184	2.500000e+00	5.725790e-05	
185	2.550000e+00	5.726602e-05	
186	2.600000e+00	5.727410e-05	
187	2.650000e+00	5.728218e-05	
188	2.700000e+00	5.729031e-05	
189	2.750000e+00	5.729855e-05	
190	2.800000e+00	5.730700e-05	
191	2.850000e+00	5.731574e-05	
192	2.900000e+00	5.732490e-05	
193	2.950000e+00	5.733465e-05	
194	3.000000e+00	5.734515e-05	
195	3.050000e+00	5.735663e-05	
196	3.100000e+00	5.736934e-05	
197	3.150000e+00	5.738357e-05	
198	3.200000e+00	5.739966e-05	
199	3.250000e+00	5.741799e-05	
200	3.300000e+00	5.743900e-05	
201	0.000000e+00	1.947813e-25	
202	5.000000e-02	7.237891e-06	
203	1.000000e-01	1.417286e-05	
204	1.500000e-01	2.083858e-05	
205	2.000000e-01	2.724357e-05	
206	2.500000e-01	3.339041e-05	
207	3.000000e-01	3.928023e-05	
208	3.500000e-01	4.491385e-05	
209	4.000000e-01	5.029199e-05	
210	4.500000e-01	5.541536e-05	
211	5.000000e-01	6.028465e-05	
212	5.500000e-01	6.490055e-05	
213	6.000000e-01	6.926377e-05	
214	6.500000e-01	7.337500e-05	
215	7.000000e-01	7.723493e-05	
216	7.500000e-01	8.084425e-05	
217	8.000000e-01	8.420366e-05	
218	8.500000e-01	8.731386e-05	
219	9.000000e-01	9.017554e-05	
220	9.500000e-01	9.278944e-05	
221	1.000000e+00	9.515627e-05	
222	1.050000e+00	9.727681e-05	
223	1.100000e+00	9.915189e-05	
224	1.150000e+00	1.007825e-04	
225	1.200000e+00	1.021698e-04	
226	1.250000e+00	1.033158e-04	
227	1.300000e+00	1.042240e-04	
228	1.350000e+00	1.049023e-04	

Index   v-sweep         -i(vds)         
--------------------------------------------------------------------------------
229	1.400000e+00	1.053698e-04	
230	1.450000e+00	1.056662e-04	
231	1.500000e+00	1.058480e-04	
232	1.550000e+00	1.059653e-04	
233	1.600000e+00	1.060477e-04	
234	1.650000e+00	1.061105e-04	
235	1.700000e+00	1.061613e-04	
236	1.750000e+00	1.062041e-04	
237	1.800000e+00	1.062412e-04	
238	1.850000e+00	1.062742e-04	
239	1.900000e+00	1.063040e-04	
240	1.950000e+00	1.063313e-04	
241	2.000000e+00	1.063566e-04	
242	2.050000e+00	1.063802e-04	
243	2.100000e+00	1.064023e-04	
244	2.150000e+00	1.064233e-04	
245	2.200000e+00	1.064432e-04	
246	2.250000e+00	1.064622e-04	
247	2.300000e+00	1.064804e-04	
248	2.350000e+00	1.064979e-04	
249	2.400000e+00	1.065148e-04	
250	2.450000e+00	1.065311e-04	
251	2.500000e+00	1.065469e-04	
252	2.550000e+00	1.065623e-04	
253	2.600000e+00	1.065772e-04	
254	2.650000e+00	1.065918e-04	
255	2.700000e+00	1.066060e-04	
256	2.750000e+00	1.066199e-04	
257	2.800000e+00	1.066335e-04	
258	2.850000e+00	1.066468e-04	
259	2.900000e+00	1.066600e-04	
260	2.950000e+00	1.066729e-04	
261	3.000000e+00	1.066858e-04	
262	3.050000e+00	1.066986e-04	
263	3.100000e+00	1.067114e-04	
264	3.150000e+00	1.067244e-04	
265	3.200000e+00	1.067377e-04	
266	3.250000e+00	1.067514e-04	
267	3.300000e+00	1.067658e-04	
268	0.000000e+00	-2.11298e-25	
269	5.000000e-02	8.634825e-06	
270	1.000000e-01	1.699200e-05	
271	1.500000e-01	2.510502e-05	
272	2.000000e-01	3.298231e-05	
273	2.500000e-01	4.062633e-05	
274	3.000000e-01	4.803810e-05	
275	3.500000e-01	5.521835e-05	
276	4.000000e-01	6.216766e-05	
277	4.500000e-01	6.888665e-05	
278	5.000000e-01	7.537591e-05	
279	5.500000e-01	8.163602e-05	
280	6.000000e-01	8.766756e-05	
281	6.500000e-01	9.347113e-05	
282	7.000000e-01	9.904731e-05	
283	7.500000e-01	1.043967e-04	
284	8.000000e-01	1.095198e-04	
285	8.500000e-01	1.144173e-04	
286	9.000000e-01	1.190897e-04	

Index   v-sweep         -i(vds)         
--------------------------------------------------------------------------------
287	9.500000e-01	1.235376e-04	
288	1.000000e+00	1.277616e-04	
289	1.050000e+00	1.317622e-04	
290	1.100000e+00	1.355401e-04	
291	1.150000e+00	1.390958e-04	
292	1.200000e+00	1.424299e-04	
293	1.250000e+00	1.455429e-04	
294	1.300000e+00	1.484355e-04	
295	1.350000e+00	1.511082e-04	
296	1.400000e+00	1.535617e-04	
297	1.450000e+00	1.557965e-04	
298	1.500000e+00	1.578133e-04	
299	1.550000e+00	1.596128e-04	
300	1.600000e+00	1.611958e-04	
301	1.650000e+00	1.625634e-04	
302	1.700000e+00	1.637173e-04	
303	1.750000e+00	1.646602e-04	
304	1.800000e+00	1.653982e-04	
305	1.850000e+00	1.659448e-04	
306	1.900000e+00	1.663268e-04	
307	1.950000e+00	1.665854e-04	
308	2.000000e+00	1.667634e-04	
309	2.050000e+00	1.668924e-04	
310	2.100000e+00	1.669916e-04	
311	2.150000e+00	1.670716e-04	
312	2.200000e+00	1.671387e-04	
313	2.250000e+00	1.671967e-04	
314	2.300000e+00	1.672478e-04	
315	2.350000e+00	1.672937e-04	
316	2.400000e+00	1.673355e-04	
317	2.450000e+00	1.673739e-04	
318	2.500000e+00	1.674096e-04	
319	2.550000e+00	1.674429e-04	
320	2.600000e+00	1.674743e-04	
321	2.650000e+00	1.675040e-04	
322	2.700000e+00	1.675322e-04	
323	2.750000e+00	1.675591e-04	
324	2.800000e+00	1.675849e-04	
325	2.850000e+00	1.676097e-04	
326	2.900000e+00	1.676335e-04	
327	2.950000e+00	1.676565e-04	
328	3.000000e+00	1.676788e-04	
329	3.050000e+00	1.677004e-04	
330	3.100000e+00	1.677214e-04	
331	3.150000e+00	1.677419e-04	
332	3.200000e+00	1.677618e-04	
333	3.250000e+00	1.677813e-04	
334	3.300000e+00	1.678003e-04	
335	0.000000e+00	-3.63874e-25	
336	5.000000e-02	9.728338e-06	
337	1.000000e-01	1.920419e-05	
338	1.500000e-01	2.846091e-05	
339	2.000000e-01	3.750683e-05	
340	2.500000e-01	4.634429e-05	
341	3.000000e-01	5.497424e-05	
342	3.500000e-01	6.339727e-05	
343	4.000000e-01	7.161390e-05	
344	4.500000e-01	7.962464e-05	

Index   v-sweep         -i(vds)         
--------------------------------------------------------------------------------
345	5.000000e-01	8.742997e-05	
346	5.500000e-01	9.503038e-05	
347	6.000000e-01	1.024264e-04	
348	6.500000e-01	1.096184e-04	
349	7.000000e-01	1.166070e-04	
350	7.500000e-01	1.233926e-04	
351	8.000000e-01	1.299757e-04	
352	8.500000e-01	1.363569e-04	
353	9.000000e-01	1.425365e-04	
354	9.500000e-01	1.485150e-04	
355	1.000000e+00	1.542931e-04	
356	1.050000e+00	1.598710e-04	
357	1.100000e+00	1.652493e-04	
358	1.150000e+00	1.704285e-04	
359	1.200000e+00	1.754091e-04	
360	1.250000e+00	1.801915e-04	
361	1.300000e+00	1.847762e-04	
362	1.350000e+00	1.891637e-04	
363	1.400000e+00	1.933544e-04	
364	1.450000e+00	1.973488e-04	
365	1.500000e+00	2.011474e-04	
366	1.550000e+00	2.047507e-04	
367	1.600000e+00	2.081591e-04	
368	1.650000e+00	2.113732e-04	
369	1.700000e+00	2.143933e-04	
370	1.750000e+00	2.172199e-04	
371	1.800000e+00	2.198536e-04	
372	1.850000e+00	2.222947e-04	
373	1.900000e+00	2.245439e-04	
374	1.950000e+00	2.266016e-04	
375	2.000000e+00	2.284683e-04	
376	2.050000e+00	2.301446e-04	
377	2.100000e+00	2.316312e-04	
378	2.150000e+00	2.329290e-04	
379	2.200000e+00	2.340394e-04	
380	2.250000e+00	2.349647e-04	
381	2.300000e+00	2.357099e-04	
382	2.350000e+00	2.362859e-04	
383	2.400000e+00	2.367130e-04	
384	2.450000e+00	2.370224e-04	
385	2.500000e+00	2.372482e-04	
386	2.550000e+00	2.374184e-04	
387	2.600000e+00	2.375522e-04	
388	2.650000e+00	2.376615e-04	
389	2.700000e+00	2.377537e-04	
390	2.750000e+00	2.378335e-04	
391	2.800000e+00	2.379039e-04	
392	2.850000e+00	2.379670e-04	
393	2.900000e+00	2.380243e-04	
394	2.950000e+00	2.380769e-04	
395	3.000000e+00	2.381257e-04	
396	3.050000e+00	2.381712e-04	
397	3.100000e+00	2.382138e-04	
398	3.150000e+00	2.382541e-04	
399	3.200000e+00	2.382924e-04	
400	3.250000e+00	2.383287e-04	
401	3.300000e+00	2.383635e-04	
Note: No ".plot", ".print", or ".fourier" lines; no simulations run
