
Note: Compatibility modes selected: hs

Warning: m=xx on .subckt line will override multiplier m hierarchy!


Circuit: ***************************

Doing analysis at TEMP = 125.000000 and TNOM = 125.000000


No. of Data Rows : 402
                          ***************************
                          DC transfer characteristic  Mon Jan  9 13:58:12  2023
--------------------------------------------------------------------------------
Index   v-sweep         -i(vds)         
--------------------------------------------------------------------------------
0	0.000000e+00	-5.47850e-26	
1	5.000000e-02	3.755122e-06	
2	1.000000e-01	6.753235e-06	
3	1.500000e-01	9.051448e-06	
4	2.000000e-01	1.071300e-05	
5	2.500000e-01	1.183064e-05	
6	3.000000e-01	1.254631e-05	
7	3.500000e-01	1.302049e-05	
8	4.000000e-01	1.336931e-05	
9	4.500000e-01	1.365348e-05	
10	5.000000e-01	1.390161e-05	
11	5.500000e-01	1.412778e-05	
12	6.000000e-01	1.433952e-05	
13	6.500000e-01	1.454124e-05	
14	7.000000e-01	1.473568e-05	
15	7.500000e-01	1.492467e-05	
16	8.000000e-01	1.510948e-05	
17	8.500000e-01	1.529100e-05	
18	9.000000e-01	1.546994e-05	
19	9.500000e-01	1.564679e-05	
20	1.000000e+00	1.582197e-05	
21	1.050000e+00	1.599579e-05	
22	1.100000e+00	1.616852e-05	
23	1.150000e+00	1.634035e-05	
24	1.200000e+00	1.651148e-05	
25	1.250000e+00	1.668204e-05	
26	1.300000e+00	1.685215e-05	
27	1.350000e+00	1.702193e-05	
28	1.400000e+00	1.719146e-05	
29	1.450000e+00	1.736082e-05	
30	1.500000e+00	1.753007e-05	
31	1.550000e+00	1.769929e-05	
32	1.600000e+00	1.786851e-05	
33	1.650000e+00	1.803779e-05	
34	1.700000e+00	1.820718e-05	
35	1.750000e+00	1.837671e-05	
36	1.800000e+00	1.854643e-05	
37	1.850000e+00	1.871637e-05	
38	1.900000e+00	1.888658e-05	
39	1.950000e+00	1.905710e-05	
40	2.000000e+00	1.922797e-05	
41	2.050000e+00	1.939926e-05	
42	2.100000e+00	1.957101e-05	
43	2.150000e+00	1.974330e-05	
44	2.200000e+00	1.991619e-05	
45	2.250000e+00	2.008978e-05	
46	2.300000e+00	2.026417e-05	
47	2.350000e+00	2.043945e-05	
48	2.400000e+00	2.061577e-05	
49	2.450000e+00	2.079328e-05	
50	2.500000e+00	2.097212e-05	
51	2.550000e+00	2.115250e-05	
52	2.600000e+00	2.133462e-05	
53	2.650000e+00	2.151872e-05	
54	2.700000e+00	2.170506e-05	

Index   v-sweep         -i(vds)         
--------------------------------------------------------------------------------
55	2.750000e+00	2.189393e-05	
56	2.800000e+00	2.208565e-05	
57	2.850000e+00	2.228057e-05	
58	2.900000e+00	2.247910e-05	
59	2.950000e+00	2.268165e-05	
60	3.000000e+00	2.288869e-05	
61	3.050000e+00	2.310074e-05	
62	3.100000e+00	2.331834e-05	
63	3.150000e+00	2.354209e-05	
64	3.200000e+00	2.377265e-05	
65	3.250000e+00	2.401070e-05	
66	3.300000e+00	2.425699e-05	
67	0.000000e+00	-2.48764e-26	
68	5.000000e-02	9.963172e-06	
69	1.000000e-01	1.900460e-05	
70	1.500000e-01	2.717075e-05	
71	2.000000e-01	3.450132e-05	
72	2.500000e-01	4.103301e-05	
73	3.000000e-01	4.680059e-05	
74	3.500000e-01	5.183739e-05	
75	4.000000e-01	5.617595e-05	
76	4.500000e-01	5.984930e-05	
77	5.000000e-01	6.289423e-05	
78	5.500000e-01	6.535816e-05	
79	6.000000e-01	6.730945e-05	
80	6.500000e-01	6.884140e-05	
81	7.000000e-01	7.005817e-05	
82	7.500000e-01	7.105192e-05	
83	8.000000e-01	7.189112e-05	
84	8.500000e-01	7.262220e-05	
85	9.000000e-01	7.327575e-05	
86	9.500000e-01	7.387209e-05	
87	1.000000e+00	7.442500e-05	
88	1.050000e+00	7.494411e-05	
89	1.100000e+00	7.543630e-05	
90	1.150000e+00	7.590666e-05	
91	1.200000e+00	7.635903e-05	
92	1.250000e+00	7.679634e-05	
93	1.300000e+00	7.722091e-05	
94	1.350000e+00	7.763456e-05	
95	1.400000e+00	7.803880e-05	
96	1.450000e+00	7.843482e-05	
97	1.500000e+00	7.882364e-05	
98	1.550000e+00	7.920610e-05	
99	1.600000e+00	7.958292e-05	
100	1.650000e+00	7.995469e-05	
101	1.700000e+00	8.032194e-05	
102	1.750000e+00	8.068511e-05	
103	1.800000e+00	8.104461e-05	
104	1.850000e+00	8.140077e-05	
105	1.900000e+00	8.175391e-05	
106	1.950000e+00	8.210429e-05	
107	2.000000e+00	8.245217e-05	
108	2.050000e+00	8.279779e-05	
109	2.100000e+00	8.314137e-05	
110	2.150000e+00	8.348311e-05	
111	2.200000e+00	8.382324e-05	
112	2.250000e+00	8.416197e-05	

Index   v-sweep         -i(vds)         
--------------------------------------------------------------------------------
113	2.300000e+00	8.449953e-05	
114	2.350000e+00	8.483617e-05	
115	2.400000e+00	8.517214e-05	
116	2.450000e+00	8.550775e-05	
117	2.500000e+00	8.584332e-05	
118	2.550000e+00	8.617922e-05	
119	2.600000e+00	8.651585e-05	
120	2.650000e+00	8.685369e-05	
121	2.700000e+00	8.719324e-05	
122	2.750000e+00	8.753510e-05	
123	2.800000e+00	8.787992e-05	
124	2.850000e+00	8.822842e-05	
125	2.900000e+00	8.858141e-05	
126	2.950000e+00	8.893981e-05	
127	3.000000e+00	8.930459e-05	
128	3.050000e+00	8.967686e-05	
129	3.100000e+00	9.005782e-05	
130	3.150000e+00	9.044878e-05	
131	3.200000e+00	9.085118e-05	
132	3.250000e+00	9.126657e-05	
133	3.300000e+00	9.169665e-05	
134	0.000000e+00	-1.99404e-25	
135	5.000000e-02	1.455246e-05	
136	1.000000e-01	2.817325e-05	
137	1.500000e-01	4.090201e-05	
138	2.000000e-01	5.277236e-05	
139	2.500000e-01	6.381541e-05	
140	3.000000e-01	7.406066e-05	
141	3.500000e-01	8.353618e-05	
142	4.000000e-01	9.226875e-05	
143	4.500000e-01	1.002838e-04	
144	5.000000e-01	1.076052e-04	
145	5.500000e-01	1.142555e-04	
146	6.000000e-01	1.202552e-04	
147	6.500000e-01	1.256228e-04	
148	7.000000e-01	1.303747e-04	
149	7.500000e-01	1.345262e-04	
150	8.000000e-01	1.380955e-04	
151	8.500000e-01	1.411121e-04	
152	9.000000e-01	1.436264e-04	
153	9.500000e-01	1.457117e-04	
154	1.000000e+00	1.474525e-04	
155	1.050000e+00	1.489281e-04	
156	1.100000e+00	1.502035e-04	
157	1.150000e+00	1.513276e-04	
158	1.200000e+00	1.523363e-04	
159	1.250000e+00	1.532554e-04	
160	1.300000e+00	1.541037e-04	
161	1.350000e+00	1.548953e-04	
162	1.400000e+00	1.556404e-04	
163	1.450000e+00	1.563472e-04	
164	1.500000e+00	1.570217e-04	
165	1.550000e+00	1.576689e-04	
166	1.600000e+00	1.582925e-04	
167	1.650000e+00	1.588959e-04	
168	1.700000e+00	1.594815e-04	
169	1.750000e+00	1.600515e-04	
170	1.800000e+00	1.606077e-04	

Index   v-sweep         -i(vds)         
--------------------------------------------------------------------------------
171	1.850000e+00	1.611515e-04	
172	1.900000e+00	1.616844e-04	
173	1.950000e+00	1.622073e-04	
174	2.000000e+00	1.627213e-04	
175	2.050000e+00	1.632271e-04	
176	2.100000e+00	1.637255e-04	
177	2.150000e+00	1.642171e-04	
178	2.200000e+00	1.647025e-04	
179	2.250000e+00	1.651823e-04	
180	2.300000e+00	1.656569e-04	
181	2.350000e+00	1.661267e-04	
182	2.400000e+00	1.665923e-04	
183	2.450000e+00	1.670540e-04	
184	2.500000e+00	1.675123e-04	
185	2.550000e+00	1.679676e-04	
186	2.600000e+00	1.684204e-04	
187	2.650000e+00	1.688713e-04	
188	2.700000e+00	1.693208e-04	
189	2.750000e+00	1.697694e-04	
190	2.800000e+00	1.702181e-04	
191	2.850000e+00	1.706674e-04	
192	2.900000e+00	1.711183e-04	
193	2.950000e+00	1.715718e-04	
194	3.000000e+00	1.720290e-04	
195	3.050000e+00	1.724912e-04	
196	3.100000e+00	1.729596e-04	
197	3.150000e+00	1.734358e-04	
198	3.200000e+00	1.739215e-04	
199	3.250000e+00	1.744186e-04	
200	3.300000e+00	1.749292e-04	
201	0.000000e+00	-9.18365e-21	
202	5.000000e-02	1.802541e-05	
203	1.000000e-01	3.514827e-05	
204	1.500000e-01	5.140233e-05	
205	2.000000e-01	6.681588e-05	
206	2.500000e-01	8.141509e-05	
207	3.000000e-01	9.522495e-05	
208	3.500000e-01	1.082694e-04	
209	4.000000e-01	1.205716e-04	
210	4.500000e-01	1.321537e-04	
211	5.000000e-01	1.430369e-04	
212	5.500000e-01	1.532414e-04	
213	6.000000e-01	1.627866e-04	
214	6.500000e-01	1.716907e-04	
215	7.000000e-01	1.799704e-04	
216	7.500000e-01	1.876409e-04	
217	8.000000e-01	1.947154e-04	
218	8.500000e-01	2.012042e-04	
219	9.000000e-01	2.071146e-04	
220	9.500000e-01	2.124499e-04	
221	1.000000e+00	2.172112e-04	
222	1.050000e+00	2.214017e-04	
223	1.100000e+00	2.250356e-04	
224	1.150000e+00	2.281481e-04	
225	1.200000e+00	2.307978e-04	
226	1.250000e+00	2.330581e-04	
227	1.300000e+00	2.350036e-04	
228	1.350000e+00	2.367003e-04	

Index   v-sweep         -i(vds)         
--------------------------------------------------------------------------------
229	1.400000e+00	2.382016e-04	
230	1.450000e+00	2.395491e-04	
231	1.500000e+00	2.407741e-04	
232	1.550000e+00	2.419007e-04	
233	1.600000e+00	2.429468e-04	
234	1.650000e+00	2.439266e-04	
235	1.700000e+00	2.448509e-04	
236	1.750000e+00	2.457282e-04	
237	1.800000e+00	2.465654e-04	
238	1.850000e+00	2.473681e-04	
239	1.900000e+00	2.481406e-04	
240	1.950000e+00	2.488868e-04	
241	2.000000e+00	2.496096e-04	
242	2.050000e+00	2.503118e-04	
243	2.100000e+00	2.509956e-04	
244	2.150000e+00	2.516627e-04	
245	2.200000e+00	2.523149e-04	
246	2.250000e+00	2.529535e-04	
247	2.300000e+00	2.535798e-04	
248	2.350000e+00	2.541948e-04	
249	2.400000e+00	2.547995e-04	
250	2.450000e+00	2.553948e-04	
251	2.500000e+00	2.559814e-04	
252	2.550000e+00	2.565602e-04	
253	2.600000e+00	2.571317e-04	
254	2.650000e+00	2.576966e-04	
255	2.700000e+00	2.582556e-04	
256	2.750000e+00	2.588094e-04	
257	2.800000e+00	2.593587e-04	
258	2.850000e+00	2.599042e-04	
259	2.900000e+00	2.604468e-04	
260	2.950000e+00	2.609873e-04	
261	3.000000e+00	2.615266e-04	
262	3.050000e+00	2.620661e-04	
263	3.100000e+00	2.626067e-04	
264	3.150000e+00	2.631500e-04	
265	3.200000e+00	2.636974e-04	
266	3.250000e+00	2.642508e-04	
267	3.300000e+00	2.648120e-04	
268	0.000000e+00	-3.72522e-20	
269	5.000000e-02	2.073190e-05	
270	1.000000e-01	4.060307e-05	
271	1.500000e-01	5.964250e-05	
272	2.000000e-01	7.787410e-05	
273	2.500000e-01	9.531997e-05	
274	3.000000e-01	1.120013e-04	
275	3.500000e-01	1.279384e-04	
276	4.000000e-01	1.431511e-04	
277	4.500000e-01	1.576586e-04	
278	5.000000e-01	1.714793e-04	
279	5.500000e-01	1.846311e-04	
280	6.000000e-01	1.971312e-04	
281	6.500000e-01	2.089961e-04	
282	7.000000e-01	2.202417e-04	
283	7.500000e-01	2.308830e-04	
284	8.000000e-01	2.409341e-04	
285	8.500000e-01	2.504081e-04	
286	9.000000e-01	2.593169e-04	

Index   v-sweep         -i(vds)         
--------------------------------------------------------------------------------
287	9.500000e-01	2.676704e-04	
288	1.000000e+00	2.754767e-04	
289	1.050000e+00	2.827407e-04	
290	1.100000e+00	2.894635e-04	
291	1.150000e+00	2.956420e-04	
292	1.200000e+00	3.012687e-04	
293	1.250000e+00	3.063349e-04	
294	1.300000e+00	3.108371e-04	
295	1.350000e+00	3.147868e-04	
296	1.400000e+00	3.182179e-04	
297	1.450000e+00	3.211858e-04	
298	1.500000e+00	3.237583e-04	
299	1.550000e+00	3.260044e-04	
300	1.600000e+00	3.279856e-04	
301	1.650000e+00	3.297537e-04	
302	1.700000e+00	3.313497e-04	
303	1.750000e+00	3.328059e-04	
304	1.800000e+00	3.341476e-04	
305	1.850000e+00	3.353945e-04	
306	1.900000e+00	3.365619e-04	
307	1.950000e+00	3.376621e-04	
308	2.000000e+00	3.387050e-04	
309	2.050000e+00	3.396985e-04	
310	2.100000e+00	3.406491e-04	
311	2.150000e+00	3.415622e-04	
312	2.200000e+00	3.424422e-04	
313	2.250000e+00	3.432928e-04	
314	2.300000e+00	3.441173e-04	
315	2.350000e+00	3.449183e-04	
316	2.400000e+00	3.456982e-04	
317	2.450000e+00	3.464589e-04	
318	2.500000e+00	3.472022e-04	
319	2.550000e+00	3.479296e-04	
320	2.600000e+00	3.486425e-04	
321	2.650000e+00	3.493422e-04	
322	2.700000e+00	3.500297e-04	
323	2.750000e+00	3.507060e-04	
324	2.800000e+00	3.513720e-04	
325	2.850000e+00	3.520288e-04	
326	2.900000e+00	3.526771e-04	
327	2.950000e+00	3.533179e-04	
328	3.000000e+00	3.539522e-04	
329	3.050000e+00	3.545808e-04	
330	3.100000e+00	3.552048e-04	
331	3.150000e+00	3.558254e-04	
332	3.200000e+00	3.564439e-04	
333	3.250000e+00	3.570617e-04	
334	3.300000e+00	3.576803e-04	
335	0.000000e+00	-9.98815e-20	
336	5.000000e-02	2.289177e-05	
337	1.000000e-01	4.496770e-05	
338	1.500000e-01	6.625305e-05	
339	2.000000e-01	8.676821e-05	
340	2.500000e-01	1.065320e-04	
341	3.000000e-01	1.255623e-04	
342	3.500000e-01	1.438767e-04	
343	4.000000e-01	1.614922e-04	
344	4.500000e-01	1.784252e-04	

Index   v-sweep         -i(vds)         
--------------------------------------------------------------------------------
345	5.000000e-01	1.946919e-04	
346	5.500000e-01	2.103076e-04	
347	6.000000e-01	2.252877e-04	
348	6.500000e-01	2.396468e-04	
349	7.000000e-01	2.533989e-04	
350	7.500000e-01	2.665580e-04	
351	8.000000e-01	2.791370e-04	
352	8.500000e-01	2.911487e-04	
353	9.000000e-01	3.026051e-04	
354	9.500000e-01	3.135175e-04	
355	1.000000e+00	3.238963e-04	
356	1.050000e+00	3.337509e-04	
357	1.100000e+00	3.430894e-04	
358	1.150000e+00	3.519181e-04	
359	1.200000e+00	3.602410e-04	
360	1.250000e+00	3.680589e-04	
361	1.300000e+00	3.753689e-04	
362	1.350000e+00	3.821630e-04	
363	1.400000e+00	3.884288e-04	
364	1.450000e+00	3.941511e-04	
365	1.500000e+00	3.993170e-04	
366	1.550000e+00	4.039247e-04	
367	1.600000e+00	4.079912e-04	
368	1.650000e+00	4.115558e-04	
369	1.700000e+00	4.146753e-04	
370	1.750000e+00	4.174139e-04	
371	1.800000e+00	4.198348e-04	
372	1.850000e+00	4.219938e-04	
373	1.900000e+00	4.239382e-04	
374	1.950000e+00	4.257062e-04	
375	2.000000e+00	4.273284e-04	
376	2.050000e+00	4.288291e-04	
377	2.100000e+00	4.302279e-04	
378	2.150000e+00	4.315402e-04	
379	2.200000e+00	4.327786e-04	
380	2.250000e+00	4.339533e-04	
381	2.300000e+00	4.350726e-04	
382	2.350000e+00	4.361435e-04	
383	2.400000e+00	4.371717e-04	
384	2.450000e+00	4.381621e-04	
385	2.500000e+00	4.391187e-04	
386	2.550000e+00	4.400452e-04	
387	2.600000e+00	4.409443e-04	
388	2.650000e+00	4.418189e-04	
389	2.700000e+00	4.426710e-04	
390	2.750000e+00	4.435028e-04	
391	2.800000e+00	4.443159e-04	
392	2.850000e+00	4.451120e-04	
393	2.900000e+00	4.458924e-04	
394	2.950000e+00	4.466584e-04	
395	3.000000e+00	4.474112e-04	
396	3.050000e+00	4.481521e-04	
397	3.100000e+00	4.488820e-04	
398	3.150000e+00	4.496022e-04	
399	3.200000e+00	4.503138e-04	
400	3.250000e+00	4.510179e-04	
401	3.300000e+00	4.517159e-04	
Note: No ".plot", ".print", or ".fourier" lines; no simulations run
