
Note: Compatibility modes selected: hs

Warning: m=xx on .subckt line will override multiplier m hierarchy!


Circuit: ***************************

Doing analysis at TEMP = 125.000000 and TNOM = 125.000000


No. of Data Rows : 402
                          ***************************
                          DC transfer characteristic  Mon Jan  9 13:58:12  2023
--------------------------------------------------------------------------------
Index   v-sweep         -i(vds)         
--------------------------------------------------------------------------------
0	0.000000e+00	3.974648e-23	
1	5.000000e-02	6.228132e-07	
2	1.000000e-01	1.060364e-06	
3	1.500000e-01	1.346668e-06	
4	2.000000e-01	1.493819e-06	
5	2.500000e-01	1.535128e-06	
6	3.000000e-01	1.541861e-06	
7	3.500000e-01	1.543872e-06	
8	4.000000e-01	1.545006e-06	
9	4.500000e-01	1.545856e-06	
10	5.000000e-01	1.546576e-06	
11	5.500000e-01	1.547225e-06	
12	6.000000e-01	1.547827e-06	
13	6.500000e-01	1.548397e-06	
14	7.000000e-01	1.548943e-06	
15	7.500000e-01	1.549471e-06	
16	8.000000e-01	1.549984e-06	
17	8.500000e-01	1.550486e-06	
18	9.000000e-01	1.550977e-06	
19	9.500000e-01	1.551460e-06	
20	1.000000e+00	1.551935e-06	
21	1.050000e+00	1.552404e-06	
22	1.100000e+00	1.552868e-06	
23	1.150000e+00	1.553326e-06	
24	1.200000e+00	1.553780e-06	
25	1.250000e+00	1.554230e-06	
26	1.300000e+00	1.554677e-06	
27	1.350000e+00	1.555120e-06	
28	1.400000e+00	1.555561e-06	
29	1.450000e+00	1.555998e-06	
30	1.500000e+00	1.556434e-06	
31	1.550000e+00	1.556867e-06	
32	1.600000e+00	1.557297e-06	
33	1.650000e+00	1.557727e-06	
34	1.700000e+00	1.558154e-06	
35	1.750000e+00	1.558580e-06	
36	1.800000e+00	1.559006e-06	
37	1.850000e+00	1.559430e-06	
38	1.900000e+00	1.559855e-06	
39	1.950000e+00	1.560281e-06	
40	2.000000e+00	1.560709e-06	
41	2.050000e+00	1.561139e-06	
42	2.100000e+00	1.561574e-06	
43	2.150000e+00	1.562014e-06	
44	2.200000e+00	1.562463e-06	
45	2.250000e+00	1.562923e-06	
46	2.300000e+00	1.563396e-06	
47	2.350000e+00	1.563887e-06	
48	2.400000e+00	1.564399e-06	
49	2.450000e+00	1.564936e-06	
50	2.500000e+00	1.565506e-06	
51	2.550000e+00	1.566113e-06	
52	2.600000e+00	1.566764e-06	
53	2.650000e+00	1.567467e-06	
54	2.700000e+00	1.568230e-06	

Index   v-sweep         -i(vds)         
--------------------------------------------------------------------------------
55	2.750000e+00	1.569063e-06	
56	2.800000e+00	1.569976e-06	
57	2.850000e+00	1.570978e-06	
58	2.900000e+00	1.572083e-06	
59	2.950000e+00	1.573303e-06	
60	3.000000e+00	1.574652e-06	
61	3.050000e+00	1.576143e-06	
62	3.100000e+00	1.577792e-06	
63	3.150000e+00	1.579616e-06	
64	3.200000e+00	1.581630e-06	
65	3.250000e+00	1.583854e-06	
66	3.300000e+00	1.586306e-06	
67	0.000000e+00	-2.55888e-21	
68	5.000000e-02	1.779382e-06	
69	1.000000e-01	3.362518e-06	
70	1.500000e-01	4.782811e-06	
71	2.000000e-01	6.048353e-06	
72	2.500000e-01	7.161255e-06	
73	3.000000e-01	8.122231e-06	
74	3.500000e-01	8.931701e-06	
75	4.000000e-01	9.590110e-06	
76	4.500000e-01	1.009820e-05	
77	5.000000e-01	1.045778e-05	
78	5.500000e-01	1.067530e-05	
79	6.000000e-01	1.077506e-05	
80	6.500000e-01	1.080999e-05	
81	7.000000e-01	1.082352e-05	
82	7.500000e-01	1.083078e-05	
83	8.000000e-01	1.083573e-05	
84	8.500000e-01	1.083961e-05	
85	9.000000e-01	1.084288e-05	
86	9.500000e-01	1.084576e-05	
87	1.000000e+00	1.084838e-05	
88	1.050000e+00	1.085081e-05	
89	1.100000e+00	1.085308e-05	
90	1.150000e+00	1.085524e-05	
91	1.200000e+00	1.085730e-05	
92	1.250000e+00	1.085928e-05	
93	1.300000e+00	1.086119e-05	
94	1.350000e+00	1.086305e-05	
95	1.400000e+00	1.086485e-05	
96	1.450000e+00	1.086662e-05	
97	1.500000e+00	1.086834e-05	
98	1.550000e+00	1.087003e-05	
99	1.600000e+00	1.087169e-05	
100	1.650000e+00	1.087332e-05	
101	1.700000e+00	1.087493e-05	
102	1.750000e+00	1.087651e-05	
103	1.800000e+00	1.087807e-05	
104	1.850000e+00	1.087962e-05	
105	1.900000e+00	1.088114e-05	
106	1.950000e+00	1.088265e-05	
107	2.000000e+00	1.088415e-05	
108	2.050000e+00	1.088563e-05	
109	2.100000e+00	1.088711e-05	
110	2.150000e+00	1.088857e-05	
111	2.200000e+00	1.089004e-05	
112	2.250000e+00	1.089150e-05	

Index   v-sweep         -i(vds)         
--------------------------------------------------------------------------------
113	2.300000e+00	1.089296e-05	
114	2.350000e+00	1.089444e-05	
115	2.400000e+00	1.089593e-05	
116	2.450000e+00	1.089745e-05	
117	2.500000e+00	1.089901e-05	
118	2.550000e+00	1.090062e-05	
119	2.600000e+00	1.090231e-05	
120	2.650000e+00	1.090409e-05	
121	2.700000e+00	1.090598e-05	
122	2.750000e+00	1.090803e-05	
123	2.800000e+00	1.091024e-05	
124	2.850000e+00	1.091268e-05	
125	2.900000e+00	1.091537e-05	
126	2.950000e+00	1.091837e-05	
127	3.000000e+00	1.092173e-05	
128	3.050000e+00	1.092551e-05	
129	3.100000e+00	1.092977e-05	
130	3.150000e+00	1.093459e-05	
131	3.200000e+00	1.094003e-05	
132	3.250000e+00	1.094619e-05	
133	3.300000e+00	1.095315e-05	
134	0.000000e+00	2.698808e-21	
135	5.000000e-02	2.816487e-06	
136	1.000000e-01	5.445547e-06	
137	1.500000e-01	7.920514e-06	
138	2.000000e-01	1.024944e-05	
139	2.500000e-01	1.243439e-05	
140	3.000000e-01	1.447601e-05	
141	3.500000e-01	1.637463e-05	
142	4.000000e-01	1.813047e-05	
143	4.500000e-01	1.974376e-05	
144	5.000000e-01	2.121471e-05	
145	5.500000e-01	2.254356e-05	
146	6.000000e-01	2.373054e-05	
147	6.500000e-01	2.477590e-05	
148	7.000000e-01	2.567995e-05	
149	7.500000e-01	2.644308e-05	
150	8.000000e-01	2.706591e-05	
151	8.500000e-01	2.754966e-05	
152	9.000000e-01	2.789735e-05	
153	9.500000e-01	2.811784e-05	
154	1.000000e+00	2.823502e-05	
155	1.050000e+00	2.828975e-05	
156	1.100000e+00	2.831704e-05	
157	1.150000e+00	2.833340e-05	
158	1.200000e+00	2.834491e-05	
159	1.250000e+00	2.835390e-05	
160	1.300000e+00	2.836138e-05	
161	1.350000e+00	2.836789e-05	
162	1.400000e+00	2.837371e-05	
163	1.450000e+00	2.837902e-05	
164	1.500000e+00	2.838394e-05	
165	1.550000e+00	2.838855e-05	
166	1.600000e+00	2.839290e-05	
167	1.650000e+00	2.839704e-05	
168	1.700000e+00	2.840100e-05	
169	1.750000e+00	2.840480e-05	
170	1.800000e+00	2.840848e-05	

Index   v-sweep         -i(vds)         
--------------------------------------------------------------------------------
171	1.850000e+00	2.841204e-05	
172	1.900000e+00	2.841550e-05	
173	1.950000e+00	2.841886e-05	
174	2.000000e+00	2.842214e-05	
175	2.050000e+00	2.842535e-05	
176	2.100000e+00	2.842850e-05	
177	2.150000e+00	2.843158e-05	
178	2.200000e+00	2.843461e-05	
179	2.250000e+00	2.843759e-05	
180	2.300000e+00	2.844052e-05	
181	2.350000e+00	2.844341e-05	
182	2.400000e+00	2.844626e-05	
183	2.450000e+00	2.844908e-05	
184	2.500000e+00	2.845188e-05	
185	2.550000e+00	2.845465e-05	
186	2.600000e+00	2.845741e-05	
187	2.650000e+00	2.846017e-05	
188	2.700000e+00	2.846294e-05	
189	2.750000e+00	2.846574e-05	
190	2.800000e+00	2.846858e-05	
191	2.850000e+00	2.847150e-05	
192	2.900000e+00	2.847453e-05	
193	2.950000e+00	2.847770e-05	
194	3.000000e+00	2.848106e-05	
195	3.050000e+00	2.848467e-05	
196	3.100000e+00	2.848859e-05	
197	3.150000e+00	2.849290e-05	
198	3.200000e+00	2.849768e-05	
199	3.250000e+00	2.850303e-05	
200	3.300000e+00	2.850907e-05	
201	0.000000e+00	-2.92062e-26	
202	5.000000e-02	3.692852e-06	
203	1.000000e-01	7.210872e-06	
204	1.500000e-01	1.058733e-05	
205	2.000000e-01	1.383025e-05	
206	2.500000e-01	1.694167e-05	
207	3.000000e-01	1.992219e-05	
208	3.500000e-01	2.277212e-05	
209	4.000000e-01	2.549166e-05	
210	4.500000e-01	2.808098e-05	
211	5.000000e-01	3.054027e-05	
212	5.500000e-01	3.286971e-05	
213	6.000000e-01	3.506948e-05	
214	6.500000e-01	3.713976e-05	
215	7.000000e-01	3.908073e-05	
216	7.500000e-01	4.089258e-05	
217	8.000000e-01	4.257548e-05	
218	8.500000e-01	4.412963e-05	
219	9.000000e-01	4.555522e-05	
220	9.500000e-01	4.685245e-05	
221	1.000000e+00	4.802152e-05	
222	1.050000e+00	4.906268e-05	
223	1.100000e+00	4.997621e-05	
224	1.150000e+00	5.076246e-05	
225	1.200000e+00	5.142201e-05	
226	1.250000e+00	5.195584e-05	
227	1.300000e+00	5.236611e-05	
228	1.350000e+00	5.265807e-05	

Index   v-sweep         -i(vds)         
--------------------------------------------------------------------------------
229	1.400000e+00	5.284462e-05	
230	1.450000e+00	5.295139e-05	
231	1.500000e+00	5.301058e-05	
232	1.550000e+00	5.304615e-05	
233	1.600000e+00	5.307026e-05	
234	1.650000e+00	5.308835e-05	
235	1.700000e+00	5.310292e-05	
236	1.750000e+00	5.311523e-05	
237	1.800000e+00	5.312599e-05	
238	1.850000e+00	5.313562e-05	
239	1.900000e+00	5.314440e-05	
240	1.950000e+00	5.315249e-05	
241	2.000000e+00	5.316005e-05	
242	2.050000e+00	5.316716e-05	
243	2.100000e+00	5.317390e-05	
244	2.150000e+00	5.318031e-05	
245	2.200000e+00	5.318646e-05	
246	2.250000e+00	5.319236e-05	
247	2.300000e+00	5.319806e-05	
248	2.350000e+00	5.320357e-05	
249	2.400000e+00	5.320892e-05	
250	2.450000e+00	5.321411e-05	
251	2.500000e+00	5.321918e-05	
252	2.550000e+00	5.322412e-05	
253	2.600000e+00	5.322895e-05	
254	2.650000e+00	5.323368e-05	
255	2.700000e+00	5.323832e-05	
256	2.750000e+00	5.324288e-05	
257	2.800000e+00	5.324736e-05	
258	2.850000e+00	5.325177e-05	
259	2.900000e+00	5.325613e-05	
260	2.950000e+00	5.326044e-05	
261	3.000000e+00	5.326472e-05	
262	3.050000e+00	5.326898e-05	
263	3.100000e+00	5.327325e-05	
264	3.150000e+00	5.327755e-05	
265	3.200000e+00	5.328191e-05	
266	3.250000e+00	5.328639e-05	
267	3.300000e+00	5.329103e-05	
268	0.000000e+00	2.808436e-25	
269	5.000000e-02	4.404713e-06	
270	1.000000e-01	8.648123e-06	
271	1.500000e-01	1.276345e-05	
272	2.000000e-01	1.675867e-05	
273	2.500000e-01	2.063581e-05	
274	3.000000e-01	2.439545e-05	
275	3.500000e-01	2.803785e-05	
276	4.000000e-01	3.156319e-05	
277	4.500000e-01	3.497161e-05	
278	5.000000e-01	3.826328e-05	
279	5.500000e-01	4.143834e-05	
280	6.000000e-01	4.449694e-05	
281	6.500000e-01	4.743924e-05	
282	7.000000e-01	5.026539e-05	
283	7.500000e-01	5.297553e-05	
284	8.000000e-01	5.556982e-05	
285	8.500000e-01	5.804841e-05	
286	9.000000e-01	6.041145e-05	

Index   v-sweep         -i(vds)         
--------------------------------------------------------------------------------
287	9.500000e-01	6.265909e-05	
288	1.000000e+00	6.479148e-05	
289	1.050000e+00	6.680876e-05	
290	1.100000e+00	6.871111e-05	
291	1.150000e+00	7.049866e-05	
292	1.200000e+00	7.217157e-05	
293	1.250000e+00	7.373001e-05	
294	1.300000e+00	7.517412e-05	
295	1.350000e+00	7.650408e-05	
296	1.400000e+00	7.772006e-05	
297	1.450000e+00	7.882225e-05	
298	1.500000e+00	7.981086e-05	
299	1.550000e+00	8.068615e-05	
300	1.600000e+00	8.144847e-05	
301	1.650000e+00	8.209833e-05	
302	1.700000e+00	8.263664e-05	
303	1.750000e+00	8.306519e-05	
304	1.800000e+00	8.338790e-05	
305	1.850000e+00	8.361357e-05	
306	1.900000e+00	8.375934e-05	
307	1.950000e+00	8.384958e-05	
308	2.000000e+00	8.390707e-05	
309	2.050000e+00	8.394664e-05	
310	2.100000e+00	8.397617e-05	
311	2.150000e+00	8.399967e-05	
312	2.200000e+00	8.401927e-05	
313	2.250000e+00	8.403620e-05	
314	2.300000e+00	8.405118e-05	
315	2.350000e+00	8.406469e-05	
316	2.400000e+00	8.407705e-05	
317	2.450000e+00	8.408849e-05	
318	2.500000e+00	8.409917e-05	
319	2.550000e+00	8.410923e-05	
320	2.600000e+00	8.411875e-05	
321	2.650000e+00	8.412781e-05	
322	2.700000e+00	8.413647e-05	
323	2.750000e+00	8.414479e-05	
324	2.800000e+00	8.415280e-05	
325	2.850000e+00	8.416054e-05	
326	2.900000e+00	8.416803e-05	
327	2.950000e+00	8.417530e-05	
328	3.000000e+00	8.418237e-05	
329	3.050000e+00	8.418926e-05	
330	3.100000e+00	8.419598e-05	
331	3.150000e+00	8.420256e-05	
332	3.200000e+00	8.420899e-05	
333	3.250000e+00	8.421530e-05	
334	3.300000e+00	8.422151e-05	
335	0.000000e+00	-3.23995e-26	
336	5.000000e-02	4.961927e-06	
337	1.000000e-01	9.775899e-06	
338	1.500000e-01	1.447509e-05	
339	2.000000e-01	1.906745e-05	
340	2.500000e-01	2.355497e-05	
341	3.000000e-01	2.793821e-05	
342	3.500000e-01	3.221740e-05	
343	4.000000e-01	3.639270e-05	
344	4.500000e-01	4.046424e-05	

Index   v-sweep         -i(vds)         
--------------------------------------------------------------------------------
345	5.000000e-01	4.443213e-05	
346	5.500000e-01	4.829652e-05	
347	6.000000e-01	5.205751e-05	
348	6.500000e-01	5.571524e-05	
349	7.000000e-01	5.926983e-05	
350	7.500000e-01	6.272141e-05	
351	8.000000e-01	6.607010e-05	
352	8.500000e-01	6.931602e-05	
353	9.000000e-01	7.245930e-05	
354	9.500000e-01	7.550007e-05	
355	1.000000e+00	7.843844e-05	
356	1.050000e+00	8.127455e-05	
357	1.100000e+00	8.400851e-05	
358	1.150000e+00	8.664046e-05	
359	1.200000e+00	8.917051e-05	
360	1.250000e+00	9.159879e-05	
361	1.300000e+00	9.392543e-05	
362	1.350000e+00	9.615054e-05	
363	1.400000e+00	9.827425e-05	
364	1.450000e+00	1.002967e-04	
365	1.500000e+00	1.022180e-04	
366	1.550000e+00	1.040383e-04	
367	1.600000e+00	1.057577e-04	
368	1.650000e+00	1.073763e-04	
369	1.700000e+00	1.088943e-04	
370	1.750000e+00	1.103117e-04	
371	1.800000e+00	1.116288e-04	
372	1.850000e+00	1.128457e-04	
373	1.900000e+00	1.139625e-04	
374	1.950000e+00	1.149794e-04	
375	2.000000e+00	1.158966e-04	
376	2.050000e+00	1.167143e-04	
377	2.100000e+00	1.174329e-04	
378	2.150000e+00	1.180527e-04	
379	2.200000e+00	1.185747e-04	
380	2.250000e+00	1.190004e-04	
381	2.300000e+00	1.193330e-04	
382	2.350000e+00	1.195790e-04	
383	2.400000e+00	1.197507e-04	
384	2.450000e+00	1.198662e-04	
385	2.500000e+00	1.199446e-04	
386	2.550000e+00	1.200003e-04	
387	2.600000e+00	1.200424e-04	
388	2.650000e+00	1.200759e-04	
389	2.700000e+00	1.201038e-04	
390	2.750000e+00	1.201278e-04	
391	2.800000e+00	1.201489e-04	
392	2.850000e+00	1.201678e-04	
393	2.900000e+00	1.201850e-04	
394	2.950000e+00	1.202008e-04	
395	3.000000e+00	1.202155e-04	
396	3.050000e+00	1.202293e-04	
397	3.100000e+00	1.202424e-04	
398	3.150000e+00	1.202547e-04	
399	3.200000e+00	1.202664e-04	
400	3.250000e+00	1.202777e-04	
401	3.300000e+00	1.202885e-04	
Note: No ".plot", ".print", or ".fourier" lines; no simulations run
