
Note: Compatibility modes selected: hs

Warning: m=xx on .subckt line will override multiplier m hierarchy!


Circuit: ***************************

Doing analysis at TEMP = 125.000000 and TNOM = 125.000000


No. of Data Rows : 402
                          ***************************
                          DC transfer characteristic  Mon Jan  9 13:58:12  2023
--------------------------------------------------------------------------------
Index   v-sweep         -i(vds)         
--------------------------------------------------------------------------------
0	0.000000e+00	3.683656e-23	
1	5.000000e-02	1.121212e-07	
2	1.000000e-01	1.946261e-07	
3	1.500000e-01	2.510036e-07	
4	2.000000e-01	2.826383e-07	
5	2.500000e-01	2.936753e-07	
6	3.000000e-01	2.958491e-07	
7	3.500000e-01	2.964817e-07	
8	4.000000e-01	2.968275e-07	
9	4.500000e-01	2.970809e-07	
10	5.000000e-01	2.972915e-07	
11	5.500000e-01	2.974776e-07	
12	6.000000e-01	2.976476e-07	
13	6.500000e-01	2.978062e-07	
14	7.000000e-01	2.979564e-07	
15	7.500000e-01	2.980999e-07	
16	8.000000e-01	2.982380e-07	
17	8.500000e-01	2.983718e-07	
18	9.000000e-01	2.985019e-07	
19	9.500000e-01	2.986288e-07	
20	1.000000e+00	2.987531e-07	
21	1.050000e+00	2.988749e-07	
22	1.100000e+00	2.989947e-07	
23	1.150000e+00	2.991127e-07	
24	1.200000e+00	2.992290e-07	
25	1.250000e+00	2.993438e-07	
26	1.300000e+00	2.994573e-07	
27	1.350000e+00	2.995695e-07	
28	1.400000e+00	2.996807e-07	
29	1.450000e+00	2.997908e-07	
30	1.500000e+00	2.999000e-07	
31	1.550000e+00	3.000084e-07	
32	1.600000e+00	3.001160e-07	
33	1.650000e+00	3.002230e-07	
34	1.700000e+00	3.003293e-07	
35	1.750000e+00	3.004352e-07	
36	1.800000e+00	3.005407e-07	
37	1.850000e+00	3.006461e-07	
38	1.900000e+00	3.007515e-07	
39	1.950000e+00	3.008572e-07	
40	2.000000e+00	3.009636e-07	
41	2.050000e+00	3.010711e-07	
42	2.100000e+00	3.011803e-07	
43	2.150000e+00	3.012917e-07	
44	2.200000e+00	3.014063e-07	
45	2.250000e+00	3.015248e-07	
46	2.300000e+00	3.016486e-07	
47	2.350000e+00	3.017789e-07	
48	2.400000e+00	3.019173e-07	
49	2.450000e+00	3.020654e-07	
50	2.500000e+00	3.022254e-07	
51	2.550000e+00	3.023995e-07	
52	2.600000e+00	3.025902e-07	
53	2.650000e+00	3.028004e-07	
54	2.700000e+00	3.030331e-07	

Index   v-sweep         -i(vds)         
--------------------------------------------------------------------------------
55	2.750000e+00	3.032918e-07	
56	2.800000e+00	3.035802e-07	
57	2.850000e+00	3.039023e-07	
58	2.900000e+00	3.042625e-07	
59	2.950000e+00	3.046655e-07	
60	3.000000e+00	3.051162e-07	
61	3.050000e+00	3.056199e-07	
62	3.100000e+00	3.061822e-07	
63	3.150000e+00	3.068092e-07	
64	3.200000e+00	3.075069e-07	
65	3.250000e+00	3.082819e-07	
66	3.300000e+00	3.091411e-07	
67	0.000000e+00	-9.23581e-23	
68	5.000000e-02	3.207005e-07	
69	1.000000e-01	6.096383e-07	
70	1.500000e-01	8.702087e-07	
71	2.000000e-01	1.103280e-06	
72	2.500000e-01	1.309122e-06	
73	3.000000e-01	1.487866e-06	
74	3.500000e-01	1.639619e-06	
75	4.000000e-01	1.764494e-06	
76	4.500000e-01	1.862650e-06	
77	5.000000e-01	1.934401e-06	
78	5.500000e-01	1.980661e-06	
79	6.000000e-01	2.004667e-06	
80	6.500000e-01	2.014456e-06	
81	7.000000e-01	2.018562e-06	
82	7.500000e-01	2.020817e-06	
83	8.000000e-01	2.022360e-06	
84	8.500000e-01	2.023558e-06	
85	9.000000e-01	2.024558e-06	
86	9.500000e-01	2.025430e-06	
87	1.000000e+00	2.026211e-06	
88	1.050000e+00	2.026926e-06	
89	1.100000e+00	2.027589e-06	
90	1.150000e+00	2.028211e-06	
91	1.200000e+00	2.028800e-06	
92	1.250000e+00	2.029360e-06	
93	1.300000e+00	2.029897e-06	
94	1.350000e+00	2.030413e-06	
95	1.400000e+00	2.030912e-06	
96	1.450000e+00	2.031395e-06	
97	1.500000e+00	2.031864e-06	
98	1.550000e+00	2.032321e-06	
99	1.600000e+00	2.032767e-06	
100	1.650000e+00	2.033204e-06	
101	1.700000e+00	2.033631e-06	
102	1.750000e+00	2.034051e-06	
103	1.800000e+00	2.034463e-06	
104	1.850000e+00	2.034868e-06	
105	1.900000e+00	2.035267e-06	
106	1.950000e+00	2.035660e-06	
107	2.000000e+00	2.036049e-06	
108	2.050000e+00	2.036433e-06	
109	2.100000e+00	2.036813e-06	
110	2.150000e+00	2.037191e-06	
111	2.200000e+00	2.037567e-06	
112	2.250000e+00	2.037943e-06	

Index   v-sweep         -i(vds)         
--------------------------------------------------------------------------------
113	2.300000e+00	2.038320e-06	
114	2.350000e+00	2.038701e-06	
115	2.400000e+00	2.039088e-06	
116	2.450000e+00	2.039485e-06	
117	2.500000e+00	2.039897e-06	
118	2.550000e+00	2.040328e-06	
119	2.600000e+00	2.040785e-06	
120	2.650000e+00	2.041275e-06	
121	2.700000e+00	2.041807e-06	
122	2.750000e+00	2.042391e-06	
123	2.800000e+00	2.043038e-06	
124	2.850000e+00	2.043762e-06	
125	2.900000e+00	2.044578e-06	
126	2.950000e+00	2.045503e-06	
127	3.000000e+00	2.046555e-06	
128	3.050000e+00	2.047756e-06	
129	3.100000e+00	2.049128e-06	
130	3.150000e+00	2.050696e-06	
131	3.200000e+00	2.052487e-06	
132	3.250000e+00	2.054530e-06	
133	3.300000e+00	2.056856e-06	
134	0.000000e+00	5.984582e-22	
135	5.000000e-02	5.116937e-07	
136	1.000000e-01	9.927489e-07	
137	1.500000e-01	1.446547e-06	
138	2.000000e-01	1.873946e-06	
139	2.500000e-01	2.275206e-06	
140	3.000000e-01	2.650445e-06	
141	3.500000e-01	2.999749e-06	
142	4.000000e-01	3.323195e-06	
143	4.500000e-01	3.620856e-06	
144	5.000000e-01	3.892810e-06	
145	5.500000e-01	4.139130e-06	
146	6.000000e-01	4.359896e-06	
147	6.500000e-01	4.555189e-06	
148	7.000000e-01	4.725097e-06	
149	7.500000e-01	4.869723e-06	
150	8.000000e-01	4.989207e-06	
151	8.500000e-01	5.083780e-06	
152	9.000000e-01	5.153942e-06	
153	9.500000e-01	5.201021e-06	
154	1.000000e+00	5.228530e-06	
155	1.050000e+00	5.242978e-06	
156	1.100000e+00	5.250872e-06	
157	1.150000e+00	5.255848e-06	
158	1.200000e+00	5.259424e-06	
159	1.250000e+00	5.262233e-06	
160	1.300000e+00	5.264569e-06	
161	1.350000e+00	5.266589e-06	
162	1.400000e+00	5.268380e-06	
163	1.450000e+00	5.270001e-06	
164	1.500000e+00	5.271489e-06	
165	1.550000e+00	5.272870e-06	
166	1.600000e+00	5.274164e-06	
167	1.650000e+00	5.275385e-06	
168	1.700000e+00	5.276544e-06	
169	1.750000e+00	5.277650e-06	
170	1.800000e+00	5.278709e-06	

Index   v-sweep         -i(vds)         
--------------------------------------------------------------------------------
171	1.850000e+00	5.279728e-06	
172	1.900000e+00	5.280711e-06	
173	1.950000e+00	5.281663e-06	
174	2.000000e+00	5.282586e-06	
175	2.050000e+00	5.283483e-06	
176	2.100000e+00	5.284357e-06	
177	2.150000e+00	5.285210e-06	
178	2.200000e+00	5.286043e-06	
179	2.250000e+00	5.286859e-06	
180	2.300000e+00	5.287658e-06	
181	2.350000e+00	5.288443e-06	
182	2.400000e+00	5.289215e-06	
183	2.450000e+00	5.289976e-06	
184	2.500000e+00	5.290728e-06	
185	2.550000e+00	5.291472e-06	
186	2.600000e+00	5.292213e-06	
187	2.650000e+00	5.292953e-06	
188	2.700000e+00	5.293698e-06	
189	2.750000e+00	5.294454e-06	
190	2.800000e+00	5.295227e-06	
191	2.850000e+00	5.296028e-06	
192	2.900000e+00	5.296868e-06	
193	2.950000e+00	5.297760e-06	
194	3.000000e+00	5.298721e-06	
195	3.050000e+00	5.299772e-06	
196	3.100000e+00	5.300935e-06	
197	3.150000e+00	5.302237e-06	
198	3.200000e+00	5.303708e-06	
199	3.250000e+00	5.305385e-06	
200	3.300000e+00	5.307307e-06	
201	0.000000e+00	1.527661e-21	
202	5.000000e-02	6.782861e-07	
203	1.000000e-01	1.327746e-06	
204	1.500000e-01	1.951748e-06	
205	2.000000e-01	2.551141e-06	
206	2.500000e-01	3.126177e-06	
207	3.000000e-01	3.676966e-06	
208	3.500000e-01	4.203584e-06	
209	4.000000e-01	4.706098e-06	
210	4.500000e-01	5.184576e-06	
211	5.000000e-01	5.639081e-06	
212	5.500000e-01	6.069679e-06	
213	6.000000e-01	6.476436e-06	
214	6.500000e-01	6.859415e-06	
215	7.000000e-01	7.218682e-06	
216	7.500000e-01	7.554302e-06	
217	8.000000e-01	7.866338e-06	
218	8.500000e-01	8.154858e-06	
219	9.000000e-01	8.419926e-06	
220	9.500000e-01	8.661611e-06	
221	1.000000e+00	8.879980e-06	
222	1.050000e+00	9.075108e-06	
223	1.100000e+00	9.247074e-06	
224	1.150000e+00	9.395974e-06	
225	1.200000e+00	9.521933e-06	
226	1.250000e+00	9.625154e-06	
227	1.300000e+00	9.706029e-06	
228	1.350000e+00	9.765457e-06	

Index   v-sweep         -i(vds)         
--------------------------------------------------------------------------------
229	1.400000e+00	9.805575e-06	
230	1.450000e+00	9.830576e-06	
231	1.500000e+00	9.845899e-06	
232	1.550000e+00	9.855903e-06	
233	1.600000e+00	9.863054e-06	
234	1.650000e+00	9.868574e-06	
235	1.700000e+00	9.873079e-06	
236	1.750000e+00	9.876904e-06	
237	1.800000e+00	9.880246e-06	
238	1.850000e+00	9.883227e-06	
239	1.900000e+00	9.885930e-06	
240	1.950000e+00	9.888412e-06	
241	2.000000e+00	9.890713e-06	
242	2.050000e+00	9.892865e-06	
243	2.100000e+00	9.894891e-06	
244	2.150000e+00	9.896809e-06	
245	2.200000e+00	9.898635e-06	
246	2.250000e+00	9.900379e-06	
247	2.300000e+00	9.902051e-06	
248	2.350000e+00	9.903660e-06	
249	2.400000e+00	9.905212e-06	
250	2.450000e+00	9.906714e-06	
251	2.500000e+00	9.908169e-06	
252	2.550000e+00	9.909582e-06	
253	2.600000e+00	9.910958e-06	
254	2.650000e+00	9.912299e-06	
255	2.700000e+00	9.913608e-06	
256	2.750000e+00	9.914888e-06	
257	2.800000e+00	9.916143e-06	
258	2.850000e+00	9.917375e-06	
259	2.900000e+00	9.918587e-06	
260	2.950000e+00	9.919785e-06	
261	3.000000e+00	9.920973e-06	
262	3.050000e+00	9.922157e-06	
263	3.100000e+00	9.923345e-06	
264	3.150000e+00	9.924548e-06	
265	3.200000e+00	9.925779e-06	
266	3.250000e+00	9.927053e-06	
267	3.300000e+00	9.928391e-06	
268	0.000000e+00	9.188695e-22	
269	5.000000e-02	8.190924e-07	
270	1.000000e-01	1.611406e-06	
271	1.500000e-01	2.380297e-06	
272	2.000000e-01	3.126604e-06	
273	2.500000e-01	3.850571e-06	
274	3.000000e-01	4.552300e-06	
275	3.500000e-01	5.231858e-06	
276	4.000000e-01	5.889304e-06	
277	4.500000e-01	6.524696e-06	
278	5.000000e-01	7.138092e-06	
279	5.500000e-01	7.729547e-06	
280	6.000000e-01	8.299117e-06	
281	6.500000e-01	8.846860e-06	
282	7.000000e-01	9.372831e-06	
283	7.500000e-01	9.877087e-06	
284	8.000000e-01	1.035968e-05	
285	8.500000e-01	1.082067e-05	
286	9.000000e-01	1.126012e-05	

Index   v-sweep         -i(vds)         
--------------------------------------------------------------------------------
287	9.500000e-01	1.167807e-05	
288	1.000000e+00	1.207458e-05	
289	1.050000e+00	1.244971e-05	
290	1.100000e+00	1.280351e-05	
291	1.150000e+00	1.313604e-05	
292	1.200000e+00	1.344735e-05	
293	1.250000e+00	1.373751e-05	
294	1.300000e+00	1.400656e-05	
295	1.350000e+00	1.425456e-05	
296	1.400000e+00	1.448157e-05	
297	1.450000e+00	1.468765e-05	
298	1.500000e+00	1.487287e-05	
299	1.550000e+00	1.503730e-05	
300	1.600000e+00	1.518101e-05	
301	1.650000e+00	1.530415e-05	
302	1.700000e+00	1.540688e-05	
303	1.750000e+00	1.548957e-05	
304	1.800000e+00	1.555300e-05	
305	1.850000e+00	1.559886e-05	
306	1.900000e+00	1.563028e-05	
307	1.950000e+00	1.565147e-05	
308	2.000000e+00	1.566624e-05	
309	2.050000e+00	1.567716e-05	
310	2.100000e+00	1.568570e-05	
311	2.150000e+00	1.569270e-05	
312	2.200000e+00	1.569863e-05	
313	2.250000e+00	1.570380e-05	
314	2.300000e+00	1.570839e-05	
315	2.350000e+00	1.571254e-05	
316	2.400000e+00	1.571633e-05	
317	2.450000e+00	1.571983e-05	
318	2.500000e+00	1.572308e-05	
319	2.550000e+00	1.572613e-05	
320	2.600000e+00	1.572901e-05	
321	2.650000e+00	1.573174e-05	
322	2.700000e+00	1.573434e-05	
323	2.750000e+00	1.573682e-05	
324	2.800000e+00	1.573920e-05	
325	2.850000e+00	1.574149e-05	
326	2.900000e+00	1.574369e-05	
327	2.950000e+00	1.574583e-05	
328	3.000000e+00	1.574789e-05	
329	3.050000e+00	1.574990e-05	
330	3.100000e+00	1.575184e-05	
331	3.150000e+00	1.575374e-05	
332	3.200000e+00	1.575559e-05	
333	3.250000e+00	1.575740e-05	
334	3.300000e+00	1.575918e-05	
335	0.000000e+00	1.720763e-26	
336	5.000000e-02	9.347122e-07	
337	1.000000e-01	1.844748e-06	
338	1.500000e-01	2.733451e-06	
339	2.000000e-01	3.601653e-06	
340	2.500000e-01	4.449588e-06	
341	3.000000e-01	5.277351e-06	
342	3.500000e-01	6.085000e-06	
343	4.000000e-01	6.872587e-06	
344	4.500000e-01	7.640162e-06	

Index   v-sweep         -i(vds)         
--------------------------------------------------------------------------------
345	5.000000e-01	8.387773e-06	
346	5.500000e-01	9.115468e-06	
347	6.000000e-01	9.823298e-06	
348	6.500000e-01	1.051131e-05	
349	7.000000e-01	1.117955e-05	
350	7.500000e-01	1.182807e-05	
351	8.000000e-01	1.245691e-05	
352	8.500000e-01	1.306613e-05	
353	9.000000e-01	1.365577e-05	
354	9.500000e-01	1.422588e-05	
355	1.000000e+00	1.477650e-05	
356	1.050000e+00	1.530769e-05	
357	1.100000e+00	1.581949e-05	
358	1.150000e+00	1.631194e-05	
359	1.200000e+00	1.678511e-05	
360	1.250000e+00	1.723902e-05	
361	1.300000e+00	1.767373e-05	
362	1.350000e+00	1.808929e-05	
363	1.400000e+00	1.848574e-05	
364	1.450000e+00	1.886313e-05	
365	1.500000e+00	1.922151e-05	
366	1.550000e+00	1.956091e-05	
367	1.600000e+00	1.988140e-05	
368	1.650000e+00	2.018301e-05	
369	1.700000e+00	2.046579e-05	
370	1.750000e+00	2.072979e-05	
371	1.800000e+00	2.097505e-05	
372	1.850000e+00	2.120163e-05	
373	1.900000e+00	2.140957e-05	
374	1.950000e+00	2.159892e-05	
375	2.000000e+00	2.176974e-05	
376	2.050000e+00	2.192210e-05	
377	2.100000e+00	2.205606e-05	
378	2.150000e+00	2.217174e-05	
379	2.200000e+00	2.226932e-05	
380	2.250000e+00	2.234915e-05	
381	2.300000e+00	2.241197e-05	
382	2.350000e+00	2.245930e-05	
383	2.400000e+00	2.249374e-05	
384	2.450000e+00	2.251859e-05	
385	2.500000e+00	2.253697e-05	
386	2.550000e+00	2.255111e-05	
387	2.600000e+00	2.256246e-05	
388	2.650000e+00	2.257189e-05	
389	2.700000e+00	2.257995e-05	
390	2.750000e+00	2.258701e-05	
391	2.800000e+00	2.259329e-05	
392	2.850000e+00	2.259897e-05	
393	2.900000e+00	2.260415e-05	
394	2.950000e+00	2.260894e-05	
395	3.000000e+00	2.261339e-05	
396	3.050000e+00	2.261755e-05	
397	3.100000e+00	2.262147e-05	
398	3.150000e+00	2.262519e-05	
399	3.200000e+00	2.262871e-05	
400	3.250000e+00	2.263208e-05	
401	3.300000e+00	2.263530e-05	
Note: No ".plot", ".print", or ".fourier" lines; no simulations run
