
Note: Compatibility modes selected: hs

Warning: m=xx on .subckt line will override multiplier m hierarchy!


Circuit: ***************************

Doing analysis at TEMP = 125.000000 and TNOM = 125.000000


No. of Data Rows : 402
                          ***************************
                          DC transfer characteristic  Mon Jan  9 13:58:12  2023
--------------------------------------------------------------------------------
Index   v-sweep         -i(vds)         
--------------------------------------------------------------------------------
0	0.000000e+00	7.223283e-24	
1	5.000000e-02	1.171224e-07	
2	1.000000e-01	1.995833e-07	
3	1.500000e-01	2.541589e-07	
4	2.000000e-01	2.830864e-07	
5	2.500000e-01	2.917880e-07	
6	3.000000e-01	2.932240e-07	
7	3.500000e-01	2.936245e-07	
8	4.000000e-01	2.938414e-07	
9	4.500000e-01	2.940013e-07	
10	5.000000e-01	2.941358e-07	
11	5.500000e-01	2.942564e-07	
12	6.000000e-01	2.943682e-07	
13	6.500000e-01	2.944738e-07	
14	7.000000e-01	2.945750e-07	
15	7.500000e-01	2.946727e-07	
16	8.000000e-01	2.947676e-07	
17	8.500000e-01	2.948603e-07	
18	9.000000e-01	2.949511e-07	
19	9.500000e-01	2.950403e-07	
20	1.000000e+00	2.951281e-07	
21	1.050000e+00	2.952148e-07	
22	1.100000e+00	2.953003e-07	
23	1.150000e+00	2.953850e-07	
24	1.200000e+00	2.954688e-07	
25	1.250000e+00	2.955519e-07	
26	1.300000e+00	2.956343e-07	
27	1.350000e+00	2.957161e-07	
28	1.400000e+00	2.957974e-07	
29	1.450000e+00	2.958781e-07	
30	1.500000e+00	2.959584e-07	
31	1.550000e+00	2.960382e-07	
32	1.600000e+00	2.961177e-07	
33	1.650000e+00	2.961969e-07	
34	1.700000e+00	2.962757e-07	
35	1.750000e+00	2.963543e-07	
36	1.800000e+00	2.964328e-07	
37	1.850000e+00	2.965112e-07	
38	1.900000e+00	2.965896e-07	
39	1.950000e+00	2.966682e-07	
40	2.000000e+00	2.967471e-07	
41	2.050000e+00	2.968267e-07	
42	2.100000e+00	2.969072e-07	
43	2.150000e+00	2.969888e-07	
44	2.200000e+00	2.970721e-07	
45	2.250000e+00	2.971576e-07	
46	2.300000e+00	2.972458e-07	
47	2.350000e+00	2.973375e-07	
48	2.400000e+00	2.974334e-07	
49	2.450000e+00	2.975346e-07	
50	2.500000e+00	2.976420e-07	
51	2.550000e+00	2.977569e-07	
52	2.600000e+00	2.978806e-07	
53	2.650000e+00	2.980145e-07	
54	2.700000e+00	2.981605e-07	

Index   v-sweep         -i(vds)         
--------------------------------------------------------------------------------
55	2.750000e+00	2.983202e-07	
56	2.800000e+00	2.984957e-07	
57	2.850000e+00	2.986890e-07	
58	2.900000e+00	2.989026e-07	
59	2.950000e+00	2.991388e-07	
60	3.000000e+00	2.994004e-07	
61	3.050000e+00	2.996901e-07	
62	3.100000e+00	3.000110e-07	
63	3.150000e+00	3.003661e-07	
64	3.200000e+00	3.007589e-07	
65	3.250000e+00	3.011927e-07	
66	3.300000e+00	3.016712e-07	
67	0.000000e+00	-4.26681e-22	
68	5.000000e-02	3.273545e-07	
69	1.000000e-01	6.179991e-07	
70	1.500000e-01	8.786097e-07	
71	2.000000e-01	1.110797e-06	
72	2.500000e-01	1.314978e-06	
73	3.000000e-01	1.491285e-06	
74	3.500000e-01	1.639795e-06	
75	4.000000e-01	1.760588e-06	
76	4.500000e-01	1.853796e-06	
77	5.000000e-01	1.919750e-06	
78	5.500000e-01	1.959629e-06	
79	6.000000e-01	1.977890e-06	
80	6.500000e-01	1.984252e-06	
81	7.000000e-01	1.986696e-06	
82	7.500000e-01	1.988002e-06	
83	8.000000e-01	1.988892e-06	
84	8.500000e-01	1.989589e-06	
85	9.000000e-01	1.990177e-06	
86	9.500000e-01	1.990696e-06	
87	1.000000e+00	1.991167e-06	
88	1.050000e+00	1.991604e-06	
89	1.100000e+00	1.992015e-06	
90	1.150000e+00	1.992404e-06	
91	1.200000e+00	1.992776e-06	
92	1.250000e+00	1.993134e-06	
93	1.300000e+00	1.993480e-06	
94	1.350000e+00	1.993815e-06	
95	1.400000e+00	1.994142e-06	
96	1.450000e+00	1.994461e-06	
97	1.500000e+00	1.994772e-06	
98	1.550000e+00	1.995078e-06	
99	1.600000e+00	1.995378e-06	
100	1.650000e+00	1.995673e-06	
101	1.700000e+00	1.995964e-06	
102	1.750000e+00	1.996251e-06	
103	1.800000e+00	1.996533e-06	
104	1.850000e+00	1.996813e-06	
105	1.900000e+00	1.997089e-06	
106	1.950000e+00	1.997362e-06	
107	2.000000e+00	1.997633e-06	
108	2.050000e+00	1.997902e-06	
109	2.100000e+00	1.998169e-06	
110	2.150000e+00	1.998435e-06	
111	2.200000e+00	1.998700e-06	
112	2.250000e+00	1.998965e-06	

Index   v-sweep         -i(vds)         
--------------------------------------------------------------------------------
113	2.300000e+00	1.999231e-06	
114	2.350000e+00	1.999499e-06	
115	2.400000e+00	1.999771e-06	
116	2.450000e+00	2.000049e-06	
117	2.500000e+00	2.000335e-06	
118	2.550000e+00	2.000631e-06	
119	2.600000e+00	2.000942e-06	
120	2.650000e+00	2.001271e-06	
121	2.700000e+00	2.001624e-06	
122	2.750000e+00	2.002004e-06	
123	2.800000e+00	2.002420e-06	
124	2.850000e+00	2.002878e-06	
125	2.900000e+00	2.003387e-06	
126	2.950000e+00	2.003955e-06	
127	3.000000e+00	2.004593e-06	
128	3.050000e+00	2.005312e-06	
129	3.100000e+00	2.006125e-06	
130	3.150000e+00	2.007045e-06	
131	3.200000e+00	2.008087e-06	
132	3.250000e+00	2.009267e-06	
133	3.300000e+00	2.010602e-06	
134	0.000000e+00	-4.05464e-22	
135	5.000000e-02	5.206019e-07	
136	1.000000e-01	1.005845e-06	
137	1.500000e-01	1.462395e-06	
138	2.000000e-01	1.891855e-06	
139	2.500000e-01	2.294634e-06	
140	3.000000e-01	2.670857e-06	
141	3.500000e-01	3.020581e-06	
142	4.000000e-01	3.343849e-06	
143	4.500000e-01	3.640698e-06	
144	5.000000e-01	3.911169e-06	
145	5.500000e-01	4.155299e-06	
146	6.000000e-01	4.373131e-06	
147	6.500000e-01	4.564711e-06	
148	7.000000e-01	4.730094e-06	
149	7.500000e-01	4.869353e-06	
150	8.000000e-01	4.982604e-06	
151	8.500000e-01	5.070087e-06	
152	9.000000e-01	5.132412e-06	
153	9.500000e-01	5.171366e-06	
154	1.000000e+00	5.191684e-06	
155	1.050000e+00	5.201077e-06	
156	1.100000e+00	5.205785e-06	
157	1.150000e+00	5.208638e-06	
158	1.200000e+00	5.210663e-06	
159	1.250000e+00	5.212255e-06	
160	1.300000e+00	5.213587e-06	
161	1.350000e+00	5.214750e-06	
162	1.400000e+00	5.215793e-06	
163	1.450000e+00	5.216747e-06	
164	1.500000e+00	5.217632e-06	
165	1.550000e+00	5.218461e-06	
166	1.600000e+00	5.219246e-06	
167	1.650000e+00	5.219994e-06	
168	1.700000e+00	5.220710e-06	
169	1.750000e+00	5.221399e-06	
170	1.800000e+00	5.222064e-06	

Index   v-sweep         -i(vds)         
--------------------------------------------------------------------------------
171	1.850000e+00	5.222708e-06	
172	1.900000e+00	5.223335e-06	
173	1.950000e+00	5.223945e-06	
174	2.000000e+00	5.224540e-06	
175	2.050000e+00	5.225123e-06	
176	2.100000e+00	5.225693e-06	
177	2.150000e+00	5.226253e-06	
178	2.200000e+00	5.226803e-06	
179	2.250000e+00	5.227344e-06	
180	2.300000e+00	5.227876e-06	
181	2.350000e+00	5.228401e-06	
182	2.400000e+00	5.228920e-06	
183	2.450000e+00	5.229433e-06	
184	2.500000e+00	5.229942e-06	
185	2.550000e+00	5.230447e-06	
186	2.600000e+00	5.230950e-06	
187	2.650000e+00	5.231454e-06	
188	2.700000e+00	5.231961e-06	
189	2.750000e+00	5.232474e-06	
190	2.800000e+00	5.232998e-06	
191	2.850000e+00	5.233537e-06	
192	2.900000e+00	5.234098e-06	
193	2.950000e+00	5.234689e-06	
194	3.000000e+00	5.235319e-06	
195	3.050000e+00	5.235998e-06	
196	3.100000e+00	5.236740e-06	
197	3.150000e+00	5.237560e-06	
198	3.200000e+00	5.238474e-06	
199	3.250000e+00	5.239501e-06	
200	3.300000e+00	5.240665e-06	
201	0.000000e+00	2.197515e-21	
202	5.000000e-02	6.893559e-07	
203	1.000000e-01	1.345397e-06	
204	1.500000e-01	1.974777e-06	
205	2.000000e-01	2.579097e-06	
206	2.500000e-01	3.158759e-06	
207	3.000000e-01	3.713885e-06	
208	3.500000e-01	4.244528e-06	
209	4.000000e-01	4.750723e-06	
210	4.500000e-01	5.232505e-06	
211	5.000000e-01	5.689905e-06	
212	5.500000e-01	6.122957e-06	
213	6.000000e-01	6.531692e-06	
214	6.500000e-01	6.916144e-06	
215	7.000000e-01	7.276343e-06	
216	7.500000e-01	7.612323e-06	
217	8.000000e-01	7.924118e-06	
218	8.500000e-01	8.211760e-06	
219	9.000000e-01	8.475285e-06	
220	9.500000e-01	8.714728e-06	
221	1.000000e+00	8.930129e-06	
222	1.050000e+00	9.121531e-06	
223	1.100000e+00	9.288987e-06	
224	1.150000e+00	9.432569e-06	
225	1.200000e+00	9.552389e-06	
226	1.250000e+00	9.648654e-06	
227	1.300000e+00	9.721826e-06	
228	1.350000e+00	9.773042e-06	

Index   v-sweep         -i(vds)         
--------------------------------------------------------------------------------
229	1.400000e+00	9.805060e-06	
230	1.450000e+00	9.823055e-06	
231	1.500000e+00	9.833023e-06	
232	1.550000e+00	9.839089e-06	
233	1.600000e+00	9.843264e-06	
234	1.650000e+00	9.846435e-06	
235	1.700000e+00	9.849012e-06	
236	1.750000e+00	9.851204e-06	
237	1.800000e+00	9.853130e-06	
238	1.850000e+00	9.854860e-06	
239	1.900000e+00	9.856440e-06	
240	1.950000e+00	9.857903e-06	
241	2.000000e+00	9.859271e-06	
242	2.050000e+00	9.860561e-06	
243	2.100000e+00	9.861784e-06	
244	2.150000e+00	9.862951e-06	
245	2.200000e+00	9.864070e-06	
246	2.250000e+00	9.865146e-06	
247	2.300000e+00	9.866184e-06	
248	2.350000e+00	9.867190e-06	
249	2.400000e+00	9.868167e-06	
250	2.450000e+00	9.869116e-06	
251	2.500000e+00	9.870042e-06	
252	2.550000e+00	9.870946e-06	
253	2.600000e+00	9.871830e-06	
254	2.650000e+00	9.872697e-06	
255	2.700000e+00	9.873547e-06	
256	2.750000e+00	9.874381e-06	
257	2.800000e+00	9.875203e-06	
258	2.850000e+00	9.876013e-06	
259	2.900000e+00	9.876813e-06	
260	2.950000e+00	9.877605e-06	
261	3.000000e+00	9.878392e-06	
262	3.050000e+00	9.879178e-06	
263	3.100000e+00	9.879967e-06	
264	3.150000e+00	9.880764e-06	
265	3.200000e+00	9.881577e-06	
266	3.250000e+00	9.882413e-06	
267	3.300000e+00	9.883286e-06	
268	0.000000e+00	3.525672e-21	
269	5.000000e-02	8.318742e-07	
270	1.000000e-01	1.632691e-06	
271	1.500000e-01	2.409095e-06	
272	2.000000e-01	3.162682e-06	
273	2.500000e-01	3.893851e-06	
274	3.000000e-01	4.602718e-06	
275	3.500000e-01	5.289332e-06	
276	4.000000e-01	5.953724e-06	
277	4.500000e-01	6.595925e-06	
278	5.000000e-01	7.215962e-06	
279	5.500000e-01	7.813863e-06	
280	6.000000e-01	8.389656e-06	
281	6.500000e-01	8.943368e-06	
282	7.000000e-01	9.475026e-06	
283	7.500000e-01	9.984659e-06	
284	8.000000e-01	1.047229e-05	
285	8.500000e-01	1.093796e-05	
286	9.000000e-01	1.138168e-05	

Index   v-sweep         -i(vds)         
--------------------------------------------------------------------------------
287	9.500000e-01	1.180349e-05	
288	1.000000e+00	1.220341e-05	
289	1.050000e+00	1.258147e-05	
290	1.100000e+00	1.293771e-05	
291	1.150000e+00	1.327213e-05	
292	1.200000e+00	1.358479e-05	
293	1.250000e+00	1.387570e-05	
294	1.300000e+00	1.414489e-05	
295	1.350000e+00	1.439240e-05	
296	1.400000e+00	1.461825e-05	
297	1.450000e+00	1.482250e-05	
298	1.500000e+00	1.500516e-05	
299	1.550000e+00	1.516630e-05	
300	1.600000e+00	1.530599e-05	
301	1.650000e+00	1.542434e-05	
302	1.700000e+00	1.552154e-05	
303	1.750000e+00	1.559800e-05	
304	1.800000e+00	1.565462e-05	
305	1.850000e+00	1.569339e-05	
306	1.900000e+00	1.571795e-05	
307	1.950000e+00	1.573307e-05	
308	2.000000e+00	1.574281e-05	
309	2.050000e+00	1.574961e-05	
310	2.100000e+00	1.575476e-05	
311	2.150000e+00	1.575891e-05	
312	2.200000e+00	1.576241e-05	
313	2.250000e+00	1.576544e-05	
314	2.300000e+00	1.576814e-05	
315	2.350000e+00	1.577059e-05	
316	2.400000e+00	1.577283e-05	
317	2.450000e+00	1.577492e-05	
318	2.500000e+00	1.577687e-05	
319	2.550000e+00	1.577871e-05	
320	2.600000e+00	1.578045e-05	
321	2.650000e+00	1.578212e-05	
322	2.700000e+00	1.578371e-05	
323	2.750000e+00	1.578524e-05	
324	2.800000e+00	1.578671e-05	
325	2.850000e+00	1.578814e-05	
326	2.900000e+00	1.578952e-05	
327	2.950000e+00	1.579086e-05	
328	3.000000e+00	1.579217e-05	
329	3.050000e+00	1.579344e-05	
330	3.100000e+00	1.579468e-05	
331	3.150000e+00	1.579590e-05	
332	3.200000e+00	1.579709e-05	
333	3.250000e+00	1.579826e-05	
334	3.300000e+00	1.579941e-05	
335	0.000000e+00	-2.19484e-21	
336	5.000000e-02	9.485785e-07	
337	1.000000e-01	1.868381e-06	
338	1.500000e-01	2.766046e-06	
339	2.000000e-01	3.643162e-06	
340	2.500000e-01	4.500126e-06	
341	3.000000e-01	5.337048e-06	
342	3.500000e-01	6.153975e-06	
343	4.000000e-01	6.950933e-06	
344	4.500000e-01	7.727948e-06	

Index   v-sweep         -i(vds)         
--------------------------------------------------------------------------------
345	5.000000e-01	8.485044e-06	
346	5.500000e-01	9.222245e-06	
347	6.000000e-01	9.939574e-06	
348	6.500000e-01	1.063705e-05	
349	7.000000e-01	1.131471e-05	
350	7.500000e-01	1.197256e-05	
351	8.000000e-01	1.261064e-05	
352	8.500000e-01	1.322896e-05	
353	9.000000e-01	1.382755e-05	
354	9.500000e-01	1.440643e-05	
355	1.000000e+00	1.496563e-05	
356	1.050000e+00	1.550517e-05	
357	1.100000e+00	1.602507e-05	
358	1.150000e+00	1.652536e-05	
359	1.200000e+00	1.700605e-05	
360	1.250000e+00	1.746718e-05	
361	1.300000e+00	1.790877e-05	
362	1.350000e+00	1.833083e-05	
363	1.400000e+00	1.873340e-05	
364	1.450000e+00	1.911650e-05	
365	1.500000e+00	1.948014e-05	
366	1.550000e+00	1.982436e-05	
367	1.600000e+00	2.014918e-05	
368	1.650000e+00	2.045462e-05	
369	1.700000e+00	2.074071e-05	
370	1.750000e+00	2.100747e-05	
371	1.800000e+00	2.125492e-05	
372	1.850000e+00	2.148311e-05	
373	1.900000e+00	2.169205e-05	
374	1.950000e+00	2.188177e-05	
375	2.000000e+00	2.205232e-05	
376	2.050000e+00	2.220375e-05	
377	2.100000e+00	2.233612e-05	
378	2.150000e+00	2.244954e-05	
379	2.200000e+00	2.254420e-05	
380	2.250000e+00	2.262046e-05	
381	2.300000e+00	2.267909e-05	
382	2.350000e+00	2.272163e-05	
383	2.400000e+00	2.275080e-05	
384	2.450000e+00	2.277030e-05	
385	2.500000e+00	2.278360e-05	
386	2.550000e+00	2.279320e-05	
387	2.600000e+00	2.280056e-05	
388	2.650000e+00	2.280650e-05	
389	2.700000e+00	2.281149e-05	
390	2.750000e+00	2.281581e-05	
391	2.800000e+00	2.281964e-05	
392	2.850000e+00	2.282308e-05	
393	2.900000e+00	2.282623e-05	
394	2.950000e+00	2.282914e-05	
395	3.000000e+00	2.283185e-05	
396	3.050000e+00	2.283440e-05	
397	3.100000e+00	2.283680e-05	
398	3.150000e+00	2.283909e-05	
399	3.200000e+00	2.284127e-05	
400	3.250000e+00	2.284335e-05	
401	3.300000e+00	2.284536e-05	
Note: No ".plot", ".print", or ".fourier" lines; no simulations run
