
Note: Compatibility modes selected: hs

Warning: m=xx on .subckt line will override multiplier m hierarchy!


Circuit: ***************************

Doing analysis at TEMP = 125.000000 and TNOM = 125.000000


No. of Data Rows : 402
                          ***************************
                          DC transfer characteristic  Mon Jan  9 13:58:12  2023
--------------------------------------------------------------------------------
Index   v-sweep         -i(vds)         
--------------------------------------------------------------------------------
0	0.000000e+00	-3.08756e-26	
1	5.000000e-02	5.015690e-06	
2	1.000000e-01	8.855463e-06	
3	1.500000e-01	1.158011e-05	
4	2.000000e-01	1.324749e-05	
5	2.500000e-01	1.401872e-05	
6	3.000000e-01	1.428515e-05	
7	3.500000e-01	1.439145e-05	
8	4.000000e-01	1.445243e-05	
9	4.500000e-01	1.449629e-05	
10	5.000000e-01	1.453170e-05	
11	5.500000e-01	1.456216e-05	
12	6.000000e-01	1.458938e-05	
13	6.500000e-01	1.461431e-05	
14	7.000000e-01	1.463753e-05	
15	7.500000e-01	1.465943e-05	
16	8.000000e-01	1.468028e-05	
17	8.500000e-01	1.470026e-05	
18	9.000000e-01	1.471953e-05	
19	9.500000e-01	1.473819e-05	
20	1.000000e+00	1.475633e-05	
21	1.050000e+00	1.477403e-05	
22	1.100000e+00	1.479132e-05	
23	1.150000e+00	1.480827e-05	
24	1.200000e+00	1.482491e-05	
25	1.250000e+00	1.484127e-05	
26	1.300000e+00	1.485739e-05	
27	1.350000e+00	1.487327e-05	
28	1.400000e+00	1.488896e-05	
29	1.450000e+00	1.490445e-05	
30	1.500000e+00	1.491977e-05	
31	1.550000e+00	1.493494e-05	
32	1.600000e+00	1.494997e-05	
33	1.650000e+00	1.496486e-05	
34	1.700000e+00	1.497964e-05	
35	1.750000e+00	1.499431e-05	
36	1.800000e+00	1.500889e-05	
37	1.850000e+00	1.502340e-05	
38	1.900000e+00	1.503784e-05	
39	1.950000e+00	1.505224e-05	
40	2.000000e+00	1.506662e-05	
41	2.050000e+00	1.508100e-05	
42	2.100000e+00	1.509541e-05	
43	2.150000e+00	1.510989e-05	
44	2.200000e+00	1.512447e-05	
45	2.250000e+00	1.513919e-05	
46	2.300000e+00	1.515410e-05	
47	2.350000e+00	1.516927e-05	
48	2.400000e+00	1.518474e-05	
49	2.450000e+00	1.520060e-05	
50	2.500000e+00	1.521692e-05	
51	2.550000e+00	1.523378e-05	
52	2.600000e+00	1.525128e-05	
53	2.650000e+00	1.526952e-05	
54	2.700000e+00	1.528861e-05	

Index   v-sweep         -i(vds)         
--------------------------------------------------------------------------------
55	2.750000e+00	1.530868e-05	
56	2.800000e+00	1.532986e-05	
57	2.850000e+00	1.535228e-05	
58	2.900000e+00	1.537610e-05	
59	2.950000e+00	1.540148e-05	
60	3.000000e+00	1.542858e-05	
61	3.050000e+00	1.545760e-05	
62	3.100000e+00	1.548871e-05	
63	3.150000e+00	1.552213e-05	
64	3.200000e+00	1.555805e-05	
65	3.250000e+00	1.559671e-05	
66	3.300000e+00	1.563833e-05	
67	0.000000e+00	-2.27473e-25	
68	5.000000e-02	1.597385e-05	
69	1.000000e-01	3.056577e-05	
70	1.500000e-01	4.382953e-05	
71	2.000000e-01	5.579374e-05	
72	2.500000e-01	6.648075e-05	
73	3.000000e-01	7.591124e-05	
74	3.500000e-01	8.410542e-05	
75	4.000000e-01	9.108359e-05	
76	4.500000e-01	9.686701e-05	
77	5.000000e-01	1.014801e-04	
78	5.500000e-01	1.049580e-04	
79	6.000000e-01	1.073707e-04	
80	6.500000e-01	1.088796e-04	
81	7.000000e-01	1.097644e-04	
82	7.500000e-01	1.103039e-04	
83	8.000000e-01	1.106678e-04	
84	8.500000e-01	1.109377e-04	
85	9.000000e-01	1.111522e-04	
86	9.500000e-01	1.113313e-04	
87	1.000000e+00	1.114861e-04	
88	1.050000e+00	1.116232e-04	
89	1.100000e+00	1.117470e-04	
90	1.150000e+00	1.118604e-04	
91	1.200000e+00	1.119655e-04	
92	1.250000e+00	1.120639e-04	
93	1.300000e+00	1.121566e-04	
94	1.350000e+00	1.122445e-04	
95	1.400000e+00	1.123283e-04	
96	1.450000e+00	1.124086e-04	
97	1.500000e+00	1.124858e-04	
98	1.550000e+00	1.125603e-04	
99	1.600000e+00	1.126323e-04	
100	1.650000e+00	1.127022e-04	
101	1.700000e+00	1.127702e-04	
102	1.750000e+00	1.128364e-04	
103	1.800000e+00	1.129010e-04	
104	1.850000e+00	1.129642e-04	
105	1.900000e+00	1.130260e-04	
106	1.950000e+00	1.130867e-04	
107	2.000000e+00	1.131462e-04	
108	2.050000e+00	1.132048e-04	
109	2.100000e+00	1.132624e-04	
110	2.150000e+00	1.133193e-04	
111	2.200000e+00	1.133754e-04	
112	2.250000e+00	1.134310e-04	

Index   v-sweep         -i(vds)         
--------------------------------------------------------------------------------
113	2.300000e+00	1.134861e-04	
114	2.350000e+00	1.135408e-04	
115	2.400000e+00	1.135955e-04	
116	2.450000e+00	1.136502e-04	
117	2.500000e+00	1.137051e-04	
118	2.550000e+00	1.137606e-04	
119	2.600000e+00	1.138168e-04	
120	2.650000e+00	1.138742e-04	
121	2.700000e+00	1.139332e-04	
122	2.750000e+00	1.139940e-04	
123	2.800000e+00	1.140573e-04	
124	2.850000e+00	1.141235e-04	
125	2.900000e+00	1.141932e-04	
126	2.950000e+00	1.142672e-04	
127	3.000000e+00	1.143460e-04	
128	3.050000e+00	1.144305e-04	
129	3.100000e+00	1.145216e-04	
130	3.150000e+00	1.146201e-04	
131	3.200000e+00	1.147270e-04	
132	3.250000e+00	1.148434e-04	
133	3.300000e+00	1.149704e-04	
134	0.000000e+00	-4.89864e-25	
135	5.000000e-02	2.526807e-05	
136	1.000000e-01	4.915302e-05	
137	1.500000e-01	7.170609e-05	
138	2.000000e-01	9.295368e-05	
139	2.500000e-01	1.129160e-04	
140	3.000000e-01	1.316116e-04	
141	3.500000e-01	1.490581e-04	
142	4.000000e-01	1.652732e-04	
143	4.500000e-01	1.802739e-04	
144	5.000000e-01	1.940771e-04	
145	5.500000e-01	2.066991e-04	
146	6.000000e-01	2.181563e-04	
147	6.500000e-01	2.284645e-04	
148	7.000000e-01	2.376390e-04	
149	7.500000e-01	2.456949e-04	
150	8.000000e-01	2.526467e-04	
151	8.500000e-01	2.585088e-04	
152	9.000000e-01	2.632979e-04	
153	9.500000e-01	2.670423e-04	
154	1.000000e+00	2.698094e-04	
155	1.050000e+00	2.717482e-04	
156	1.100000e+00	2.730813e-04	
157	1.150000e+00	2.740233e-04	
158	1.200000e+00	2.747236e-04	
159	1.250000e+00	2.752717e-04	
160	1.300000e+00	2.757196e-04	
161	1.350000e+00	2.760980e-04	
162	1.400000e+00	2.764263e-04	
163	1.450000e+00	2.767169e-04	
164	1.500000e+00	2.769783e-04	
165	1.550000e+00	2.772167e-04	
166	1.600000e+00	2.774362e-04	
167	1.650000e+00	2.776402e-04	
168	1.700000e+00	2.778313e-04	
169	1.750000e+00	2.780112e-04	
170	1.800000e+00	2.781817e-04	

Index   v-sweep         -i(vds)         
--------------------------------------------------------------------------------
171	1.850000e+00	2.783439e-04	
172	1.900000e+00	2.784988e-04	
173	1.950000e+00	2.786474e-04	
174	2.000000e+00	2.787903e-04	
175	2.050000e+00	2.789281e-04	
176	2.100000e+00	2.790613e-04	
177	2.150000e+00	2.791903e-04	
178	2.200000e+00	2.793156e-04	
179	2.250000e+00	2.794375e-04	
180	2.300000e+00	2.795563e-04	
181	2.350000e+00	2.796722e-04	
182	2.400000e+00	2.797855e-04	
183	2.450000e+00	2.798965e-04	
184	2.500000e+00	2.800054e-04	
185	2.550000e+00	2.801125e-04	
186	2.600000e+00	2.802180e-04	
187	2.650000e+00	2.803222e-04	
188	2.700000e+00	2.804255e-04	
189	2.750000e+00	2.805283e-04	
190	2.800000e+00	2.806309e-04	
191	2.850000e+00	2.807340e-04	
192	2.900000e+00	2.808381e-04	
193	2.950000e+00	2.809438e-04	
194	3.000000e+00	2.810520e-04	
195	3.050000e+00	2.811635e-04	
196	3.100000e+00	2.812793e-04	
197	3.150000e+00	2.814005e-04	
198	3.200000e+00	2.815285e-04	
199	3.250000e+00	2.816645e-04	
200	3.300000e+00	2.818101e-04	
201	0.000000e+00	8.321787e-25	
202	5.000000e-02	3.283661e-05	
203	1.000000e-01	6.433827e-05	
204	1.500000e-01	9.455351e-05	
205	2.000000e-01	1.235064e-04	
206	2.500000e-01	1.512148e-04	
207	3.000000e-01	1.776951e-04	
208	3.500000e-01	2.029629e-04	
209	4.000000e-01	2.270335e-04	
210	4.500000e-01	2.499222e-04	
211	5.000000e-01	2.716438e-04	
212	5.500000e-01	2.922129e-04	
213	6.000000e-01	3.116440e-04	
214	6.500000e-01	3.299511e-04	
215	7.000000e-01	3.471483e-04	
216	7.500000e-01	3.632492e-04	
217	8.000000e-01	3.782672e-04	
218	8.500000e-01	3.922153e-04	
219	9.000000e-01	4.051061e-04	
220	9.500000e-01	4.169519e-04	
221	1.000000e+00	4.277642e-04	
222	1.050000e+00	4.375535e-04	
223	1.100000e+00	4.463288e-04	
224	1.150000e+00	4.540972e-04	
225	1.200000e+00	4.608620e-04	
226	1.250000e+00	4.666236e-04	
227	1.300000e+00	4.713829e-04	
228	1.350000e+00	4.751614e-04	

Index   v-sweep         -i(vds)         
--------------------------------------------------------------------------------
229	1.400000e+00	4.780384e-04	
230	1.450000e+00	4.801720e-04	
231	1.500000e+00	4.817580e-04	
232	1.550000e+00	4.829676e-04	
233	1.600000e+00	4.839224e-04	
234	1.650000e+00	4.847021e-04	
235	1.700000e+00	4.853576e-04	
236	1.750000e+00	4.859221e-04	
237	1.800000e+00	4.864179e-04	
238	1.850000e+00	4.868604e-04	
239	1.900000e+00	4.872605e-04	
240	1.950000e+00	4.876263e-04	
241	2.000000e+00	4.879638e-04	
242	2.050000e+00	4.882775e-04	
243	2.100000e+00	4.885712e-04	
244	2.150000e+00	4.888475e-04	
245	2.200000e+00	4.891089e-04	
246	2.250000e+00	4.893572e-04	
247	2.300000e+00	4.895940e-04	
248	2.350000e+00	4.898205e-04	
249	2.400000e+00	4.900379e-04	
250	2.450000e+00	4.902471e-04	
251	2.500000e+00	4.904489e-04	
252	2.550000e+00	4.906439e-04	
253	2.600000e+00	4.908329e-04	
254	2.650000e+00	4.910162e-04	
255	2.700000e+00	4.911946e-04	
256	2.750000e+00	4.913683e-04	
257	2.800000e+00	4.915378e-04	
258	2.850000e+00	4.917036e-04	
259	2.900000e+00	4.918661e-04	
260	2.950000e+00	4.920258e-04	
261	3.000000e+00	4.921832e-04	
262	3.050000e+00	4.923389e-04	
263	3.100000e+00	4.924935e-04	
264	3.150000e+00	4.926479e-04	
265	3.200000e+00	4.928028e-04	
266	3.250000e+00	4.929593e-04	
267	3.300000e+00	4.931185e-04	
268	0.000000e+00	1.145395e-24	
269	5.000000e-02	3.887220e-05	
270	1.000000e-01	7.647944e-05	
271	1.500000e-01	1.128677e-04	
272	2.000000e-01	1.480587e-04	
273	2.500000e-01	1.820682e-04	
274	3.000000e-01	2.149103e-04	
275	3.500000e-01	2.465985e-04	
276	4.000000e-01	2.771463e-04	
277	4.500000e-01	3.065666e-04	
278	5.000000e-01	3.348725e-04	
279	5.500000e-01	3.620768e-04	
280	6.000000e-01	3.881919e-04	
281	6.500000e-01	4.132303e-04	
282	7.000000e-01	4.372043e-04	
283	7.500000e-01	4.601258e-04	
284	8.000000e-01	4.820069e-04	
285	8.500000e-01	5.028591e-04	
286	9.000000e-01	5.226939e-04	

Index   v-sweep         -i(vds)         
--------------------------------------------------------------------------------
287	9.500000e-01	5.415228e-04	
288	1.000000e+00	5.593568e-04	
289	1.050000e+00	5.762066e-04	
290	1.100000e+00	5.920831e-04	
291	1.150000e+00	6.069963e-04	
292	1.200000e+00	6.209561e-04	
293	1.250000e+00	6.339720e-04	
294	1.300000e+00	6.460523e-04	
295	1.350000e+00	6.572045e-04	
296	1.400000e+00	6.674345e-04	
297	1.450000e+00	6.767454e-04	
298	1.500000e+00	6.851362e-04	
299	1.550000e+00	6.926002e-04	
300	1.600000e+00	6.991229e-04	
301	1.650000e+00	7.046854e-04	
302	1.700000e+00	7.092805e-04	
303	1.750000e+00	7.129470e-04	
304	1.800000e+00	7.157977e-04	
305	1.850000e+00	7.179994e-04	
306	1.900000e+00	7.197213e-04	
307	1.950000e+00	7.210998e-04	
308	2.000000e+00	7.222325e-04	
309	2.050000e+00	7.231865e-04	
310	2.100000e+00	7.240072e-04	
311	2.150000e+00	7.247262e-04	
312	2.200000e+00	7.253658e-04	
313	2.250000e+00	7.259419e-04	
314	2.300000e+00	7.264666e-04	
315	2.350000e+00	7.269487e-04	
316	2.400000e+00	7.273951e-04	
317	2.450000e+00	7.278113e-04	
318	2.500000e+00	7.282016e-04	
319	2.550000e+00	7.285694e-04	
320	2.600000e+00	7.289175e-04	
321	2.650000e+00	7.292483e-04	
322	2.700000e+00	7.295638e-04	
323	2.750000e+00	7.298656e-04	
324	2.800000e+00	7.301551e-04	
325	2.850000e+00	7.304335e-04	
326	2.900000e+00	7.307019e-04	
327	2.950000e+00	7.309612e-04	
328	3.000000e+00	7.312121e-04	
329	3.050000e+00	7.314555e-04	
330	3.100000e+00	7.316920e-04	
331	3.150000e+00	7.319223e-04	
332	3.200000e+00	7.321471e-04	
333	3.250000e+00	7.323669e-04	
334	3.300000e+00	7.325825e-04	
335	0.000000e+00	-3.49582e-25	
336	5.000000e-02	4.359500e-05	
337	1.000000e-01	8.600489e-05	
338	1.500000e-01	1.272734e-04	
339	2.000000e-01	1.674201e-04	
340	2.500000e-01	2.064588e-04	
341	3.000000e-01	2.444016e-04	
342	3.500000e-01	2.812600e-04	
343	4.000000e-01	3.170457e-04	
344	4.500000e-01	3.517697e-04	

Index   v-sweep         -i(vds)         
--------------------------------------------------------------------------------
345	5.000000e-01	3.854433e-04	
346	5.500000e-01	4.180773e-04	
347	6.000000e-01	4.496828e-04	
348	6.500000e-01	4.802703e-04	
349	7.000000e-01	5.098505e-04	
350	7.500000e-01	5.384338e-04	
351	8.000000e-01	5.660306e-04	
352	8.500000e-01	5.926510e-04	
353	9.000000e-01	6.183051e-04	
354	9.500000e-01	6.430029e-04	
355	1.000000e+00	6.667541e-04	
356	1.050000e+00	6.895684e-04	
357	1.100000e+00	7.114553e-04	
358	1.150000e+00	7.324242e-04	
359	1.200000e+00	7.524844e-04	
360	1.250000e+00	7.716448e-04	
361	1.300000e+00	7.899143e-04	
362	1.350000e+00	8.073016e-04	
363	1.400000e+00	8.238150e-04	
364	1.450000e+00	8.394628e-04	
365	1.500000e+00	8.542525e-04	
366	1.550000e+00	8.681913e-04	
367	1.600000e+00	8.812857e-04	
368	1.650000e+00	8.935410e-04	
369	1.700000e+00	9.049611e-04	
370	1.750000e+00	9.155475e-04	
371	1.800000e+00	9.252981e-04	
372	1.850000e+00	9.342053e-04	
373	1.900000e+00	9.422535e-04	
374	1.950000e+00	9.494174e-04	
375	2.000000e+00	9.556639e-04	
376	2.050000e+00	9.609664e-04	
377	2.100000e+00	9.653354e-04	
378	2.150000e+00	9.688474e-04	
379	2.200000e+00	9.716398e-04	
380	2.250000e+00	9.738703e-04	
381	2.300000e+00	9.756797e-04	
382	2.350000e+00	9.771773e-04	
383	2.400000e+00	9.784427e-04	
384	2.450000e+00	9.795323e-04	
385	2.500000e+00	9.804861e-04	
386	2.550000e+00	9.813332e-04	
387	2.600000e+00	9.820947e-04	
388	2.650000e+00	9.827864e-04	
389	2.700000e+00	9.834204e-04	
390	2.750000e+00	9.840059e-04	
391	2.800000e+00	9.845504e-04	
392	2.850000e+00	9.850595e-04	
393	2.900000e+00	9.855381e-04	
394	2.950000e+00	9.859900e-04	
395	3.000000e+00	9.864184e-04	
396	3.050000e+00	9.868259e-04	
397	3.100000e+00	9.872149e-04	
398	3.150000e+00	9.875871e-04	
399	3.200000e+00	9.879444e-04	
400	3.250000e+00	9.882880e-04	
401	3.300000e+00	9.886193e-04	
Note: No ".plot", ".print", or ".fourier" lines; no simulations run
