
Note: Compatibility modes selected: hs

Warning: m=xx on .subckt line will override multiplier m hierarchy!


Circuit: ***************************

Doing analysis at TEMP = 125.000000 and TNOM = 125.000000


No. of Data Rows : 402
                          ***************************
                          DC transfer characteristic  Mon Jan  9 13:58:12  2023
--------------------------------------------------------------------------------
Index   v-sweep         -i(vds)         
--------------------------------------------------------------------------------
0	0.000000e+00	2.078770e-24	
1	5.000000e-02	3.017448e-08	
2	1.000000e-01	5.254523e-08	
3	1.500000e-01	6.859454e-08	
4	2.000000e-01	7.872724e-08	
5	2.500000e-01	8.338791e-08	
6	3.000000e-01	8.451885e-08	
7	3.500000e-01	8.474278e-08	
8	4.000000e-01	8.482911e-08	
9	4.500000e-01	8.488315e-08	
10	5.000000e-01	8.492518e-08	
11	5.500000e-01	8.496130e-08	
12	6.000000e-01	8.499392e-08	
13	6.500000e-01	8.502425e-08	
14	7.000000e-01	8.505295e-08	
15	7.500000e-01	8.508041e-08	
16	8.000000e-01	8.510691e-08	
17	8.500000e-01	8.513265e-08	
18	9.000000e-01	8.515774e-08	
19	9.500000e-01	8.518230e-08	
20	1.000000e+00	8.520641e-08	
21	1.050000e+00	8.523012e-08	
22	1.100000e+00	8.525349e-08	
23	1.150000e+00	8.527656e-08	
24	1.200000e+00	8.529935e-08	
25	1.250000e+00	8.532191e-08	
26	1.300000e+00	8.534425e-08	
27	1.350000e+00	8.536640e-08	
28	1.400000e+00	8.538837e-08	
29	1.450000e+00	8.541017e-08	
30	1.500000e+00	8.543183e-08	
31	1.550000e+00	8.545336e-08	
32	1.600000e+00	8.547476e-08	
33	1.650000e+00	8.549605e-08	
34	1.700000e+00	8.551724e-08	
35	1.750000e+00	8.553835e-08	
36	1.800000e+00	8.555939e-08	
37	1.850000e+00	8.558039e-08	
38	1.900000e+00	8.560138e-08	
39	1.950000e+00	8.562239e-08	
40	2.000000e+00	8.564347e-08	
41	2.050000e+00	8.566467e-08	
42	2.100000e+00	8.568608e-08	
43	2.150000e+00	8.570777e-08	
44	2.200000e+00	8.572988e-08	
45	2.250000e+00	8.575253e-08	
46	2.300000e+00	8.577589e-08	
47	2.350000e+00	8.580016e-08	
48	2.400000e+00	8.582557e-08	
49	2.450000e+00	8.585238e-08	
50	2.500000e+00	8.588090e-08	
51	2.550000e+00	8.591148e-08	
52	2.600000e+00	8.594453e-08	
53	2.650000e+00	8.598048e-08	
54	2.700000e+00	8.601982e-08	

Index   v-sweep         -i(vds)         
--------------------------------------------------------------------------------
55	2.750000e+00	8.606312e-08	
56	2.800000e+00	8.611096e-08	
57	2.850000e+00	8.616401e-08	
58	2.900000e+00	8.622298e-08	
59	2.950000e+00	8.628864e-08	
60	3.000000e+00	8.636183e-08	
61	3.050000e+00	8.644342e-08	
62	3.100000e+00	8.653436e-08	
63	3.150000e+00	8.663566e-08	
64	3.200000e+00	8.674838e-08	
65	3.250000e+00	8.687362e-08	
66	3.300000e+00	8.701256e-08	
67	0.000000e+00	-2.93788e-23	
68	5.000000e-02	7.768518e-08	
69	1.000000e-01	1.472146e-07	
70	1.500000e-01	2.100589e-07	
71	2.000000e-01	2.665744e-07	
72	2.500000e-01	3.168537e-07	
73	3.000000e-01	3.609277e-07	
74	3.500000e-01	3.988134e-07	
75	4.000000e-01	4.305269e-07	
76	4.500000e-01	4.560893e-07	
77	5.000000e-01	4.755390e-07	
78	5.500000e-01	4.889789e-07	
79	6.000000e-01	4.967786e-07	
80	6.500000e-01	5.001913e-07	
81	7.000000e-01	5.014170e-07	
82	7.500000e-01	5.019396e-07	
83	8.000000e-01	5.022411e-07	
84	8.500000e-01	5.024550e-07	
85	9.000000e-01	5.026254e-07	
86	9.500000e-01	5.027705e-07	
87	1.000000e+00	5.028991e-07	
88	1.050000e+00	5.030162e-07	
89	1.100000e+00	5.031248e-07	
90	1.150000e+00	5.032267e-07	
91	1.200000e+00	5.033234e-07	
92	1.250000e+00	5.034157e-07	
93	1.300000e+00	5.035044e-07	
94	1.350000e+00	5.035901e-07	
95	1.400000e+00	5.036732e-07	
96	1.450000e+00	5.037540e-07	
97	1.500000e+00	5.038328e-07	
98	1.550000e+00	5.039099e-07	
99	1.600000e+00	5.039854e-07	
100	1.650000e+00	5.040594e-07	
101	1.700000e+00	5.041322e-07	
102	1.750000e+00	5.042039e-07	
103	1.800000e+00	5.042745e-07	
104	1.850000e+00	5.043441e-07	
105	1.900000e+00	5.044129e-07	
106	1.950000e+00	5.044809e-07	
107	2.000000e+00	5.045481e-07	
108	2.050000e+00	5.046147e-07	
109	2.100000e+00	5.046808e-07	
110	2.150000e+00	5.047464e-07	
111	2.200000e+00	5.048116e-07	
112	2.250000e+00	5.048768e-07	

Index   v-sweep         -i(vds)         
--------------------------------------------------------------------------------
113	2.300000e+00	5.049419e-07	
114	2.350000e+00	5.050073e-07	
115	2.400000e+00	5.050734e-07	
116	2.450000e+00	5.051405e-07	
117	2.500000e+00	5.052091e-07	
118	2.550000e+00	5.052800e-07	
119	2.600000e+00	5.053538e-07	
120	2.650000e+00	5.054315e-07	
121	2.700000e+00	5.055143e-07	
122	2.750000e+00	5.056034e-07	
123	2.800000e+00	5.057005e-07	
124	2.850000e+00	5.058072e-07	
125	2.900000e+00	5.059256e-07	
126	2.950000e+00	5.060580e-07	
127	3.000000e+00	5.062070e-07	
128	3.050000e+00	5.063755e-07	
129	3.100000e+00	5.065667e-07	
130	3.150000e+00	5.067841e-07	
131	3.200000e+00	5.070315e-07	
132	3.250000e+00	5.073132e-07	
133	3.300000e+00	5.076337e-07	
134	0.000000e+00	6.995963e-22	
135	5.000000e-02	1.212131e-07	
136	1.000000e-01	2.345548e-07	
137	1.500000e-01	3.414938e-07	
138	2.000000e-01	4.423848e-07	
139	2.500000e-01	5.373192e-07	
140	3.000000e-01	6.263259e-07	
141	3.500000e-01	7.094191e-07	
142	4.000000e-01	7.866095e-07	
143	4.500000e-01	8.579072e-07	
144	5.000000e-01	9.233221e-07	
145	5.500000e-01	9.828643e-07	
146	6.000000e-01	1.036544e-06	
147	6.500000e-01	1.084372e-06	
148	7.000000e-01	1.126361e-06	
149	7.500000e-01	1.162524e-06	
150	8.000000e-01	1.192880e-06	
151	8.500000e-01	1.217461e-06	
152	9.000000e-01	1.236329e-06	
153	9.500000e-01	1.249644e-06	
154	1.000000e+00	1.257870e-06	
155	1.050000e+00	1.262150e-06	
156	1.100000e+00	1.264187e-06	
157	1.150000e+00	1.265256e-06	
158	1.200000e+00	1.265926e-06	
159	1.250000e+00	1.266412e-06	
160	1.300000e+00	1.266797e-06	
161	1.350000e+00	1.267121e-06	
162	1.400000e+00	1.267404e-06	
163	1.450000e+00	1.267658e-06	
164	1.500000e+00	1.267890e-06	
165	1.550000e+00	1.268105e-06	
166	1.600000e+00	1.268307e-06	
167	1.650000e+00	1.268498e-06	
168	1.700000e+00	1.268680e-06	
169	1.750000e+00	1.268854e-06	
170	1.800000e+00	1.269021e-06	

Index   v-sweep         -i(vds)         
--------------------------------------------------------------------------------
171	1.850000e+00	1.269182e-06	
172	1.900000e+00	1.269338e-06	
173	1.950000e+00	1.269490e-06	
174	2.000000e+00	1.269637e-06	
175	2.050000e+00	1.269781e-06	
176	2.100000e+00	1.269922e-06	
177	2.150000e+00	1.270059e-06	
178	2.200000e+00	1.270194e-06	
179	2.250000e+00	1.270327e-06	
180	2.300000e+00	1.270457e-06	
181	2.350000e+00	1.270586e-06	
182	2.400000e+00	1.270712e-06	
183	2.450000e+00	1.270837e-06	
184	2.500000e+00	1.270960e-06	
185	2.550000e+00	1.271083e-06	
186	2.600000e+00	1.271204e-06	
187	2.650000e+00	1.271325e-06	
188	2.700000e+00	1.271446e-06	
189	2.750000e+00	1.271568e-06	
190	2.800000e+00	1.271691e-06	
191	2.850000e+00	1.271818e-06	
192	2.900000e+00	1.271948e-06	
193	2.950000e+00	1.272084e-06	
194	3.000000e+00	1.272227e-06	
195	3.050000e+00	1.272381e-06	
196	3.100000e+00	1.272547e-06	
197	3.150000e+00	1.272730e-06	
198	3.200000e+00	1.272932e-06	
199	3.250000e+00	1.273160e-06	
200	3.300000e+00	1.273417e-06	
201	0.000000e+00	-5.20916e-22	
202	5.000000e-02	1.593311e-07	
203	1.000000e-01	3.112204e-07	
204	1.500000e-01	4.571343e-07	
205	2.000000e-01	5.974265e-07	
206	2.500000e-01	7.321871e-07	
207	3.000000e-01	8.614441e-07	
208	3.500000e-01	9.852104e-07	
209	4.000000e-01	1.103496e-06	
210	4.500000e-01	1.216308e-06	
211	5.000000e-01	1.323657e-06	
212	5.500000e-01	1.425551e-06	
213	6.000000e-01	1.521998e-06	
214	6.500000e-01	1.613007e-06	
215	7.000000e-01	1.698585e-06	
216	7.500000e-01	1.778743e-06	
217	8.000000e-01	1.853487e-06	
218	8.500000e-01	1.922828e-06	
219	9.000000e-01	1.986773e-06	
220	9.500000e-01	2.045332e-06	
221	1.000000e+00	2.098514e-06	
222	1.050000e+00	2.146329e-06	
223	1.100000e+00	2.188788e-06	
224	1.150000e+00	2.225905e-06	
225	1.200000e+00	2.257697e-06	
226	1.250000e+00	2.284193e-06	
227	1.300000e+00	2.305443e-06	
228	1.350000e+00	2.321559e-06	

Index   v-sweep         -i(vds)         
--------------------------------------------------------------------------------
229	1.400000e+00	2.332818e-06	
230	1.450000e+00	2.339871e-06	
231	1.500000e+00	2.343888e-06	
232	1.550000e+00	2.346170e-06	
233	1.600000e+00	2.347592e-06	
234	1.650000e+00	2.348587e-06	
235	1.700000e+00	2.349349e-06	
236	1.750000e+00	2.349971e-06	
237	1.800000e+00	2.350501e-06	
238	1.850000e+00	2.350966e-06	
239	1.900000e+00	2.351384e-06	
240	1.950000e+00	2.351766e-06	
241	2.000000e+00	2.352119e-06	
242	2.050000e+00	2.352449e-06	
243	2.100000e+00	2.352759e-06	
244	2.150000e+00	2.353054e-06	
245	2.200000e+00	2.353334e-06	
246	2.250000e+00	2.353603e-06	
247	2.300000e+00	2.353861e-06	
248	2.350000e+00	2.354110e-06	
249	2.400000e+00	2.354351e-06	
250	2.450000e+00	2.354585e-06	
251	2.500000e+00	2.354812e-06	
252	2.550000e+00	2.355034e-06	
253	2.600000e+00	2.355250e-06	
254	2.650000e+00	2.355461e-06	
255	2.700000e+00	2.355668e-06	
256	2.750000e+00	2.355871e-06	
257	2.800000e+00	2.356070e-06	
258	2.850000e+00	2.356266e-06	
259	2.900000e+00	2.356459e-06	
260	2.950000e+00	2.356649e-06	
261	3.000000e+00	2.356838e-06	
262	3.050000e+00	2.357025e-06	
263	3.100000e+00	2.357212e-06	
264	3.150000e+00	2.357400e-06	
265	3.200000e+00	2.357590e-06	
266	3.250000e+00	2.357783e-06	
267	3.300000e+00	2.357982e-06	
268	0.000000e+00	6.391094e-22	
269	5.000000e-02	1.916389e-07	
270	1.000000e-01	3.763149e-07	
271	1.500000e-01	5.554923e-07	
272	2.000000e-01	7.295238e-07	
273	2.500000e-01	8.984983e-07	
274	3.000000e-01	1.062443e-06	
275	3.500000e-01	1.221369e-06	
276	4.000000e-01	1.375285e-06	
277	4.500000e-01	1.524199e-06	
278	5.000000e-01	1.668118e-06	
279	5.500000e-01	1.807050e-06	
280	6.000000e-01	1.941001e-06	
281	6.500000e-01	2.069980e-06	
282	7.000000e-01	2.193994e-06	
283	7.500000e-01	2.313049e-06	
284	8.000000e-01	2.427154e-06	
285	8.500000e-01	2.536315e-06	
286	9.000000e-01	2.640539e-06	

Index   v-sweep         -i(vds)         
--------------------------------------------------------------------------------
287	9.500000e-01	2.739835e-06	
288	1.000000e+00	2.834209e-06	
289	1.050000e+00	2.923669e-06	
290	1.100000e+00	3.008221e-06	
291	1.150000e+00	3.087874e-06	
292	1.200000e+00	3.162635e-06	
293	1.250000e+00	3.232511e-06	
294	1.300000e+00	3.297509e-06	
295	1.350000e+00	3.357638e-06	
296	1.400000e+00	3.412906e-06	
297	1.450000e+00	3.463320e-06	
298	1.500000e+00	3.508890e-06	
299	1.550000e+00	3.549627e-06	
300	1.600000e+00	3.585543e-06	
301	1.650000e+00	3.616655e-06	
302	1.700000e+00	3.642989e-06	
303	1.750000e+00	3.664595e-06	
304	1.800000e+00	3.681567e-06	
305	1.850000e+00	3.694124e-06	
306	1.900000e+00	3.702733e-06	
307	1.950000e+00	3.708233e-06	
308	2.000000e+00	3.711675e-06	
309	2.050000e+00	3.713933e-06	
310	2.100000e+00	3.715535e-06	
311	2.150000e+00	3.716759e-06	
312	2.200000e+00	3.717750e-06	
313	2.250000e+00	3.718586e-06	
314	2.300000e+00	3.719313e-06	
315	2.350000e+00	3.719960e-06	
316	2.400000e+00	3.720546e-06	
317	2.450000e+00	3.721084e-06	
318	2.500000e+00	3.721582e-06	
319	2.550000e+00	3.722049e-06	
320	2.600000e+00	3.722488e-06	
321	2.650000e+00	3.722904e-06	
322	2.700000e+00	3.723301e-06	
323	2.750000e+00	3.723680e-06	
324	2.800000e+00	3.724045e-06	
325	2.850000e+00	3.724396e-06	
326	2.900000e+00	3.724735e-06	
327	2.950000e+00	3.725063e-06	
328	3.000000e+00	3.725382e-06	
329	3.050000e+00	3.725692e-06	
330	3.100000e+00	3.725994e-06	
331	3.150000e+00	3.726289e-06	
332	3.200000e+00	3.726578e-06	
333	3.250000e+00	3.726860e-06	
334	3.300000e+00	3.727137e-06	
335	0.000000e+00	-1.29229e-21	
336	5.000000e-02	2.182037e-07	
337	1.000000e-01	4.299328e-07	
338	1.500000e-01	6.366502e-07	
339	2.000000e-01	8.387071e-07	
340	2.500000e-01	1.036191e-06	
341	3.000000e-01	1.229129e-06	
342	3.500000e-01	1.417531e-06	
343	4.000000e-01	1.601404e-06	
344	4.500000e-01	1.780755e-06	

Index   v-sweep         -i(vds)         
--------------------------------------------------------------------------------
345	5.000000e-01	1.955591e-06	
346	5.500000e-01	2.125918e-06	
347	6.000000e-01	2.291741e-06	
348	6.500000e-01	2.453068e-06	
349	7.000000e-01	2.609904e-06	
350	7.500000e-01	2.762256e-06	
351	8.000000e-01	2.910130e-06	
352	8.500000e-01	3.053532e-06	
353	9.000000e-01	3.192469e-06	
354	9.500000e-01	3.326946e-06	
355	1.000000e+00	3.456970e-06	
356	1.050000e+00	3.582548e-06	
357	1.100000e+00	3.703684e-06	
358	1.150000e+00	3.820386e-06	
359	1.200000e+00	3.932660e-06	
360	1.250000e+00	4.040512e-06	
361	1.300000e+00	4.143947e-06	
362	1.350000e+00	4.242973e-06	
363	1.400000e+00	4.337596e-06	
364	1.450000e+00	4.427820e-06	
365	1.500000e+00	4.513654e-06	
366	1.550000e+00	4.595103e-06	
367	1.600000e+00	4.672172e-06	
368	1.650000e+00	4.744870e-06	
369	1.700000e+00	4.813201e-06	
370	1.750000e+00	4.877172e-06	
371	1.800000e+00	4.936790e-06	
372	1.850000e+00	4.992062e-06	
373	1.900000e+00	5.042993e-06	
374	1.950000e+00	5.089593e-06	
375	2.000000e+00	5.131869e-06	
376	2.050000e+00	5.169831e-06	
377	2.100000e+00	5.203490e-06	
378	2.150000e+00	5.232865e-06	
379	2.200000e+00	5.257979e-06	
380	2.250000e+00	5.278881e-06	
381	2.300000e+00	5.295662e-06	
382	2.350000e+00	5.308510e-06	
383	2.400000e+00	5.317807e-06	
384	2.450000e+00	5.324202e-06	
385	2.500000e+00	5.328524e-06	
386	2.550000e+00	5.331525e-06	
387	2.600000e+00	5.333726e-06	
388	2.650000e+00	5.335433e-06	
389	2.700000e+00	5.336822e-06	
390	2.750000e+00	5.337995e-06	
391	2.800000e+00	5.339013e-06	
392	2.850000e+00	5.339916e-06	
393	2.900000e+00	5.340731e-06	
394	2.950000e+00	5.341476e-06	
395	3.000000e+00	5.342164e-06	
396	3.050000e+00	5.342805e-06	
397	3.100000e+00	5.343407e-06	
398	3.150000e+00	5.343976e-06	
399	3.200000e+00	5.344516e-06	
400	3.250000e+00	5.345031e-06	
401	3.300000e+00	5.345524e-06	
Note: No ".plot", ".print", or ".fourier" lines; no simulations run
