
Note: Compatibility modes selected: hs

Warning: m=xx on .subckt line will override multiplier m hierarchy!


Circuit: ***************************

Doing analysis at TEMP = 125.000000 and TNOM = 125.000000


No. of Data Rows : 402
                          ***************************
                          DC transfer characteristic  Mon Jan  9 13:58:12  2023
--------------------------------------------------------------------------------
Index   v-sweep         -i(vds)         
--------------------------------------------------------------------------------
0	0.000000e+00	1.227779e-27	
1	5.000000e-02	9.237905e-07	
2	1.000000e-01	1.660864e-06	
3	1.500000e-01	2.225641e-06	
4	2.000000e-01	2.634565e-06	
5	2.500000e-01	2.911986e-06	
6	3.000000e-01	3.094239e-06	
7	3.500000e-01	3.220452e-06	
8	4.000000e-01	3.317513e-06	
9	4.500000e-01	3.399021e-06	
10	5.000000e-01	3.471376e-06	
11	5.500000e-01	3.537809e-06	
12	6.000000e-01	3.600123e-06	
13	6.500000e-01	3.659420e-06	
14	7.000000e-01	3.716424e-06	
15	7.500000e-01	3.771635e-06	
16	8.000000e-01	3.825414e-06	
17	8.500000e-01	3.878033e-06	
18	9.000000e-01	3.929697e-06	
19	9.500000e-01	3.980568e-06	
20	1.000000e+00	4.030778e-06	
21	1.050000e+00	4.080429e-06	
22	1.100000e+00	4.129610e-06	
23	1.150000e+00	4.178392e-06	
24	1.200000e+00	4.226835e-06	
25	1.250000e+00	4.274990e-06	
26	1.300000e+00	4.322902e-06	
27	1.350000e+00	4.370608e-06	
28	1.400000e+00	4.418141e-06	
29	1.450000e+00	4.465530e-06	
30	1.500000e+00	4.512799e-06	
31	1.550000e+00	4.559972e-06	
32	1.600000e+00	4.607067e-06	
33	1.650000e+00	4.654103e-06	
34	1.700000e+00	4.701096e-06	
35	1.750000e+00	4.748061e-06	
36	1.800000e+00	4.795013e-06	
37	1.850000e+00	4.841965e-06	
38	1.900000e+00	4.888930e-06	
39	1.950000e+00	4.935922e-06	
40	2.000000e+00	4.982955e-06	
41	2.050000e+00	5.030043e-06	
42	2.100000e+00	5.077202e-06	
43	2.150000e+00	5.124450e-06	
44	2.200000e+00	5.171806e-06	
45	2.250000e+00	5.219291e-06	
46	2.300000e+00	5.266930e-06	
47	2.350000e+00	5.314750e-06	
48	2.400000e+00	5.362782e-06	
49	2.450000e+00	5.411061e-06	
50	2.500000e+00	5.459626e-06	
51	2.550000e+00	5.508524e-06	
52	2.600000e+00	5.557803e-06	
53	2.650000e+00	5.607520e-06	
54	2.700000e+00	5.657738e-06	

Index   v-sweep         -i(vds)         
--------------------------------------------------------------------------------
55	2.750000e+00	5.708527e-06	
56	2.800000e+00	5.759965e-06	
57	2.850000e+00	5.812138e-06	
58	2.900000e+00	5.865141e-06	
59	2.950000e+00	5.919079e-06	
60	3.000000e+00	5.974065e-06	
61	3.050000e+00	6.030225e-06	
62	3.100000e+00	6.087695e-06	
63	3.150000e+00	6.146623e-06	
64	3.200000e+00	6.207170e-06	
65	3.250000e+00	6.269508e-06	
66	3.300000e+00	6.333825e-06	
67	0.000000e+00	-7.51761e-26	
68	5.000000e-02	2.531734e-06	
69	1.000000e-01	4.825943e-06	
70	1.500000e-01	6.894977e-06	
71	2.000000e-01	8.749581e-06	
72	2.500000e-01	1.039976e-05	
73	3.000000e-01	1.185509e-05	
74	3.500000e-01	1.312488e-05	
75	4.000000e-01	1.421849e-05	
76	4.500000e-01	1.514585e-05	
77	5.000000e-01	1.591846e-05	
78	5.500000e-01	1.655107e-05	
79	6.000000e-01	1.706332e-05	
80	6.500000e-01	1.747900e-05	
81	7.000000e-01	1.782210e-05	
82	7.500000e-01	1.811258e-05	
83	8.000000e-01	1.836504e-05	
84	8.500000e-01	1.858958e-05	
85	9.000000e-01	1.879309e-05	
86	9.500000e-01	1.898035e-05	
87	1.000000e+00	1.915477e-05	
88	1.050000e+00	1.931882e-05	
89	1.100000e+00	1.947434e-05	
90	1.150000e+00	1.962274e-05	
91	1.200000e+00	1.976512e-05	
92	1.250000e+00	1.990236e-05	
93	1.300000e+00	2.003514e-05	
94	1.350000e+00	2.016404e-05	
95	1.400000e+00	2.028953e-05	
96	1.450000e+00	2.041200e-05	
97	1.500000e+00	2.053179e-05	
98	1.550000e+00	2.064918e-05	
99	1.600000e+00	2.076440e-05	
100	1.650000e+00	2.087766e-05	
101	1.700000e+00	2.098915e-05	
102	1.750000e+00	2.109903e-05	
103	1.800000e+00	2.120743e-05	
104	1.850000e+00	2.131448e-05	
105	1.900000e+00	2.142029e-05	
106	1.950000e+00	2.152495e-05	
107	2.000000e+00	2.162857e-05	
108	2.050000e+00	2.173121e-05	
109	2.100000e+00	2.183297e-05	
110	2.150000e+00	2.193391e-05	
111	2.200000e+00	2.203411e-05	
112	2.250000e+00	2.213363e-05	

Index   v-sweep         -i(vds)         
--------------------------------------------------------------------------------
113	2.300000e+00	2.223255e-05	
114	2.350000e+00	2.233094e-05	
115	2.400000e+00	2.242887e-05	
116	2.450000e+00	2.252644e-05	
117	2.500000e+00	2.262372e-05	
118	2.550000e+00	2.272082e-05	
119	2.600000e+00	2.281784e-05	
120	2.650000e+00	2.291491e-05	
121	2.700000e+00	2.301215e-05	
122	2.750000e+00	2.310972e-05	
123	2.800000e+00	2.320777e-05	
124	2.850000e+00	2.330649e-05	
125	2.900000e+00	2.340608e-05	
126	2.950000e+00	2.350677e-05	
127	3.000000e+00	2.360880e-05	
128	3.050000e+00	2.371245e-05	
129	3.100000e+00	2.381802e-05	
130	3.150000e+00	2.392584e-05	
131	3.200000e+00	2.403627e-05	
132	3.250000e+00	2.414970e-05	
133	3.300000e+00	2.426656e-05	
134	0.000000e+00	-1.37099e-25	
135	5.000000e-02	3.799574e-06	
136	1.000000e-01	7.348807e-06	
137	1.500000e-01	1.065886e-05	
138	2.000000e-01	1.373942e-05	
139	2.500000e-01	1.659949e-05	
140	3.000000e-01	1.924762e-05	
141	3.500000e-01	2.169192e-05	
142	4.000000e-01	2.394018e-05	
143	4.500000e-01	2.599978e-05	
144	5.000000e-01	2.787779e-05	
145	5.500000e-01	2.958094e-05	
146	6.000000e-01	3.111563e-05	
147	6.500000e-01	3.248794e-05	
148	7.000000e-01	3.370382e-05	
149	7.500000e-01	3.476944e-05	
150	8.000000e-01	3.569230e-05	
151	8.500000e-01	3.648299e-05	
152	9.000000e-01	3.715652e-05	
153	9.500000e-01	3.773142e-05	
154	1.000000e+00	3.822682e-05	
155	1.050000e+00	3.865970e-05	
156	1.100000e+00	3.904373e-05	
157	1.150000e+00	3.938938e-05	
158	1.200000e+00	3.970449e-05	
159	1.250000e+00	3.999498e-05	
160	1.300000e+00	4.026528e-05	
161	1.350000e+00	4.051884e-05	
162	1.400000e+00	4.075830e-05	
163	1.450000e+00	4.098578e-05	
164	1.500000e+00	4.120295e-05	
165	1.550000e+00	4.141117e-05	
166	1.600000e+00	4.161157e-05	
167	1.650000e+00	4.180507e-05	
168	1.700000e+00	4.199244e-05	
169	1.750000e+00	4.217434e-05	
170	1.800000e+00	4.235133e-05	

Index   v-sweep         -i(vds)         
--------------------------------------------------------------------------------
171	1.850000e+00	4.252389e-05	
172	1.900000e+00	4.269243e-05	
173	1.950000e+00	4.285731e-05	
174	2.000000e+00	4.301885e-05	
175	2.050000e+00	4.317733e-05	
176	2.100000e+00	4.333299e-05	
177	2.150000e+00	4.348606e-05	
178	2.200000e+00	4.363673e-05	
179	2.250000e+00	4.378518e-05	
180	2.300000e+00	4.393158e-05	
181	2.350000e+00	4.407609e-05	
182	2.400000e+00	4.421886e-05	
183	2.450000e+00	4.436002e-05	
184	2.500000e+00	4.449972e-05	
185	2.550000e+00	4.463810e-05	
186	2.600000e+00	4.477531e-05	
187	2.650000e+00	4.491150e-05	
188	2.700000e+00	4.504683e-05	
189	2.750000e+00	4.518149e-05	
190	2.800000e+00	4.531567e-05	
191	2.850000e+00	4.544958e-05	
192	2.900000e+00	4.558345e-05	
193	2.950000e+00	4.571756e-05	
194	3.000000e+00	4.585218e-05	
195	3.050000e+00	4.598765e-05	
196	3.100000e+00	4.612431e-05	
197	3.150000e+00	4.626258e-05	
198	3.200000e+00	4.640288e-05	
199	3.250000e+00	4.654569e-05	
200	3.300000e+00	4.669156e-05	
201	0.000000e+00	-6.41674e-22	
202	5.000000e-02	4.823029e-06	
203	1.000000e-01	9.393824e-06	
204	1.500000e-01	1.372237e-05	
205	2.000000e-01	1.781732e-05	
206	2.500000e-01	2.168673e-05	
207	3.000000e-01	2.533829e-05	
208	3.500000e-01	2.877934e-05	
209	4.000000e-01	3.201693e-05	
210	4.500000e-01	3.505783e-05	
211	5.000000e-01	3.790850e-05	
212	5.500000e-01	4.057513e-05	
213	6.000000e-01	4.306359e-05	
214	6.500000e-01	4.537945e-05	
215	7.000000e-01	4.752792e-05	
216	7.500000e-01	4.951377e-05	
217	8.000000e-01	5.134125e-05	
218	8.500000e-01	5.301395e-05	
219	9.000000e-01	5.453466e-05	
220	9.500000e-01	5.590547e-05	
221	1.000000e+00	5.712854e-05	
222	1.050000e+00	5.820773e-05	
223	1.100000e+00	5.915094e-05	
224	1.150000e+00	5.997120e-05	
225	1.200000e+00	6.068542e-05	
226	1.250000e+00	6.131146e-05	
227	1.300000e+00	6.186572e-05	
228	1.350000e+00	6.236197e-05	

Index   v-sweep         -i(vds)         
--------------------------------------------------------------------------------
229	1.400000e+00	6.281125e-05	
230	1.450000e+00	6.322220e-05	
231	1.500000e+00	6.360155e-05	
232	1.550000e+00	6.395456e-05	
233	1.600000e+00	6.428538e-05	
234	1.650000e+00	6.459731e-05	
235	1.700000e+00	6.489298e-05	
236	1.750000e+00	6.517457e-05	
237	1.800000e+00	6.544383e-05	
238	1.850000e+00	6.570224e-05	
239	1.900000e+00	6.595103e-05	
240	1.950000e+00	6.619122e-05	
241	2.000000e+00	6.642371e-05	
242	2.050000e+00	6.664925e-05	
243	2.100000e+00	6.686850e-05	
244	2.150000e+00	6.708202e-05	
245	2.200000e+00	6.729031e-05	
246	2.250000e+00	6.749381e-05	
247	2.300000e+00	6.769291e-05	
248	2.350000e+00	6.788794e-05	
249	2.400000e+00	6.807923e-05	
250	2.450000e+00	6.826704e-05	
251	2.500000e+00	6.845165e-05	
252	2.550000e+00	6.863328e-05	
253	2.600000e+00	6.881218e-05	
254	2.650000e+00	6.898855e-05	
255	2.700000e+00	6.916261e-05	
256	2.750000e+00	6.933457e-05	
257	2.800000e+00	6.950466e-05	
258	2.850000e+00	6.967311e-05	
259	2.900000e+00	6.984017e-05	
260	2.950000e+00	7.000609e-05	
261	3.000000e+00	7.017116e-05	
262	3.050000e+00	7.033571e-05	
263	3.100000e+00	7.050007e-05	
264	3.150000e+00	7.066464e-05	
265	3.200000e+00	7.082985e-05	
266	3.250000e+00	7.099616e-05	
267	3.300000e+00	7.116412e-05	
268	0.000000e+00	-4.45184e-21	
269	5.000000e-02	5.675039e-06	
270	1.000000e-01	1.110044e-05	
271	1.500000e-01	1.628517e-05	
272	2.000000e-01	2.123695e-05	
273	2.500000e-01	2.596297e-05	
274	3.000000e-01	3.047015e-05	
275	3.500000e-01	3.476511e-05	
276	4.000000e-01	3.885425e-05	
277	4.500000e-01	4.274372e-05	
278	5.000000e-01	4.643946e-05	
279	5.500000e-01	4.994718e-05	
280	6.000000e-01	5.327235e-05	
281	6.500000e-01	5.642024e-05	
282	7.000000e-01	5.939584e-05	
283	7.500000e-01	6.220393e-05	
284	8.000000e-01	6.484896e-05	
285	8.500000e-01	6.733504e-05	
286	9.000000e-01	6.966586e-05	

Index   v-sweep         -i(vds)         
--------------------------------------------------------------------------------
287	9.500000e-01	7.184453e-05	
288	1.000000e+00	7.387338e-05	
289	1.050000e+00	7.575376e-05	
290	1.100000e+00	7.748583e-05	
291	1.150000e+00	7.906864e-05	
292	1.200000e+00	8.050097e-05	
293	1.250000e+00	8.178321e-05	
294	1.300000e+00	8.291987e-05	
295	1.350000e+00	8.392109e-05	
296	1.400000e+00	8.480185e-05	
297	1.450000e+00	8.557942e-05	
298	1.500000e+00	8.627073e-05	
299	1.550000e+00	8.689079e-05	
300	1.600000e+00	8.745214e-05	
301	1.650000e+00	8.796496e-05	
302	1.700000e+00	8.843736e-05	
303	1.750000e+00	8.887582e-05	
304	1.800000e+00	8.928551e-05	
305	1.850000e+00	8.967060e-05	
306	1.900000e+00	9.003447e-05	
307	1.950000e+00	9.037988e-05	
308	2.000000e+00	9.070912e-05	
309	2.050000e+00	9.102409e-05	
310	2.100000e+00	9.132639e-05	
311	2.150000e+00	9.161737e-05	
312	2.200000e+00	9.189818e-05	
313	2.250000e+00	9.216983e-05	
314	2.300000e+00	9.243316e-05	
315	2.350000e+00	9.268892e-05	
316	2.400000e+00	9.293776e-05	
317	2.450000e+00	9.318027e-05	
318	2.500000e+00	9.341695e-05	
319	2.550000e+00	9.364825e-05	
320	2.600000e+00	9.387458e-05	
321	2.650000e+00	9.409633e-05	
322	2.700000e+00	9.431381e-05	
323	2.750000e+00	9.452737e-05	
324	2.800000e+00	9.473729e-05	
325	2.850000e+00	9.494387e-05	
326	2.900000e+00	9.514740e-05	
327	2.950000e+00	9.534816e-05	
328	3.000000e+00	9.554645e-05	
329	3.050000e+00	9.574259e-05	
330	3.100000e+00	9.593690e-05	
331	3.150000e+00	9.612974e-05	
332	3.200000e+00	9.632151e-05	
333	3.250000e+00	9.651262e-05	
334	3.300000e+00	9.670357e-05	
335	0.000000e+00	-1.44066e-20	
336	5.000000e-02	6.403034e-06	
337	1.000000e-01	1.256095e-05	
338	1.500000e-01	1.848185e-05	
339	2.000000e-01	2.417266e-05	
340	2.500000e-01	2.963985e-05	
341	3.000000e-01	3.488964e-05	
342	3.500000e-01	3.992801e-05	
343	4.000000e-01	4.476078e-05	
344	4.500000e-01	4.939355e-05	

Index   v-sweep         -i(vds)         
--------------------------------------------------------------------------------
345	5.000000e-01	5.383176e-05	
346	5.500000e-01	5.808065e-05	
347	6.000000e-01	6.214530e-05	
348	6.500000e-01	6.603060e-05	
349	7.000000e-01	6.974127e-05	
350	7.500000e-01	7.328183e-05	
351	8.000000e-01	7.665662e-05	
352	8.500000e-01	7.986977e-05	
353	9.000000e-01	8.292516e-05	
354	9.500000e-01	8.582642e-05	
355	1.000000e+00	8.857680e-05	
356	1.050000e+00	9.117914e-05	
357	1.100000e+00	9.363568e-05	
358	1.150000e+00	9.594786e-05	
359	1.200000e+00	9.811610e-05	
360	1.250000e+00	1.001394e-04	
361	1.300000e+00	1.020155e-04	
362	1.350000e+00	1.037406e-04	
363	1.400000e+00	1.053114e-04	
364	1.450000e+00	1.067268e-04	
365	1.500000e+00	1.079905e-04	
366	1.550000e+00	1.091123e-04	
367	1.600000e+00	1.101068e-04	
368	1.650000e+00	1.109909e-04	
369	1.700000e+00	1.117813e-04	
370	1.750000e+00	1.124934e-04	
371	1.800000e+00	1.131400e-04	
372	1.850000e+00	1.137318e-04	
373	1.900000e+00	1.142776e-04	
374	1.950000e+00	1.147843e-04	
375	2.000000e+00	1.152578e-04	
376	2.050000e+00	1.157026e-04	
377	2.100000e+00	1.161225e-04	
378	2.150000e+00	1.165207e-04	
379	2.200000e+00	1.168999e-04	
380	2.250000e+00	1.172622e-04	
381	2.300000e+00	1.176094e-04	
382	2.350000e+00	1.179431e-04	
383	2.400000e+00	1.182648e-04	
384	2.450000e+00	1.185755e-04	
385	2.500000e+00	1.188762e-04	
386	2.550000e+00	1.191678e-04	
387	2.600000e+00	1.194512e-04	
388	2.650000e+00	1.197269e-04	
389	2.700000e+00	1.199956e-04	
390	2.750000e+00	1.202579e-04	
391	2.800000e+00	1.205141e-04	
392	2.850000e+00	1.207649e-04	
393	2.900000e+00	1.210105e-04	
394	2.950000e+00	1.212514e-04	
395	3.000000e+00	1.214879e-04	
396	3.050000e+00	1.217204e-04	
397	3.100000e+00	1.219492e-04	
398	3.150000e+00	1.221748e-04	
399	3.200000e+00	1.223975e-04	
400	3.250000e+00	1.226176e-04	
401	3.300000e+00	1.228357e-04	
Note: No ".plot", ".print", or ".fourier" lines; no simulations run
