
Note: Compatibility modes selected: hs

Warning: m=xx on .subckt line will override multiplier m hierarchy!


Circuit: ***************************

Doing analysis at TEMP = 125.000000 and TNOM = 125.000000


No. of Data Rows : 402
                          ***************************
                          DC transfer characteristic  Mon Jan  9 13:58:12  2023
--------------------------------------------------------------------------------
Index   v-sweep         -i(vds)         
--------------------------------------------------------------------------------
0	0.000000e+00	-2.08632e-26	
1	5.000000e-02	9.697858e-06	
2	1.000000e-01	1.705348e-05	
3	1.500000e-01	2.219085e-05	
4	2.000000e-01	2.523747e-05	
5	2.500000e-01	2.656789e-05	
6	3.000000e-01	2.700954e-05	
7	3.500000e-01	2.718932e-05	
8	4.000000e-01	2.729487e-05	
9	4.500000e-01	2.737182e-05	
10	5.000000e-01	2.743454e-05	
11	5.500000e-01	2.748888e-05	
12	6.000000e-01	2.753772e-05	
13	6.500000e-01	2.758268e-05	
14	7.000000e-01	2.762475e-05	
15	7.500000e-01	2.766458e-05	
16	8.000000e-01	2.770263e-05	
17	8.500000e-01	2.773923e-05	
18	9.000000e-01	2.777462e-05	
19	9.500000e-01	2.780898e-05	
20	1.000000e+00	2.784247e-05	
21	1.050000e+00	2.787519e-05	
22	1.100000e+00	2.790726e-05	
23	1.150000e+00	2.793873e-05	
24	1.200000e+00	2.796969e-05	
25	1.250000e+00	2.800018e-05	
26	1.300000e+00	2.803025e-05	
27	1.350000e+00	2.805994e-05	
28	1.400000e+00	2.808929e-05	
29	1.450000e+00	2.811832e-05	
30	1.500000e+00	2.814707e-05	
31	1.550000e+00	2.817556e-05	
32	1.600000e+00	2.820380e-05	
33	1.650000e+00	2.823183e-05	
34	1.700000e+00	2.825966e-05	
35	1.750000e+00	2.828733e-05	
36	1.800000e+00	2.831484e-05	
37	1.850000e+00	2.834223e-05	
38	1.900000e+00	2.836953e-05	
39	1.950000e+00	2.839677e-05	
40	2.000000e+00	2.842399e-05	
41	2.050000e+00	2.845124e-05	
42	2.100000e+00	2.847857e-05	
43	2.150000e+00	2.850604e-05	
44	2.200000e+00	2.853372e-05	
45	2.250000e+00	2.856170e-05	
46	2.300000e+00	2.859007e-05	
47	2.350000e+00	2.861893e-05	
48	2.400000e+00	2.864840e-05	
49	2.450000e+00	2.867862e-05	
50	2.500000e+00	2.870974e-05	
51	2.550000e+00	2.874190e-05	
52	2.600000e+00	2.877531e-05	
53	2.650000e+00	2.881014e-05	
54	2.700000e+00	2.884662e-05	

Index   v-sweep         -i(vds)         
--------------------------------------------------------------------------------
55	2.750000e+00	2.888497e-05	
56	2.800000e+00	2.892545e-05	
57	2.850000e+00	2.896831e-05	
58	2.900000e+00	2.901385e-05	
59	2.950000e+00	2.906238e-05	
60	3.000000e+00	2.911420e-05	
61	3.050000e+00	2.916968e-05	
62	3.100000e+00	2.922916e-05	
63	3.150000e+00	2.929303e-05	
64	3.200000e+00	2.936169e-05	
65	3.250000e+00	2.943555e-05	
66	3.300000e+00	2.951506e-05	
67	0.000000e+00	-3.75783e-25	
68	5.000000e-02	3.185452e-05	
69	1.000000e-01	6.093075e-05	
70	1.500000e-01	8.733690e-05	
71	2.000000e-01	1.111308e-04	
72	2.500000e-01	1.323578e-04	
73	3.000000e-01	1.510597e-04	
74	3.500000e-01	1.672776e-04	
75	4.000000e-01	1.810524e-04	
76	4.500000e-01	1.924272e-04	
77	5.000000e-01	2.014514e-04	
78	5.500000e-01	2.081978e-04	
79	6.000000e-01	2.128160e-04	
80	6.500000e-01	2.156545e-04	
81	7.000000e-01	2.172958e-04	
82	7.500000e-01	2.182903e-04	
83	8.000000e-01	2.189596e-04	
84	8.500000e-01	2.194555e-04	
85	9.000000e-01	2.198497e-04	
86	9.500000e-01	2.201789e-04	
87	1.000000e+00	2.204635e-04	
88	1.050000e+00	2.207160e-04	
89	1.100000e+00	2.209443e-04	
90	1.150000e+00	2.211537e-04	
91	1.200000e+00	2.213481e-04	
92	1.250000e+00	2.215303e-04	
93	1.300000e+00	2.217022e-04	
94	1.350000e+00	2.218656e-04	
95	1.400000e+00	2.220215e-04	
96	1.450000e+00	2.221712e-04	
97	1.500000e+00	2.223153e-04	
98	1.550000e+00	2.224545e-04	
99	1.600000e+00	2.225894e-04	
100	1.650000e+00	2.227204e-04	
101	1.700000e+00	2.228479e-04	
102	1.750000e+00	2.229723e-04	
103	1.800000e+00	2.230939e-04	
104	1.850000e+00	2.232129e-04	
105	1.900000e+00	2.233296e-04	
106	1.950000e+00	2.234441e-04	
107	2.000000e+00	2.235566e-04	
108	2.050000e+00	2.236674e-04	
109	2.100000e+00	2.237766e-04	
110	2.150000e+00	2.238844e-04	
111	2.200000e+00	2.239910e-04	
112	2.250000e+00	2.240966e-04	

Index   v-sweep         -i(vds)         
--------------------------------------------------------------------------------
113	2.300000e+00	2.242015e-04	
114	2.350000e+00	2.243059e-04	
115	2.400000e+00	2.244102e-04	
116	2.450000e+00	2.245147e-04	
117	2.500000e+00	2.246199e-04	
118	2.550000e+00	2.247262e-04	
119	2.600000e+00	2.248343e-04	
120	2.650000e+00	2.249448e-04	
121	2.700000e+00	2.250584e-04	
122	2.750000e+00	2.251761e-04	
123	2.800000e+00	2.252986e-04	
124	2.850000e+00	2.254272e-04	
125	2.900000e+00	2.255629e-04	
126	2.950000e+00	2.257070e-04	
127	3.000000e+00	2.258611e-04	
128	3.050000e+00	2.260265e-04	
129	3.100000e+00	2.262051e-04	
130	3.150000e+00	2.263985e-04	
131	3.200000e+00	2.266088e-04	
132	3.250000e+00	2.268381e-04	
133	3.300000e+00	2.270886e-04	
134	0.000000e+00	4.190504e-26	
135	5.000000e-02	5.058751e-05	
136	1.000000e-01	9.839491e-05	
137	1.500000e-01	1.435251e-04	
138	2.000000e-01	1.860314e-04	
139	2.500000e-01	2.259546e-04	
140	3.000000e-01	2.633321e-04	
141	3.500000e-01	2.982000e-04	
142	4.000000e-01	3.305935e-04	
143	4.500000e-01	3.605473e-04	
144	5.000000e-01	3.880953e-04	
145	5.500000e-01	4.132707e-04	
146	6.000000e-01	4.361062e-04	
147	6.500000e-01	4.566335e-04	
148	7.000000e-01	4.748833e-04	
149	7.500000e-01	4.908852e-04	
150	8.000000e-01	5.046674e-04	
151	8.500000e-01	5.162572e-04	
152	9.000000e-01	5.256860e-04	
153	9.500000e-01	5.330095e-04	
154	1.000000e+00	5.383699e-04	
155	1.050000e+00	5.420831e-04	
156	1.100000e+00	5.446107e-04	
157	1.150000e+00	5.463834e-04	
158	1.200000e+00	5.476945e-04	
159	1.250000e+00	5.487170e-04	
160	1.300000e+00	5.495503e-04	
161	1.350000e+00	5.502531e-04	
162	1.400000e+00	5.508620e-04	
163	1.450000e+00	5.514007e-04	
164	1.500000e+00	5.518853e-04	
165	1.550000e+00	5.523270e-04	
166	1.600000e+00	5.527340e-04	
167	1.650000e+00	5.531124e-04	
168	1.700000e+00	5.534669e-04	
169	1.750000e+00	5.538010e-04	
170	1.800000e+00	5.541178e-04	

Index   v-sweep         -i(vds)         
--------------------------------------------------------------------------------
171	1.850000e+00	5.544194e-04	
172	1.900000e+00	5.547078e-04	
173	1.950000e+00	5.549846e-04	
174	2.000000e+00	5.552510e-04	
175	2.050000e+00	5.555081e-04	
176	2.100000e+00	5.557569e-04	
177	2.150000e+00	5.559982e-04	
178	2.200000e+00	5.562326e-04	
179	2.250000e+00	5.564609e-04	
180	2.300000e+00	5.566836e-04	
181	2.350000e+00	5.569011e-04	
182	2.400000e+00	5.571139e-04	
183	2.450000e+00	5.573225e-04	
184	2.500000e+00	5.575274e-04	
185	2.550000e+00	5.577291e-04	
186	2.600000e+00	5.579280e-04	
187	2.650000e+00	5.581249e-04	
188	2.700000e+00	5.583202e-04	
189	2.750000e+00	5.585148e-04	
190	2.800000e+00	5.587095e-04	
191	2.850000e+00	5.589054e-04	
192	2.900000e+00	5.591037e-04	
193	2.950000e+00	5.593055e-04	
194	3.000000e+00	5.595126e-04	
195	3.050000e+00	5.597266e-04	
196	3.100000e+00	5.599496e-04	
197	3.150000e+00	5.601837e-04	
198	3.200000e+00	5.604314e-04	
199	3.250000e+00	5.606956e-04	
200	3.300000e+00	5.609793e-04	
201	0.000000e+00	2.702194e-24	
202	5.000000e-02	6.575762e-05	
203	1.000000e-01	1.288354e-04	
204	1.500000e-01	1.893308e-04	
205	2.000000e-01	2.472920e-04	
206	2.500000e-01	3.027552e-04	
207	3.000000e-01	3.557531e-04	
208	3.500000e-01	4.063175e-04	
209	4.000000e-01	4.544792e-04	
210	4.500000e-01	5.002687e-04	
211	5.000000e-01	5.437160e-04	
212	5.500000e-01	5.848506e-04	
213	6.000000e-01	6.237016e-04	
214	6.500000e-01	6.602973e-04	
215	7.000000e-01	6.946658e-04	
216	7.500000e-01	7.268345e-04	
217	8.000000e-01	7.568303e-04	
218	8.500000e-01	7.846793e-04	
219	9.000000e-01	8.104068e-04	
220	9.500000e-01	8.340368e-04	
221	1.000000e+00	8.555921e-04	
222	1.050000e+00	8.750929e-04	
223	1.100000e+00	8.925563e-04	
224	1.150000e+00	9.079939e-04	
225	1.200000e+00	9.214099e-04	
226	1.250000e+00	9.328001e-04	
227	1.300000e+00	9.421628e-04	
228	1.350000e+00	9.495424e-04	

Index   v-sweep         -i(vds)         
--------------------------------------------------------------------------------
229	1.400000e+00	9.551104e-04	
230	1.450000e+00	9.592013e-04	
231	1.500000e+00	9.622178e-04	
232	1.550000e+00	9.645036e-04	
233	1.600000e+00	9.662992e-04	
234	1.650000e+00	9.677597e-04	
235	1.700000e+00	9.689840e-04	
236	1.750000e+00	9.700360e-04	
237	1.800000e+00	9.709584e-04	
238	1.850000e+00	9.717806e-04	
239	1.900000e+00	9.725234e-04	
240	1.950000e+00	9.732021e-04	
241	2.000000e+00	9.738280e-04	
242	2.050000e+00	9.744099e-04	
243	2.100000e+00	9.749545e-04	
244	2.150000e+00	9.754671e-04	
245	2.200000e+00	9.759521e-04	
246	2.250000e+00	9.764130e-04	
247	2.300000e+00	9.768526e-04	
248	2.350000e+00	9.772735e-04	
249	2.400000e+00	9.776776e-04	
250	2.450000e+00	9.780666e-04	
251	2.500000e+00	9.784420e-04	
252	2.550000e+00	9.788052e-04	
253	2.600000e+00	9.791573e-04	
254	2.650000e+00	9.794992e-04	
255	2.700000e+00	9.798318e-04	
256	2.750000e+00	9.801561e-04	
257	2.800000e+00	9.804729e-04	
258	2.850000e+00	9.807830e-04	
259	2.900000e+00	9.810872e-04	
260	2.950000e+00	9.813864e-04	
261	3.000000e+00	9.816817e-04	
262	3.050000e+00	9.819742e-04	
263	3.100000e+00	9.822652e-04	
264	3.150000e+00	9.825561e-04	
265	3.200000e+00	9.828487e-04	
266	3.250000e+00	9.831451e-04	
267	3.300000e+00	9.834474e-04	
268	0.000000e+00	1.197577e-24	
269	5.000000e-02	7.777990e-05	
270	1.000000e-01	1.530248e-04	
271	1.500000e-01	2.258267e-04	
272	2.000000e-01	2.962292e-04	
273	2.500000e-01	3.642638e-04	
274	3.000000e-01	4.299590e-04	
275	3.500000e-01	4.933418e-04	
276	4.000000e-01	5.544391e-04	
277	4.500000e-01	6.132771e-04	
278	5.000000e-01	6.698820e-04	
279	5.500000e-01	7.242791e-04	
280	6.000000e-01	7.764939e-04	
281	6.500000e-01	8.265512e-04	
282	7.000000e-01	8.744755e-04	
283	7.500000e-01	9.202911e-04	
284	8.000000e-01	9.640216e-04	
285	8.500000e-01	1.005691e-03	
286	9.000000e-01	1.045321e-03	

Index   v-sweep         -i(vds)         
--------------------------------------------------------------------------------
287	9.500000e-01	1.082936e-03	
288	1.000000e+00	1.118557e-03	
289	1.050000e+00	1.152206e-03	
290	1.100000e+00	1.183905e-03	
291	1.150000e+00	1.213672e-03	
292	1.200000e+00	1.241529e-03	
293	1.250000e+00	1.267493e-03	
294	1.300000e+00	1.291581e-03	
295	1.350000e+00	1.313807e-03	
296	1.400000e+00	1.334181e-03	
297	1.450000e+00	1.352708e-03	
298	1.500000e+00	1.369383e-03	
299	1.550000e+00	1.384188e-03	
300	1.600000e+00	1.397089e-03	
301	1.650000e+00	1.408043e-03	
302	1.700000e+00	1.417036e-03	
303	1.750000e+00	1.424156e-03	
304	1.800000e+00	1.429646e-03	
305	1.850000e+00	1.433853e-03	
306	1.900000e+00	1.437122e-03	
307	1.950000e+00	1.439726e-03	
308	2.000000e+00	1.441855e-03	
309	2.050000e+00	1.443643e-03	
310	2.100000e+00	1.445176e-03	
311	2.150000e+00	1.446516e-03	
312	2.200000e+00	1.447707e-03	
313	2.250000e+00	1.448777e-03	
314	2.300000e+00	1.449751e-03	
315	2.350000e+00	1.450645e-03	
316	2.400000e+00	1.451473e-03	
317	2.450000e+00	1.452244e-03	
318	2.500000e+00	1.452967e-03	
319	2.550000e+00	1.453649e-03	
320	2.600000e+00	1.454294e-03	
321	2.650000e+00	1.454906e-03	
322	2.700000e+00	1.455491e-03	
323	2.750000e+00	1.456050e-03	
324	2.800000e+00	1.456587e-03	
325	2.850000e+00	1.457103e-03	
326	2.900000e+00	1.457601e-03	
327	2.950000e+00	1.458083e-03	
328	3.000000e+00	1.458549e-03	
329	3.050000e+00	1.459001e-03	
330	3.100000e+00	1.459440e-03	
331	3.150000e+00	1.459869e-03	
332	3.200000e+00	1.460287e-03	
333	3.250000e+00	1.460696e-03	
334	3.300000e+00	1.461099e-03	
335	0.000000e+00	-2.06541e-24	
336	5.000000e-02	8.712230e-05	
337	1.000000e-01	1.718739e-04	
338	1.500000e-01	2.543423e-04	
339	2.000000e-01	3.345666e-04	
340	2.500000e-01	4.125743e-04	
341	3.000000e-01	4.883895e-04	
342	3.500000e-01	5.620356e-04	
343	4.000000e-01	6.335354e-04	
344	4.500000e-01	7.029114e-04	

Index   v-sweep         -i(vds)         
--------------------------------------------------------------------------------
345	5.000000e-01	7.701859e-04	
346	5.500000e-01	8.353807e-04	
347	6.000000e-01	8.985176e-04	
348	6.500000e-01	9.596180e-04	
349	7.000000e-01	1.018703e-03	
350	7.500000e-01	1.075794e-03	
351	8.000000e-01	1.130911e-03	
352	8.500000e-01	1.184074e-03	
353	9.000000e-01	1.235304e-03	
354	9.500000e-01	1.284621e-03	
355	1.000000e+00	1.332043e-03	
356	1.050000e+00	1.377591e-03	
357	1.100000e+00	1.421284e-03	
358	1.150000e+00	1.463139e-03	
359	1.200000e+00	1.503176e-03	
360	1.250000e+00	1.541413e-03	
361	1.300000e+00	1.577866e-03	
362	1.350000e+00	1.612554e-03	
363	1.400000e+00	1.645493e-03	
364	1.450000e+00	1.676699e-03	
365	1.500000e+00	1.706186e-03	
366	1.550000e+00	1.733970e-03	
367	1.600000e+00	1.760062e-03	
368	1.650000e+00	1.784472e-03	
369	1.700000e+00	1.807207e-03	
370	1.750000e+00	1.828268e-03	
371	1.800000e+00	1.847648e-03	
372	1.850000e+00	1.865330e-03	
373	1.900000e+00	1.881278e-03	
374	1.950000e+00	1.895434e-03	
375	2.000000e+00	1.907729e-03	
376	2.050000e+00	1.918108e-03	
377	2.100000e+00	1.926601e-03	
378	2.150000e+00	1.933378e-03	
379	2.200000e+00	1.938727e-03	
380	2.250000e+00	1.942972e-03	
381	2.300000e+00	1.946397e-03	
382	2.350000e+00	1.949219e-03	
383	2.400000e+00	1.951594e-03	
384	2.450000e+00	1.953633e-03	
385	2.500000e+00	1.955413e-03	
386	2.550000e+00	1.956991e-03	
387	2.600000e+00	1.958407e-03	
388	2.650000e+00	1.959691e-03	
389	2.700000e+00	1.960867e-03	
390	2.750000e+00	1.961952e-03	
391	2.800000e+00	1.962960e-03	
392	2.850000e+00	1.963902e-03	
393	2.900000e+00	1.964788e-03	
394	2.950000e+00	1.965624e-03	
395	3.000000e+00	1.966416e-03	
396	3.050000e+00	1.967170e-03	
397	3.100000e+00	1.967889e-03	
398	3.150000e+00	1.968577e-03	
399	3.200000e+00	1.969238e-03	
400	3.250000e+00	1.969874e-03	
401	3.300000e+00	1.970487e-03	
Note: No ".plot", ".print", or ".fourier" lines; no simulations run
