
Note: Compatibility modes selected: hs

Warning: m=xx on .subckt line will override multiplier m hierarchy!


Circuit: ***************************

Doing analysis at TEMP = -40.000000 and TNOM = -40.000000


No. of Data Rows : 402
                          ***************************
                          DC transfer characteristic  Mon Jan  9 13:58:11  2023
--------------------------------------------------------------------------------
Index   v-sweep         -i(vds)         
--------------------------------------------------------------------------------
0	0.000000e+00	-7.54708e-37	
1	5.000000e-02	2.274747e-05	
2	1.000000e-01	3.344139e-05	
3	1.500000e-01	3.777085e-05	
4	2.000000e-01	4.003392e-05	
5	2.500000e-01	4.168351e-05	
6	3.000000e-01	4.310699e-05	
7	3.500000e-01	4.442889e-05	
8	4.000000e-01	4.569945e-05	
9	4.500000e-01	4.694281e-05	
10	5.000000e-01	4.817207e-05	
11	5.500000e-01	4.939506e-05	
12	6.000000e-01	5.061677e-05	
13	6.500000e-01	5.184057e-05	
14	7.000000e-01	5.306882e-05	
15	7.500000e-01	5.430326e-05	
16	8.000000e-01	5.554517e-05	
17	8.500000e-01	5.679555e-05	
18	9.000000e-01	5.805516e-05	
19	9.500000e-01	5.932463e-05	
20	1.000000e+00	6.060444e-05	
21	1.050000e+00	6.189501e-05	
22	1.100000e+00	6.319668e-05	
23	1.150000e+00	6.450971e-05	
24	1.200000e+00	6.583435e-05	
25	1.250000e+00	6.717079e-05	
26	1.300000e+00	6.851921e-05	
27	1.350000e+00	6.987974e-05	
28	1.400000e+00	7.125252e-05	
29	1.450000e+00	7.263766e-05	
30	1.500000e+00	7.403525e-05	
31	1.550000e+00	7.544541e-05	
32	1.600000e+00	7.686821e-05	
33	1.650000e+00	7.830375e-05	
34	1.700000e+00	7.975213e-05	
35	1.750000e+00	8.121347e-05	
36	1.800000e+00	8.268789e-05	
37	1.850000e+00	8.417554e-05	
38	1.900000e+00	8.567660e-05	
39	1.950000e+00	8.719128e-05	
40	2.000000e+00	8.871985e-05	
41	2.050000e+00	9.026261e-05	
42	2.100000e+00	9.181994e-05	
43	2.150000e+00	9.339228e-05	
44	2.200000e+00	9.498015e-05	
45	2.250000e+00	9.658416e-05	
46	2.300000e+00	9.820505e-05	
47	2.350000e+00	9.984363e-05	
48	2.400000e+00	1.015009e-04	
49	2.450000e+00	1.031779e-04	
50	2.500000e+00	1.048759e-04	
51	2.550000e+00	1.065964e-04	
52	2.600000e+00	1.083410e-04	
53	2.650000e+00	1.101115e-04	
54	2.700000e+00	1.119099e-04	

Index   v-sweep         -i(vds)         
--------------------------------------------------------------------------------
55	2.750000e+00	1.137384e-04	
56	2.800000e+00	1.155998e-04	
57	2.850000e+00	1.174966e-04	
58	2.900000e+00	1.194321e-04	
59	2.950000e+00	1.214095e-04	
60	3.000000e+00	1.234327e-04	
61	3.050000e+00	1.255057e-04	
62	3.100000e+00	1.276329e-04	
63	3.150000e+00	1.298191e-04	
64	3.200000e+00	1.320696e-04	
65	3.250000e+00	1.343900e-04	
66	3.300000e+00	1.367865e-04	
67	0.000000e+00	-7.58831e-36	
68	5.000000e-02	1.597954e-04	
69	1.000000e-01	2.969525e-04	
70	1.500000e-01	4.132186e-04	
71	2.000000e-01	5.101341e-04	
72	2.500000e-01	5.890346e-04	
73	3.000000e-01	6.511069e-04	
74	3.500000e-01	6.976747e-04	
75	4.000000e-01	7.308658e-04	
76	4.500000e-01	7.539624e-04	
77	5.000000e-01	7.704572e-04	
78	5.500000e-01	7.829480e-04	
79	6.000000e-01	7.930107e-04	
80	6.500000e-01	8.015427e-04	
81	7.000000e-01	8.090614e-04	
82	7.500000e-01	8.158772e-04	
83	8.000000e-01	8.221855e-04	
84	8.500000e-01	8.281146e-04	
85	9.000000e-01	8.337522e-04	
86	9.500000e-01	8.391604e-04	
87	1.000000e+00	8.443841e-04	
88	1.050000e+00	8.494572e-04	
89	1.100000e+00	8.544055e-04	
90	1.150000e+00	8.592488e-04	
91	1.200000e+00	8.640032e-04	
92	1.250000e+00	8.686812e-04	
93	1.300000e+00	8.732933e-04	
94	1.350000e+00	8.778481e-04	
95	1.400000e+00	8.823526e-04	
96	1.450000e+00	8.868128e-04	
97	1.500000e+00	8.912337e-04	
98	1.550000e+00	8.956198e-04	
99	1.600000e+00	8.999747e-04	
100	1.650000e+00	9.043017e-04	
101	1.700000e+00	9.086038e-04	
102	1.750000e+00	9.128833e-04	
103	1.800000e+00	9.171428e-04	
104	1.850000e+00	9.213842e-04	
105	1.900000e+00	9.256097e-04	
106	1.950000e+00	9.298213e-04	
107	2.000000e+00	9.340210e-04	
108	2.050000e+00	9.382107e-04	
109	2.100000e+00	9.423927e-04	
110	2.150000e+00	9.465694e-04	
111	2.200000e+00	9.507434e-04	
112	2.250000e+00	9.549176e-04	

Index   v-sweep         -i(vds)         
--------------------------------------------------------------------------------
113	2.300000e+00	9.590953e-04	
114	2.350000e+00	9.632803e-04	
115	2.400000e+00	9.674769e-04	
116	2.450000e+00	9.716899e-04	
117	2.500000e+00	9.759247e-04	
118	2.550000e+00	9.801878e-04	
119	2.600000e+00	9.844860e-04	
120	2.650000e+00	9.888273e-04	
121	2.700000e+00	9.932206e-04	
122	2.750000e+00	9.976758e-04	
123	2.800000e+00	1.002204e-03	
124	2.850000e+00	1.006817e-03	
125	2.900000e+00	1.011528e-03	
126	2.950000e+00	1.016353e-03	
127	3.000000e+00	1.021307e-03	
128	3.050000e+00	1.026408e-03	
129	3.100000e+00	1.031676e-03	
130	3.150000e+00	1.037130e-03	
131	3.200000e+00	1.042794e-03	
132	3.250000e+00	1.048691e-03	
133	3.300000e+00	1.054849e-03	
134	0.000000e+00	6.698155e-20	
135	5.000000e-02	2.435712e-04	
136	1.000000e-01	4.655504e-04	
137	1.500000e-01	6.671825e-04	
138	2.000000e-01	8.496159e-04	
139	2.500000e-01	1.013897e-03	
140	3.000000e-01	1.160962e-03	
141	3.500000e-01	1.291617e-03	
142	4.000000e-01	1.406508e-03	
143	4.500000e-01	1.506081e-03	
144	5.000000e-01	1.590575e-03	
145	5.500000e-01	1.660161e-03	
146	6.000000e-01	1.715395e-03	
147	6.500000e-01	1.757825e-03	
148	7.000000e-01	1.790018e-03	
149	7.500000e-01	1.814777e-03	
150	8.000000e-01	1.834411e-03	
151	8.500000e-01	1.850549e-03	
152	9.000000e-01	1.864262e-03	
153	9.500000e-01	1.876251e-03	
154	1.000000e+00	1.886978e-03	
155	1.050000e+00	1.896755e-03	
156	1.100000e+00	1.905799e-03	
157	1.150000e+00	1.914267e-03	
158	1.200000e+00	1.922270e-03	
159	1.250000e+00	1.929894e-03	
160	1.300000e+00	1.937204e-03	
161	1.350000e+00	1.944251e-03	
162	1.400000e+00	1.951072e-03	
163	1.450000e+00	1.957702e-03	
164	1.500000e+00	1.964165e-03	
165	1.550000e+00	1.970482e-03	
166	1.600000e+00	1.976671e-03	
167	1.650000e+00	1.982747e-03	
168	1.700000e+00	1.988723e-03	
169	1.750000e+00	1.994608e-03	
170	1.800000e+00	2.000412e-03	

Index   v-sweep         -i(vds)         
--------------------------------------------------------------------------------
171	1.850000e+00	2.006143e-03	
172	1.900000e+00	2.011808e-03	
173	1.950000e+00	2.017413e-03	
174	2.000000e+00	2.022964e-03	
175	2.050000e+00	2.028465e-03	
176	2.100000e+00	2.033921e-03	
177	2.150000e+00	2.039337e-03	
178	2.200000e+00	2.044718e-03	
179	2.250000e+00	2.050067e-03	
180	2.300000e+00	2.055391e-03	
181	2.350000e+00	2.060693e-03	
182	2.400000e+00	2.065979e-03	
183	2.450000e+00	2.071256e-03	
184	2.500000e+00	2.076531e-03	
185	2.550000e+00	2.081810e-03	
186	2.600000e+00	2.087103e-03	
187	2.650000e+00	2.092421e-03	
188	2.700000e+00	2.097773e-03	
189	2.750000e+00	2.103173e-03	
190	2.800000e+00	2.108634e-03	
191	2.850000e+00	2.114174e-03	
192	2.900000e+00	2.119809e-03	
193	2.950000e+00	2.125560e-03	
194	3.000000e+00	2.131448e-03	
195	3.050000e+00	2.137498e-03	
196	3.100000e+00	2.143736e-03	
197	3.150000e+00	2.150193e-03	
198	3.200000e+00	2.156900e-03	
199	3.250000e+00	2.163891e-03	
200	3.300000e+00	2.171205e-03	
201	0.000000e+00	4.368654e-35	
202	5.000000e-02	2.946303e-04	
203	1.000000e-01	5.699162e-04	
204	1.500000e-01	8.267400e-04	
205	2.000000e-01	1.065936e-03	
206	2.500000e-01	1.288288e-03	
207	3.000000e-01	1.494529e-03	
208	3.500000e-01	1.685339e-03	
209	4.000000e-01	1.861335e-03	
210	4.500000e-01	2.023060e-03	
211	5.000000e-01	2.170968e-03	
212	5.500000e-01	2.305395e-03	
213	6.000000e-01	2.426520e-03	
214	6.500000e-01	2.534320e-03	
215	7.000000e-01	2.628578e-03	
216	7.500000e-01	2.709006e-03	
217	8.000000e-01	2.775627e-03	
218	8.500000e-01	2.829281e-03	
219	9.000000e-01	2.871787e-03	
220	9.500000e-01	2.905494e-03	
221	1.000000e+00	2.932650e-03	
222	1.050000e+00	2.955049e-03	
223	1.100000e+00	2.974001e-03	
224	1.150000e+00	2.990421e-03	
225	1.200000e+00	3.004947e-03	
226	1.250000e+00	3.018027e-03	
227	1.300000e+00	3.029979e-03	
228	1.350000e+00	3.041037e-03	

Index   v-sweep         -i(vds)         
--------------------------------------------------------------------------------
229	1.400000e+00	3.051373e-03	
230	1.450000e+00	3.061116e-03	
231	1.500000e+00	3.070366e-03	
232	1.550000e+00	3.079202e-03	
233	1.600000e+00	3.087685e-03	
234	1.650000e+00	3.095865e-03	
235	1.700000e+00	3.103783e-03	
236	1.750000e+00	3.111471e-03	
237	1.800000e+00	3.118958e-03	
238	1.850000e+00	3.126266e-03	
239	1.900000e+00	3.133416e-03	
240	1.950000e+00	3.140422e-03	
241	2.000000e+00	3.147301e-03	
242	2.050000e+00	3.154064e-03	
243	2.100000e+00	3.160723e-03	
244	2.150000e+00	3.167286e-03	
245	2.200000e+00	3.173763e-03	
246	2.250000e+00	3.180161e-03	
247	2.300000e+00	3.186488e-03	
248	2.350000e+00	3.192751e-03	
249	2.400000e+00	3.198958e-03	
250	2.450000e+00	3.205114e-03	
251	2.500000e+00	3.211228e-03	
252	2.550000e+00	3.217307e-03	
253	2.600000e+00	3.223360e-03	
254	2.650000e+00	3.229397e-03	
255	2.700000e+00	3.235427e-03	
256	2.750000e+00	3.241464e-03	
257	2.800000e+00	3.247519e-03	
258	2.850000e+00	3.253609e-03	
259	2.900000e+00	3.259751e-03	
260	2.950000e+00	3.265964e-03	
261	3.000000e+00	3.272269e-03	
262	3.050000e+00	3.278692e-03	
263	3.100000e+00	3.285258e-03	
264	3.150000e+00	3.291999e-03	
265	3.200000e+00	3.298948e-03	
266	3.250000e+00	3.306142e-03	
267	3.300000e+00	3.313622e-03	
268	0.000000e+00	5.338145e-36	
269	5.000000e-02	3.271262e-04	
270	1.000000e-01	6.371515e-04	
271	1.500000e-01	9.307155e-04	
272	2.000000e-01	1.208432e-03	
273	2.500000e-01	1.470886e-03	
274	3.000000e-01	1.718637e-03	
275	3.500000e-01	1.952216e-03	
276	4.000000e-01	2.172123e-03	
277	4.500000e-01	2.378827e-03	
278	5.000000e-01	2.572761e-03	
279	5.500000e-01	2.754315e-03	
280	6.000000e-01	2.923827e-03	
281	6.500000e-01	3.081571e-03	
282	7.000000e-01	3.227731e-03	
283	7.500000e-01	3.362372e-03	
284	8.000000e-01	3.485407e-03	
285	8.500000e-01	3.596558e-03	
286	9.000000e-01	3.695379e-03	

Index   v-sweep         -i(vds)         
--------------------------------------------------------------------------------
287	9.500000e-01	3.781390e-03	
288	1.000000e+00	3.854398e-03	
289	1.050000e+00	3.914905e-03	
290	1.100000e+00	3.964261e-03	
291	1.150000e+00	4.004388e-03	
292	1.200000e+00	4.037291e-03	
293	1.250000e+00	4.064710e-03	
294	1.300000e+00	4.088006e-03	
295	1.350000e+00	4.108189e-03	
296	1.400000e+00	4.125994e-03	
297	1.450000e+00	4.141953e-03	
298	1.500000e+00	4.156458e-03	
299	1.550000e+00	4.169797e-03	
300	1.600000e+00	4.182189e-03	
301	1.650000e+00	4.193801e-03	
302	1.700000e+00	4.204760e-03	
303	1.750000e+00	4.215170e-03	
304	1.800000e+00	4.225111e-03	
305	1.850000e+00	4.234648e-03	
306	1.900000e+00	4.243835e-03	
307	1.950000e+00	4.252715e-03	
308	2.000000e+00	4.261325e-03	
309	2.050000e+00	4.269697e-03	
310	2.100000e+00	4.277855e-03	
311	2.150000e+00	4.285822e-03	
312	2.200000e+00	4.293618e-03	
313	2.250000e+00	4.301258e-03	
314	2.300000e+00	4.308758e-03	
315	2.350000e+00	4.316130e-03	
316	2.400000e+00	4.323386e-03	
317	2.450000e+00	4.330537e-03	
318	2.500000e+00	4.337592e-03	
319	2.550000e+00	4.344561e-03	
320	2.600000e+00	4.351453e-03	
321	2.650000e+00	4.358279e-03	
322	2.700000e+00	4.365047e-03	
323	2.750000e+00	4.371769e-03	
324	2.800000e+00	4.378456e-03	
325	2.850000e+00	4.385121e-03	
326	2.900000e+00	4.391777e-03	
327	2.950000e+00	4.398443e-03	
328	3.000000e+00	4.405134e-03	
329	3.050000e+00	4.411872e-03	
330	3.100000e+00	4.418681e-03	
331	3.150000e+00	4.425585e-03	
332	3.200000e+00	4.432615e-03	
333	3.250000e+00	4.439804e-03	
334	3.300000e+00	4.447187e-03	
335	0.000000e+00	2.701068e-35	
336	5.000000e-02	3.482632e-04	
337	1.000000e-01	6.814117e-04	
338	1.500000e-01	9.999219e-04	
339	2.000000e-01	1.304255e-03	
340	2.500000e-01	1.594854e-03	
341	3.000000e-01	1.872150e-03	
342	3.500000e-01	2.136553e-03	
343	4.000000e-01	2.388460e-03	
344	4.500000e-01	2.628249e-03	

Index   v-sweep         -i(vds)         
--------------------------------------------------------------------------------
345	5.000000e-01	2.856279e-03	
346	5.500000e-01	3.072891e-03	
347	6.000000e-01	3.278402e-03	
348	6.500000e-01	3.473104e-03	
349	7.000000e-01	3.657260e-03	
350	7.500000e-01	3.831092e-03	
351	8.000000e-01	3.994774e-03	
352	8.500000e-01	4.148417e-03	
353	9.000000e-01	4.292041e-03	
354	9.500000e-01	4.425553e-03	
355	1.000000e+00	4.548710e-03	
356	1.050000e+00	4.661102e-03	
357	1.100000e+00	4.762182e-03	
358	1.150000e+00	4.851394e-03	
359	1.200000e+00	4.928449e-03	
360	1.250000e+00	4.993643e-03	
361	1.300000e+00	5.047995e-03	
362	1.350000e+00	5.093071e-03	
363	1.400000e+00	5.130616e-03	
364	1.450000e+00	5.162241e-03	
365	1.500000e+00	5.189281e-03	
366	1.550000e+00	5.212776e-03	
367	1.600000e+00	5.233510e-03	
368	1.650000e+00	5.252070e-03	
369	1.700000e+00	5.268898e-03	
370	1.750000e+00	5.284326e-03	
371	1.800000e+00	5.298608e-03	
372	1.850000e+00	5.311940e-03	
373	1.900000e+00	5.324476e-03	
374	1.950000e+00	5.336339e-03	
375	2.000000e+00	5.347625e-03	
376	2.050000e+00	5.358413e-03	
377	2.100000e+00	5.368770e-03	
378	2.150000e+00	5.378748e-03	
379	2.200000e+00	5.388392e-03	
380	2.250000e+00	5.397740e-03	
381	2.300000e+00	5.406825e-03	
382	2.350000e+00	5.415672e-03	
383	2.400000e+00	5.424306e-03	
384	2.450000e+00	5.432748e-03	
385	2.500000e+00	5.441015e-03	
386	2.550000e+00	5.449123e-03	
387	2.600000e+00	5.457087e-03	
388	2.650000e+00	5.464919e-03	
389	2.700000e+00	5.472633e-03	
390	2.750000e+00	5.480240e-03	
391	2.800000e+00	5.487752e-03	
392	2.850000e+00	5.495181e-03	
393	2.900000e+00	5.502539e-03	
394	2.950000e+00	5.509839e-03	
395	3.000000e+00	5.517096e-03	
396	3.050000e+00	5.524326e-03	
397	3.100000e+00	5.531547e-03	
398	3.150000e+00	5.538779e-03	
399	3.200000e+00	5.546045e-03	
400	3.250000e+00	5.553370e-03	
401	3.300000e+00	5.560784e-03	
Note: No ".plot", ".print", or ".fourier" lines; no simulations run
