
Note: Compatibility modes selected: hs

Warning: m=xx on .subckt line will override multiplier m hierarchy!


Circuit: ***************************

Doing analysis at TEMP = 25.000000 and TNOM = 25.000000


No. of Data Rows : 133
                          ***************************
                          DC transfer characteristic  Mon Jan  9 13:58:51  2023
--------------------------------------------------------------------------------
Index   v-sweep         rds             
--------------------------------------------------------------------------------
0	0.000000e+00	2.809515e-06	
1	-5.00000e-02	1.539019e-06	
2	-1.00000e-01	5.203128e-07	
3	-1.50000e-01	1.097548e-07	
4	-2.00000e-01	2.898230e-08	
5	-2.50000e-01	1.155401e-08	
6	-3.00000e-01	6.267740e-09	
7	-3.50000e-01	4.178988e-09	
8	-4.00000e-01	3.183459e-09	
9	-4.50000e-01	2.639219e-09	
10	-5.00000e-01	2.309051e-09	
11	-5.50000e-01	2.091832e-09	
12	-6.00000e-01	1.939442e-09	
13	-6.50000e-01	1.826896e-09	
14	-7.00000e-01	1.740268e-09	
15	-7.50000e-01	1.671317e-09	
16	-8.00000e-01	1.614920e-09	
17	-8.50000e-01	1.567751e-09	
18	-9.00000e-01	1.527569e-09	
19	-9.50000e-01	1.492811e-09	
20	-1.00000e+00	1.462361e-09	
21	-1.05000e+00	1.435394e-09	
22	-1.10000e+00	1.411293e-09	
23	-1.15000e+00	1.389585e-09	
24	-1.20000e+00	1.369897e-09	
25	-1.25000e+00	1.351938e-09	
26	-1.30000e+00	1.335469e-09	
27	-1.35000e+00	1.320298e-09	
28	-1.40000e+00	1.306265e-09	
29	-1.45000e+00	1.293239e-09	
30	-1.50000e+00	1.281106e-09	
31	-1.55000e+00	1.269773e-09	
32	-1.60000e+00	1.259157e-09	
33	-1.65000e+00	1.249190e-09	
34	-1.70000e+00	1.239810e-09	
35	-1.75000e+00	1.230964e-09	
36	-1.80000e+00	1.222606e-09	
37	-1.85000e+00	1.214694e-09	
38	-1.90000e+00	1.207193e-09	
39	-1.95000e+00	1.200070e-09	
40	-2.00000e+00	1.193296e-09	
41	-2.05000e+00	1.186846e-09	
42	-2.10000e+00	1.180695e-09	
43	-2.15000e+00	1.174824e-09	
44	-2.20000e+00	1.169212e-09	
45	-2.25000e+00	1.163843e-09	
46	-2.30000e+00	1.158700e-09	
47	-2.35000e+00	1.153770e-09	
48	-2.40000e+00	1.149039e-09	
49	-2.45000e+00	1.144496e-09	
50	-2.50000e+00	1.140128e-09	
51	-2.55000e+00	1.135927e-09	
52	-2.60000e+00	1.131882e-09	
53	-2.65000e+00	1.127985e-09	
54	-2.70000e+00	1.124227e-09	

Index   v-sweep         rds             
--------------------------------------------------------------------------------
55	-2.75000e+00	1.120602e-09	
56	-2.80000e+00	1.117103e-09	
57	-2.85000e+00	1.113722e-09	
58	-2.90000e+00	1.110454e-09	
59	-2.95000e+00	1.107294e-09	
60	-3.00000e+00	1.104235e-09	
61	-3.05000e+00	1.101274e-09	
62	-3.10000e+00	1.098405e-09	
63	-3.15000e+00	1.095625e-09	
64	-3.20000e+00	1.092930e-09	
65	-3.25000e+00	1.090314e-09	
66	-3.30000e+00	1.087776e-09	
67	-3.35000e+00	1.085312e-09	
68	-3.40000e+00	1.082918e-09	
69	-3.45000e+00	1.080592e-09	
70	-3.50000e+00	1.078330e-09	
71	-3.55000e+00	1.076131e-09	
72	-3.60000e+00	1.073991e-09	
73	-3.65000e+00	1.071909e-09	
74	-3.70000e+00	1.069882e-09	
75	-3.75000e+00	1.067908e-09	
76	-3.80000e+00	1.065985e-09	
77	-3.85000e+00	1.064111e-09	
78	-3.90000e+00	1.062285e-09	
79	-3.95000e+00	1.060504e-09	
80	-4.00000e+00	1.058767e-09	
81	-4.05000e+00	1.057073e-09	
82	-4.10000e+00	1.055420e-09	
83	-4.15000e+00	1.053807e-09	
84	-4.20000e+00	1.052232e-09	
85	-4.25000e+00	1.050694e-09	
86	-4.30000e+00	1.049192e-09	
87	-4.35000e+00	1.047724e-09	
88	-4.40000e+00	1.046291e-09	
89	-4.45000e+00	1.044890e-09	
90	-4.50000e+00	1.043521e-09	
91	-4.55000e+00	1.042182e-09	
92	-4.60000e+00	1.040874e-09	
93	-4.65000e+00	1.039594e-09	
94	-4.70000e+00	1.038342e-09	
95	-4.75000e+00	1.037118e-09	
96	-4.80000e+00	1.035921e-09	
97	-4.85000e+00	1.034749e-09	
98	-4.90000e+00	1.033602e-09	
99	-4.95000e+00	1.032481e-09	
100	-5.00000e+00	1.031383e-09	
101	-5.05000e+00	1.030308e-09	
102	-5.10000e+00	1.029256e-09	
103	-5.15000e+00	1.028226e-09	
104	-5.20000e+00	1.027218e-09	
105	-5.25000e+00	1.026231e-09	
106	-5.30000e+00	1.025265e-09	
107	-5.35000e+00	1.024318e-09	
108	-5.40000e+00	1.023392e-09	
109	-5.45000e+00	1.022484e-09	
110	-5.50000e+00	1.021596e-09	
111	-5.55000e+00	1.020726e-09	
112	-5.60000e+00	1.019874e-09	

Index   v-sweep         rds             
--------------------------------------------------------------------------------
113	-5.65000e+00	1.019039e-09	
114	-5.70000e+00	1.018222e-09	
115	-5.75000e+00	1.017422e-09	
116	-5.80000e+00	1.016638e-09	
117	-5.85000e+00	1.015871e-09	
118	-5.90000e+00	1.015119e-09	
119	-5.95000e+00	1.014383e-09	
120	-6.00000e+00	1.013663e-09	
121	-6.05000e+00	1.012957e-09	
122	-6.10000e+00	1.012267e-09	
123	-6.15000e+00	1.011590e-09	
124	-6.20000e+00	1.010928e-09	
125	-6.25000e+00	1.010280e-09	
126	-6.30000e+00	1.009646e-09	
127	-6.35000e+00	1.009025e-09	
128	-6.40000e+00	1.008418e-09	
129	-6.45000e+00	1.007823e-09	
130	-6.50000e+00	1.007241e-09	
131	-6.55000e+00	1.006672e-09	
132	-6.60000e+00	1.006115e-09	
Reset re-loads circuit ***************************

Circuit: ***************************

Doing analysis at TEMP = 25.000000 and TNOM = 25.000000


No. of Data Rows : 133
                          ***************************
                          DC transfer characteristic  Mon Jan  9 13:58:51  2023
--------------------------------------------------------------------------------
Index   v-sweep         rds             
--------------------------------------------------------------------------------
0	0.000000e+00	2.628077e-05	
1	-5.00000e-02	2.462568e-05	
2	-1.00000e-01	2.297175e-05	
3	-1.50000e-01	2.131908e-05	
4	-2.00000e-01	1.966781e-05	
5	-2.50000e-01	1.801817e-05	
6	-3.00000e-01	1.637053e-05	
7	-3.50000e-01	1.472548e-05	
8	-4.00000e-01	1.308401e-05	
9	-4.50000e-01	1.144790e-05	
10	-5.00000e-01	9.820395e-06	
11	-5.50000e-01	8.207793e-06	
12	-6.00000e-01	6.622726e-06	
13	-6.50000e-01	5.091066e-06	
14	-7.00000e-01	3.664009e-06	
15	-7.50000e-01	2.428699e-06	
16	-8.00000e-01	1.485971e-06	
17	-8.50000e-01	8.740560e-07	
18	-9.00000e-01	5.282777e-07	
19	-9.50000e-01	3.452827e-07	
20	-1.00000e+00	2.479000e-07	
21	-1.05000e+00	1.936041e-07	
22	-1.10000e+00	1.613935e-07	
23	-1.15000e+00	1.410313e-07	
24	-1.20000e+00	1.273779e-07	
25	-1.25000e+00	1.177329e-07	
26	-1.30000e+00	1.106065e-07	
27	-1.35000e+00	1.051361e-07	
28	-1.40000e+00	1.008002e-07	
29	-1.45000e+00	9.726979e-08	
30	-1.50000e+00	9.433020e-08	
31	-1.55000e+00	9.183620e-08	
32	-1.60000e+00	8.968675e-08	
33	-1.65000e+00	8.780956e-08	
34	-1.70000e+00	8.615168e-08	
35	-1.75000e+00	8.467343e-08	
36	-1.80000e+00	8.334452e-08	
37	-1.85000e+00	8.214136e-08	
38	-1.90000e+00	8.104534e-08	
39	-1.95000e+00	8.004151e-08	
40	-2.00000e+00	7.911774e-08	
41	-2.05000e+00	7.826406e-08	
42	-2.10000e+00	7.747216e-08	
43	-2.15000e+00	7.673509e-08	
44	-2.20000e+00	7.604695e-08	
45	-2.25000e+00	7.540270e-08	
46	-2.30000e+00	7.479803e-08	
47	-2.35000e+00	7.422918e-08	
48	-2.40000e+00	7.369290e-08	
49	-2.45000e+00	7.318632e-08	
50	-2.50000e+00	7.270693e-08	
51	-2.55000e+00	7.225249e-08	
52	-2.60000e+00	7.182103e-08	
53	-2.65000e+00	7.141078e-08	
54	-2.70000e+00	7.102016e-08	

Index   v-sweep         rds             
--------------------------------------------------------------------------------
55	-2.75000e+00	7.064775e-08	
56	-2.80000e+00	7.029225e-08	
57	-2.85000e+00	6.995252e-08	
58	-2.90000e+00	6.962749e-08	
59	-2.95000e+00	6.931621e-08	
60	-3.00000e+00	6.901780e-08	
61	-3.05000e+00	6.873146e-08	
62	-3.10000e+00	6.845646e-08	
63	-3.15000e+00	6.819212e-08	
64	-3.20000e+00	6.793783e-08	
65	-3.25000e+00	6.769302e-08	
66	-3.30000e+00	6.745714e-08	
67	-3.35000e+00	6.722973e-08	
68	-3.40000e+00	6.701032e-08	
69	-3.45000e+00	6.679849e-08	
70	-3.50000e+00	6.659386e-08	
71	-3.55000e+00	6.639606e-08	
72	-3.60000e+00	6.620474e-08	
73	-3.65000e+00	6.601960e-08	
74	-3.70000e+00	6.584034e-08	
75	-3.75000e+00	6.566668e-08	
76	-3.80000e+00	6.549836e-08	
77	-3.85000e+00	6.533514e-08	
78	-3.90000e+00	6.517678e-08	
79	-3.95000e+00	6.502309e-08	
80	-4.00000e+00	6.487384e-08	
81	-4.05000e+00	6.472886e-08	
82	-4.10000e+00	6.458797e-08	
83	-4.15000e+00	6.445098e-08	
84	-4.20000e+00	6.431776e-08	
85	-4.25000e+00	6.418814e-08	
86	-4.30000e+00	6.406199e-08	
87	-4.35000e+00	6.393916e-08	
88	-4.40000e+00	6.381954e-08	
89	-4.45000e+00	6.370299e-08	
90	-4.50000e+00	6.358942e-08	
91	-4.55000e+00	6.347870e-08	
92	-4.60000e+00	6.337074e-08	
93	-4.65000e+00	6.326544e-08	
94	-4.70000e+00	6.316270e-08	
95	-4.75000e+00	6.306245e-08	
96	-4.80000e+00	6.296458e-08	
97	-4.85000e+00	6.286904e-08	
98	-4.90000e+00	6.277573e-08	
99	-4.95000e+00	6.268458e-08	
100	-5.00000e+00	6.259554e-08	
101	-5.05000e+00	6.250852e-08	
102	-5.10000e+00	6.242348e-08	
103	-5.15000e+00	6.234035e-08	
104	-5.20000e+00	6.225907e-08	
105	-5.25000e+00	6.217959e-08	
106	-5.30000e+00	6.210185e-08	
107	-5.35000e+00	6.202582e-08	
108	-5.40000e+00	6.195143e-08	
109	-5.45000e+00	6.187865e-08	
110	-5.50000e+00	6.180742e-08	
111	-5.55000e+00	6.173772e-08	
112	-5.60000e+00	6.166950e-08	

Index   v-sweep         rds             
--------------------------------------------------------------------------------
113	-5.65000e+00	6.160272e-08	
114	-5.70000e+00	6.153734e-08	
115	-5.75000e+00	6.147334e-08	
116	-5.80000e+00	6.141067e-08	
117	-5.85000e+00	6.134930e-08	
118	-5.90000e+00	6.128921e-08	
119	-5.95000e+00	6.123036e-08	
120	-6.00000e+00	6.117272e-08	
121	-6.05000e+00	6.111627e-08	
122	-6.10000e+00	6.106098e-08	
123	-6.15000e+00	6.100683e-08	
124	-6.20000e+00	6.095378e-08	
125	-6.25000e+00	6.090182e-08	
126	-6.30000e+00	6.085093e-08	
127	-6.35000e+00	6.080107e-08	
128	-6.40000e+00	6.075224e-08	
129	-6.45000e+00	6.070440e-08	
130	-6.50000e+00	6.065755e-08	
131	-6.55000e+00	6.061165e-08	
132	-6.60000e+00	6.056670e-08	
Reset re-loads circuit ***************************

Circuit: ***************************

Doing analysis at TEMP = 25.000000 and TNOM = 25.000000


No. of Data Rows : 133
                          ***************************
                          DC transfer characteristic  Mon Jan  9 13:58:51  2023
--------------------------------------------------------------------------------
Index   v-sweep         rds             
--------------------------------------------------------------------------------
0	0.000000e+00	4.599564e-05	
1	-5.00000e-02	4.446822e-05	
2	-1.00000e-01	4.294160e-05	
3	-1.50000e-01	4.141580e-05	
4	-2.00000e-01	3.989081e-05	
5	-2.50000e-01	3.836665e-05	
6	-3.00000e-01	3.684333e-05	
7	-3.50000e-01	3.532086e-05	
8	-4.00000e-01	3.379926e-05	
9	-4.50000e-01	3.227855e-05	
10	-5.00000e-01	3.075877e-05	
11	-5.50000e-01	2.923996e-05	
12	-6.00000e-01	2.772217e-05	
13	-6.50000e-01	2.620547e-05	
14	-7.00000e-01	2.468995e-05	
15	-7.50000e-01	2.317575e-05	
16	-8.00000e-01	2.166305e-05	
17	-8.50000e-01	2.015210e-05	
18	-9.00000e-01	1.864328e-05	
19	-9.50000e-01	1.713713e-05	
20	-1.00000e+00	1.563449e-05	
21	-1.05000e+00	1.413660e-05	
22	-1.10000e+00	1.264547e-05	
23	-1.15000e+00	1.116433e-05	
24	-1.20000e+00	9.698480e-06	
25	-1.25000e+00	8.256830e-06	
26	-1.30000e+00	6.854326e-06	
27	-1.35000e+00	5.515481e-06	
28	-1.40000e+00	4.277805e-06	
29	-1.45000e+00	3.190740e-06	
30	-1.50000e+00	2.302892e-06	
31	-1.55000e+00	1.638039e-06	
32	-1.60000e+00	1.179534e-06	
33	-1.65000e+00	8.811627e-07	
34	-1.70000e+00	6.917476e-07	
35	-1.75000e+00	5.709405e-07	
36	-1.80000e+00	4.919933e-07	
37	-1.85000e+00	4.385832e-07	
38	-1.90000e+00	4.010407e-07	
39	-1.95000e+00	3.736351e-07	
40	-2.00000e+00	3.529137e-07	
41	-2.05000e+00	3.367449e-07	
42	-2.10000e+00	3.237757e-07	
43	-2.15000e+00	3.131227e-07	
44	-2.20000e+00	3.041926e-07	
45	-2.25000e+00	2.965762e-07	
46	-2.30000e+00	2.899839e-07	
47	-2.35000e+00	2.842064e-07	
48	-2.40000e+00	2.790885e-07	
49	-2.45000e+00	2.745134e-07	
50	-2.50000e+00	2.703909e-07	
51	-2.55000e+00	2.666510e-07	
52	-2.60000e+00	2.632378e-07	
53	-2.65000e+00	2.601064e-07	
54	-2.70000e+00	2.572202e-07	

Index   v-sweep         rds             
--------------------------------------------------------------------------------
55	-2.75000e+00	2.545492e-07	
56	-2.80000e+00	2.520682e-07	
57	-2.85000e+00	2.497562e-07	
58	-2.90000e+00	2.475951e-07	
59	-2.95000e+00	2.455696e-07	
60	-3.00000e+00	2.436667e-07	
61	-3.05000e+00	2.418747e-07	
62	-3.10000e+00	2.401838e-07	
63	-3.15000e+00	2.385852e-07	
64	-3.20000e+00	2.370712e-07	
65	-3.25000e+00	2.356349e-07	
66	-3.30000e+00	2.342702e-07	
67	-3.35000e+00	2.329717e-07	
68	-3.40000e+00	2.317345e-07	
69	-3.45000e+00	2.305542e-07	
70	-3.50000e+00	2.294269e-07	
71	-3.55000e+00	2.283490e-07	
72	-3.60000e+00	2.273171e-07	
73	-3.65000e+00	2.263284e-07	
74	-3.70000e+00	2.253801e-07	
75	-3.75000e+00	2.244697e-07	
76	-3.80000e+00	2.235950e-07	
77	-3.85000e+00	2.227538e-07	
78	-3.90000e+00	2.219442e-07	
79	-3.95000e+00	2.211645e-07	
80	-4.00000e+00	2.204130e-07	
81	-4.05000e+00	2.196882e-07	
82	-4.10000e+00	2.189886e-07	
83	-4.15000e+00	2.183130e-07	
84	-4.20000e+00	2.176601e-07	
85	-4.25000e+00	2.170288e-07	
86	-4.30000e+00	2.164180e-07	
87	-4.35000e+00	2.158268e-07	
88	-4.40000e+00	2.152541e-07	
89	-4.45000e+00	2.146992e-07	
90	-4.50000e+00	2.141612e-07	
91	-4.55000e+00	2.136394e-07	
92	-4.60000e+00	2.131330e-07	
93	-4.65000e+00	2.126413e-07	
94	-4.70000e+00	2.121638e-07	
95	-4.75000e+00	2.116999e-07	
96	-4.80000e+00	2.112489e-07	
97	-4.85000e+00	2.108103e-07	
98	-4.90000e+00	2.103837e-07	
99	-4.95000e+00	2.099685e-07	
100	-5.00000e+00	2.095643e-07	
101	-5.05000e+00	2.091708e-07	
102	-5.10000e+00	2.087874e-07	
103	-5.15000e+00	2.084138e-07	
104	-5.20000e+00	2.080497e-07	
105	-5.25000e+00	2.076947e-07	
106	-5.30000e+00	2.073484e-07	
107	-5.35000e+00	2.070106e-07	
108	-5.40000e+00	2.066810e-07	
109	-5.45000e+00	2.063593e-07	
110	-5.50000e+00	2.060453e-07	
111	-5.55000e+00	2.057386e-07	
112	-5.60000e+00	2.054391e-07	

Index   v-sweep         rds             
--------------------------------------------------------------------------------
113	-5.65000e+00	2.051464e-07	
114	-5.70000e+00	2.048605e-07	
115	-5.75000e+00	2.045811e-07	
116	-5.80000e+00	2.043079e-07	
117	-5.85000e+00	2.040408e-07	
118	-5.90000e+00	2.037797e-07	
119	-5.95000e+00	2.035243e-07	
120	-6.00000e+00	2.032745e-07	
121	-6.05000e+00	2.030302e-07	
122	-6.10000e+00	2.027911e-07	
123	-6.15000e+00	2.025571e-07	
124	-6.20000e+00	2.023281e-07	
125	-6.25000e+00	2.021040e-07	
126	-6.30000e+00	2.018846e-07	
127	-6.35000e+00	2.016699e-07	
128	-6.40000e+00	2.014596e-07	
129	-6.45000e+00	2.012537e-07	
130	-6.50000e+00	2.010521e-07	
131	-6.55000e+00	2.008547e-07	
132	-6.60000e+00	2.006614e-07	
Reset re-loads circuit ***************************

Circuit: ***************************

Doing analysis at TEMP = 25.000000 and TNOM = 25.000000


No. of Data Rows : 133
                          ***************************
                          DC transfer characteristic  Mon Jan  9 13:58:51  2023
--------------------------------------------------------------------------------
Index   v-sweep         rds             
--------------------------------------------------------------------------------
0	0.000000e+00	6.236945e-05	
1	-5.00000e-02	6.097212e-05	
2	-1.00000e-01	5.957548e-05	
3	-1.50000e-01	5.817950e-05	
4	-2.00000e-01	5.678421e-05	
5	-2.50000e-01	5.538959e-05	
6	-3.00000e-01	5.399565e-05	
7	-3.50000e-01	5.260239e-05	
8	-4.00000e-01	5.120982e-05	
9	-4.50000e-01	4.981793e-05	
10	-5.00000e-01	4.842673e-05	
11	-5.50000e-01	4.703623e-05	
12	-6.00000e-01	4.564642e-05	
13	-6.50000e-01	4.425731e-05	
14	-7.00000e-01	4.286892e-05	
15	-7.50000e-01	4.148124e-05	
16	-8.00000e-01	4.009429e-05	
17	-8.50000e-01	3.870808e-05	
18	-9.00000e-01	3.732262e-05	
19	-9.50000e-01	3.593793e-05	
20	-1.00000e+00	3.455404e-05	
21	-1.05000e+00	3.317096e-05	
22	-1.10000e+00	3.178873e-05	
23	-1.15000e+00	3.040739e-05	
24	-1.20000e+00	2.902700e-05	
25	-1.25000e+00	2.764762e-05	
26	-1.30000e+00	2.626934e-05	
27	-1.35000e+00	2.489227e-05	
28	-1.40000e+00	2.351656e-05	
29	-1.45000e+00	2.214241e-05	
30	-1.50000e+00	2.077009e-05	
31	-1.55000e+00	1.939998e-05	
32	-1.60000e+00	1.803258e-05	
33	-1.65000e+00	1.666863e-05	
34	-1.70000e+00	1.530919e-05	
35	-1.75000e+00	1.395578e-05	
36	-1.80000e+00	1.261068e-05	
37	-1.85000e+00	1.127731e-05	
38	-1.90000e+00	9.960889e-06	
39	-1.95000e+00	8.669351e-06	
40	-2.00000e+00	7.414719e-06	
41	-2.05000e+00	6.214678e-06	
42	-2.10000e+00	5.093735e-06	
43	-2.15000e+00	4.082276e-06	
44	-2.20000e+00	3.211277e-06	
45	-2.25000e+00	2.502394e-06	
46	-2.30000e+00	1.958386e-06	
47	-2.35000e+00	1.561600e-06	
48	-2.40000e+00	1.281976e-06	
49	-2.45000e+00	1.087805e-06	
50	-2.50000e+00	9.525875e-07	
51	-2.55000e+00	8.569326e-07	
52	-2.60000e+00	7.876551e-07	
53	-2.65000e+00	7.361005e-07	
54	-2.70000e+00	6.966512e-07	

Index   v-sweep         rds             
--------------------------------------------------------------------------------
55	-2.75000e+00	6.656474e-07	
56	-2.80000e+00	6.406753e-07	
57	-2.85000e+00	6.201150e-07	
58	-2.90000e+00	6.028577e-07	
59	-2.95000e+00	5.881283e-07	
60	-3.00000e+00	5.753740e-07	
61	-3.05000e+00	5.641922e-07	
62	-3.10000e+00	5.542841e-07	
63	-3.15000e+00	5.454236e-07	
64	-3.20000e+00	5.374370e-07	
65	-3.25000e+00	5.301884e-07	
66	-3.30000e+00	5.235699e-07	
67	-3.35000e+00	5.174950e-07	
68	-3.40000e+00	5.118931e-07	
69	-3.45000e+00	5.067060e-07	
70	-3.50000e+00	5.018853e-07	
71	-3.55000e+00	4.973904e-07	
72	-3.60000e+00	4.931868e-07	
73	-3.65000e+00	4.892450e-07	
74	-3.70000e+00	4.855396e-07	
75	-3.75000e+00	4.820486e-07	
76	-3.80000e+00	4.787529e-07	
77	-3.85000e+00	4.756355e-07	
78	-3.90000e+00	4.726817e-07	
79	-3.95000e+00	4.698782e-07	
80	-4.00000e+00	4.672135e-07	
81	-4.05000e+00	4.646769e-07	
82	-4.10000e+00	4.622591e-07	
83	-4.15000e+00	4.599517e-07	
84	-4.20000e+00	4.577470e-07	
85	-4.25000e+00	4.556381e-07	
86	-4.30000e+00	4.536187e-07	
87	-4.35000e+00	4.516831e-07	
88	-4.40000e+00	4.498259e-07	
89	-4.45000e+00	4.480426e-07	
90	-4.50000e+00	4.463285e-07	
91	-4.55000e+00	4.446798e-07	
92	-4.60000e+00	4.430926e-07	
93	-4.65000e+00	4.415635e-07	
94	-4.70000e+00	4.400894e-07	
95	-4.75000e+00	4.386673e-07	
96	-4.80000e+00	4.372944e-07	
97	-4.85000e+00	4.359682e-07	
98	-4.90000e+00	4.346863e-07	
99	-4.95000e+00	4.334465e-07	
100	-5.00000e+00	4.322469e-07	
101	-5.05000e+00	4.310853e-07	
102	-5.10000e+00	4.299601e-07	
103	-5.15000e+00	4.288696e-07	
104	-5.20000e+00	4.278121e-07	
105	-5.25000e+00	4.267862e-07	
106	-5.30000e+00	4.257905e-07	
107	-5.35000e+00	4.248237e-07	
108	-5.40000e+00	4.238845e-07	
109	-5.45000e+00	4.229718e-07	
110	-5.50000e+00	4.220844e-07	
111	-5.55000e+00	4.212215e-07	
112	-5.60000e+00	4.203819e-07	

Index   v-sweep         rds             
--------------------------------------------------------------------------------
113	-5.65000e+00	4.195647e-07	
114	-5.70000e+00	4.187691e-07	
115	-5.75000e+00	4.179943e-07	
116	-5.80000e+00	4.172394e-07	
117	-5.85000e+00	4.165037e-07	
118	-5.90000e+00	4.157865e-07	
119	-5.95000e+00	4.150872e-07	
120	-6.00000e+00	4.144051e-07	
121	-6.05000e+00	4.137397e-07	
122	-6.10000e+00	4.130902e-07	
123	-6.15000e+00	4.124563e-07	
124	-6.20000e+00	4.118373e-07	
125	-6.25000e+00	4.112328e-07	
126	-6.30000e+00	4.106423e-07	
127	-6.35000e+00	4.100655e-07	
128	-6.40000e+00	4.095017e-07	
129	-6.45000e+00	4.089507e-07	
130	-6.50000e+00	4.084120e-07	
131	-6.55000e+00	4.078853e-07	
132	-6.60000e+00	4.073703e-07	
Reset re-loads circuit ***************************

Circuit: ***************************

Doing analysis at TEMP = 25.000000 and TNOM = 25.000000


No. of Data Rows : 133
                          ***************************
                          DC transfer characteristic  Mon Jan  9 13:58:51  2023
--------------------------------------------------------------------------------
Index   v-sweep         rds             
--------------------------------------------------------------------------------
0	0.000000e+00	7.607708e-05	
1	-5.00000e-02	7.479770e-05	
2	-1.00000e-01	7.351891e-05	
3	-1.50000e-01	7.224069e-05	
4	-2.00000e-01	7.096306e-05	
5	-2.50000e-01	6.968601e-05	
6	-3.00000e-01	6.840954e-05	
7	-3.50000e-01	6.713365e-05	
8	-4.00000e-01	6.585834e-05	
9	-4.50000e-01	6.458362e-05	
10	-5.00000e-01	6.330948e-05	
11	-5.50000e-01	6.203593e-05	
12	-6.00000e-01	6.076296e-05	
13	-6.50000e-01	5.949058e-05	
14	-7.00000e-01	5.821878e-05	
15	-7.50000e-01	5.694758e-05	
16	-8.00000e-01	5.567696e-05	
17	-8.50000e-01	5.440694e-05	
18	-9.00000e-01	5.313751e-05	
19	-9.50000e-01	5.186867e-05	
20	-1.00000e+00	5.060044e-05	
21	-1.05000e+00	4.933280e-05	
22	-1.10000e+00	4.806577e-05	
23	-1.15000e+00	4.679936e-05	
24	-1.20000e+00	4.553356e-05	
25	-1.25000e+00	4.426838e-05	
26	-1.30000e+00	4.300383e-05	
27	-1.35000e+00	4.173991e-05	
28	-1.40000e+00	4.047664e-05	
29	-1.45000e+00	3.921403e-05	
30	-1.50000e+00	3.795210e-05	
31	-1.55000e+00	3.669085e-05	
32	-1.60000e+00	3.543031e-05	
33	-1.65000e+00	3.417050e-05	
34	-1.70000e+00	3.291145e-05	
35	-1.75000e+00	3.165320e-05	
36	-1.80000e+00	3.039580e-05	
37	-1.85000e+00	2.913928e-05	
38	-1.90000e+00	2.788373e-05	
39	-1.95000e+00	2.662922e-05	
40	-2.00000e+00	2.537587e-05	
41	-2.05000e+00	2.412381e-05	
42	-2.10000e+00	2.287322e-05	
43	-2.15000e+00	2.162432e-05	
44	-2.20000e+00	2.037742e-05	
45	-2.25000e+00	1.913293e-05	
46	-2.30000e+00	1.789139e-05	
47	-2.35000e+00	1.665355e-05	
48	-2.40000e+00	1.542041e-05	
49	-2.45000e+00	1.419343e-05	
50	-2.50000e+00	1.297461e-05	
51	-2.55000e+00	1.176683e-05	
52	-2.60000e+00	1.057423e-05	
53	-2.65000e+00	9.402703e-06	
54	-2.70000e+00	8.260682e-06	

Index   v-sweep         rds             
--------------------------------------------------------------------------------
55	-2.75000e+00	7.159896e-06	
56	-2.80000e+00	6.116025e-06	
57	-2.85000e+00	5.148564e-06	
58	-2.90000e+00	4.279022e-06	
59	-2.95000e+00	3.526819e-06	
60	-3.00000e+00	2.903691e-06	
61	-3.05000e+00	2.409401e-06	
62	-3.10000e+00	2.031686e-06	
63	-3.15000e+00	1.750548e-06	
64	-3.20000e+00	1.544004e-06	
65	-3.25000e+00	1.392324e-06	
66	-3.30000e+00	1.279852e-06	
67	-3.35000e+00	1.195061e-06	
68	-3.40000e+00	1.129820e-06	
69	-3.45000e+00	1.078509e-06	
70	-3.50000e+00	1.037264e-06	
71	-3.55000e+00	1.003424e-06	
72	-3.60000e+00	9.751323e-07	
73	-3.65000e+00	9.510801e-07	
74	-3.70000e+00	9.303286e-07	
75	-3.75000e+00	9.121934e-07	
76	-3.80000e+00	8.961671e-07	
77	-3.85000e+00	8.818676e-07	
78	-3.90000e+00	8.690016e-07	
79	-3.95000e+00	8.573415e-07	
80	-4.00000e+00	8.467073e-07	
81	-4.05000e+00	8.369550e-07	
82	-4.10000e+00	8.279680e-07	
83	-4.15000e+00	8.196508e-07	
84	-4.20000e+00	8.119238e-07	
85	-4.25000e+00	8.047209e-07	
86	-4.30000e+00	7.979858e-07	
87	-4.35000e+00	7.916707e-07	
88	-4.40000e+00	7.857346e-07	
89	-4.45000e+00	7.801420e-07	
90	-4.50000e+00	7.748618e-07	
91	-4.55000e+00	7.698672e-07	
92	-4.60000e+00	7.651341e-07	
93	-4.65000e+00	7.606416e-07	
94	-4.70000e+00	7.563708e-07	
95	-4.75000e+00	7.523049e-07	
96	-4.80000e+00	7.484290e-07	
97	-4.85000e+00	7.447296e-07	
98	-4.90000e+00	7.411943e-07	
99	-4.95000e+00	7.378123e-07	
100	-5.00000e+00	7.345733e-07	
101	-5.05000e+00	7.314683e-07	
102	-5.10000e+00	7.284890e-07	
103	-5.15000e+00	7.256275e-07	
104	-5.20000e+00	7.228771e-07	
105	-5.25000e+00	7.202310e-07	
106	-5.30000e+00	7.176835e-07	
107	-5.35000e+00	7.152291e-07	
108	-5.40000e+00	7.128625e-07	
109	-5.45000e+00	7.105792e-07	
110	-5.50000e+00	7.083748e-07	
111	-5.55000e+00	7.062451e-07	
112	-5.60000e+00	7.041864e-07	

Index   v-sweep         rds             
--------------------------------------------------------------------------------
113	-5.65000e+00	7.021952e-07	
114	-5.70000e+00	7.002683e-07	
115	-5.75000e+00	6.984024e-07	
116	-5.80000e+00	6.965947e-07	
117	-5.85000e+00	6.948426e-07	
118	-5.90000e+00	6.931435e-07	
119	-5.95000e+00	6.914950e-07	
120	-6.00000e+00	6.898950e-07	
121	-6.05000e+00	6.883412e-07	
122	-6.10000e+00	6.868317e-07	
123	-6.15000e+00	6.853648e-07	
124	-6.20000e+00	6.839385e-07	
125	-6.25000e+00	6.825513e-07	
126	-6.30000e+00	6.812015e-07	
127	-6.35000e+00	6.798878e-07	
128	-6.40000e+00	6.786087e-07	
129	-6.45000e+00	6.773628e-07	
130	-6.50000e+00	6.761490e-07	
131	-6.55000e+00	6.749660e-07	
132	-6.60000e+00	6.738128e-07	
Reset re-loads circuit ***************************

Circuit: ***************************

Doing analysis at TEMP = 25.000000 and TNOM = 25.000000


No. of Data Rows : 133
                          ***************************
                          DC transfer characteristic  Mon Jan  9 13:58:51  2023
--------------------------------------------------------------------------------
Index   v-sweep         rds             
--------------------------------------------------------------------------------
0	0.000000e+00	8.763728e-05	
1	-5.00000e-02	8.646296e-05	
2	-1.00000e-01	8.528914e-05	
3	-1.50000e-01	8.411584e-05	
4	-2.00000e-01	8.294303e-05	
5	-2.50000e-01	8.177074e-05	
6	-3.00000e-01	8.059895e-05	
7	-3.50000e-01	7.942767e-05	
8	-4.00000e-01	7.825689e-05	
9	-4.50000e-01	7.708662e-05	
10	-5.00000e-01	7.591685e-05	
11	-5.50000e-01	7.474759e-05	
12	-6.00000e-01	7.357884e-05	
13	-6.50000e-01	7.241060e-05	
14	-7.00000e-01	7.124286e-05	
15	-7.50000e-01	7.007562e-05	
16	-8.00000e-01	6.890890e-05	
17	-8.50000e-01	6.774268e-05	
18	-9.00000e-01	6.657697e-05	
19	-9.50000e-01	6.541177e-05	
20	-1.00000e+00	6.424707e-05	
21	-1.05000e+00	6.308289e-05	
22	-1.10000e+00	6.191922e-05	
23	-1.15000e+00	6.075606e-05	
24	-1.20000e+00	5.959341e-05	
25	-1.25000e+00	5.843127e-05	
26	-1.30000e+00	5.726965e-05	
27	-1.35000e+00	5.610854e-05	
28	-1.40000e+00	5.494796e-05	
29	-1.45000e+00	5.378789e-05	
30	-1.50000e+00	5.262835e-05	
31	-1.55000e+00	5.146933e-05	
32	-1.60000e+00	5.031083e-05	
33	-1.65000e+00	4.915287e-05	
34	-1.70000e+00	4.799545e-05	
35	-1.75000e+00	4.683856e-05	
36	-1.80000e+00	4.568221e-05	
37	-1.85000e+00	4.452642e-05	
38	-1.90000e+00	4.337118e-05	
39	-1.95000e+00	4.221651e-05	
40	-2.00000e+00	4.106241e-05	
41	-2.05000e+00	3.990890e-05	
42	-2.10000e+00	3.875598e-05	
43	-2.15000e+00	3.760367e-05	
44	-2.20000e+00	3.645198e-05	
45	-2.25000e+00	3.530095e-05	
46	-2.30000e+00	3.415058e-05	
47	-2.35000e+00	3.300091e-05	
48	-2.40000e+00	3.185197e-05	
49	-2.45000e+00	3.070380e-05	
50	-2.50000e+00	2.955646e-05	
51	-2.55000e+00	2.840999e-05	
52	-2.60000e+00	2.726447e-05	
53	-2.65000e+00	2.612000e-05	
54	-2.70000e+00	2.497667e-05	

Index   v-sweep         rds             
--------------------------------------------------------------------------------
55	-2.75000e+00	2.383464e-05	
56	-2.80000e+00	2.269408e-05	
57	-2.85000e+00	2.155521e-05	
58	-2.90000e+00	2.041831e-05	
59	-2.95000e+00	1.928376e-05	
60	-3.00000e+00	1.815205e-05	
61	-3.05000e+00	1.702380e-05	
62	-3.10000e+00	1.589989e-05	
63	-3.15000e+00	1.478144e-05	
64	-3.20000e+00	1.367001e-05	
65	-3.25000e+00	1.256772e-05	
66	-3.30000e+00	1.147748e-05	
67	-3.35000e+00	1.040327e-05	
68	-3.40000e+00	9.350549e-06	
69	-3.45000e+00	8.326695e-06	
70	-3.50000e+00	7.341433e-06	
71	-3.55000e+00	6.407067e-06	
72	-3.60000e+00	5.538145e-06	
73	-3.65000e+00	4.750144e-06	
74	-3.70000e+00	4.056950e-06	
75	-3.75000e+00	3.467594e-06	
76	-3.80000e+00	2.983587e-06	
77	-3.85000e+00	2.598318e-06	
78	-3.90000e+00	2.298954e-06	
79	-3.95000e+00	2.069740e-06	
80	-4.00000e+00	1.895090e-06	
81	-4.05000e+00	1.761499e-06	
82	-4.10000e+00	1.658224e-06	
83	-4.15000e+00	1.577169e-06	
84	-4.20000e+00	1.512428e-06	
85	-4.25000e+00	1.459761e-06	
86	-4.30000e+00	1.416138e-06	
87	-4.35000e+00	1.379389e-06	
88	-4.40000e+00	1.347952e-06	
89	-4.45000e+00	1.320686e-06	
90	-4.50000e+00	1.296748e-06	
91	-4.55000e+00	1.275508e-06	
92	-4.60000e+00	1.256488e-06	
93	-4.65000e+00	1.239317e-06	
94	-4.70000e+00	1.223707e-06	
95	-4.75000e+00	1.209431e-06	
96	-4.80000e+00	1.196303e-06	
97	-4.85000e+00	1.184176e-06	
98	-4.90000e+00	1.172926e-06	
99	-4.95000e+00	1.162452e-06	
100	-5.00000e+00	1.152668e-06	
101	-5.05000e+00	1.143502e-06	
102	-5.10000e+00	1.134892e-06	
103	-5.15000e+00	1.126784e-06	
104	-5.20000e+00	1.119134e-06	
105	-5.25000e+00	1.111899e-06	
106	-5.30000e+00	1.105046e-06	
107	-5.35000e+00	1.098543e-06	
108	-5.40000e+00	1.092363e-06	
109	-5.45000e+00	1.086480e-06	
110	-5.50000e+00	1.080873e-06	
111	-5.55000e+00	1.075522e-06	
112	-5.60000e+00	1.070410e-06	

Index   v-sweep         rds             
--------------------------------------------------------------------------------
113	-5.65000e+00	1.065519e-06	
114	-5.70000e+00	1.060836e-06	
115	-5.75000e+00	1.056347e-06	
116	-5.80000e+00	1.052040e-06	
117	-5.85000e+00	1.047903e-06	
118	-5.90000e+00	1.043928e-06	
119	-5.95000e+00	1.040104e-06	
120	-6.00000e+00	1.036422e-06	
121	-6.05000e+00	1.032875e-06	
122	-6.10000e+00	1.029455e-06	
123	-6.15000e+00	1.026155e-06	
124	-6.20000e+00	1.022970e-06	
125	-6.25000e+00	1.019893e-06	
126	-6.30000e+00	1.016919e-06	
127	-6.35000e+00	1.014042e-06	
128	-6.40000e+00	1.011258e-06	
129	-6.45000e+00	1.008562e-06	
130	-6.50000e+00	1.005951e-06	
131	-6.55000e+00	1.003420e-06	
132	-6.60000e+00	1.000966e-06	
Reset re-loads circuit ***************************

Circuit: ***************************

Note: No ".plot", ".print", or ".fourier" lines; no simulations run
