
Note: Compatibility modes selected: hs

Warning: m=xx on .subckt line will override multiplier m hierarchy!


Circuit: ***************************

Doing analysis at TEMP = 25.000000 and TNOM = 25.000000


No. of Data Rows : 133
                          ***************************
                          DC transfer characteristic  Mon Jan  9 13:58:51  2023
--------------------------------------------------------------------------------
Index   v-sweep         rds             
--------------------------------------------------------------------------------
0	0.000000e+00	1.819761e-05	
1	-5.00000e-02	1.128877e-05	
2	-1.00000e-01	5.137968e-06	
3	-1.50000e-01	1.489907e-06	
4	-2.00000e-01	4.582847e-07	
5	-2.50000e-01	2.266230e-07	
6	-3.00000e-01	1.560176e-07	
7	-3.50000e-01	1.257131e-07	
8	-4.00000e-01	1.089266e-07	
9	-4.50000e-01	9.790174e-08	
10	-5.00000e-01	8.983193e-08	
11	-5.50000e-01	8.350589e-08	
12	-6.00000e-01	7.832189e-08	
13	-6.50000e-01	7.394515e-08	
14	-7.00000e-01	7.017168e-08	
15	-7.50000e-01	6.686784e-08	
16	-8.00000e-01	6.394091e-08	
17	-8.50000e-01	6.132357e-08	
18	-9.00000e-01	5.896519e-08	
19	-9.50000e-01	5.682655e-08	
20	-1.00000e+00	5.487658e-08	
21	-1.05000e+00	5.309021e-08	
22	-1.10000e+00	5.144687e-08	
23	-1.15000e+00	4.992950e-08	
24	-1.20000e+00	4.852374e-08	
25	-1.25000e+00	4.721744e-08	
26	-1.30000e+00	4.600021e-08	
27	-1.35000e+00	4.486308e-08	
28	-1.40000e+00	4.379830e-08	
29	-1.45000e+00	4.279910e-08	
30	-1.50000e+00	4.185954e-08	
31	-1.55000e+00	4.097441e-08	
32	-1.60000e+00	4.013908e-08	
33	-1.65000e+00	3.934944e-08	
34	-1.70000e+00	3.860183e-08	
35	-1.75000e+00	3.789297e-08	
36	-1.80000e+00	3.721993e-08	
37	-1.85000e+00	3.658006e-08	
38	-1.90000e+00	3.597096e-08	
39	-1.95000e+00	3.539047e-08	
40	-2.00000e+00	3.483663e-08	
41	-2.05000e+00	3.430764e-08	
42	-2.10000e+00	3.380187e-08	
43	-2.15000e+00	3.331784e-08	
44	-2.20000e+00	3.285418e-08	
45	-2.25000e+00	3.240963e-08	
46	-2.30000e+00	3.198305e-08	
47	-2.35000e+00	3.157337e-08	
48	-2.40000e+00	3.117961e-08	
49	-2.45000e+00	3.080088e-08	
50	-2.50000e+00	3.043633e-08	
51	-2.55000e+00	3.008519e-08	
52	-2.60000e+00	2.974673e-08	
53	-2.65000e+00	2.942029e-08	
54	-2.70000e+00	2.910525e-08	

Index   v-sweep         rds             
--------------------------------------------------------------------------------
55	-2.75000e+00	2.880103e-08	
56	-2.80000e+00	2.850707e-08	
57	-2.85000e+00	2.822289e-08	
58	-2.90000e+00	2.794800e-08	
59	-2.95000e+00	2.768197e-08	
60	-3.00000e+00	2.742437e-08	
61	-3.05000e+00	2.717481e-08	
62	-3.10000e+00	2.693295e-08	
63	-3.15000e+00	2.669842e-08	
64	-3.20000e+00	2.647090e-08	
65	-3.25000e+00	2.625010e-08	
66	-3.30000e+00	2.603573e-08	
67	-3.35000e+00	2.582751e-08	
68	-3.40000e+00	2.562519e-08	
69	-3.45000e+00	2.542853e-08	
70	-3.50000e+00	2.523730e-08	
71	-3.55000e+00	2.505129e-08	
72	-3.60000e+00	2.487030e-08	
73	-3.65000e+00	2.469412e-08	
74	-3.70000e+00	2.452259e-08	
75	-3.75000e+00	2.435552e-08	
76	-3.80000e+00	2.419276e-08	
77	-3.85000e+00	2.403414e-08	
78	-3.90000e+00	2.387951e-08	
79	-3.95000e+00	2.372875e-08	
80	-4.00000e+00	2.358171e-08	
81	-4.05000e+00	2.343827e-08	
82	-4.10000e+00	2.329831e-08	
83	-4.15000e+00	2.316171e-08	
84	-4.20000e+00	2.302836e-08	
85	-4.25000e+00	2.289816e-08	
86	-4.30000e+00	2.277102e-08	
87	-4.35000e+00	2.264682e-08	
88	-4.40000e+00	2.252550e-08	
89	-4.45000e+00	2.240695e-08	
90	-4.50000e+00	2.229110e-08	
91	-4.55000e+00	2.217786e-08	
92	-4.60000e+00	2.206717e-08	
93	-4.65000e+00	2.195896e-08	
94	-4.70000e+00	2.185314e-08	
95	-4.75000e+00	2.174967e-08	
96	-4.80000e+00	2.164847e-08	
97	-4.85000e+00	2.154948e-08	
98	-4.90000e+00	2.145265e-08	
99	-4.95000e+00	2.135793e-08	
100	-5.00000e+00	2.126526e-08	
101	-5.05000e+00	2.117458e-08	
102	-5.10000e+00	2.108586e-08	
103	-5.15000e+00	2.099904e-08	
104	-5.20000e+00	2.091408e-08	
105	-5.25000e+00	2.083094e-08	
106	-5.30000e+00	2.074958e-08	
107	-5.35000e+00	2.066995e-08	
108	-5.40000e+00	2.059202e-08	
109	-5.45000e+00	2.051575e-08	
110	-5.50000e+00	2.044111e-08	
111	-5.55000e+00	2.036806e-08	
112	-5.60000e+00	2.029657e-08	

Index   v-sweep         rds             
--------------------------------------------------------------------------------
113	-5.65000e+00	2.022661e-08	
114	-5.70000e+00	2.015815e-08	
115	-5.75000e+00	2.009115e-08	
116	-5.80000e+00	2.002560e-08	
117	-5.85000e+00	1.996146e-08	
118	-5.90000e+00	1.989870e-08	
119	-5.95000e+00	1.983730e-08	
120	-6.00000e+00	1.977724e-08	
121	-6.05000e+00	1.971850e-08	
122	-6.10000e+00	1.966104e-08	
123	-6.15000e+00	1.960484e-08	
124	-6.20000e+00	1.954989e-08	
125	-6.25000e+00	1.949617e-08	
126	-6.30000e+00	1.944364e-08	
127	-6.35000e+00	1.939230e-08	
128	-6.40000e+00	1.934213e-08	
129	-6.45000e+00	1.929309e-08	
130	-6.50000e+00	1.924519e-08	
131	-6.55000e+00	1.919839e-08	
132	-6.60000e+00	1.915269e-08	
Reset re-loads circuit ***************************

Circuit: ***************************

Doing analysis at TEMP = 25.000000 and TNOM = 25.000000


No. of Data Rows : 133
                          ***************************
                          DC transfer characteristic  Mon Jan  9 13:58:51  2023
--------------------------------------------------------------------------------
Index   v-sweep         rds             
--------------------------------------------------------------------------------
0	0.000000e+00	1.443969e-04	
1	-5.00000e-02	1.357192e-04	
2	-1.00000e-01	1.270949e-04	
3	-1.50000e-01	1.185239e-04	
4	-2.00000e-01	1.100064e-04	
5	-2.50000e-01	1.015429e-04	
6	-3.00000e-01	9.313416e-05	
7	-3.50000e-01	8.478186e-05	
8	-4.00000e-01	7.648875e-05	
9	-4.50000e-01	6.825978e-05	
10	-5.00000e-01	6.010392e-05	
11	-5.50000e-01	5.203798e-05	
12	-6.00000e-01	4.409454e-05	
13	-6.50000e-01	3.633862e-05	
14	-7.00000e-01	2.890107e-05	
15	-7.50000e-01	2.203169e-05	
16	-8.00000e-01	1.612906e-05	
17	-8.50000e-01	1.160511e-05	
18	-9.00000e-01	8.558187e-06	
19	-9.50000e-01	6.673234e-06	
20	-1.00000e+00	5.514719e-06	
21	-1.05000e+00	4.764606e-06	
22	-1.10000e+00	4.242867e-06	
23	-1.15000e+00	3.855284e-06	
24	-1.20000e+00	3.552039e-06	
25	-1.25000e+00	3.305467e-06	
26	-1.30000e+00	3.099228e-06	
27	-1.35000e+00	2.923060e-06	
28	-1.40000e+00	2.770152e-06	
29	-1.45000e+00	2.635758e-06	
30	-1.50000e+00	2.516443e-06	
31	-1.55000e+00	2.409633e-06	
32	-1.60000e+00	2.313348e-06	
33	-1.65000e+00	2.226031e-06	
34	-1.70000e+00	2.146435e-06	
35	-1.75000e+00	2.073544e-06	
36	-1.80000e+00	2.006522e-06	
37	-1.85000e+00	1.944668e-06	
38	-1.90000e+00	1.887396e-06	
39	-1.95000e+00	1.834206e-06	
40	-2.00000e+00	1.784669e-06	
41	-2.05000e+00	1.738418e-06	
42	-2.10000e+00	1.695131e-06	
43	-2.15000e+00	1.654531e-06	
44	-2.20000e+00	1.616373e-06	
45	-2.25000e+00	1.580441e-06	
46	-2.30000e+00	1.546546e-06	
47	-2.35000e+00	1.514517e-06	
48	-2.40000e+00	1.484205e-06	
49	-2.45000e+00	1.455474e-06	
50	-2.50000e+00	1.428204e-06	
51	-2.55000e+00	1.402285e-06	
52	-2.60000e+00	1.377620e-06	
53	-2.65000e+00	1.354120e-06	
54	-2.70000e+00	1.331705e-06	

Index   v-sweep         rds             
--------------------------------------------------------------------------------
55	-2.75000e+00	1.310299e-06	
56	-2.80000e+00	1.289838e-06	
57	-2.85000e+00	1.270260e-06	
58	-2.90000e+00	1.251509e-06	
59	-2.95000e+00	1.233534e-06	
60	-3.00000e+00	1.216288e-06	
61	-3.05000e+00	1.199727e-06	
62	-3.10000e+00	1.183811e-06	
63	-3.15000e+00	1.168504e-06	
64	-3.20000e+00	1.153772e-06	
65	-3.25000e+00	1.139582e-06	
66	-3.30000e+00	1.125906e-06	
67	-3.35000e+00	1.112716e-06	
68	-3.40000e+00	1.099986e-06	
69	-3.45000e+00	1.087694e-06	
70	-3.50000e+00	1.075818e-06	
71	-3.55000e+00	1.064335e-06	
72	-3.60000e+00	1.053228e-06	
73	-3.65000e+00	1.042479e-06	
74	-3.70000e+00	1.032070e-06	
75	-3.75000e+00	1.021986e-06	
76	-3.80000e+00	1.012212e-06	
77	-3.85000e+00	1.002734e-06	
78	-3.90000e+00	9.935387e-07	
79	-3.95000e+00	9.846141e-07	
80	-4.00000e+00	9.759485e-07	
81	-4.05000e+00	9.675309e-07	
82	-4.10000e+00	9.593511e-07	
83	-4.15000e+00	9.513992e-07	
84	-4.20000e+00	9.436662e-07	
85	-4.25000e+00	9.361433e-07	
86	-4.30000e+00	9.288223e-07	
87	-4.35000e+00	9.216954e-07	
88	-4.40000e+00	9.147552e-07	
89	-4.45000e+00	9.079949e-07	
90	-4.50000e+00	9.014076e-07	
91	-4.55000e+00	8.949872e-07	
92	-4.60000e+00	8.887278e-07	
93	-4.65000e+00	8.826236e-07	
94	-4.70000e+00	8.766694e-07	
95	-4.75000e+00	8.708599e-07	
96	-4.80000e+00	8.651904e-07	
97	-4.85000e+00	8.596562e-07	
98	-4.90000e+00	8.542529e-07	
99	-4.95000e+00	8.489764e-07	
100	-5.00000e+00	8.438227e-07	
101	-5.05000e+00	8.387880e-07	
102	-5.10000e+00	8.338687e-07	
103	-5.15000e+00	8.290612e-07	
104	-5.20000e+00	8.243625e-07	
105	-5.25000e+00	8.197692e-07	
106	-5.30000e+00	8.152784e-07	
107	-5.35000e+00	8.108873e-07	
108	-5.40000e+00	8.065931e-07	
109	-5.45000e+00	8.023932e-07	
110	-5.50000e+00	7.982851e-07	
111	-5.55000e+00	7.942664e-07	
112	-5.60000e+00	7.903348e-07	

Index   v-sweep         rds             
--------------------------------------------------------------------------------
113	-5.65000e+00	7.864881e-07	
114	-5.70000e+00	7.827243e-07	
115	-5.75000e+00	7.790413e-07	
116	-5.80000e+00	7.754372e-07	
117	-5.85000e+00	7.719102e-07	
118	-5.90000e+00	7.684584e-07	
119	-5.95000e+00	7.650803e-07	
120	-6.00000e+00	7.617740e-07	
121	-6.05000e+00	7.585381e-07	
122	-6.10000e+00	7.553711e-07	
123	-6.15000e+00	7.522715e-07	
124	-6.20000e+00	7.492379e-07	
125	-6.25000e+00	7.462690e-07	
126	-6.30000e+00	7.433635e-07	
127	-6.35000e+00	7.405200e-07	
128	-6.40000e+00	7.377375e-07	
129	-6.45000e+00	7.350147e-07	
130	-6.50000e+00	7.323506e-07	
131	-6.55000e+00	7.297440e-07	
132	-6.60000e+00	7.271940e-07	
Reset re-loads circuit ***************************

Circuit: ***************************

Doing analysis at TEMP = 25.000000 and TNOM = 25.000000


No. of Data Rows : 133
                          ***************************
                          DC transfer characteristic  Mon Jan  9 13:58:51  2023
--------------------------------------------------------------------------------
Index   v-sweep         rds             
--------------------------------------------------------------------------------
0	0.000000e+00	2.437308e-04	
1	-5.00000e-02	2.355642e-04	
2	-1.00000e-01	2.274411e-04	
3	-1.50000e-01	2.193614e-04	
4	-2.00000e-01	2.113247e-04	
5	-2.50000e-01	2.033310e-04	
6	-3.00000e-01	1.953800e-04	
7	-3.50000e-01	1.874714e-04	
8	-4.00000e-01	1.796052e-04	
9	-4.50000e-01	1.717812e-04	
10	-5.00000e-01	1.639991e-04	
11	-5.50000e-01	1.562591e-04	
12	-6.00000e-01	1.485609e-04	
13	-6.50000e-01	1.409047e-04	
14	-7.00000e-01	1.332906e-04	
15	-7.50000e-01	1.257189e-04	
16	-8.00000e-01	1.181900e-04	
17	-8.50000e-01	1.107046e-04	
18	-9.00000e-01	1.032640e-04	
19	-9.50000e-01	9.586992e-05	
20	-1.00000e+00	8.852528e-05	
21	-1.05000e+00	8.123454e-05	
22	-1.10000e+00	7.400485e-05	
23	-1.15000e+00	6.684784e-05	
24	-1.20000e+00	5.978277e-05	
25	-1.25000e+00	5.284198e-05	
26	-1.30000e+00	4.607999e-05	
27	-1.35000e+00	3.958689e-05	
28	-1.40000e+00	3.350259e-05	
29	-1.45000e+00	2.801670e-05	
30	-1.50000e+00	2.332666e-05	
31	-1.55000e+00	1.954944e-05	
32	-1.60000e+00	1.665348e-05	
33	-1.65000e+00	1.448509e-05	
34	-1.70000e+00	1.285531e-05	
35	-1.75000e+00	1.160352e-05	
36	-1.80000e+00	1.061467e-05	
37	-1.85000e+00	9.811916e-06	
38	-1.90000e+00	9.144731e-06	
39	-1.95000e+00	8.579391e-06	
40	-2.00000e+00	8.092774e-06	
41	-2.05000e+00	7.668529e-06	
42	-2.10000e+00	7.294742e-06	
43	-2.15000e+00	6.962493e-06	
44	-2.20000e+00	6.664940e-06	
45	-2.25000e+00	6.396731e-06	
46	-2.30000e+00	6.153602e-06	
47	-2.35000e+00	5.932106e-06	
48	-2.40000e+00	5.729418e-06	
49	-2.45000e+00	5.543198e-06	
50	-2.50000e+00	5.371488e-06	
51	-2.55000e+00	5.212634e-06	
52	-2.60000e+00	5.065229e-06	
53	-2.65000e+00	4.928069e-06	
54	-2.70000e+00	4.800113e-06	

Index   v-sweep         rds             
--------------------------------------------------------------------------------
55	-2.75000e+00	4.680458e-06	
56	-2.80000e+00	4.568319e-06	
57	-2.85000e+00	4.463006e-06	
58	-2.90000e+00	4.363912e-06	
59	-2.95000e+00	4.270500e-06	
60	-3.00000e+00	4.182295e-06	
61	-3.05000e+00	4.098872e-06	
62	-3.10000e+00	4.019853e-06	
63	-3.15000e+00	3.944897e-06	
64	-3.20000e+00	3.873699e-06	
65	-3.25000e+00	3.805984e-06	
66	-3.30000e+00	3.741502e-06	
67	-3.35000e+00	3.680027e-06	
68	-3.40000e+00	3.621354e-06	
69	-3.45000e+00	3.565296e-06	
70	-3.50000e+00	3.511682e-06	
71	-3.55000e+00	3.460357e-06	
72	-3.60000e+00	3.411177e-06	
73	-3.65000e+00	3.364010e-06	
74	-3.70000e+00	3.318737e-06	
75	-3.75000e+00	3.275245e-06	
76	-3.80000e+00	3.233431e-06	
77	-3.85000e+00	3.193202e-06	
78	-3.90000e+00	3.154468e-06	
79	-3.95000e+00	3.117149e-06	
80	-4.00000e+00	3.081168e-06	
81	-4.05000e+00	3.046455e-06	
82	-4.10000e+00	3.012945e-06	
83	-4.15000e+00	2.980576e-06	
84	-4.20000e+00	2.949292e-06	
85	-4.25000e+00	2.919039e-06	
86	-4.30000e+00	2.889767e-06	
87	-4.35000e+00	2.861430e-06	
88	-4.40000e+00	2.833984e-06	
89	-4.45000e+00	2.807388e-06	
90	-4.50000e+00	2.781604e-06	
91	-4.55000e+00	2.756595e-06	
92	-4.60000e+00	2.732327e-06	
93	-4.65000e+00	2.708769e-06	
94	-4.70000e+00	2.685890e-06	
95	-4.75000e+00	2.663662e-06	
96	-4.80000e+00	2.642058e-06	
97	-4.85000e+00	2.621052e-06	
98	-4.90000e+00	2.600621e-06	
99	-4.95000e+00	2.580742e-06	
100	-5.00000e+00	2.561393e-06	
101	-5.05000e+00	2.542555e-06	
102	-5.10000e+00	2.524209e-06	
103	-5.15000e+00	2.506335e-06	
104	-5.20000e+00	2.488917e-06	
105	-5.25000e+00	2.471938e-06	
106	-5.30000e+00	2.455384e-06	
107	-5.35000e+00	2.439239e-06	
108	-5.40000e+00	2.423489e-06	
109	-5.45000e+00	2.408121e-06	
110	-5.50000e+00	2.393122e-06	
111	-5.55000e+00	2.378481e-06	
112	-5.60000e+00	2.364186e-06	

Index   v-sweep         rds             
--------------------------------------------------------------------------------
113	-5.65000e+00	2.350226e-06	
114	-5.70000e+00	2.336591e-06	
115	-5.75000e+00	2.323270e-06	
116	-5.80000e+00	2.310255e-06	
117	-5.85000e+00	2.297537e-06	
118	-5.90000e+00	2.285106e-06	
119	-5.95000e+00	2.272956e-06	
120	-6.00000e+00	2.261077e-06	
121	-6.05000e+00	2.249463e-06	
122	-6.10000e+00	2.238107e-06	
123	-6.15000e+00	2.227001e-06	
124	-6.20000e+00	2.216140e-06	
125	-6.25000e+00	2.205517e-06	
126	-6.30000e+00	2.195126e-06	
127	-6.35000e+00	2.184961e-06	
128	-6.40000e+00	2.175018e-06	
129	-6.45000e+00	2.165290e-06	
130	-6.50000e+00	2.155774e-06	
131	-6.55000e+00	2.146463e-06	
132	-6.60000e+00	2.137354e-06	
Reset re-loads circuit ***************************

Circuit: ***************************

Doing analysis at TEMP = 25.000000 and TNOM = 25.000000


No. of Data Rows : 133
                          ***************************
                          DC transfer characteristic  Mon Jan  9 13:58:51  2023
--------------------------------------------------------------------------------
Index   v-sweep         rds             
--------------------------------------------------------------------------------
0	0.000000e+00	3.226870e-04	
1	-5.00000e-02	3.150701e-04	
2	-1.00000e-01	3.074898e-04	
3	-1.50000e-01	2.999461e-04	
4	-2.00000e-01	2.924387e-04	
5	-2.50000e-01	2.849674e-04	
6	-3.00000e-01	2.775320e-04	
7	-3.50000e-01	2.701324e-04	
8	-4.00000e-01	2.627683e-04	
9	-4.50000e-01	2.554397e-04	
10	-5.00000e-01	2.481462e-04	
11	-5.50000e-01	2.408877e-04	
12	-6.00000e-01	2.336642e-04	
13	-6.50000e-01	2.264753e-04	
14	-7.00000e-01	2.193209e-04	
15	-7.50000e-01	2.122010e-04	
16	-8.00000e-01	2.051153e-04	
17	-8.50000e-01	1.980638e-04	
18	-9.00000e-01	1.910463e-04	
19	-9.50000e-01	1.840627e-04	
20	-1.00000e+00	1.771129e-04	
21	-1.05000e+00	1.701969e-04	
22	-1.10000e+00	1.633146e-04	
23	-1.15000e+00	1.564661e-04	
24	-1.20000e+00	1.496515e-04	
25	-1.25000e+00	1.428708e-04	
26	-1.30000e+00	1.361243e-04	
27	-1.35000e+00	1.294125e-04	
28	-1.40000e+00	1.227358e-04	
29	-1.45000e+00	1.160952e-04	
30	-1.50000e+00	1.094917e-04	
31	-1.55000e+00	1.029271e-04	
32	-1.60000e+00	9.640400e-05	
33	-1.65000e+00	8.992610e-05	
34	-1.70000e+00	8.349900e-05	
35	-1.75000e+00	7.713113e-05	
36	-1.80000e+00	7.083541e-05	
37	-1.85000e+00	6.463178e-05	
38	-1.90000e+00	5.855101e-05	
39	-1.95000e+00	5.264002e-05	
40	-2.00000e+00	4.696780e-05	
41	-2.05000e+00	4.162846e-05	
42	-2.10000e+00	3.673438e-05	
43	-2.15000e+00	3.239235e-05	
44	-2.20000e+00	2.866769e-05	
45	-2.25000e+00	2.555937e-05	
46	-2.30000e+00	2.300593e-05	
47	-2.35000e+00	2.091492e-05	
48	-2.40000e+00	1.919190e-05	
49	-2.45000e+00	1.775603e-05	
50	-2.50000e+00	1.654393e-05	
51	-2.55000e+00	1.550773e-05	
52	-2.60000e+00	1.461164e-05	
53	-2.65000e+00	1.382876e-05	
54	-2.70000e+00	1.313862e-05	

Index   v-sweep         rds             
--------------------------------------------------------------------------------
55	-2.75000e+00	1.252544e-05	
56	-2.80000e+00	1.197687e-05	
57	-2.85000e+00	1.148310e-05	
58	-2.90000e+00	1.103621e-05	
59	-2.95000e+00	1.062979e-05	
60	-3.00000e+00	1.025854e-05	
61	-3.05000e+00	9.918044e-06	
62	-3.10000e+00	9.604630e-06	
63	-3.15000e+00	9.315174e-06	
64	-3.20000e+00	9.047024e-06	
65	-3.25000e+00	8.797907e-06	
66	-3.30000e+00	8.565862e-06	
67	-3.35000e+00	8.349193e-06	
68	-3.40000e+00	8.146418e-06	
69	-3.45000e+00	7.956244e-06	
70	-3.50000e+00	7.777532e-06	
71	-3.55000e+00	7.609277e-06	
72	-3.60000e+00	7.450589e-06	
73	-3.65000e+00	7.300675e-06	
74	-3.70000e+00	7.158829e-06	
75	-3.75000e+00	7.024417e-06	
76	-3.80000e+00	6.896872e-06	
77	-3.85000e+00	6.775682e-06	
78	-3.90000e+00	6.660384e-06	
79	-3.95000e+00	6.550560e-06	
80	-4.00000e+00	6.445830e-06	
81	-4.05000e+00	6.345850e-06	
82	-4.10000e+00	6.250304e-06	
83	-4.15000e+00	6.158905e-06	
84	-4.20000e+00	6.071389e-06	
85	-4.25000e+00	5.987516e-06	
86	-4.30000e+00	5.907062e-06	
87	-4.35000e+00	5.829825e-06	
88	-4.40000e+00	5.755615e-06	
89	-4.45000e+00	5.684259e-06	
90	-4.50000e+00	5.615596e-06	
91	-4.55000e+00	5.549478e-06	
92	-4.60000e+00	5.485765e-06	
93	-4.65000e+00	5.424331e-06	
94	-4.70000e+00	5.365054e-06	
95	-4.75000e+00	5.307825e-06	
96	-4.80000e+00	5.252540e-06	
97	-4.85000e+00	5.199101e-06	
98	-4.90000e+00	5.147419e-06	
99	-4.95000e+00	5.097410e-06	
100	-5.00000e+00	5.048992e-06	
101	-5.05000e+00	5.002094e-06	
102	-5.10000e+00	4.956645e-06	
103	-5.15000e+00	4.912579e-06	
104	-5.20000e+00	4.869835e-06	
105	-5.25000e+00	4.828356e-06	
106	-5.30000e+00	4.788086e-06	
107	-5.35000e+00	4.748975e-06	
108	-5.40000e+00	4.710975e-06	
109	-5.45000e+00	4.674039e-06	
110	-5.50000e+00	4.638124e-06	
111	-5.55000e+00	4.603191e-06	
112	-5.60000e+00	4.569200e-06	

Index   v-sweep         rds             
--------------------------------------------------------------------------------
113	-5.65000e+00	4.536115e-06	
114	-5.70000e+00	4.503902e-06	
115	-5.75000e+00	4.472528e-06	
116	-5.80000e+00	4.441963e-06	
117	-5.85000e+00	4.412176e-06	
118	-5.90000e+00	4.383140e-06	
119	-5.95000e+00	4.354829e-06	
120	-6.00000e+00	4.327218e-06	
121	-6.05000e+00	4.300283e-06	
122	-6.10000e+00	4.274002e-06	
123	-6.15000e+00	4.248353e-06	
124	-6.20000e+00	4.223316e-06	
125	-6.25000e+00	4.198871e-06	
126	-6.30000e+00	4.175000e-06	
127	-6.35000e+00	4.151685e-06	
128	-6.40000e+00	4.128911e-06	
129	-6.45000e+00	4.106660e-06	
130	-6.50000e+00	4.084917e-06	
131	-6.55000e+00	4.063669e-06	
132	-6.60000e+00	4.042901e-06	
Reset re-loads circuit ***************************

Circuit: ***************************

Doing analysis at TEMP = 25.000000 and TNOM = 25.000000


No. of Data Rows : 133
                          ***************************
                          DC transfer characteristic  Mon Jan  9 13:58:51  2023
--------------------------------------------------------------------------------
Index   v-sweep         rds             
--------------------------------------------------------------------------------
0	0.000000e+00	3.880014e-04	
1	-5.00000e-02	3.808856e-04	
2	-1.00000e-01	3.738012e-04	
3	-1.50000e-01	3.667481e-04	
4	-2.00000e-01	3.597261e-04	
5	-2.50000e-01	3.527351e-04	
6	-3.00000e-01	3.457749e-04	
7	-3.50000e-01	3.388454e-04	
8	-4.00000e-01	3.319464e-04	
9	-4.50000e-01	3.250778e-04	
10	-5.00000e-01	3.182394e-04	
11	-5.50000e-01	3.114311e-04	
12	-6.00000e-01	3.046527e-04	
13	-6.50000e-01	2.979041e-04	
14	-7.00000e-01	2.911852e-04	
15	-7.50000e-01	2.844958e-04	
16	-8.00000e-01	2.778358e-04	
17	-8.50000e-01	2.712049e-04	
18	-9.00000e-01	2.646032e-04	
19	-9.50000e-01	2.580305e-04	
20	-1.00000e+00	2.514866e-04	
21	-1.05000e+00	2.449714e-04	
22	-1.10000e+00	2.384848e-04	
23	-1.15000e+00	2.320267e-04	
24	-1.20000e+00	2.255969e-04	
25	-1.25000e+00	2.191954e-04	
26	-1.30000e+00	2.128221e-04	
27	-1.35000e+00	2.064768e-04	
28	-1.40000e+00	2.001595e-04	
29	-1.45000e+00	1.938700e-04	
30	-1.50000e+00	1.876085e-04	
31	-1.55000e+00	1.813747e-04	
32	-1.60000e+00	1.751687e-04	
33	-1.65000e+00	1.689905e-04	
34	-1.70000e+00	1.628401e-04	
35	-1.75000e+00	1.567176e-04	
36	-1.80000e+00	1.506231e-04	
37	-1.85000e+00	1.445568e-04	
38	-1.90000e+00	1.385191e-04	
39	-1.95000e+00	1.325102e-04	
40	-2.00000e+00	1.265307e-04	
41	-2.05000e+00	1.205815e-04	
42	-2.10000e+00	1.146637e-04	
43	-2.15000e+00	1.087786e-04	
44	-2.20000e+00	1.029285e-04	
45	-2.25000e+00	9.711631e-05	
46	-2.30000e+00	9.134619e-05	
47	-2.35000e+00	8.562421e-05	
48	-2.40000e+00	7.995916e-05	
49	-2.45000e+00	7.436382e-05	
50	-2.50000e+00	6.885686e-05	
51	-2.55000e+00	6.346533e-05	
52	-2.60000e+00	5.822748e-05	
53	-2.65000e+00	5.319492e-05	
54	-2.70000e+00	4.843194e-05	

Index   v-sweep         rds             
--------------------------------------------------------------------------------
55	-2.75000e+00	4.400906e-05	
56	-2.80000e+00	3.998946e-05	
57	-2.85000e+00	3.641288e-05	
58	-2.90000e+00	3.328547e-05	
59	-2.95000e+00	3.058180e-05	
60	-3.00000e+00	2.825606e-05	
61	-3.05000e+00	2.625489e-05	
62	-3.10000e+00	2.452647e-05	
63	-3.15000e+00	2.302511e-05	
64	-3.20000e+00	2.171240e-05	
65	-3.25000e+00	2.055694e-05	
66	-3.30000e+00	1.953324e-05	
67	-3.35000e+00	1.862069e-05	
68	-3.40000e+00	1.780257e-05	
69	-3.45000e+00	1.706522e-05	
70	-3.50000e+00	1.639743e-05	
71	-3.55000e+00	1.578994e-05	
72	-3.60000e+00	1.523503e-05	
73	-3.65000e+00	1.472623e-05	
74	-3.70000e+00	1.425806e-05	
75	-3.75000e+00	1.382590e-05	
76	-3.80000e+00	1.342577e-05	
77	-3.85000e+00	1.305426e-05	
78	-3.90000e+00	1.270843e-05	
79	-3.95000e+00	1.238572e-05	
80	-4.00000e+00	1.208391e-05	
81	-4.05000e+00	1.180103e-05	
82	-4.10000e+00	1.153537e-05	
83	-4.15000e+00	1.128542e-05	
84	-4.20000e+00	1.104982e-05	
85	-4.25000e+00	1.082739e-05	
86	-4.30000e+00	1.061705e-05	
87	-4.35000e+00	1.041785e-05	
88	-4.40000e+00	1.022894e-05	
89	-4.45000e+00	1.004953e-05	
90	-4.50000e+00	9.878933e-06	
91	-4.55000e+00	9.716521e-06	
92	-4.60000e+00	9.561720e-06	
93	-4.65000e+00	9.414009e-06	
94	-4.70000e+00	9.272915e-06	
95	-4.75000e+00	9.138005e-06	
96	-4.80000e+00	9.008883e-06	
97	-4.85000e+00	8.885187e-06	
98	-4.90000e+00	8.766583e-06	
99	-4.95000e+00	8.652765e-06	
100	-5.00000e+00	8.543451e-06	
101	-5.05000e+00	8.438379e-06	
102	-5.10000e+00	8.337309e-06	
103	-5.15000e+00	8.240018e-06	
104	-5.20000e+00	8.146299e-06	
105	-5.25000e+00	8.055960e-06	
106	-5.30000e+00	7.968823e-06	
107	-5.35000e+00	7.884721e-06	
108	-5.40000e+00	7.803499e-06	
109	-5.45000e+00	7.725014e-06	
110	-5.50000e+00	7.649129e-06	
111	-5.55000e+00	7.575720e-06	
112	-5.60000e+00	7.504668e-06	

Index   v-sweep         rds             
--------------------------------------------------------------------------------
113	-5.65000e+00	7.435861e-06	
114	-5.70000e+00	7.369198e-06	
115	-5.75000e+00	7.304579e-06	
116	-5.80000e+00	7.241914e-06	
117	-5.85000e+00	7.181117e-06	
118	-5.90000e+00	7.122106e-06	
119	-5.95000e+00	7.064805e-06	
120	-6.00000e+00	7.009142e-06	
121	-6.05000e+00	6.955051e-06	
122	-6.10000e+00	6.902465e-06	
123	-6.15000e+00	6.851327e-06	
124	-6.20000e+00	6.801577e-06	
125	-6.25000e+00	6.753162e-06	
126	-6.30000e+00	6.706031e-06	
127	-6.35000e+00	6.660136e-06	
128	-6.40000e+00	6.615432e-06	
129	-6.45000e+00	6.571873e-06	
130	-6.50000e+00	6.529420e-06	
131	-6.55000e+00	6.488034e-06	
132	-6.60000e+00	6.447677e-06	
Reset re-loads circuit ***************************

Circuit: ***************************

Doing analysis at TEMP = 25.000000 and TNOM = 25.000000


No. of Data Rows : 133
                          ***************************
                          DC transfer characteristic  Mon Jan  9 13:58:51  2023
--------------------------------------------------------------------------------
Index   v-sweep         rds             
--------------------------------------------------------------------------------
0	0.000000e+00	4.422052e-04	
1	-5.00000e-02	4.355410e-04	
2	-1.00000e-01	4.289041e-04	
3	-1.50000e-01	4.222943e-04	
4	-2.00000e-01	4.157116e-04	
5	-2.50000e-01	4.091558e-04	
6	-3.00000e-01	4.026268e-04	
7	-3.50000e-01	3.961244e-04	
8	-4.00000e-01	3.896486e-04	
9	-4.50000e-01	3.831992e-04	
10	-5.00000e-01	3.767760e-04	
11	-5.50000e-01	3.703791e-04	
12	-6.00000e-01	3.640082e-04	
13	-6.50000e-01	3.576632e-04	
14	-7.00000e-01	3.513440e-04	
15	-7.50000e-01	3.450505e-04	
16	-8.00000e-01	3.387827e-04	
17	-8.50000e-01	3.325402e-04	
18	-9.00000e-01	3.263231e-04	
19	-9.50000e-01	3.201313e-04	
20	-1.00000e+00	3.139645e-04	
21	-1.05000e+00	3.078228e-04	
22	-1.10000e+00	3.017060e-04	
23	-1.15000e+00	2.956139e-04	
24	-1.20000e+00	2.895466e-04	
25	-1.25000e+00	2.835038e-04	
26	-1.30000e+00	2.774855e-04	
27	-1.35000e+00	2.714915e-04	
28	-1.40000e+00	2.655219e-04	
29	-1.45000e+00	2.595763e-04	
30	-1.50000e+00	2.536549e-04	
31	-1.55000e+00	2.477574e-04	
32	-1.60000e+00	2.418838e-04	
33	-1.65000e+00	2.360341e-04	
34	-1.70000e+00	2.302080e-04	
35	-1.75000e+00	2.244055e-04	
36	-1.80000e+00	2.186266e-04	
37	-1.85000e+00	2.128712e-04	
38	-1.90000e+00	2.071393e-04	
39	-1.95000e+00	2.014307e-04	
40	-2.00000e+00	1.957454e-04	
41	-2.05000e+00	1.900834e-04	
42	-2.10000e+00	1.844447e-04	
43	-2.15000e+00	1.788292e-04	
44	-2.20000e+00	1.732371e-04	
45	-2.25000e+00	1.676682e-04	
46	-2.30000e+00	1.621228e-04	
47	-2.35000e+00	1.566008e-04	
48	-2.40000e+00	1.511025e-04	
49	-2.45000e+00	1.456281e-04	
50	-2.50000e+00	1.401778e-04	
51	-2.55000e+00	1.347521e-04	
52	-2.60000e+00	1.293515e-04	
53	-2.65000e+00	1.239767e-04	
54	-2.70000e+00	1.186286e-04	

Index   v-sweep         rds             
--------------------------------------------------------------------------------
55	-2.75000e+00	1.133085e-04	
56	-2.80000e+00	1.080182e-04	
57	-2.85000e+00	1.027599e-04	
58	-2.90000e+00	9.753674e-05	
59	-2.95000e+00	9.235317e-05	
60	-3.00000e+00	8.721524e-05	
61	-3.05000e+00	8.213142e-05	
62	-3.10000e+00	7.711357e-05	
63	-3.15000e+00	7.217825e-05	
64	-3.20000e+00	6.734819e-05	
65	-3.25000e+00	6.265368e-05	
66	-3.30000e+00	5.813312e-05	
67	-3.35000e+00	5.383147e-05	
68	-3.40000e+00	4.979554e-05	
69	-3.45000e+00	4.606635e-05	
70	-3.50000e+00	4.267113e-05	
71	-3.55000e+00	3.961849e-05	
72	-3.60000e+00	3.689880e-05	
73	-3.65000e+00	3.448883e-05	
74	-3.70000e+00	3.235780e-05	
75	-3.75000e+00	3.047259e-05	
76	-3.80000e+00	2.880116e-05	
77	-3.85000e+00	2.731436e-05	
78	-3.90000e+00	2.598661e-05	
79	-3.95000e+00	2.479591e-05	
80	-4.00000e+00	2.372358e-05	
81	-4.05000e+00	2.275380e-05	
82	-4.10000e+00	2.187325e-05	
83	-4.15000e+00	2.107062e-05	
84	-4.20000e+00	2.033637e-05	
85	-4.25000e+00	1.966236e-05	
86	-4.30000e+00	1.904167e-05	
87	-4.35000e+00	1.846835e-05	
88	-4.40000e+00	1.793727e-05	
89	-4.45000e+00	1.744403e-05	
90	-4.50000e+00	1.698478e-05	
91	-4.55000e+00	1.655618e-05	
92	-4.60000e+00	1.615530e-05	
93	-4.65000e+00	1.577956e-05	
94	-4.70000e+00	1.542670e-05	
95	-4.75000e+00	1.509472e-05	
96	-4.80000e+00	1.478184e-05	
97	-4.85000e+00	1.448646e-05	
98	-4.90000e+00	1.420717e-05	
99	-4.95000e+00	1.394271e-05	
100	-5.00000e+00	1.369194e-05	
101	-5.05000e+00	1.345382e-05	
102	-5.10000e+00	1.322743e-05	
103	-5.15000e+00	1.301193e-05	
104	-5.20000e+00	1.280656e-05	
105	-5.25000e+00	1.261063e-05	
106	-5.30000e+00	1.242351e-05	
107	-5.35000e+00	1.224461e-05	
108	-5.40000e+00	1.207341e-05	
109	-5.45000e+00	1.190944e-05	
110	-5.50000e+00	1.175223e-05	
111	-5.55000e+00	1.160140e-05	
112	-5.60000e+00	1.145655e-05	

Index   v-sweep         rds             
--------------------------------------------------------------------------------
113	-5.65000e+00	1.131734e-05	
114	-5.70000e+00	1.118346e-05	
115	-5.75000e+00	1.105460e-05	
116	-5.80000e+00	1.093049e-05	
117	-5.85000e+00	1.081086e-05	
118	-5.90000e+00	1.069550e-05	
119	-5.95000e+00	1.058416e-05	
120	-6.00000e+00	1.047666e-05	
121	-6.05000e+00	1.037278e-05	
122	-6.10000e+00	1.027237e-05	
123	-6.15000e+00	1.017523e-05	
124	-6.20000e+00	1.008123e-05	
125	-6.25000e+00	9.990212e-06	
126	-6.30000e+00	9.902035e-06	
127	-6.35000e+00	9.816573e-06	
128	-6.40000e+00	9.733703e-06	
129	-6.45000e+00	9.653310e-06	
130	-6.50000e+00	9.575288e-06	
131	-6.55000e+00	9.499535e-06	
132	-6.60000e+00	9.425954e-06	
Reset re-loads circuit ***************************

Circuit: ***************************

Note: No ".plot", ".print", or ".fourier" lines; no simulations run
