
Note: Compatibility modes selected: hs

Warning: m=xx on .subckt line will override multiplier m hierarchy!


Circuit: ***************************

Doing analysis at TEMP = 25.000000 and TNOM = 25.000000


No. of Data Rows : 133
                          ***************************
                          DC transfer characteristic  Mon Jan  9 13:58:51  2023
--------------------------------------------------------------------------------
Index   v-sweep         rds             
--------------------------------------------------------------------------------
0	0.000000e+00	1.408226e-06	
1	-5.00000e-02	7.758290e-07	
2	-1.00000e-01	2.657343e-07	
3	-1.50000e-01	5.649784e-08	
4	-2.00000e-01	1.486543e-08	
5	-2.50000e-01	5.898793e-09	
6	-3.00000e-01	3.188949e-09	
7	-3.50000e-01	2.121305e-09	
8	-4.00000e-01	1.613533e-09	
9	-4.50000e-01	1.336378e-09	
10	-5.00000e-01	1.168437e-09	
11	-5.50000e-01	1.058047e-09	
12	-6.00000e-01	9.806547e-10	
13	-6.50000e-01	9.235280e-10	
14	-7.00000e-01	8.795741e-10	
15	-7.50000e-01	8.446009e-10	
16	-8.00000e-01	8.160028e-10	
17	-8.50000e-01	7.920891e-10	
18	-9.00000e-01	7.717208e-10	
19	-9.50000e-01	7.541051e-10	
20	-1.00000e+00	7.386740e-10	
21	-1.05000e+00	7.250101e-10	
22	-1.10000e+00	7.127995e-10	
23	-1.15000e+00	7.018017e-10	
24	-1.20000e+00	6.918288e-10	
25	-1.25000e+00	6.827316e-10	
26	-1.30000e+00	6.743901e-10	
27	-1.35000e+00	6.667065e-10	
28	-1.40000e+00	6.595999e-10	
29	-1.45000e+00	6.530031e-10	
30	-1.50000e+00	6.468594e-10	
31	-1.55000e+00	6.411206e-10	
32	-1.60000e+00	6.357456e-10	
33	-1.65000e+00	6.306989e-10	
34	-1.70000e+00	6.259498e-10	
35	-1.75000e+00	6.214712e-10	
36	-1.80000e+00	6.172398e-10	
37	-1.85000e+00	6.132347e-10	
38	-1.90000e+00	6.094374e-10	
39	-1.95000e+00	6.058317e-10	
40	-2.00000e+00	6.024028e-10	
41	-2.05000e+00	5.991376e-10	
42	-2.10000e+00	5.960244e-10	
43	-2.15000e+00	5.930524e-10	
44	-2.20000e+00	5.902120e-10	
45	-2.25000e+00	5.874945e-10	
46	-2.30000e+00	5.848918e-10	
47	-2.35000e+00	5.823967e-10	
48	-2.40000e+00	5.800025e-10	
49	-2.45000e+00	5.777030e-10	
50	-2.50000e+00	5.754928e-10	
51	-2.55000e+00	5.733666e-10	
52	-2.60000e+00	5.713196e-10	
53	-2.65000e+00	5.693474e-10	
54	-2.70000e+00	5.674461e-10	

Index   v-sweep         rds             
--------------------------------------------------------------------------------
55	-2.75000e+00	5.656117e-10	
56	-2.80000e+00	5.638407e-10	
57	-2.85000e+00	5.621300e-10	
58	-2.90000e+00	5.604765e-10	
59	-2.95000e+00	5.588772e-10	
60	-3.00000e+00	5.573297e-10	
61	-3.05000e+00	5.558314e-10	
62	-3.10000e+00	5.543800e-10	
63	-3.15000e+00	5.529733e-10	
64	-3.20000e+00	5.516093e-10	
65	-3.25000e+00	5.502861e-10	
66	-3.30000e+00	5.490019e-10	
67	-3.35000e+00	5.477550e-10	
68	-3.40000e+00	5.465439e-10	
69	-3.45000e+00	5.453669e-10	
70	-3.50000e+00	5.442228e-10	
71	-3.55000e+00	5.431101e-10	
72	-3.60000e+00	5.420277e-10	
73	-3.65000e+00	5.409743e-10	
74	-3.70000e+00	5.399487e-10	
75	-3.75000e+00	5.389501e-10	
76	-3.80000e+00	5.379772e-10	
77	-3.85000e+00	5.370293e-10	
78	-3.90000e+00	5.361053e-10	
79	-3.95000e+00	5.352044e-10	
80	-4.00000e+00	5.343258e-10	
81	-4.05000e+00	5.334687e-10	
82	-4.10000e+00	5.326324e-10	
83	-4.15000e+00	5.318162e-10	
84	-4.20000e+00	5.310194e-10	
85	-4.25000e+00	5.302414e-10	
86	-4.30000e+00	5.294815e-10	
87	-4.35000e+00	5.287393e-10	
88	-4.40000e+00	5.280140e-10	
89	-4.45000e+00	5.273054e-10	
90	-4.50000e+00	5.266127e-10	
91	-4.55000e+00	5.259356e-10	
92	-4.60000e+00	5.252736e-10	
93	-4.65000e+00	5.246262e-10	
94	-4.70000e+00	5.239931e-10	
95	-4.75000e+00	5.233739e-10	
96	-4.80000e+00	5.227681e-10	
97	-4.85000e+00	5.221754e-10	
98	-4.90000e+00	5.215954e-10	
99	-4.95000e+00	5.210279e-10	
100	-5.00000e+00	5.204724e-10	
101	-5.05000e+00	5.199288e-10	
102	-5.10000e+00	5.193966e-10	
103	-5.15000e+00	5.188757e-10	
104	-5.20000e+00	5.183657e-10	
105	-5.25000e+00	5.178664e-10	
106	-5.30000e+00	5.173775e-10	
107	-5.35000e+00	5.168988e-10	
108	-5.40000e+00	5.164301e-10	
109	-5.45000e+00	5.159711e-10	
110	-5.50000e+00	5.155216e-10	
111	-5.55000e+00	5.150814e-10	
112	-5.60000e+00	5.146504e-10	

Index   v-sweep         rds             
--------------------------------------------------------------------------------
113	-5.65000e+00	5.142282e-10	
114	-5.70000e+00	5.138148e-10	
115	-5.75000e+00	5.134100e-10	
116	-5.80000e+00	5.130135e-10	
117	-5.85000e+00	5.126253e-10	
118	-5.90000e+00	5.122451e-10	
119	-5.95000e+00	5.118728e-10	
120	-6.00000e+00	5.115083e-10	
121	-6.05000e+00	5.111514e-10	
122	-6.10000e+00	5.108019e-10	
123	-6.15000e+00	5.104597e-10	
124	-6.20000e+00	5.101248e-10	
125	-6.25000e+00	5.097969e-10	
126	-6.30000e+00	5.094759e-10	
127	-6.35000e+00	5.091618e-10	
128	-6.40000e+00	5.088544e-10	
129	-6.45000e+00	5.085535e-10	
130	-6.50000e+00	5.082591e-10	
131	-6.55000e+00	5.079711e-10	
132	-6.60000e+00	5.076894e-10	
Reset re-loads circuit ***************************

Circuit: ***************************

Doing analysis at TEMP = 25.000000 and TNOM = 25.000000


No. of Data Rows : 133
                          ***************************
                          DC transfer characteristic  Mon Jan  9 13:58:51  2023
--------------------------------------------------------------------------------
Index   v-sweep         rds             
--------------------------------------------------------------------------------
0	0.000000e+00	1.306217e-05	
1	-5.00000e-02	1.224068e-05	
2	-1.00000e-01	1.141977e-05	
3	-1.50000e-01	1.059948e-05	
4	-2.00000e-01	9.779871e-06	
5	-2.50000e-01	8.961072e-06	
6	-3.00000e-01	8.143256e-06	
7	-3.50000e-01	7.326713e-06	
8	-4.00000e-01	6.511935e-06	
9	-4.50000e-01	5.699789e-06	
10	-5.00000e-01	4.891875e-06	
11	-5.50000e-01	4.091275e-06	
12	-6.00000e-01	3.304173e-06	
13	-6.50000e-01	2.543227e-06	
14	-7.00000e-01	1.833513e-06	
15	-7.50000e-01	1.217897e-06	
16	-8.00000e-01	7.465461e-07	
17	-8.50000e-01	4.394532e-07	
18	-9.00000e-01	2.654439e-07	
19	-9.50000e-01	1.732511e-07	
20	-1.00000e+00	1.241965e-07	
21	-1.05000e+00	9.686671e-08	
22	-1.10000e+00	8.066896e-08	
23	-1.15000e+00	7.043897e-08	
24	-1.20000e+00	6.358522e-08	
25	-1.25000e+00	5.874711e-08	
26	-1.30000e+00	5.517445e-08	
27	-1.35000e+00	5.243340e-08	
28	-1.40000e+00	5.026163e-08	
29	-1.45000e+00	4.849397e-08	
30	-1.50000e+00	4.702253e-08	
31	-1.55000e+00	4.577444e-08	
32	-1.60000e+00	4.469899e-08	
33	-1.65000e+00	4.375994e-08	
34	-1.70000e+00	4.293071e-08	
35	-1.75000e+00	4.219144e-08	
36	-1.80000e+00	4.152693e-08	
37	-1.85000e+00	4.092537e-08	
38	-1.90000e+00	4.037744e-08	
39	-1.95000e+00	3.987564e-08	
40	-2.00000e+00	3.941390e-08	
41	-2.05000e+00	3.898723e-08	
42	-2.10000e+00	3.859147e-08	
43	-2.15000e+00	3.822313e-08	
44	-2.20000e+00	3.787927e-08	
45	-2.25000e+00	3.755736e-08	
46	-2.30000e+00	3.725524e-08	
47	-2.35000e+00	3.697104e-08	
48	-2.40000e+00	3.670312e-08	
49	-2.45000e+00	3.645006e-08	
50	-2.50000e+00	3.621058e-08	
51	-2.55000e+00	3.598358e-08	
52	-2.60000e+00	3.576807e-08	
53	-2.65000e+00	3.556317e-08	
54	-2.70000e+00	3.536807e-08	

Index   v-sweep         rds             
--------------------------------------------------------------------------------
55	-2.75000e+00	3.518208e-08	
56	-2.80000e+00	3.500454e-08	
57	-2.85000e+00	3.483488e-08	
58	-2.90000e+00	3.467256e-08	
59	-2.95000e+00	3.451712e-08	
60	-3.00000e+00	3.436811e-08	
61	-3.05000e+00	3.422513e-08	
62	-3.10000e+00	3.408782e-08	
63	-3.15000e+00	3.395584e-08	
64	-3.20000e+00	3.382887e-08	
65	-3.25000e+00	3.370664e-08	
66	-3.30000e+00	3.358888e-08	
67	-3.35000e+00	3.347534e-08	
68	-3.40000e+00	3.336580e-08	
69	-3.45000e+00	3.326005e-08	
70	-3.50000e+00	3.315789e-08	
71	-3.55000e+00	3.305915e-08	
72	-3.60000e+00	3.296364e-08	
73	-3.65000e+00	3.287122e-08	
74	-3.70000e+00	3.278174e-08	
75	-3.75000e+00	3.269505e-08	
76	-3.80000e+00	3.261103e-08	
77	-3.85000e+00	3.252956e-08	
78	-3.90000e+00	3.245052e-08	
79	-3.95000e+00	3.237380e-08	
80	-4.00000e+00	3.229931e-08	
81	-4.05000e+00	3.222695e-08	
82	-4.10000e+00	3.215663e-08	
83	-4.15000e+00	3.208826e-08	
84	-4.20000e+00	3.202177e-08	
85	-4.25000e+00	3.195708e-08	
86	-4.30000e+00	3.189411e-08	
87	-4.35000e+00	3.183281e-08	
88	-4.40000e+00	3.177311e-08	
89	-4.45000e+00	3.171495e-08	
90	-4.50000e+00	3.165827e-08	
91	-4.55000e+00	3.160302e-08	
92	-4.60000e+00	3.154914e-08	
93	-4.65000e+00	3.149659e-08	
94	-4.70000e+00	3.144532e-08	
95	-4.75000e+00	3.139529e-08	
96	-4.80000e+00	3.134645e-08	
97	-4.85000e+00	3.129877e-08	
98	-4.90000e+00	3.125221e-08	
99	-4.95000e+00	3.120672e-08	
100	-5.00000e+00	3.116229e-08	
101	-5.05000e+00	3.111887e-08	
102	-5.10000e+00	3.107643e-08	
103	-5.15000e+00	3.103495e-08	
104	-5.20000e+00	3.099439e-08	
105	-5.25000e+00	3.095473e-08	
106	-5.30000e+00	3.091594e-08	
107	-5.35000e+00	3.087800e-08	
108	-5.40000e+00	3.084088e-08	
109	-5.45000e+00	3.080456e-08	
110	-5.50000e+00	3.076902e-08	
111	-5.55000e+00	3.073424e-08	
112	-5.60000e+00	3.070020e-08	

Index   v-sweep         rds             
--------------------------------------------------------------------------------
113	-5.65000e+00	3.066688e-08	
114	-5.70000e+00	3.063426e-08	
115	-5.75000e+00	3.060232e-08	
116	-5.80000e+00	3.057105e-08	
117	-5.85000e+00	3.054043e-08	
118	-5.90000e+00	3.051044e-08	
119	-5.95000e+00	3.048108e-08	
120	-6.00000e+00	3.045232e-08	
121	-6.05000e+00	3.042415e-08	
122	-6.10000e+00	3.039656e-08	
123	-6.15000e+00	3.036954e-08	
124	-6.20000e+00	3.034307e-08	
125	-6.25000e+00	3.031715e-08	
126	-6.30000e+00	3.029175e-08	
127	-6.35000e+00	3.026687e-08	
128	-6.40000e+00	3.024251e-08	
129	-6.45000e+00	3.021864e-08	
130	-6.50000e+00	3.019525e-08	
131	-6.55000e+00	3.017235e-08	
132	-6.60000e+00	3.014992e-08	
Reset re-loads circuit ***************************

Circuit: ***************************

Doing analysis at TEMP = 25.000000 and TNOM = 25.000000


No. of Data Rows : 133
                          ***************************
                          DC transfer characteristic  Mon Jan  9 13:58:51  2023
--------------------------------------------------------------------------------
Index   v-sweep         rds             
--------------------------------------------------------------------------------
0	0.000000e+00	2.283555e-05	
1	-5.00000e-02	2.207671e-05	
2	-1.00000e-01	2.131826e-05	
3	-1.50000e-01	2.056022e-05	
4	-2.00000e-01	1.980257e-05	
5	-2.50000e-01	1.904533e-05	
6	-3.00000e-01	1.828851e-05	
7	-3.50000e-01	1.753210e-05	
8	-4.00000e-01	1.677612e-05	
9	-4.50000e-01	1.602058e-05	
10	-5.00000e-01	1.526550e-05	
11	-5.50000e-01	1.451090e-05	
12	-6.00000e-01	1.375680e-05	
13	-6.50000e-01	1.300324e-05	
14	-7.00000e-01	1.225026e-05	
15	-7.50000e-01	1.149793e-05	
16	-8.00000e-01	1.074635e-05	
17	-8.50000e-01	9.995636e-06	
18	-9.00000e-01	9.245981e-06	
19	-9.50000e-01	8.497657e-06	
20	-1.00000e+00	7.751077e-06	
21	-1.05000e+00	7.006876e-06	
22	-1.10000e+00	6.266055e-06	
23	-1.15000e+00	5.530233e-06	
24	-1.20000e+00	4.802081e-06	
25	-1.25000e+00	4.086075e-06	
26	-1.30000e+00	3.389730e-06	
27	-1.35000e+00	2.725362e-06	
28	-1.40000e+00	2.111778e-06	
29	-1.45000e+00	1.573650e-06	
30	-1.50000e+00	1.135008e-06	
31	-1.55000e+00	8.072483e-07	
32	-1.60000e+00	5.816292e-07	
33	-1.65000e+00	4.349679e-07	
34	-1.70000e+00	3.418880e-07	
35	-1.75000e+00	2.824999e-07	
36	-1.80000e+00	2.436591e-07	
37	-1.85000e+00	2.173559e-07	
38	-1.90000e+00	1.988476e-07	
39	-1.95000e+00	1.853226e-07	
40	-2.00000e+00	1.750866e-07	
41	-2.05000e+00	1.670925e-07	
42	-2.10000e+00	1.606756e-07	
43	-2.15000e+00	1.554012e-07	
44	-2.20000e+00	1.509774e-07	
45	-2.25000e+00	1.472026e-07	
46	-2.30000e+00	1.439341e-07	
47	-2.35000e+00	1.410686e-07	
48	-2.40000e+00	1.385296e-07	
49	-2.45000e+00	1.362592e-07	
50	-2.50000e+00	1.342132e-07	
51	-2.55000e+00	1.323566e-07	
52	-2.60000e+00	1.306620e-07	
53	-2.65000e+00	1.291071e-07	
54	-2.70000e+00	1.276739e-07	

Index   v-sweep         rds             
--------------------------------------------------------------------------------
55	-2.75000e+00	1.263474e-07	
56	-2.80000e+00	1.251152e-07	
57	-2.85000e+00	1.239668e-07	
58	-2.90000e+00	1.228933e-07	
59	-2.95000e+00	1.218871e-07	
60	-3.00000e+00	1.209418e-07	
61	-3.05000e+00	1.200516e-07	
62	-3.10000e+00	1.192115e-07	
63	-3.15000e+00	1.184173e-07	
64	-3.20000e+00	1.176650e-07	
65	-3.25000e+00	1.169514e-07	
66	-3.30000e+00	1.162733e-07	
67	-3.35000e+00	1.156281e-07	
68	-3.40000e+00	1.150134e-07	
69	-3.45000e+00	1.144270e-07	
70	-3.50000e+00	1.138668e-07	
71	-3.55000e+00	1.133312e-07	
72	-3.60000e+00	1.128184e-07	
73	-3.65000e+00	1.123271e-07	
74	-3.70000e+00	1.118559e-07	
75	-3.75000e+00	1.114035e-07	
76	-3.80000e+00	1.109689e-07	
77	-3.85000e+00	1.105509e-07	
78	-3.90000e+00	1.101486e-07	
79	-3.95000e+00	1.097611e-07	
80	-4.00000e+00	1.093877e-07	
81	-4.05000e+00	1.090275e-07	
82	-4.10000e+00	1.086798e-07	
83	-4.15000e+00	1.083441e-07	
84	-4.20000e+00	1.080196e-07	
85	-4.25000e+00	1.077059e-07	
86	-4.30000e+00	1.074024e-07	
87	-4.35000e+00	1.071086e-07	
88	-4.40000e+00	1.068240e-07	
89	-4.45000e+00	1.065482e-07	
90	-4.50000e+00	1.062809e-07	
91	-4.55000e+00	1.060215e-07	
92	-4.60000e+00	1.057699e-07	
93	-4.65000e+00	1.055256e-07	
94	-4.70000e+00	1.052883e-07	
95	-4.75000e+00	1.050577e-07	
96	-4.80000e+00	1.048336e-07	
97	-4.85000e+00	1.046156e-07	
98	-4.90000e+00	1.044036e-07	
99	-4.95000e+00	1.041973e-07	
100	-5.00000e+00	1.039965e-07	
101	-5.05000e+00	1.038009e-07	
102	-5.10000e+00	1.036104e-07	
103	-5.15000e+00	1.034247e-07	
104	-5.20000e+00	1.032437e-07	
105	-5.25000e+00	1.030673e-07	
106	-5.30000e+00	1.028952e-07	
107	-5.35000e+00	1.027274e-07	
108	-5.40000e+00	1.025636e-07	
109	-5.45000e+00	1.024037e-07	
110	-5.50000e+00	1.022476e-07	
111	-5.55000e+00	1.020952e-07	
112	-5.60000e+00	1.019464e-07	

Index   v-sweep         rds             
--------------------------------------------------------------------------------
113	-5.65000e+00	1.018009e-07	
114	-5.70000e+00	1.016588e-07	
115	-5.75000e+00	1.015200e-07	
116	-5.80000e+00	1.013842e-07	
117	-5.85000e+00	1.012515e-07	
118	-5.90000e+00	1.011217e-07	
119	-5.95000e+00	1.009948e-07	
120	-6.00000e+00	1.008707e-07	
121	-6.05000e+00	1.007492e-07	
122	-6.10000e+00	1.006304e-07	
123	-6.15000e+00	1.005141e-07	
124	-6.20000e+00	1.004003e-07	
125	-6.25000e+00	1.002890e-07	
126	-6.30000e+00	1.001800e-07	
127	-6.35000e+00	1.000732e-07	
128	-6.40000e+00	9.996873e-08	
129	-6.45000e+00	9.986642e-08	
130	-6.50000e+00	9.976623e-08	
131	-6.55000e+00	9.966813e-08	
132	-6.60000e+00	9.957204e-08	
Reset re-loads circuit ***************************

Circuit: ***************************

Doing analysis at TEMP = 25.000000 and TNOM = 25.000000


No. of Data Rows : 133
                          ***************************
                          DC transfer characteristic  Mon Jan  9 13:58:51  2023
--------------------------------------------------------------------------------
Index   v-sweep         rds             
--------------------------------------------------------------------------------
0	0.000000e+00	3.103252e-05	
1	-5.00000e-02	3.033733e-05	
2	-1.00000e-01	2.964247e-05	
3	-1.50000e-01	2.894793e-05	
4	-2.00000e-01	2.825374e-05	
5	-2.50000e-01	2.755987e-05	
6	-3.00000e-01	2.686634e-05	
7	-3.50000e-01	2.617315e-05	
8	-4.00000e-01	2.548029e-05	
9	-4.50000e-01	2.478777e-05	
10	-5.00000e-01	2.409559e-05	
11	-5.50000e-01	2.340375e-05	
12	-6.00000e-01	2.271225e-05	
13	-6.50000e-01	2.202110e-05	
14	-7.00000e-01	2.133030e-05	
15	-7.50000e-01	2.063985e-05	
16	-8.00000e-01	1.994977e-05	
17	-8.50000e-01	1.926004e-05	
18	-9.00000e-01	1.857069e-05	
19	-9.50000e-01	1.788171e-05	
20	-1.00000e+00	1.719313e-05	
21	-1.05000e+00	1.650495e-05	
22	-1.10000e+00	1.581719e-05	
23	-1.15000e+00	1.512987e-05	
24	-1.20000e+00	1.444302e-05	
25	-1.25000e+00	1.375666e-05	
26	-1.30000e+00	1.307085e-05	
27	-1.35000e+00	1.238564e-05	
28	-1.40000e+00	1.170111e-05	
29	-1.45000e+00	1.101734e-05	
30	-1.50000e+00	1.033449e-05	
31	-1.55000e+00	9.652724e-06	
32	-1.60000e+00	8.972311e-06	
33	-1.65000e+00	8.293613e-06	
34	-1.70000e+00	7.617152e-06	
35	-1.75000e+00	6.943693e-06	
36	-1.80000e+00	6.274369e-06	
37	-1.85000e+00	5.610886e-06	
38	-1.90000e+00	4.955839e-06	
39	-1.95000e+00	4.313184e-06	
40	-2.00000e+00	3.688910e-06	
41	-2.05000e+00	3.091826e-06	
42	-2.10000e+00	2.534136e-06	
43	-2.15000e+00	2.030968e-06	
44	-2.20000e+00	1.597729e-06	
45	-2.25000e+00	1.245175e-06	
46	-2.30000e+00	9.746482e-07	
47	-2.35000e+00	7.773395e-07	
48	-2.40000e+00	6.382840e-07	
49	-2.45000e+00	5.417089e-07	
50	-2.50000e+00	4.744396e-07	
51	-2.55000e+00	4.268381e-07	
52	-2.60000e+00	3.923516e-07	
53	-2.65000e+00	3.666788e-07	
54	-2.70000e+00	3.470275e-07	

Index   v-sweep         rds             
--------------------------------------------------------------------------------
55	-2.75000e+00	3.315786e-07	
56	-2.80000e+00	3.191317e-07	
57	-2.85000e+00	3.088813e-07	
58	-2.90000e+00	3.002758e-07	
59	-2.95000e+00	2.929297e-07	
60	-3.00000e+00	2.865677e-07	
61	-3.05000e+00	2.809894e-07	
62	-3.10000e+00	2.760461e-07	
63	-3.15000e+00	2.716252e-07	
64	-3.20000e+00	2.676401e-07	
65	-3.25000e+00	2.640230e-07	
66	-3.30000e+00	2.607204e-07	
67	-3.35000e+00	2.576889e-07	
68	-3.40000e+00	2.548934e-07	
69	-3.45000e+00	2.523049e-07	
70	-3.50000e+00	2.498992e-07	
71	-3.55000e+00	2.476561e-07	
72	-3.60000e+00	2.455584e-07	
73	-3.65000e+00	2.435914e-07	
74	-3.70000e+00	2.417424e-07	
75	-3.75000e+00	2.400004e-07	
76	-3.80000e+00	2.383558e-07	
77	-3.85000e+00	2.368003e-07	
78	-3.90000e+00	2.353264e-07	
79	-3.95000e+00	2.339275e-07	
80	-4.00000e+00	2.325979e-07	
81	-4.05000e+00	2.313323e-07	
82	-4.10000e+00	2.301259e-07	
83	-4.15000e+00	2.289747e-07	
84	-4.20000e+00	2.278747e-07	
85	-4.25000e+00	2.268225e-07	
86	-4.30000e+00	2.258150e-07	
87	-4.35000e+00	2.248492e-07	
88	-4.40000e+00	2.239227e-07	
89	-4.45000e+00	2.230330e-07	
90	-4.50000e+00	2.221779e-07	
91	-4.55000e+00	2.213554e-07	
92	-4.60000e+00	2.205636e-07	
93	-4.65000e+00	2.198008e-07	
94	-4.70000e+00	2.190654e-07	
95	-4.75000e+00	2.183560e-07	
96	-4.80000e+00	2.176711e-07	
97	-4.85000e+00	2.170095e-07	
98	-4.90000e+00	2.163701e-07	
99	-4.95000e+00	2.157517e-07	
100	-5.00000e+00	2.151533e-07	
101	-5.05000e+00	2.145739e-07	
102	-5.10000e+00	2.140126e-07	
103	-5.15000e+00	2.134686e-07	
104	-5.20000e+00	2.129412e-07	
105	-5.25000e+00	2.124295e-07	
106	-5.30000e+00	2.119328e-07	
107	-5.35000e+00	2.114506e-07	
108	-5.40000e+00	2.109821e-07	
109	-5.45000e+00	2.105269e-07	
110	-5.50000e+00	2.100843e-07	
111	-5.55000e+00	2.096539e-07	
112	-5.60000e+00	2.092351e-07	

Index   v-sweep         rds             
--------------------------------------------------------------------------------
113	-5.65000e+00	2.088276e-07	
114	-5.70000e+00	2.084308e-07	
115	-5.75000e+00	2.080443e-07	
116	-5.80000e+00	2.076678e-07	
117	-5.85000e+00	2.073009e-07	
118	-5.90000e+00	2.069433e-07	
119	-5.95000e+00	2.065945e-07	
120	-6.00000e+00	2.062543e-07	
121	-6.05000e+00	2.059224e-07	
122	-6.10000e+00	2.055985e-07	
123	-6.15000e+00	2.052824e-07	
124	-6.20000e+00	2.049737e-07	
125	-6.25000e+00	2.046722e-07	
126	-6.30000e+00	2.043777e-07	
127	-6.35000e+00	2.040900e-07	
128	-6.40000e+00	2.038089e-07	
129	-6.45000e+00	2.035341e-07	
130	-6.50000e+00	2.032655e-07	
131	-6.55000e+00	2.030028e-07	
132	-6.60000e+00	2.027460e-07	
Reset re-loads circuit ***************************

Circuit: ***************************

Doing analysis at TEMP = 25.000000 and TNOM = 25.000000


No. of Data Rows : 133
                          ***************************
                          DC transfer characteristic  Mon Jan  9 13:58:51  2023
--------------------------------------------------------------------------------
Index   v-sweep         rds             
--------------------------------------------------------------------------------
0	0.000000e+00	3.791878e-05	
1	-5.00000e-02	3.728138e-05	
2	-1.00000e-01	3.664428e-05	
3	-1.50000e-01	3.600746e-05	
4	-2.00000e-01	3.537092e-05	
5	-2.50000e-01	3.473468e-05	
6	-3.00000e-01	3.409871e-05	
7	-3.50000e-01	3.346304e-05	
8	-4.00000e-01	3.282766e-05	
9	-4.50000e-01	3.219256e-05	
10	-5.00000e-01	3.155775e-05	
11	-5.50000e-01	3.092322e-05	
12	-6.00000e-01	3.028899e-05	
13	-6.50000e-01	2.965504e-05	
14	-7.00000e-01	2.902139e-05	
15	-7.50000e-01	2.838802e-05	
16	-8.00000e-01	2.775495e-05	
17	-8.50000e-01	2.712216e-05	
18	-9.00000e-01	2.648967e-05	
19	-9.50000e-01	2.585748e-05	
20	-1.00000e+00	2.522558e-05	
21	-1.05000e+00	2.459397e-05	
22	-1.10000e+00	2.396267e-05	
23	-1.15000e+00	2.333166e-05	
24	-1.20000e+00	2.270096e-05	
25	-1.25000e+00	2.207057e-05	
26	-1.30000e+00	2.144049e-05	
27	-1.35000e+00	2.081072e-05	
28	-1.40000e+00	2.018127e-05	
29	-1.45000e+00	1.955214e-05	
30	-1.50000e+00	1.892335e-05	
31	-1.55000e+00	1.829489e-05	
32	-1.60000e+00	1.766679e-05	
33	-1.65000e+00	1.703905e-05	
34	-1.70000e+00	1.641168e-05	
35	-1.75000e+00	1.578471e-05	
36	-1.80000e+00	1.515815e-05	
37	-1.85000e+00	1.453204e-05	
38	-1.90000e+00	1.390640e-05	
39	-1.95000e+00	1.328128e-05	
40	-2.00000e+00	1.265673e-05	
41	-2.05000e+00	1.203281e-05	
42	-2.10000e+00	1.140963e-05	
43	-2.15000e+00	1.078729e-05	
44	-2.20000e+00	1.016594e-05	
45	-2.25000e+00	9.545776e-06	
46	-2.30000e+00	8.927079e-06	
47	-2.35000e+00	8.310212e-06	
48	-2.40000e+00	7.695685e-06	
49	-2.45000e+00	7.084204e-06	
50	-2.50000e+00	6.476773e-06	
51	-2.55000e+00	5.874818e-06	
52	-2.60000e+00	5.280381e-06	
53	-2.65000e+00	4.696395e-06	
54	-2.70000e+00	4.127034e-06	

Index   v-sweep         rds             
--------------------------------------------------------------------------------
55	-2.75000e+00	3.578114e-06	
56	-2.80000e+00	3.057417e-06	
57	-2.85000e+00	2.574630e-06	
58	-2.90000e+00	2.140464e-06	
59	-2.95000e+00	1.764628e-06	
60	-3.00000e+00	1.453047e-06	
61	-3.05000e+00	1.205700e-06	
62	-3.10000e+00	1.016561e-06	
63	-3.15000e+00	8.757080e-07	
64	-3.20000e+00	7.721894e-07	
65	-3.25000e+00	6.961509e-07	
66	-3.30000e+00	6.397609e-07	
67	-3.35000e+00	5.972479e-07	
68	-3.40000e+00	5.645370e-07	
69	-3.45000e+00	5.388108e-07	
70	-3.50000e+00	5.181329e-07	
71	-3.55000e+00	5.011678e-07	
72	-3.60000e+00	4.869852e-07	
73	-3.65000e+00	4.749287e-07	
74	-3.70000e+00	4.645273e-07	
75	-3.75000e+00	4.554380e-07	
76	-3.80000e+00	4.474062e-07	
77	-3.85000e+00	4.402402e-07	
78	-3.90000e+00	4.337932e-07	
79	-3.95000e+00	4.279508e-07	
80	-4.00000e+00	4.226228e-07	
81	-4.05000e+00	4.177370e-07	
82	-4.10000e+00	4.132350e-07	
83	-4.15000e+00	4.090687e-07	
84	-4.20000e+00	4.051984e-07	
85	-4.25000e+00	4.015908e-07	
86	-4.30000e+00	3.982177e-07	
87	-4.35000e+00	3.950552e-07	
88	-4.40000e+00	3.920826e-07	
89	-4.45000e+00	3.892822e-07	
90	-4.50000e+00	3.866384e-07	
91	-4.55000e+00	3.841377e-07	
92	-4.60000e+00	3.817681e-07	
93	-4.65000e+00	3.795191e-07	
94	-4.70000e+00	3.773811e-07	
95	-4.75000e+00	3.753458e-07	
96	-4.80000e+00	3.734058e-07	
97	-4.85000e+00	3.715541e-07	
98	-4.90000e+00	3.697847e-07	
99	-4.95000e+00	3.680920e-07	
100	-5.00000e+00	3.664710e-07	
101	-5.05000e+00	3.649171e-07	
102	-5.10000e+00	3.634261e-07	
103	-5.15000e+00	3.619943e-07	
104	-5.20000e+00	3.606179e-07	
105	-5.25000e+00	3.592939e-07	
106	-5.30000e+00	3.580193e-07	
107	-5.35000e+00	3.567912e-07	
108	-5.40000e+00	3.556071e-07	
109	-5.45000e+00	3.544648e-07	
110	-5.50000e+00	3.533619e-07	
111	-5.55000e+00	3.522964e-07	
112	-5.60000e+00	3.512665e-07	

Index   v-sweep         rds             
--------------------------------------------------------------------------------
113	-5.65000e+00	3.502704e-07	
114	-5.70000e+00	3.493065e-07	
115	-5.75000e+00	3.483731e-07	
116	-5.80000e+00	3.474689e-07	
117	-5.85000e+00	3.465924e-07	
118	-5.90000e+00	3.457426e-07	
119	-5.95000e+00	3.449180e-07	
120	-6.00000e+00	3.441177e-07	
121	-6.05000e+00	3.433406e-07	
122	-6.10000e+00	3.425856e-07	
123	-6.15000e+00	3.418519e-07	
124	-6.20000e+00	3.411386e-07	
125	-6.25000e+00	3.404448e-07	
126	-6.30000e+00	3.397698e-07	
127	-6.35000e+00	3.391128e-07	
128	-6.40000e+00	3.384731e-07	
129	-6.45000e+00	3.378500e-07	
130	-6.50000e+00	3.372430e-07	
131	-6.55000e+00	3.366514e-07	
132	-6.60000e+00	3.360747e-07	
Reset re-loads circuit ***************************

Circuit: ***************************

Doing analysis at TEMP = 25.000000 and TNOM = 25.000000


No. of Data Rows : 133
                          ***************************
                          DC transfer characteristic  Mon Jan  9 13:58:51  2023
--------------------------------------------------------------------------------
Index   v-sweep         rds             
--------------------------------------------------------------------------------
0	0.000000e+00	4.370190e-05	
1	-5.00000e-02	4.311622e-05	
2	-1.00000e-01	4.253078e-05	
3	-1.50000e-01	4.194560e-05	
4	-2.00000e-01	4.136066e-05	
5	-2.50000e-01	4.077598e-05	
6	-3.00000e-01	4.019154e-05	
7	-3.50000e-01	3.960736e-05	
8	-4.00000e-01	3.902342e-05	
9	-4.50000e-01	3.843973e-05	
10	-5.00000e-01	3.785629e-05	
11	-5.50000e-01	3.727311e-05	
12	-6.00000e-01	3.669017e-05	
13	-6.50000e-01	3.610748e-05	
14	-7.00000e-01	3.552504e-05	
15	-7.50000e-01	3.494285e-05	
16	-8.00000e-01	3.436092e-05	
17	-8.50000e-01	3.377923e-05	
18	-9.00000e-01	3.319779e-05	
19	-9.50000e-01	3.261661e-05	
20	-1.00000e+00	3.203567e-05	
21	-1.05000e+00	3.145499e-05	
22	-1.10000e+00	3.087455e-05	
23	-1.15000e+00	3.029437e-05	
24	-1.20000e+00	2.971445e-05	
25	-1.25000e+00	2.913477e-05	
26	-1.30000e+00	2.855535e-05	
27	-1.35000e+00	2.797619e-05	
28	-1.40000e+00	2.739728e-05	
29	-1.45000e+00	2.681863e-05	
30	-1.50000e+00	2.624023e-05	
31	-1.55000e+00	2.566210e-05	
32	-1.60000e+00	2.508422e-05	
33	-1.65000e+00	2.450661e-05	
34	-1.70000e+00	2.392926e-05	
35	-1.75000e+00	2.335218e-05	
36	-1.80000e+00	2.277536e-05	
37	-1.85000e+00	2.219882e-05	
38	-1.90000e+00	2.162255e-05	
39	-1.95000e+00	2.104656e-05	
40	-2.00000e+00	2.047086e-05	
41	-2.05000e+00	1.989544e-05	
42	-2.10000e+00	1.932032e-05	
43	-2.15000e+00	1.874549e-05	
44	-2.20000e+00	1.817098e-05	
45	-2.25000e+00	1.759679e-05	
46	-2.30000e+00	1.702293e-05	
47	-2.35000e+00	1.644942e-05	
48	-2.40000e+00	1.587627e-05	
49	-2.45000e+00	1.530350e-05	
50	-2.50000e+00	1.473114e-05	
51	-2.55000e+00	1.415921e-05	
52	-2.60000e+00	1.358776e-05	
53	-2.65000e+00	1.301682e-05	
54	-2.70000e+00	1.244646e-05	

Index   v-sweep         rds             
--------------------------------------------------------------------------------
55	-2.75000e+00	1.187675e-05	
56	-2.80000e+00	1.130776e-05	
57	-2.85000e+00	1.073962e-05	
58	-2.90000e+00	1.017246e-05	
59	-2.95000e+00	9.606480e-06	
60	-3.00000e+00	9.041917e-06	
61	-3.05000e+00	8.479093e-06	
62	-3.10000e+00	7.918436e-06	
63	-3.15000e+00	7.360522e-06	
64	-3.20000e+00	6.806131e-06	
65	-3.25000e+00	6.256329e-06	
66	-3.30000e+00	5.712578e-06	
67	-3.35000e+00	5.176884e-06	
68	-3.40000e+00	4.651995e-06	
69	-3.45000e+00	4.141618e-06	
70	-3.50000e+00	3.650642e-06	
71	-3.55000e+00	3.185241e-06	
72	-3.60000e+00	2.752699e-06	
73	-3.65000e+00	2.360736e-06	
74	-3.70000e+00	2.016238e-06	
75	-3.75000e+00	1.723621e-06	
76	-3.80000e+00	1.483523e-06	
77	-3.85000e+00	1.292541e-06	
78	-3.90000e+00	1.144207e-06	
79	-3.95000e+00	1.030646e-06	
80	-4.00000e+00	9.441010e-07	
81	-4.05000e+00	8.778729e-07	
82	-4.10000e+00	8.266419e-07	
83	-4.15000e+00	7.864045e-07	
84	-4.20000e+00	7.542412e-07	
85	-4.25000e+00	7.280560e-07	
86	-4.30000e+00	7.063518e-07	
87	-4.35000e+00	6.880566e-07	
88	-4.40000e+00	6.723966e-07	
89	-4.45000e+00	6.588075e-07	
90	-4.50000e+00	6.468723e-07	
91	-4.55000e+00	6.362786e-07	
92	-4.60000e+00	6.267888e-07	
93	-4.65000e+00	6.182199e-07	
94	-4.70000e+00	6.104287e-07	
95	-4.75000e+00	6.033014e-07	
96	-4.80000e+00	5.967470e-07	
97	-4.85000e+00	5.906912e-07	
98	-4.90000e+00	5.850731e-07	
99	-4.95000e+00	5.798420e-07	
100	-5.00000e+00	5.749553e-07	
101	-5.05000e+00	5.703769e-07	
102	-5.10000e+00	5.660760e-07	
103	-5.15000e+00	5.620261e-07	
104	-5.20000e+00	5.582043e-07	
105	-5.25000e+00	5.545905e-07	
106	-5.30000e+00	5.511670e-07	
107	-5.35000e+00	5.479183e-07	
108	-5.40000e+00	5.448307e-07	
109	-5.45000e+00	5.418919e-07	
110	-5.50000e+00	5.390908e-07	
111	-5.55000e+00	5.364176e-07	
112	-5.60000e+00	5.338635e-07	

Index   v-sweep         rds             
--------------------------------------------------------------------------------
113	-5.65000e+00	5.314202e-07	
114	-5.70000e+00	5.290806e-07	
115	-5.75000e+00	5.268380e-07	
116	-5.80000e+00	5.246863e-07	
117	-5.85000e+00	5.226199e-07	
118	-5.90000e+00	5.206338e-07	
119	-5.95000e+00	5.187233e-07	
120	-6.00000e+00	5.168840e-07	
121	-6.05000e+00	5.151120e-07	
122	-6.10000e+00	5.134035e-07	
123	-6.15000e+00	5.117552e-07	
124	-6.20000e+00	5.101640e-07	
125	-6.25000e+00	5.086268e-07	
126	-6.30000e+00	5.071409e-07	
127	-6.35000e+00	5.057038e-07	
128	-6.40000e+00	5.043131e-07	
129	-6.45000e+00	5.029666e-07	
130	-6.50000e+00	5.016622e-07	
131	-6.55000e+00	5.003978e-07	
132	-6.60000e+00	4.991718e-07	
Reset re-loads circuit ***************************

Circuit: ***************************

Note: No ".plot", ".print", or ".fourier" lines; no simulations run
