
Note: Compatibility modes selected: hs

Warning: m=xx on .subckt line will override multiplier m hierarchy!


Circuit: ***************************

Doing analysis at TEMP = 125.000000 and TNOM = 125.000000


No. of Data Rows : 133
                          ***************************
                          DC transfer characteristic  Mon Jan  9 13:58:53  2023
--------------------------------------------------------------------------------
Index   v-sweep         rds             
--------------------------------------------------------------------------------
0	0.000000e+00	3.878075e-07	
1	-5.00000e-02	2.925319e-07	
2	-1.00000e-01	1.990002e-07	
3	-1.50000e-01	1.118001e-07	
4	-2.00000e-01	4.553394e-08	
5	-2.50000e-01	1.446948e-08	
6	-3.00000e-01	5.080640e-09	
7	-3.50000e-01	2.309678e-09	
8	-4.00000e-01	1.329091e-09	
9	-4.50000e-01	9.113852e-10	
10	-5.00000e-01	7.048085e-10	
11	-5.50000e-01	5.899682e-10	
12	-6.00000e-01	5.199152e-10	
13	-6.50000e-01	4.738598e-10	
14	-7.00000e-01	4.416731e-10	
15	-7.50000e-01	4.180205e-10	
16	-8.00000e-01	3.999047e-10	
17	-8.50000e-01	3.855475e-10	
18	-9.00000e-01	3.738430e-10	
19	-9.50000e-01	3.640753e-10	
20	-1.00000e+00	3.557641e-10	
21	-1.05000e+00	3.485767e-10	
22	-1.10000e+00	3.422763e-10	
23	-1.15000e+00	3.366901e-10	
24	-1.20000e+00	3.316888e-10	
25	-1.25000e+00	3.271743e-10	
26	-1.30000e+00	3.230700e-10	
27	-1.35000e+00	3.193158e-10	
28	-1.40000e+00	3.158634e-10	
29	-1.45000e+00	3.126736e-10	
30	-1.50000e+00	3.097144e-10	
31	-1.55000e+00	3.069588e-10	
32	-1.60000e+00	3.043846e-10	
33	-1.65000e+00	3.019726e-10	
34	-1.70000e+00	2.997066e-10	
35	-1.75000e+00	2.975727e-10	
36	-1.80000e+00	2.955586e-10	
37	-1.85000e+00	2.936538e-10	
38	-1.90000e+00	2.918491e-10	
39	-1.95000e+00	2.901362e-10	
40	-2.00000e+00	2.885079e-10	
41	-2.05000e+00	2.869577e-10	
42	-2.10000e+00	2.854799e-10	
43	-2.15000e+00	2.840691e-10	
44	-2.20000e+00	2.827208e-10	
45	-2.25000e+00	2.814306e-10	
46	-2.30000e+00	2.801949e-10	
47	-2.35000e+00	2.790100e-10	
48	-2.40000e+00	2.778727e-10	
49	-2.45000e+00	2.767803e-10	
50	-2.50000e+00	2.757299e-10	
51	-2.55000e+00	2.747192e-10	
52	-2.60000e+00	2.737458e-10	
53	-2.65000e+00	2.728078e-10	
54	-2.70000e+00	2.719031e-10	

Index   v-sweep         rds             
--------------------------------------------------------------------------------
55	-2.75000e+00	2.710299e-10	
56	-2.80000e+00	2.701867e-10	
57	-2.85000e+00	2.693719e-10	
58	-2.90000e+00	2.685840e-10	
59	-2.95000e+00	2.678217e-10	
60	-3.00000e+00	2.670838e-10	
61	-3.05000e+00	2.663691e-10	
62	-3.10000e+00	2.656766e-10	
63	-3.15000e+00	2.650051e-10	
64	-3.20000e+00	2.643537e-10	
65	-3.25000e+00	2.637216e-10	
66	-3.30000e+00	2.631079e-10	
67	-3.35000e+00	2.625119e-10	
68	-3.40000e+00	2.619326e-10	
69	-3.45000e+00	2.613696e-10	
70	-3.50000e+00	2.608220e-10	
71	-3.55000e+00	2.602893e-10	
72	-3.60000e+00	2.597708e-10	
73	-3.65000e+00	2.592661e-10	
74	-3.70000e+00	2.587746e-10	
75	-3.75000e+00	2.582958e-10	
76	-3.80000e+00	2.578291e-10	
77	-3.85000e+00	2.573743e-10	
78	-3.90000e+00	2.569308e-10	
79	-3.95000e+00	2.564982e-10	
80	-4.00000e+00	2.560761e-10	
81	-4.05000e+00	2.556643e-10	
82	-4.10000e+00	2.552623e-10	
83	-4.15000e+00	2.548698e-10	
84	-4.20000e+00	2.544865e-10	
85	-4.25000e+00	2.541121e-10	
86	-4.30000e+00	2.537462e-10	
87	-4.35000e+00	2.533888e-10	
88	-4.40000e+00	2.530394e-10	
89	-4.45000e+00	2.526978e-10	
90	-4.50000e+00	2.523639e-10	
91	-4.55000e+00	2.520373e-10	
92	-4.60000e+00	2.517179e-10	
93	-4.65000e+00	2.514054e-10	
94	-4.70000e+00	2.510997e-10	
95	-4.75000e+00	2.508005e-10	
96	-4.80000e+00	2.505078e-10	
97	-4.85000e+00	2.502213e-10	
98	-4.90000e+00	2.499408e-10	
99	-4.95000e+00	2.496662e-10	
100	-5.00000e+00	2.493974e-10	
101	-5.05000e+00	2.491341e-10	
102	-5.10000e+00	2.488763e-10	
103	-5.15000e+00	2.486239e-10	
104	-5.20000e+00	2.483767e-10	
105	-5.25000e+00	2.481345e-10	
106	-5.30000e+00	2.478973e-10	
107	-5.35000e+00	2.476649e-10	
108	-5.40000e+00	2.474373e-10	
109	-5.45000e+00	2.472143e-10	
110	-5.50000e+00	2.469959e-10	
111	-5.55000e+00	2.467818e-10	
112	-5.60000e+00	2.465721e-10	

Index   v-sweep         rds             
--------------------------------------------------------------------------------
113	-5.65000e+00	2.463667e-10	
114	-5.70000e+00	2.461654e-10	
115	-5.75000e+00	2.459682e-10	
116	-5.80000e+00	2.457750e-10	
117	-5.85000e+00	2.455858e-10	
118	-5.90000e+00	2.454003e-10	
119	-5.95000e+00	2.452187e-10	
120	-6.00000e+00	2.450407e-10	
121	-6.05000e+00	2.448663e-10	
122	-6.10000e+00	2.446956e-10	
123	-6.15000e+00	2.445283e-10	
124	-6.20000e+00	2.443644e-10	
125	-6.25000e+00	2.442040e-10	
126	-6.30000e+00	2.440468e-10	
127	-6.35000e+00	2.438929e-10	
128	-6.40000e+00	2.437422e-10	
129	-6.45000e+00	2.435947e-10	
130	-6.50000e+00	2.434502e-10	
131	-6.55000e+00	2.433088e-10	
132	-6.60000e+00	2.431704e-10	
Reset re-loads circuit ***************************

Circuit: ***************************

Doing analysis at TEMP = 125.000000 and TNOM = 125.000000


No. of Data Rows : 133
                          ***************************
                          DC transfer characteristic  Mon Jan  9 13:58:53  2023
--------------------------------------------------------------------------------
Index   v-sweep         rds             
--------------------------------------------------------------------------------
0	0.000000e+00	1.936011e-06	
1	-5.00000e-02	1.829134e-06	
2	-1.00000e-01	1.722293e-06	
3	-1.50000e-01	1.615491e-06	
4	-2.00000e-01	1.508733e-06	
5	-2.50000e-01	1.402027e-06	
6	-3.00000e-01	1.295384e-06	
7	-3.50000e-01	1.188822e-06	
8	-4.00000e-01	1.082366e-06	
9	-4.50000e-01	9.760593e-07	
10	-5.00000e-01	8.699734e-07	
11	-5.50000e-01	7.642303e-07	
12	-6.00000e-01	6.590498e-07	
13	-6.50000e-01	5.548422e-07	
14	-7.00000e-01	4.523998e-07	
15	-7.50000e-01	3.532729e-07	
16	-8.00000e-01	2.604003e-07	
17	-8.50000e-01	1.786737e-07	
18	-9.00000e-01	1.140069e-07	
19	-9.50000e-01	6.959516e-08	
20	-1.00000e+00	4.291979e-08	
21	-1.05000e+00	2.812953e-08	
22	-1.10000e+00	2.005889e-08	
23	-1.15000e+00	1.552889e-08	
24	-1.20000e+00	1.285746e-08	
25	-1.25000e+00	1.119157e-08	
26	-1.30000e+00	1.009410e-08	
27	-1.35000e+00	9.333457e-09	
28	-1.40000e+00	8.781816e-09	
29	-1.45000e+00	8.365543e-09	
30	-1.50000e+00	8.040465e-09	
31	-1.55000e+00	7.779055e-09	
32	-1.60000e+00	7.563549e-09	
33	-1.65000e+00	7.382112e-09	
34	-1.70000e+00	7.226624e-09	
35	-1.75000e+00	7.091362e-09	
36	-1.80000e+00	6.972196e-09	
37	-1.85000e+00	6.866077e-09	
38	-1.90000e+00	6.770706e-09	
39	-1.95000e+00	6.684320e-09	
40	-2.00000e+00	6.605541e-09	
41	-2.05000e+00	6.533277e-09	
42	-2.10000e+00	6.466650e-09	
43	-2.15000e+00	6.404943e-09	
44	-2.20000e+00	6.347566e-09	
45	-2.25000e+00	6.294028e-09	
46	-2.30000e+00	6.243913e-09	
47	-2.35000e+00	6.196871e-09	
48	-2.40000e+00	6.152599e-09	
49	-2.45000e+00	6.110837e-09	
50	-2.50000e+00	6.071361e-09	
51	-2.55000e+00	6.033972e-09	
52	-2.60000e+00	5.998496e-09	
53	-2.65000e+00	5.964781e-09	
54	-2.70000e+00	5.932690e-09	

Index   v-sweep         rds             
--------------------------------------------------------------------------------
55	-2.75000e+00	5.902101e-09	
56	-2.80000e+00	5.872904e-09	
57	-2.85000e+00	5.845003e-09	
58	-2.90000e+00	5.818308e-09	
59	-2.95000e+00	5.792740e-09	
60	-3.00000e+00	5.768225e-09	
61	-3.05000e+00	5.744696e-09	
62	-3.10000e+00	5.722094e-09	
63	-3.15000e+00	5.700363e-09	
64	-3.20000e+00	5.679452e-09	
65	-3.25000e+00	5.659313e-09	
66	-3.30000e+00	5.639904e-09	
67	-3.35000e+00	5.621185e-09	
68	-3.40000e+00	5.603118e-09	
69	-3.45000e+00	5.585670e-09	
70	-3.50000e+00	5.568808e-09	
71	-3.55000e+00	5.552502e-09	
72	-3.60000e+00	5.536726e-09	
73	-3.65000e+00	5.521453e-09	
74	-3.70000e+00	5.506660e-09	
75	-3.75000e+00	5.492323e-09	
76	-3.80000e+00	5.478423e-09	
77	-3.85000e+00	5.464938e-09	
78	-3.90000e+00	5.451850e-09	
79	-3.95000e+00	5.439143e-09	
80	-4.00000e+00	5.426799e-09	
81	-4.05000e+00	5.414804e-09	
82	-4.10000e+00	5.403142e-09	
83	-4.15000e+00	5.391800e-09	
84	-4.20000e+00	5.380766e-09	
85	-4.25000e+00	5.370026e-09	
86	-4.30000e+00	5.359569e-09	
87	-4.35000e+00	5.349385e-09	
88	-4.40000e+00	5.339462e-09	
89	-4.45000e+00	5.329792e-09	
90	-4.50000e+00	5.320365e-09	
91	-4.55000e+00	5.311172e-09	
92	-4.60000e+00	5.302204e-09	
93	-4.65000e+00	5.293455e-09	
94	-4.70000e+00	5.284915e-09	
95	-4.75000e+00	5.276579e-09	
96	-4.80000e+00	5.268439e-09	
97	-4.85000e+00	5.260489e-09	
98	-4.90000e+00	5.252722e-09	
99	-4.95000e+00	5.245133e-09	
100	-5.00000e+00	5.237717e-09	
101	-5.05000e+00	5.230467e-09	
102	-5.10000e+00	5.223378e-09	
103	-5.15000e+00	5.216447e-09	
104	-5.20000e+00	5.209667e-09	
105	-5.25000e+00	5.203036e-09	
106	-5.30000e+00	5.196548e-09	
107	-5.35000e+00	5.190199e-09	
108	-5.40000e+00	5.183986e-09	
109	-5.45000e+00	5.177905e-09	
110	-5.50000e+00	5.171952e-09	
111	-5.55000e+00	5.166124e-09	
112	-5.60000e+00	5.160418e-09	

Index   v-sweep         rds             
--------------------------------------------------------------------------------
113	-5.65000e+00	5.154830e-09	
114	-5.70000e+00	5.149358e-09	
115	-5.75000e+00	5.143999e-09	
116	-5.80000e+00	5.138749e-09	
117	-5.85000e+00	5.133607e-09	
118	-5.90000e+00	5.128570e-09	
119	-5.95000e+00	5.123635e-09	
120	-6.00000e+00	5.118800e-09	
121	-6.05000e+00	5.114063e-09	
122	-6.10000e+00	5.109421e-09	
123	-6.15000e+00	5.104873e-09	
124	-6.20000e+00	5.100417e-09	
125	-6.25000e+00	5.096050e-09	
126	-6.30000e+00	5.091770e-09	
127	-6.35000e+00	5.087577e-09	
128	-6.40000e+00	5.083468e-09	
129	-6.45000e+00	5.079442e-09	
130	-6.50000e+00	5.075496e-09	
131	-6.55000e+00	5.071630e-09	
132	-6.60000e+00	5.067841e-09	
Reset re-loads circuit ***************************

Circuit: ***************************

Doing analysis at TEMP = 125.000000 and TNOM = 125.000000


No. of Data Rows : 133
                          ***************************
                          DC transfer characteristic  Mon Jan  9 13:58:53  2023
--------------------------------------------------------------------------------
Index   v-sweep         rds             
--------------------------------------------------------------------------------
0	0.000000e+00	3.270353e-06	
1	-5.00000e-02	3.169601e-06	
2	-1.00000e-01	3.068872e-06	
3	-1.50000e-01	2.968167e-06	
4	-2.00000e-01	2.867485e-06	
5	-2.50000e-01	2.766828e-06	
6	-3.00000e-01	2.666195e-06	
7	-3.50000e-01	2.565588e-06	
8	-4.00000e-01	2.465007e-06	
9	-4.50000e-01	2.364454e-06	
10	-5.00000e-01	2.263929e-06	
11	-5.50000e-01	2.163435e-06	
12	-6.00000e-01	2.062974e-06	
13	-6.50000e-01	1.962549e-06	
14	-7.00000e-01	1.862164e-06	
15	-7.50000e-01	1.761823e-06	
16	-8.00000e-01	1.661533e-06	
17	-8.50000e-01	1.561304e-06	
18	-9.00000e-01	1.461149e-06	
19	-9.50000e-01	1.361084e-06	
20	-1.00000e+00	1.261137e-06	
21	-1.05000e+00	1.161343e-06	
22	-1.10000e+00	1.061757e-06	
23	-1.15000e+00	9.624646e-07	
24	-1.20000e+00	8.635946e-07	
25	-1.25000e+00	7.653539e-07	
26	-1.30000e+00	6.680773e-07	
27	-1.35000e+00	5.723145e-07	
28	-1.40000e+00	4.789718e-07	
29	-1.45000e+00	3.895127e-07	
30	-1.50000e+00	3.061668e-07	
31	-1.55000e+00	2.319265e-07	
32	-1.60000e+00	1.699381e-07	
33	-1.65000e+00	1.221681e-07	
34	-1.70000e+00	8.823294e-08	
35	-1.75000e+00	6.562512e-08	
36	-1.80000e+00	5.108927e-08	
37	-1.85000e+00	4.180628e-08	
38	-1.90000e+00	3.578927e-08	
39	-1.95000e+00	3.177861e-08	
40	-2.00000e+00	2.901195e-08	
41	-2.05000e+00	2.703309e-08	
42	-2.10000e+00	2.556684e-08	
43	-2.15000e+00	2.444405e-08	
44	-2.20000e+00	2.355831e-08	
45	-2.25000e+00	2.284096e-08	
46	-2.30000e+00	2.224651e-08	
47	-2.35000e+00	2.174405e-08	
48	-2.40000e+00	2.131211e-08	
49	-2.45000e+00	2.093537e-08	
50	-2.50000e+00	2.060270e-08	
51	-2.55000e+00	2.030584e-08	
52	-2.60000e+00	2.003854e-08	
53	-2.65000e+00	1.979598e-08	
54	-2.70000e+00	1.957440e-08	

Index   v-sweep         rds             
--------------------------------------------------------------------------------
55	-2.75000e+00	1.937081e-08	
56	-2.80000e+00	1.918281e-08	
57	-2.85000e+00	1.900843e-08	
58	-2.90000e+00	1.884605e-08	
59	-2.95000e+00	1.869432e-08	
60	-3.00000e+00	1.855210e-08	
61	-3.05000e+00	1.841843e-08	
62	-3.10000e+00	1.829248e-08	
63	-3.15000e+00	1.817353e-08	
64	-3.20000e+00	1.806096e-08	
65	-3.25000e+00	1.795423e-08	
66	-3.30000e+00	1.785285e-08	
67	-3.35000e+00	1.775641e-08	
68	-3.40000e+00	1.766453e-08	
69	-3.45000e+00	1.757686e-08	
70	-3.50000e+00	1.749312e-08	
71	-3.55000e+00	1.741302e-08	
72	-3.60000e+00	1.733632e-08	
73	-3.65000e+00	1.726281e-08	
74	-3.70000e+00	1.719226e-08	
75	-3.75000e+00	1.712451e-08	
76	-3.80000e+00	1.705939e-08	
77	-3.85000e+00	1.699673e-08	
78	-3.90000e+00	1.693639e-08	
79	-3.95000e+00	1.687825e-08	
80	-4.00000e+00	1.682219e-08	
81	-4.05000e+00	1.676808e-08	
82	-4.10000e+00	1.671583e-08	
83	-4.15000e+00	1.666534e-08	
84	-4.20000e+00	1.661653e-08	
85	-4.25000e+00	1.656930e-08	
86	-4.30000e+00	1.652358e-08	
87	-4.35000e+00	1.647931e-08	
88	-4.40000e+00	1.643640e-08	
89	-4.45000e+00	1.639480e-08	
90	-4.50000e+00	1.635445e-08	
91	-4.55000e+00	1.631529e-08	
92	-4.60000e+00	1.627726e-08	
93	-4.65000e+00	1.624033e-08	
94	-4.70000e+00	1.620444e-08	
95	-4.75000e+00	1.616956e-08	
96	-4.80000e+00	1.613563e-08	
97	-4.85000e+00	1.610262e-08	
98	-4.90000e+00	1.607049e-08	
99	-4.95000e+00	1.603921e-08	
100	-5.00000e+00	1.600875e-08	
101	-5.05000e+00	1.597907e-08	
102	-5.10000e+00	1.595015e-08	
103	-5.15000e+00	1.592195e-08	
104	-5.20000e+00	1.589446e-08	
105	-5.25000e+00	1.586764e-08	
106	-5.30000e+00	1.584147e-08	
107	-5.35000e+00	1.581593e-08	
108	-5.40000e+00	1.579100e-08	
109	-5.45000e+00	1.576665e-08	
110	-5.50000e+00	1.574287e-08	
111	-5.55000e+00	1.571964e-08	
112	-5.60000e+00	1.569695e-08	

Index   v-sweep         rds             
--------------------------------------------------------------------------------
113	-5.65000e+00	1.567476e-08	
114	-5.70000e+00	1.565308e-08	
115	-5.75000e+00	1.563188e-08	
116	-5.80000e+00	1.561114e-08	
117	-5.85000e+00	1.559087e-08	
118	-5.90000e+00	1.557103e-08	
119	-5.95000e+00	1.555162e-08	
120	-6.00000e+00	1.553263e-08	
121	-6.05000e+00	1.551404e-08	
122	-6.10000e+00	1.549585e-08	
123	-6.15000e+00	1.547804e-08	
124	-6.20000e+00	1.546060e-08	
125	-6.25000e+00	1.544352e-08	
126	-6.30000e+00	1.542680e-08	
127	-6.35000e+00	1.541043e-08	
128	-6.40000e+00	1.539439e-08	
129	-6.45000e+00	1.537868e-08	
130	-6.50000e+00	1.536329e-08	
131	-6.55000e+00	1.534821e-08	
132	-6.60000e+00	1.533343e-08	
Reset re-loads circuit ***************************

Circuit: ***************************

Doing analysis at TEMP = 125.000000 and TNOM = 125.000000


No. of Data Rows : 133
                          ***************************
                          DC transfer characteristic  Mon Jan  9 13:58:53  2023
--------------------------------------------------------------------------------
Index   v-sweep         rds             
--------------------------------------------------------------------------------
0	0.000000e+00	4.464388e-06	
1	-5.00000e-02	4.369764e-06	
2	-1.00000e-01	4.275159e-06	
3	-1.50000e-01	4.180575e-06	
4	-2.00000e-01	4.086010e-06	
5	-2.50000e-01	3.991466e-06	
6	-3.00000e-01	3.896941e-06	
7	-3.50000e-01	3.802437e-06	
8	-4.00000e-01	3.707954e-06	
9	-4.50000e-01	3.613491e-06	
10	-5.00000e-01	3.519049e-06	
11	-5.50000e-01	3.424628e-06	
12	-6.00000e-01	3.330228e-06	
13	-6.50000e-01	3.235850e-06	
14	-7.00000e-01	3.141493e-06	
15	-7.50000e-01	3.047160e-06	
16	-8.00000e-01	2.952848e-06	
17	-8.50000e-01	2.858561e-06	
18	-9.00000e-01	2.764297e-06	
19	-9.50000e-01	2.670059e-06	
20	-1.00000e+00	2.575846e-06	
21	-1.05000e+00	2.481661e-06	
22	-1.10000e+00	2.387505e-06	
23	-1.15000e+00	2.293379e-06	
24	-1.20000e+00	2.199287e-06	
25	-1.25000e+00	2.105230e-06	
26	-1.30000e+00	2.011213e-06	
27	-1.35000e+00	1.917241e-06	
28	-1.40000e+00	1.823319e-06	
29	-1.45000e+00	1.729455e-06	
30	-1.50000e+00	1.635660e-06	
31	-1.55000e+00	1.541947e-06	
32	-1.60000e+00	1.448334e-06	
33	-1.65000e+00	1.354847e-06	
34	-1.70000e+00	1.261519e-06	
35	-1.75000e+00	1.168399e-06	
36	-1.80000e+00	1.075555e-06	
37	-1.85000e+00	9.830854e-07	
38	-1.90000e+00	8.911356e-07	
39	-1.95000e+00	7.999201e-07	
40	-2.00000e+00	7.097615e-07	
41	-2.05000e+00	6.211461e-07	
42	-2.10000e+00	5.348037e-07	
43	-2.15000e+00	4.518049e-07	
44	-2.20000e+00	3.736462e-07	
45	-2.25000e+00	3.022374e-07	
46	-2.30000e+00	2.396571e-07	
47	-2.35000e+00	1.876026e-07	
48	-2.40000e+00	1.467252e-07	
49	-2.45000e+00	1.163162e-07	
50	-2.50000e+00	9.461958e-08	
51	-2.55000e+00	7.950857e-08	
52	-2.60000e+00	6.905089e-08	
53	-2.65000e+00	6.175391e-08	
54	-2.70000e+00	5.656818e-08	

Index   v-sweep         rds             
--------------------------------------------------------------------------------
55	-2.75000e+00	5.279221e-08	
56	-2.80000e+00	4.996742e-08	
57	-2.85000e+00	4.779536e-08	
58	-2.90000e+00	4.608053e-08	
59	-2.95000e+00	4.469318e-08	
60	-3.00000e+00	4.354577e-08	
61	-3.05000e+00	4.257812e-08	
62	-3.10000e+00	4.174806e-08	
63	-3.15000e+00	4.102545e-08	
64	-3.20000e+00	4.038837e-08	
65	-3.25000e+00	3.982054e-08	
66	-3.30000e+00	3.930969e-08	
67	-3.35000e+00	3.884638e-08	
68	-3.40000e+00	3.842329e-08	
69	-3.45000e+00	3.803458e-08	
70	-3.50000e+00	3.767560e-08	
71	-3.55000e+00	3.734257e-08	
72	-3.60000e+00	3.703236e-08	
73	-3.65000e+00	3.674238e-08	
74	-3.70000e+00	3.647046e-08	
75	-3.75000e+00	3.621476e-08	
76	-3.80000e+00	3.597370e-08	
77	-3.85000e+00	3.574592e-08	
78	-3.90000e+00	3.553024e-08	
79	-3.95000e+00	3.532563e-08	
80	-4.00000e+00	3.513119e-08	
81	-4.05000e+00	3.494611e-08	
82	-4.10000e+00	3.476968e-08	
83	-4.15000e+00	3.460127e-08	
84	-4.20000e+00	3.444030e-08	
85	-4.25000e+00	3.428627e-08	
86	-4.30000e+00	3.413870e-08	
87	-4.35000e+00	3.399719e-08	
88	-4.40000e+00	3.386135e-08	
89	-4.45000e+00	3.373082e-08	
90	-4.50000e+00	3.360529e-08	
91	-4.55000e+00	3.348447e-08	
92	-4.60000e+00	3.336809e-08	
93	-4.65000e+00	3.325590e-08	
94	-4.70000e+00	3.314766e-08	
95	-4.75000e+00	3.304318e-08	
96	-4.80000e+00	3.294225e-08	
97	-4.85000e+00	3.284469e-08	
98	-4.90000e+00	3.275032e-08	
99	-4.95000e+00	3.265901e-08	
100	-5.00000e+00	3.257058e-08	
101	-5.05000e+00	3.248491e-08	
102	-5.10000e+00	3.240188e-08	
103	-5.15000e+00	3.232134e-08	
104	-5.20000e+00	3.224321e-08	
105	-5.25000e+00	3.216736e-08	
106	-5.30000e+00	3.209370e-08	
107	-5.35000e+00	3.202213e-08	
108	-5.40000e+00	3.195258e-08	
109	-5.45000e+00	3.188494e-08	
110	-5.50000e+00	3.181915e-08	
111	-5.55000e+00	3.175513e-08	
112	-5.60000e+00	3.169280e-08	

Index   v-sweep         rds             
--------------------------------------------------------------------------------
113	-5.65000e+00	3.163211e-08	
114	-5.70000e+00	3.157300e-08	
115	-5.75000e+00	3.151539e-08	
116	-5.80000e+00	3.145924e-08	
117	-5.85000e+00	3.140449e-08	
118	-5.90000e+00	3.135109e-08	
119	-5.95000e+00	3.129899e-08	
120	-6.00000e+00	3.124815e-08	
121	-6.05000e+00	3.119853e-08	
122	-6.10000e+00	3.115007e-08	
123	-6.15000e+00	3.110275e-08	
124	-6.20000e+00	3.105653e-08	
125	-6.25000e+00	3.101136e-08	
126	-6.30000e+00	3.096722e-08	
127	-6.35000e+00	3.092408e-08	
128	-6.40000e+00	3.088190e-08	
129	-6.45000e+00	3.084065e-08	
130	-6.50000e+00	3.080031e-08	
131	-6.55000e+00	3.076085e-08	
132	-6.60000e+00	3.072224e-08	
Reset re-loads circuit ***************************

Circuit: ***************************

Doing analysis at TEMP = 125.000000 and TNOM = 125.000000


No. of Data Rows : 133
                          ***************************
                          DC transfer characteristic  Mon Jan  9 13:58:53  2023
--------------------------------------------------------------------------------
Index   v-sweep         rds             
--------------------------------------------------------------------------------
0	0.000000e+00	5.551041e-06	
1	-5.00000e-02	5.461792e-06	
2	-1.00000e-01	5.372560e-06	
3	-1.50000e-01	5.283347e-06	
4	-2.00000e-01	5.194152e-06	
5	-2.50000e-01	5.104975e-06	
6	-3.00000e-01	5.015817e-06	
7	-3.50000e-01	4.926676e-06	
8	-4.00000e-01	4.837554e-06	
9	-4.50000e-01	4.748450e-06	
10	-5.00000e-01	4.659364e-06	
11	-5.50000e-01	4.570296e-06	
12	-6.00000e-01	4.481247e-06	
13	-6.50000e-01	4.392217e-06	
14	-7.00000e-01	4.303205e-06	
15	-7.50000e-01	4.214211e-06	
16	-8.00000e-01	4.125237e-06	
17	-8.50000e-01	4.036281e-06	
18	-9.00000e-01	3.947344e-06	
19	-9.50000e-01	3.858426e-06	
20	-1.00000e+00	3.769528e-06	
21	-1.05000e+00	3.680649e-06	
22	-1.10000e+00	3.591790e-06	
23	-1.15000e+00	3.502951e-06	
24	-1.20000e+00	3.414132e-06	
25	-1.25000e+00	3.325334e-06	
26	-1.30000e+00	3.236557e-06	
27	-1.35000e+00	3.147801e-06	
28	-1.40000e+00	3.059068e-06	
29	-1.45000e+00	2.970357e-06	
30	-1.50000e+00	2.881669e-06	
31	-1.55000e+00	2.793006e-06	
32	-1.60000e+00	2.704367e-06	
33	-1.65000e+00	2.615756e-06	
34	-1.70000e+00	2.527172e-06	
35	-1.75000e+00	2.438618e-06	
36	-1.80000e+00	2.350095e-06	
37	-1.85000e+00	2.261607e-06	
38	-1.90000e+00	2.173156e-06	
39	-1.95000e+00	2.084746e-06	
40	-2.00000e+00	1.996383e-06	
41	-2.05000e+00	1.908071e-06	
42	-2.10000e+00	1.819818e-06	
43	-2.15000e+00	1.731635e-06	
44	-2.20000e+00	1.643533e-06	
45	-2.25000e+00	1.555527e-06	
46	-2.30000e+00	1.467640e-06	
47	-2.35000e+00	1.379897e-06	
48	-2.40000e+00	1.292335e-06	
49	-2.45000e+00	1.205005e-06	
50	-2.50000e+00	1.117972e-06	
51	-2.55000e+00	1.031332e-06	
52	-2.60000e+00	9.452138e-07	
53	-2.65000e+00	8.598023e-07	
54	-2.70000e+00	7.753594e-07	

Index   v-sweep         rds             
--------------------------------------------------------------------------------
55	-2.75000e+00	6.922577e-07	
56	-2.80000e+00	6.110251e-07	
57	-2.85000e+00	5.323973e-07	
58	-2.90000e+00	4.573661e-07	
59	-2.95000e+00	3.871925e-07	
60	-3.00000e+00	3.233309e-07	
61	-3.05000e+00	2.672119e-07	
62	-3.10000e+00	2.198912e-07	
63	-3.15000e+00	1.817025e-07	
64	-3.20000e+00	1.521218e-07	
65	-3.25000e+00	1.299460e-07	
66	-3.30000e+00	1.136643e-07	
67	-3.35000e+00	1.018068e-07	
68	-3.40000e+00	9.314377e-08	
69	-3.45000e+00	8.673873e-08	
70	-3.50000e+00	8.191802e-08	
71	-3.55000e+00	7.821212e-08	
72	-3.60000e+00	7.529842e-08	
73	-3.65000e+00	7.295577e-08	
74	-3.70000e+00	7.103187e-08	
75	-3.75000e+00	6.942073e-08	
76	-3.80000e+00	6.804764e-08	
77	-3.85000e+00	6.685918e-08	
78	-3.90000e+00	6.581653e-08	
79	-3.95000e+00	6.489102e-08	
80	-4.00000e+00	6.406115e-08	
81	-4.05000e+00	6.331053e-08	
82	-4.10000e+00	6.262649e-08	
83	-4.15000e+00	6.199906e-08	
84	-4.20000e+00	6.142033e-08	
85	-4.25000e+00	6.088390e-08	
86	-4.30000e+00	6.038455e-08	
87	-4.35000e+00	5.991797e-08	
88	-4.40000e+00	5.948057e-08	
89	-4.45000e+00	5.906931e-08	
90	-4.50000e+00	5.868160e-08	
91	-4.55000e+00	5.831523e-08	
92	-4.60000e+00	5.796829e-08	
93	-4.65000e+00	5.763911e-08	
94	-4.70000e+00	5.732622e-08	
95	-4.75000e+00	5.702833e-08	
96	-4.80000e+00	5.674430e-08	
97	-4.85000e+00	5.647311e-08	
98	-4.90000e+00	5.621384e-08	
99	-4.95000e+00	5.596568e-08	
100	-5.00000e+00	5.572788e-08	
101	-5.05000e+00	5.549977e-08	
102	-5.10000e+00	5.528074e-08	
103	-5.15000e+00	5.507023e-08	
104	-5.20000e+00	5.486774e-08	
105	-5.25000e+00	5.467280e-08	
106	-5.30000e+00	5.448497e-08	
107	-5.35000e+00	5.430386e-08	
108	-5.40000e+00	5.412911e-08	
109	-5.45000e+00	5.396037e-08	
110	-5.50000e+00	5.379734e-08	
111	-5.55000e+00	5.363972e-08	
112	-5.60000e+00	5.348724e-08	

Index   v-sweep         rds             
--------------------------------------------------------------------------------
113	-5.65000e+00	5.333965e-08	
114	-5.70000e+00	5.319672e-08	
115	-5.75000e+00	5.305821e-08	
116	-5.80000e+00	5.292394e-08	
117	-5.85000e+00	5.279370e-08	
118	-5.90000e+00	5.266731e-08	
119	-5.95000e+00	5.254461e-08	
120	-6.00000e+00	5.242543e-08	
121	-6.05000e+00	5.230962e-08	
122	-6.10000e+00	5.219704e-08	
123	-6.15000e+00	5.208756e-08	
124	-6.20000e+00	5.198106e-08	
125	-6.25000e+00	5.187740e-08	
126	-6.30000e+00	5.177649e-08	
127	-6.35000e+00	5.167821e-08	
128	-6.40000e+00	5.158246e-08	
129	-6.45000e+00	5.148915e-08	
130	-6.50000e+00	5.139818e-08	
131	-6.55000e+00	5.130948e-08	
132	-6.60000e+00	5.122296e-08	
Reset re-loads circuit ***************************

Circuit: ***************************

Doing analysis at TEMP = 125.000000 and TNOM = 125.000000


No. of Data Rows : 133
                          ***************************
                          DC transfer characteristic  Mon Jan  9 13:58:53  2023
--------------------------------------------------------------------------------
Index   v-sweep         rds             
--------------------------------------------------------------------------------
0	0.000000e+00	6.566360e-06	
1	-5.00000e-02	6.481709e-06	
2	-1.00000e-01	6.397074e-06	
3	-1.50000e-01	6.312457e-06	
4	-2.00000e-01	6.227856e-06	
5	-2.50000e-01	6.143272e-06	
6	-3.00000e-01	6.058704e-06	
7	-3.50000e-01	5.974154e-06	
8	-4.00000e-01	5.889620e-06	
9	-4.50000e-01	5.805104e-06	
10	-5.00000e-01	5.720604e-06	
11	-5.50000e-01	5.636120e-06	
12	-6.00000e-01	5.551654e-06	
13	-6.50000e-01	5.467205e-06	
14	-7.00000e-01	5.382772e-06	
15	-7.50000e-01	5.298357e-06	
16	-8.00000e-01	5.213958e-06	
17	-8.50000e-01	5.129577e-06	
18	-9.00000e-01	5.045212e-06	
19	-9.50000e-01	4.960865e-06	
20	-1.00000e+00	4.876535e-06	
21	-1.05000e+00	4.792222e-06	
22	-1.10000e+00	4.707926e-06	
23	-1.15000e+00	4.623647e-06	
24	-1.20000e+00	4.539386e-06	
25	-1.25000e+00	4.455142e-06	
26	-1.30000e+00	4.370916e-06	
27	-1.35000e+00	4.286708e-06	
28	-1.40000e+00	4.202517e-06	
29	-1.45000e+00	4.118345e-06	
30	-1.50000e+00	4.034190e-06	
31	-1.55000e+00	3.950053e-06	
32	-1.60000e+00	3.865935e-06	
33	-1.65000e+00	3.781836e-06	
34	-1.70000e+00	3.697755e-06	
35	-1.75000e+00	3.613694e-06	
36	-1.80000e+00	3.529651e-06	
37	-1.85000e+00	3.445629e-06	
38	-1.90000e+00	3.361627e-06	
39	-1.95000e+00	3.277645e-06	
40	-2.00000e+00	3.193685e-06	
41	-2.05000e+00	3.109746e-06	
42	-2.10000e+00	3.025829e-06	
43	-2.15000e+00	2.941936e-06	
44	-2.20000e+00	2.858067e-06	
45	-2.25000e+00	2.774222e-06	
46	-2.30000e+00	2.690405e-06	
47	-2.35000e+00	2.606615e-06	
48	-2.40000e+00	2.522854e-06	
49	-2.45000e+00	2.439125e-06	
50	-2.50000e+00	2.355430e-06	
51	-2.55000e+00	2.271773e-06	
52	-2.60000e+00	2.188155e-06	
53	-2.65000e+00	2.104583e-06	
54	-2.70000e+00	2.021061e-06	

Index   v-sweep         rds             
--------------------------------------------------------------------------------
55	-2.75000e+00	1.937594e-06	
56	-2.80000e+00	1.854193e-06	
57	-2.85000e+00	1.770865e-06	
58	-2.90000e+00	1.687625e-06	
59	-2.95000e+00	1.604486e-06	
60	-3.00000e+00	1.521470e-06	
61	-3.05000e+00	1.438602e-06	
62	-3.10000e+00	1.355915e-06	
63	-3.15000e+00	1.273453e-06	
64	-3.20000e+00	1.191273e-06	
65	-3.25000e+00	1.109454e-06	
66	-3.30000e+00	1.028098e-06	
67	-3.35000e+00	9.473451e-07	
68	-3.40000e+00	8.673873e-07	
69	-3.45000e+00	7.884851e-07	
70	-3.50000e+00	7.109941e-07	
71	-3.55000e+00	6.353944e-07	
72	-3.60000e+00	5.623225e-07	
73	-3.65000e+00	4.925944e-07	
74	-3.70000e+00	4.272002e-07	
75	-3.75000e+00	3.672432e-07	
76	-3.80000e+00	3.137975e-07	
77	-3.85000e+00	2.676937e-07	
78	-3.90000e+00	2.292980e-07	
79	-3.95000e+00	1.983936e-07	
80	-4.00000e+00	1.742342e-07	
81	-4.05000e+00	1.557441e-07	
82	-4.10000e+00	1.417576e-07	
83	-4.15000e+00	1.312019e-07	
84	-4.20000e+00	1.231887e-07	
85	-4.25000e+00	1.170318e-07	
86	-4.30000e+00	1.122237e-07	
87	-4.35000e+00	1.083987e-07	
88	-4.40000e+00	1.052959e-07	
89	-4.45000e+00	1.027306e-07	
90	-4.50000e+00	1.005709e-07	
91	-4.55000e+00	9.872238e-08	
92	-4.60000e+00	9.711653e-08	
93	-4.65000e+00	9.570309e-08	
94	-4.70000e+00	9.444471e-08	
95	-4.75000e+00	9.331320e-08	
96	-4.80000e+00	9.228704e-08	
97	-4.85000e+00	9.134952e-08	
98	-4.90000e+00	9.048750e-08	
99	-4.95000e+00	8.969053e-08	
100	-5.00000e+00	8.895017e-08	
101	-5.05000e+00	8.825951e-08	
102	-5.10000e+00	8.761287e-08	
103	-5.15000e+00	8.700549e-08	
104	-5.20000e+00	8.643334e-08	
105	-5.25000e+00	8.589302e-08	
106	-5.30000e+00	8.538159e-08	
107	-5.35000e+00	8.489651e-08	
108	-5.40000e+00	8.443556e-08	
109	-5.45000e+00	8.399680e-08	
110	-5.50000e+00	8.357851e-08	
111	-5.55000e+00	8.317917e-08	
112	-5.60000e+00	8.279741e-08	

Index   v-sweep         rds             
--------------------------------------------------------------------------------
113	-5.65000e+00	8.243202e-08	
114	-5.70000e+00	8.208188e-08	
115	-5.75000e+00	8.174602e-08	
116	-5.80000e+00	8.142352e-08	
117	-5.85000e+00	8.111357e-08	
118	-5.90000e+00	8.081540e-08	
119	-5.95000e+00	8.052834e-08	
120	-6.00000e+00	8.025174e-08	
121	-6.05000e+00	7.998504e-08	
122	-6.10000e+00	7.972768e-08	
123	-6.15000e+00	7.947918e-08	
124	-6.20000e+00	7.923907e-08	
125	-6.25000e+00	7.900692e-08	
126	-6.30000e+00	7.878234e-08	
127	-6.35000e+00	7.856495e-08	
128	-6.40000e+00	7.835441e-08	
129	-6.45000e+00	7.815039e-08	
130	-6.50000e+00	7.795260e-08	
131	-6.55000e+00	7.776074e-08	
132	-6.60000e+00	7.757455e-08	
Reset re-loads circuit ***************************

Circuit: ***************************

Note: No ".plot", ".print", or ".fourier" lines; no simulations run
