
Note: Compatibility modes selected: hs

Warning: m=xx on .subckt line will override multiplier m hierarchy!


Circuit: ***************************

Doing analysis at TEMP = 25.000000 and TNOM = 25.000000


No. of Data Rows : 133
                          ***************************
                          DC transfer characteristic  Mon Jan  9 13:58:52  2023
--------------------------------------------------------------------------------
Index   v-sweep         rds             
--------------------------------------------------------------------------------
0	0.000000e+00	2.758658e-07	
1	-5.00000e-02	1.541941e-07	
2	-1.00000e-01	5.459508e-08	
3	-1.50000e-01	1.186207e-08	
4	-2.00000e-01	3.095683e-09	
5	-2.50000e-01	1.215088e-09	
6	-3.00000e-01	6.518625e-10	
7	-3.50000e-01	4.314901e-10	
8	-4.00000e-01	3.271718e-10	
9	-4.50000e-01	2.704054e-10	
10	-5.00000e-01	2.360729e-10	
11	-5.50000e-01	2.135302e-10	
12	-6.00000e-01	1.977351e-10	
13	-6.50000e-01	1.860789e-10	
14	-7.00000e-01	1.771110e-10	
15	-7.50000e-01	1.699751e-10	
16	-8.00000e-01	1.641395e-10	
17	-8.50000e-01	1.592593e-10	
18	-9.00000e-01	1.551024e-10	
19	-9.50000e-01	1.515070e-10	
20	-1.00000e+00	1.483575e-10	
21	-1.05000e+00	1.455686e-10	
22	-1.10000e+00	1.430765e-10	
23	-1.15000e+00	1.408320e-10	
24	-1.20000e+00	1.387968e-10	
25	-1.25000e+00	1.369405e-10	
26	-1.30000e+00	1.352385e-10	
27	-1.35000e+00	1.336709e-10	
28	-1.40000e+00	1.322213e-10	
29	-1.45000e+00	1.308757e-10	
30	-1.50000e+00	1.296228e-10	
31	-1.55000e+00	1.284525e-10	
32	-1.60000e+00	1.273566e-10	
33	-1.65000e+00	1.263278e-10	
34	-1.70000e+00	1.253597e-10	
35	-1.75000e+00	1.244469e-10	
36	-1.80000e+00	1.235846e-10	
37	-1.85000e+00	1.227685e-10	
38	-1.90000e+00	1.219948e-10	
39	-1.95000e+00	1.212603e-10	
40	-2.00000e+00	1.205619e-10	
41	-2.05000e+00	1.198968e-10	
42	-2.10000e+00	1.192628e-10	
43	-2.15000e+00	1.186577e-10	
44	-2.20000e+00	1.180794e-10	
45	-2.25000e+00	1.175261e-10	
46	-2.30000e+00	1.169963e-10	
47	-2.35000e+00	1.164884e-10	
48	-2.40000e+00	1.160012e-10	
49	-2.45000e+00	1.155332e-10	
50	-2.50000e+00	1.150834e-10	
51	-2.55000e+00	1.146508e-10	
52	-2.60000e+00	1.142344e-10	
53	-2.65000e+00	1.138332e-10	
54	-2.70000e+00	1.134464e-10	

Index   v-sweep         rds             
--------------------------------------------------------------------------------
55	-2.75000e+00	1.130733e-10	
56	-2.80000e+00	1.127131e-10	
57	-2.85000e+00	1.123652e-10	
58	-2.90000e+00	1.120289e-10	
59	-2.95000e+00	1.117037e-10	
60	-3.00000e+00	1.113890e-10	
61	-3.05000e+00	1.110844e-10	
62	-3.10000e+00	1.107893e-10	
63	-3.15000e+00	1.105034e-10	
64	-3.20000e+00	1.102261e-10	
65	-3.25000e+00	1.099571e-10	
66	-3.30000e+00	1.096961e-10	
67	-3.35000e+00	1.094427e-10	
68	-3.40000e+00	1.091965e-10	
69	-3.45000e+00	1.089573e-10	
70	-3.50000e+00	1.087248e-10	
71	-3.55000e+00	1.084987e-10	
72	-3.60000e+00	1.082788e-10	
73	-3.65000e+00	1.080647e-10	
74	-3.70000e+00	1.078564e-10	
75	-3.75000e+00	1.076535e-10	
76	-3.80000e+00	1.074558e-10	
77	-3.85000e+00	1.072633e-10	
78	-3.90000e+00	1.070756e-10	
79	-3.95000e+00	1.068925e-10	
80	-4.00000e+00	1.067141e-10	
81	-4.05000e+00	1.065400e-10	
82	-4.10000e+00	1.063701e-10	
83	-4.15000e+00	1.062043e-10	
84	-4.20000e+00	1.060425e-10	
85	-4.25000e+00	1.058845e-10	
86	-4.30000e+00	1.057301e-10	
87	-4.35000e+00	1.055794e-10	
88	-4.40000e+00	1.054321e-10	
89	-4.45000e+00	1.052882e-10	
90	-4.50000e+00	1.051475e-10	
91	-4.55000e+00	1.050100e-10	
92	-4.60000e+00	1.048756e-10	
93	-4.65000e+00	1.047441e-10	
94	-4.70000e+00	1.046155e-10	
95	-4.75000e+00	1.044898e-10	
96	-4.80000e+00	1.043667e-10	
97	-4.85000e+00	1.042464e-10	
98	-4.90000e+00	1.041286e-10	
99	-4.95000e+00	1.040133e-10	
100	-5.00000e+00	1.039005e-10	
101	-5.05000e+00	1.037901e-10	
102	-5.10000e+00	1.036821e-10	
103	-5.15000e+00	1.035763e-10	
104	-5.20000e+00	1.034727e-10	
105	-5.25000e+00	1.033713e-10	
106	-5.30000e+00	1.032720e-10	
107	-5.35000e+00	1.031747e-10	
108	-5.40000e+00	1.030795e-10	
109	-5.45000e+00	1.029863e-10	
110	-5.50000e+00	1.028950e-10	
111	-5.55000e+00	1.028056e-10	
112	-5.60000e+00	1.027180e-10	

Index   v-sweep         rds             
--------------------------------------------------------------------------------
113	-5.65000e+00	1.026323e-10	
114	-5.70000e+00	1.025483e-10	
115	-5.75000e+00	1.024660e-10	
116	-5.80000e+00	1.023855e-10	
117	-5.85000e+00	1.023066e-10	
118	-5.90000e+00	1.022293e-10	
119	-5.95000e+00	1.021537e-10	
120	-6.00000e+00	1.020796e-10	
121	-6.05000e+00	1.020070e-10	
122	-6.10000e+00	1.019360e-10	
123	-6.15000e+00	1.018664e-10	
124	-6.20000e+00	1.017983e-10	
125	-6.25000e+00	1.017317e-10	
126	-6.30000e+00	1.016664e-10	
127	-6.35000e+00	1.016025e-10	
128	-6.40000e+00	1.015400e-10	
129	-6.45000e+00	1.014788e-10	
130	-6.50000e+00	1.014189e-10	
131	-6.55000e+00	1.013603e-10	
132	-6.60000e+00	1.013030e-10	
Reset re-loads circuit ***************************

Circuit: ***************************

Doing analysis at TEMP = 25.000000 and TNOM = 25.000000


No. of Data Rows : 133
                          ***************************
                          DC transfer characteristic  Mon Jan  9 13:58:52  2023
--------------------------------------------------------------------------------
Index   v-sweep         rds             
--------------------------------------------------------------------------------
0	0.000000e+00	2.520181e-06	
1	-5.00000e-02	2.362222e-06	
2	-1.00000e-01	2.204365e-06	
3	-1.50000e-01	2.046618e-06	
4	-2.00000e-01	1.888996e-06	
5	-2.50000e-01	1.731520e-06	
6	-3.00000e-01	1.574224e-06	
7	-3.50000e-01	1.417163e-06	
8	-4.00000e-01	1.260429e-06	
9	-4.50000e-01	1.104186e-06	
10	-5.00000e-01	9.487335e-07	
11	-5.50000e-01	7.946479e-07	
12	-6.00000e-01	6.430837e-07	
13	-6.50000e-01	4.964008e-07	
14	-7.00000e-01	3.592842e-07	
15	-7.50000e-01	2.398160e-07	
16	-8.00000e-01	1.476860e-07	
17	-8.50000e-01	8.715947e-08	
18	-9.00000e-01	5.264176e-08	
19	-9.50000e-01	3.429765e-08	
20	-1.00000e+00	2.453186e-08	
21	-1.05000e+00	1.909438e-08	
22	-1.10000e+00	1.587441e-08	
23	-1.15000e+00	1.384214e-08	
24	-1.20000e+00	1.248111e-08	
25	-1.25000e+00	1.152049e-08	
26	-1.30000e+00	1.081109e-08	
27	-1.35000e+00	1.026673e-08	
28	-1.40000e+00	9.835346e-09	
29	-1.45000e+00	9.484166e-09	
30	-1.50000e+00	9.191787e-09	
31	-1.55000e+00	8.943758e-09	
32	-1.60000e+00	8.730022e-09	
33	-1.65000e+00	8.543387e-09	
34	-1.70000e+00	8.378583e-09	
35	-1.75000e+00	8.231664e-09	
36	-1.80000e+00	8.099613e-09	
37	-1.85000e+00	7.980086e-09	
38	-1.90000e+00	7.871226e-09	
39	-1.95000e+00	7.771547e-09	
40	-2.00000e+00	7.679841e-09	
41	-2.05000e+00	7.595112e-09	
42	-2.10000e+00	7.516536e-09	
43	-2.15000e+00	7.443417e-09	
44	-2.20000e+00	7.375169e-09	
45	-2.25000e+00	7.311291e-09	
46	-2.30000e+00	7.251350e-09	
47	-2.35000e+00	7.194974e-09	
48	-2.40000e+00	7.141838e-09	
49	-2.45000e+00	7.091655e-09	
50	-2.50000e+00	7.044176e-09	
51	-2.55000e+00	6.999179e-09	
52	-2.60000e+00	6.956466e-09	
53	-2.65000e+00	6.915861e-09	
54	-2.70000e+00	6.877206e-09	

Index   v-sweep         rds             
--------------------------------------------------------------------------------
55	-2.75000e+00	6.840360e-09	
56	-2.80000e+00	6.805194e-09	
57	-2.85000e+00	6.771594e-09	
58	-2.90000e+00	6.739453e-09	
59	-2.95000e+00	6.708678e-09	
60	-3.00000e+00	6.679179e-09	
61	-3.05000e+00	6.650879e-09	
62	-3.10000e+00	6.623703e-09	
63	-3.15000e+00	6.597586e-09	
64	-3.20000e+00	6.572464e-09	
65	-3.25000e+00	6.548282e-09	
66	-3.30000e+00	6.524987e-09	
67	-3.35000e+00	6.502530e-09	
68	-3.40000e+00	6.480867e-09	
69	-3.45000e+00	6.459955e-09	
70	-3.50000e+00	6.439755e-09	
71	-3.55000e+00	6.420232e-09	
72	-3.60000e+00	6.401352e-09	
73	-3.65000e+00	6.383083e-09	
74	-3.70000e+00	6.365397e-09	
75	-3.75000e+00	6.348264e-09	
76	-3.80000e+00	6.331660e-09	
77	-3.85000e+00	6.315561e-09	
78	-3.90000e+00	6.299944e-09	
79	-3.95000e+00	6.284787e-09	
80	-4.00000e+00	6.270071e-09	
81	-4.05000e+00	6.255777e-09	
82	-4.10000e+00	6.241886e-09	
83	-4.15000e+00	6.228383e-09	
84	-4.20000e+00	6.215251e-09	
85	-4.25000e+00	6.202475e-09	
86	-4.30000e+00	6.190042e-09	
87	-4.35000e+00	6.177938e-09	
88	-4.40000e+00	6.166150e-09	
89	-4.45000e+00	6.154667e-09	
90	-4.50000e+00	6.143477e-09	
91	-4.55000e+00	6.132569e-09	
92	-4.60000e+00	6.121934e-09	
93	-4.65000e+00	6.111561e-09	
94	-4.70000e+00	6.101441e-09	
95	-4.75000e+00	6.091567e-09	
96	-4.80000e+00	6.081928e-09	
97	-4.85000e+00	6.072518e-09	
98	-4.90000e+00	6.063329e-09	
99	-4.95000e+00	6.054354e-09	
100	-5.00000e+00	6.045585e-09	
101	-5.05000e+00	6.037017e-09	
102	-5.10000e+00	6.028644e-09	
103	-5.15000e+00	6.020459e-09	
104	-5.20000e+00	6.012456e-09	
105	-5.25000e+00	6.004631e-09	
106	-5.30000e+00	5.996978e-09	
107	-5.35000e+00	5.989493e-09	
108	-5.40000e+00	5.982170e-09	
109	-5.45000e+00	5.975005e-09	
110	-5.50000e+00	5.967994e-09	
111	-5.55000e+00	5.961133e-09	
112	-5.60000e+00	5.954417e-09	

Index   v-sweep         rds             
--------------------------------------------------------------------------------
113	-5.65000e+00	5.947843e-09	
114	-5.70000e+00	5.941408e-09	
115	-5.75000e+00	5.935108e-09	
116	-5.80000e+00	5.928939e-09	
117	-5.85000e+00	5.922898e-09	
118	-5.90000e+00	5.916983e-09	
119	-5.95000e+00	5.911190e-09	
120	-6.00000e+00	5.905516e-09	
121	-6.05000e+00	5.899959e-09	
122	-6.10000e+00	5.894517e-09	
123	-6.15000e+00	5.889185e-09	
124	-6.20000e+00	5.883963e-09	
125	-6.25000e+00	5.878848e-09	
126	-6.30000e+00	5.873837e-09	
127	-6.35000e+00	5.868929e-09	
128	-6.40000e+00	5.864121e-09	
129	-6.45000e+00	5.859410e-09	
130	-6.50000e+00	5.854797e-09	
131	-6.55000e+00	5.850277e-09	
132	-6.60000e+00	5.845850e-09	
Reset re-loads circuit ***************************

Circuit: ***************************

Doing analysis at TEMP = 25.000000 and TNOM = 25.000000


No. of Data Rows : 133
                          ***************************
                          DC transfer characteristic  Mon Jan  9 13:58:52  2023
--------------------------------------------------------------------------------
Index   v-sweep         rds             
--------------------------------------------------------------------------------
0	0.000000e+00	4.441907e-06	
1	-5.00000e-02	4.294484e-06	
2	-1.00000e-01	4.147131e-06	
3	-1.50000e-01	3.999848e-06	
4	-2.00000e-01	3.852635e-06	
5	-2.50000e-01	3.705495e-06	
6	-3.00000e-01	3.558428e-06	
7	-3.50000e-01	3.411435e-06	
8	-4.00000e-01	3.264518e-06	
9	-4.50000e-01	3.117681e-06	
10	-5.00000e-01	2.970924e-06	
11	-5.50000e-01	2.824253e-06	
12	-6.00000e-01	2.677673e-06	
13	-6.50000e-01	2.531190e-06	
14	-7.00000e-01	2.384814e-06	
15	-7.50000e-01	2.238558e-06	
16	-8.00000e-01	2.092438e-06	
17	-8.50000e-01	1.946481e-06	
18	-9.00000e-01	1.800722e-06	
19	-9.50000e-01	1.655214e-06	
20	-1.00000e+00	1.510037e-06	
21	-1.05000e+00	1.365314e-06	
22	-1.10000e+00	1.221239e-06	
23	-1.15000e+00	1.078126e-06	
24	-1.20000e+00	9.364908e-07	
25	-1.25000e+00	7.971999e-07	
26	-1.30000e+00	6.617072e-07	
27	-1.35000e+00	5.323963e-07	
28	-1.40000e+00	4.129104e-07	
29	-1.45000e+00	3.080387e-07	
30	-1.50000e+00	2.224642e-07	
31	-1.55000e+00	1.584386e-07	
32	-1.60000e+00	1.143040e-07	
33	-1.65000e+00	8.557449e-08	
34	-1.70000e+00	6.731525e-08	
35	-1.75000e+00	5.564780e-08	
36	-1.80000e+00	4.800474e-08	
37	-1.85000e+00	4.281985e-08	
38	-1.90000e+00	3.916494e-08	
39	-1.95000e+00	3.648940e-08	
40	-2.00000e+00	3.446106e-08	
41	-2.05000e+00	3.287457e-08	
42	-2.10000e+00	3.159935e-08	
43	-2.15000e+00	3.054999e-08	
44	-2.20000e+00	2.966900e-08	
45	-2.25000e+00	2.891668e-08	
46	-2.30000e+00	2.826487e-08	
47	-2.35000e+00	2.769316e-08	
48	-2.40000e+00	2.718641e-08	
49	-2.45000e+00	2.673317e-08	
50	-2.50000e+00	2.632464e-08	
51	-2.55000e+00	2.595392e-08	
52	-2.60000e+00	2.561552e-08	
53	-2.65000e+00	2.530503e-08	
54	-2.70000e+00	2.501885e-08	

Index   v-sweep         rds             
--------------------------------------------------------------------------------
55	-2.75000e+00	2.475399e-08	
56	-2.80000e+00	2.450798e-08	
57	-2.85000e+00	2.427873e-08	
58	-2.90000e+00	2.406446e-08	
59	-2.95000e+00	2.386366e-08	
60	-3.00000e+00	2.367503e-08	
61	-3.05000e+00	2.349741e-08	
62	-3.10000e+00	2.332984e-08	
63	-3.15000e+00	2.317143e-08	
64	-3.20000e+00	2.302141e-08	
65	-3.25000e+00	2.287912e-08	
66	-3.30000e+00	2.274394e-08	
67	-3.35000e+00	2.261534e-08	
68	-3.40000e+00	2.249282e-08	
69	-3.45000e+00	2.237596e-08	
70	-3.50000e+00	2.226436e-08	
71	-3.55000e+00	2.215765e-08	
72	-3.60000e+00	2.205552e-08	
73	-3.65000e+00	2.195768e-08	
74	-3.70000e+00	2.186384e-08	
75	-3.75000e+00	2.177377e-08	
76	-3.80000e+00	2.168724e-08	
77	-3.85000e+00	2.160403e-08	
78	-3.90000e+00	2.152397e-08	
79	-3.95000e+00	2.144686e-08	
80	-4.00000e+00	2.137255e-08	
81	-4.05000e+00	2.130089e-08	
82	-4.10000e+00	2.123173e-08	
83	-4.15000e+00	2.116494e-08	
84	-4.20000e+00	2.110041e-08	
85	-4.25000e+00	2.103802e-08	
86	-4.30000e+00	2.097766e-08	
87	-4.35000e+00	2.091924e-08	
88	-4.40000e+00	2.086266e-08	
89	-4.45000e+00	2.080784e-08	
90	-4.50000e+00	2.075470e-08	
91	-4.55000e+00	2.070315e-08	
92	-4.60000e+00	2.065314e-08	
93	-4.65000e+00	2.060458e-08	
94	-4.70000e+00	2.055743e-08	
95	-4.75000e+00	2.051162e-08	
96	-4.80000e+00	2.046709e-08	
97	-4.85000e+00	2.042379e-08	
98	-4.90000e+00	2.038167e-08	
99	-4.95000e+00	2.034069e-08	
100	-5.00000e+00	2.030079e-08	
101	-5.05000e+00	2.026195e-08	
102	-5.10000e+00	2.022411e-08	
103	-5.15000e+00	2.018724e-08	
104	-5.20000e+00	2.015131e-08	
105	-5.25000e+00	2.011628e-08	
106	-5.30000e+00	2.008211e-08	
107	-5.35000e+00	2.004879e-08	
108	-5.40000e+00	2.001627e-08	
109	-5.45000e+00	1.998453e-08	
110	-5.50000e+00	1.995355e-08	
111	-5.55000e+00	1.992329e-08	
112	-5.60000e+00	1.989374e-08	

Index   v-sweep         rds             
--------------------------------------------------------------------------------
113	-5.65000e+00	1.986488e-08	
114	-5.70000e+00	1.983668e-08	
115	-5.75000e+00	1.980912e-08	
116	-5.80000e+00	1.978218e-08	
117	-5.85000e+00	1.975584e-08	
118	-5.90000e+00	1.973008e-08	
119	-5.95000e+00	1.970490e-08	
120	-6.00000e+00	1.968026e-08	
121	-6.05000e+00	1.965617e-08	
122	-6.10000e+00	1.963259e-08	
123	-6.15000e+00	1.960952e-08	
124	-6.20000e+00	1.958694e-08	
125	-6.25000e+00	1.956484e-08	
126	-6.30000e+00	1.954321e-08	
127	-6.35000e+00	1.952203e-08	
128	-6.40000e+00	1.950130e-08	
129	-6.45000e+00	1.948100e-08	
130	-6.50000e+00	1.946113e-08	
131	-6.55000e+00	1.944166e-08	
132	-6.60000e+00	1.942260e-08	
Reset re-loads circuit ***************************

Circuit: ***************************

Doing analysis at TEMP = 25.000000 and TNOM = 25.000000


No. of Data Rows : 133
                          ***************************
                          DC transfer characteristic  Mon Jan  9 13:58:52  2023
--------------------------------------------------------------------------------
Index   v-sweep         rds             
--------------------------------------------------------------------------------
0	0.000000e+00	6.080368e-06	
1	-5.00000e-02	5.943981e-06	
2	-1.00000e-01	5.807653e-06	
3	-1.50000e-01	5.671384e-06	
4	-2.00000e-01	5.535174e-06	
5	-2.50000e-01	5.399024e-06	
6	-3.00000e-01	5.262932e-06	
7	-3.50000e-01	5.126900e-06	
8	-4.00000e-01	4.990927e-06	
9	-4.50000e-01	4.855014e-06	
10	-5.00000e-01	4.719162e-06	
11	-5.50000e-01	4.583370e-06	
12	-6.00000e-01	4.447639e-06	
13	-6.50000e-01	4.311970e-06	
14	-7.00000e-01	4.176364e-06	
15	-7.50000e-01	4.040820e-06	
16	-8.00000e-01	3.905340e-06	
17	-8.50000e-01	3.769926e-06	
18	-9.00000e-01	3.634578e-06	
19	-9.50000e-01	3.499298e-06	
20	-1.00000e+00	3.364089e-06	
21	-1.05000e+00	3.228953e-06	
22	-1.10000e+00	3.093894e-06	
23	-1.15000e+00	2.958915e-06	
24	-1.20000e+00	2.824021e-06	
25	-1.25000e+00	2.689221e-06	
26	-1.30000e+00	2.554521e-06	
27	-1.35000e+00	2.419934e-06	
28	-1.40000e+00	2.285475e-06	
29	-1.45000e+00	2.151163e-06	
30	-1.50000e+00	2.017027e-06	
31	-1.55000e+00	1.883103e-06	
32	-1.60000e+00	1.749444e-06	
33	-1.65000e+00	1.616124e-06	
34	-1.70000e+00	1.483250e-06	
35	-1.75000e+00	1.350979e-06	
36	-1.80000e+00	1.219543e-06	
37	-1.85000e+00	1.089293e-06	
38	-1.90000e+00	9.607626e-07	
39	-1.95000e+00	8.347673e-07	
40	-2.00000e+00	7.125385e-07	
41	-2.05000e+00	5.958808e-07	
42	-2.10000e+00	4.872718e-07	
43	-2.15000e+00	3.897323e-07	
44	-2.20000e+00	3.062480e-07	
45	-2.25000e+00	2.387640e-07	
46	-2.30000e+00	1.873030e-07	
47	-2.35000e+00	1.499386e-07	
48	-2.40000e+00	1.236581e-07	
49	-2.45000e+00	1.053953e-07	
50	-2.50000e+00	9.264000e-08	
51	-2.55000e+00	8.357657e-08	
52	-2.60000e+00	7.697775e-08	
53	-2.65000e+00	7.203972e-08	
54	-2.70000e+00	6.824053e-08	

Index   v-sweep         rds             
--------------------------------------------------------------------------------
55	-2.75000e+00	6.523948e-08	
56	-2.80000e+00	6.281120e-08	
57	-2.85000e+00	6.080389e-08	
58	-2.90000e+00	5.911323e-08	
59	-2.95000e+00	5.766602e-08	
60	-3.00000e+00	5.640981e-08	
61	-3.05000e+00	5.530626e-08	
62	-3.10000e+00	5.432678e-08	
63	-3.15000e+00	5.344967e-08	
64	-3.20000e+00	5.265820e-08	
65	-3.25000e+00	5.193921e-08	
66	-3.30000e+00	5.128226e-08	
67	-3.35000e+00	5.067891e-08	
68	-3.40000e+00	5.012228e-08	
69	-3.45000e+00	4.960668e-08	
70	-3.50000e+00	4.912736e-08	
71	-3.55000e+00	4.868034e-08	
72	-3.60000e+00	4.826222e-08	
73	-3.65000e+00	4.787009e-08	
74	-3.70000e+00	4.750145e-08	
75	-3.75000e+00	4.715412e-08	
76	-3.80000e+00	4.682621e-08	
77	-3.85000e+00	4.651604e-08	
78	-3.90000e+00	4.622215e-08	
79	-3.95000e+00	4.594322e-08	
80	-4.00000e+00	4.567810e-08	
81	-4.05000e+00	4.542574e-08	
82	-4.10000e+00	4.518521e-08	
83	-4.15000e+00	4.495568e-08	
84	-4.20000e+00	4.473637e-08	
85	-4.25000e+00	4.452661e-08	
86	-4.30000e+00	4.432576e-08	
87	-4.35000e+00	4.413326e-08	
88	-4.40000e+00	4.394857e-08	
89	-4.45000e+00	4.377124e-08	
90	-4.50000e+00	4.360081e-08	
91	-4.55000e+00	4.343688e-08	
92	-4.60000e+00	4.327909e-08	
93	-4.65000e+00	4.312708e-08	
94	-4.70000e+00	4.298055e-08	
95	-4.75000e+00	4.283919e-08	
96	-4.80000e+00	4.270274e-08	
97	-4.85000e+00	4.257094e-08	
98	-4.90000e+00	4.244355e-08	
99	-4.95000e+00	4.232036e-08	
100	-5.00000e+00	4.220116e-08	
101	-5.05000e+00	4.208575e-08	
102	-5.10000e+00	4.197396e-08	
103	-5.15000e+00	4.186562e-08	
104	-5.20000e+00	4.176057e-08	
105	-5.25000e+00	4.165867e-08	
106	-5.30000e+00	4.155977e-08	
107	-5.35000e+00	4.146375e-08	
108	-5.40000e+00	4.137047e-08	
109	-5.45000e+00	4.127983e-08	
110	-5.50000e+00	4.119172e-08	
111	-5.55000e+00	4.110602e-08	
112	-5.60000e+00	4.102266e-08	

Index   v-sweep         rds             
--------------------------------------------------------------------------------
113	-5.65000e+00	4.094152e-08	
114	-5.70000e+00	4.086253e-08	
115	-5.75000e+00	4.078561e-08	
116	-5.80000e+00	4.071067e-08	
117	-5.85000e+00	4.063764e-08	
118	-5.90000e+00	4.056645e-08	
119	-5.95000e+00	4.049704e-08	
120	-6.00000e+00	4.042934e-08	
121	-6.05000e+00	4.036329e-08	
122	-6.10000e+00	4.029883e-08	
123	-6.15000e+00	4.023592e-08	
124	-6.20000e+00	4.017449e-08	
125	-6.25000e+00	4.011450e-08	
126	-6.30000e+00	4.005591e-08	
127	-6.35000e+00	3.999866e-08	
128	-6.40000e+00	3.994273e-08	
129	-6.45000e+00	3.988805e-08	
130	-6.50000e+00	3.983461e-08	
131	-6.55000e+00	3.978235e-08	
132	-6.60000e+00	3.973125e-08	
Reset re-loads circuit ***************************

Circuit: ***************************

Doing analysis at TEMP = 25.000000 and TNOM = 25.000000


No. of Data Rows : 133
                          ***************************
                          DC transfer characteristic  Mon Jan  9 13:58:52  2023
--------------------------------------------------------------------------------
Index   v-sweep         rds             
--------------------------------------------------------------------------------
0	0.000000e+00	7.515298e-06	
1	-5.00000e-02	7.388937e-06	
2	-1.00000e-01	7.262627e-06	
3	-1.50000e-01	7.136368e-06	
4	-2.00000e-01	7.010161e-06	
5	-2.50000e-01	6.884004e-06	
6	-3.00000e-01	6.757899e-06	
7	-3.50000e-01	6.631845e-06	
8	-4.00000e-01	6.505842e-06	
9	-4.50000e-01	6.379891e-06	
10	-5.00000e-01	6.253991e-06	
11	-5.50000e-01	6.128142e-06	
12	-6.00000e-01	6.002345e-06	
13	-6.50000e-01	5.876600e-06	
14	-7.00000e-01	5.750906e-06	
15	-7.50000e-01	5.625264e-06	
16	-8.00000e-01	5.499674e-06	
17	-8.50000e-01	5.374137e-06	
18	-9.00000e-01	5.248652e-06	
19	-9.50000e-01	5.123219e-06	
20	-1.00000e+00	4.997840e-06	
21	-1.05000e+00	4.872513e-06	
22	-1.10000e+00	4.747241e-06	
23	-1.15000e+00	4.622022e-06	
24	-1.20000e+00	4.496858e-06	
25	-1.25000e+00	4.371750e-06	
26	-1.30000e+00	4.246697e-06	
27	-1.35000e+00	4.121701e-06	
28	-1.40000e+00	3.996763e-06	
29	-1.45000e+00	3.871883e-06	
30	-1.50000e+00	3.747064e-06	
31	-1.55000e+00	3.622307e-06	
32	-1.60000e+00	3.497614e-06	
33	-1.65000e+00	3.372988e-06	
34	-1.70000e+00	3.248430e-06	
35	-1.75000e+00	3.123946e-06	
36	-1.80000e+00	2.999538e-06	
37	-1.85000e+00	2.875214e-06	
38	-1.90000e+00	2.750979e-06	
39	-1.95000e+00	2.626842e-06	
40	-2.00000e+00	2.502814e-06	
41	-2.05000e+00	2.378908e-06	
42	-2.10000e+00	2.255144e-06	
43	-2.15000e+00	2.131543e-06	
44	-2.20000e+00	2.008137e-06	
45	-2.25000e+00	1.884967e-06	
46	-2.30000e+00	1.762088e-06	
47	-2.35000e+00	1.639576e-06	
48	-2.40000e+00	1.517535e-06	
49	-2.45000e+00	1.396112e-06	
50	-2.50000e+00	1.275512e-06	
51	-2.55000e+00	1.156032e-06	
52	-2.60000e+00	1.038093e-06	
53	-2.65000e+00	9.223011e-07	
54	-2.70000e+00	8.095193e-07	

Index   v-sweep         rds             
--------------------------------------------------------------------------------
55	-2.75000e+00	7.009452e-07	
56	-2.80000e+00	5.981718e-07	
57	-2.85000e+00	5.031617e-07	
58	-2.90000e+00	4.180475e-07	
59	-2.95000e+00	3.447030e-07	
60	-3.00000e+00	2.841864e-07	
61	-3.05000e+00	2.363475e-07	
62	-3.10000e+00	1.998719e-07	
63	-3.15000e+00	1.727375e-07	
64	-3.20000e+00	1.527787e-07	
65	-3.25000e+00	1.380815e-07	
66	-3.30000e+00	1.271416e-07	
67	-3.35000e+00	1.188570e-07	
68	-3.40000e+00	1.124522e-07	
69	-3.45000e+00	1.073911e-07	
70	-3.50000e+00	1.033050e-07	
71	-3.55000e+00	9.993898e-08	
72	-3.60000e+00	9.711500e-08	
73	-3.65000e+00	9.470695e-08	
74	-3.70000e+00	9.262410e-08	
75	-3.75000e+00	9.080002e-08	
76	-3.80000e+00	8.918530e-08	
77	-3.85000e+00	8.774255e-08	
78	-3.90000e+00	8.644301e-08	
79	-3.95000e+00	8.526422e-08	
80	-4.00000e+00	8.418842e-08	
81	-4.05000e+00	8.320132e-08	
82	-4.10000e+00	8.229132e-08	
83	-4.15000e+00	8.144889e-08	
84	-4.20000e+00	8.066610e-08	
85	-4.25000e+00	7.993629e-08	
86	-4.30000e+00	7.925384e-08	
87	-4.35000e+00	7.861393e-08	
88	-4.40000e+00	7.801242e-08	
89	-4.45000e+00	7.744574e-08	
90	-4.50000e+00	7.691076e-08	
91	-4.55000e+00	7.640474e-08	
92	-4.60000e+00	7.592527e-08	
93	-4.65000e+00	7.547021e-08	
94	-4.70000e+00	7.503766e-08	
95	-4.75000e+00	7.462592e-08	
96	-4.80000e+00	7.423347e-08	
97	-4.85000e+00	7.385893e-08	
98	-4.90000e+00	7.350107e-08	
99	-4.95000e+00	7.315875e-08	
100	-5.00000e+00	7.283097e-08	
101	-5.05000e+00	7.251678e-08	
102	-5.10000e+00	7.221535e-08	
103	-5.15000e+00	7.192588e-08	
104	-5.20000e+00	7.164768e-08	
105	-5.25000e+00	7.138008e-08	
106	-5.30000e+00	7.112247e-08	
107	-5.35000e+00	7.087430e-08	
108	-5.40000e+00	7.063506e-08	
109	-5.45000e+00	7.040425e-08	
110	-5.50000e+00	7.018144e-08	
111	-5.55000e+00	6.996622e-08	
112	-5.60000e+00	6.975820e-08	

Index   v-sweep         rds             
--------------------------------------------------------------------------------
113	-5.65000e+00	6.955701e-08	
114	-5.70000e+00	6.936234e-08	
115	-5.75000e+00	6.917385e-08	
116	-5.80000e+00	6.899127e-08	
117	-5.85000e+00	6.881432e-08	
118	-5.90000e+00	6.864274e-08	
119	-5.95000e+00	6.847628e-08	
120	-6.00000e+00	6.831473e-08	
121	-6.05000e+00	6.815787e-08	
122	-6.10000e+00	6.800550e-08	
123	-6.15000e+00	6.785743e-08	
124	-6.20000e+00	6.771348e-08	
125	-6.25000e+00	6.757348e-08	
126	-6.30000e+00	6.743727e-08	
127	-6.35000e+00	6.730471e-08	
128	-6.40000e+00	6.717566e-08	
129	-6.45000e+00	6.704997e-08	
130	-6.50000e+00	6.692752e-08	
131	-6.55000e+00	6.680819e-08	
132	-6.60000e+00	6.669186e-08	
Reset re-loads circuit ***************************

Circuit: ***************************

Doing analysis at TEMP = 25.000000 and TNOM = 25.000000


No. of Data Rows : 133
                          ***************************
                          DC transfer characteristic  Mon Jan  9 13:58:52  2023
--------------------------------------------------------------------------------
Index   v-sweep         rds             
--------------------------------------------------------------------------------
0	0.000000e+00	8.745252e-06	
1	-5.00000e-02	8.627991e-06	
2	-1.00000e-01	8.510775e-06	
3	-1.50000e-01	8.393604e-06	
4	-2.00000e-01	8.276478e-06	
5	-2.50000e-01	8.159397e-06	
6	-3.00000e-01	8.042360e-06	
7	-3.50000e-01	7.925369e-06	
8	-4.00000e-01	7.808422e-06	
9	-4.50000e-01	7.691520e-06	
10	-5.00000e-01	7.574663e-06	
11	-5.50000e-01	7.457852e-06	
12	-6.00000e-01	7.341085e-06	
13	-6.50000e-01	7.224363e-06	
14	-7.00000e-01	7.107686e-06	
15	-7.50000e-01	6.991054e-06	
16	-8.00000e-01	6.874467e-06	
17	-8.50000e-01	6.757925e-06	
18	-9.00000e-01	6.641428e-06	
19	-9.50000e-01	6.524977e-06	
20	-1.00000e+00	6.408571e-06	
21	-1.05000e+00	6.292210e-06	
22	-1.10000e+00	6.175894e-06	
23	-1.15000e+00	6.059624e-06	
24	-1.20000e+00	5.943400e-06	
25	-1.25000e+00	5.827221e-06	
26	-1.30000e+00	5.711088e-06	
27	-1.35000e+00	5.595002e-06	
28	-1.40000e+00	5.478961e-06	
29	-1.45000e+00	5.362967e-06	
30	-1.50000e+00	5.247019e-06	
31	-1.55000e+00	5.131119e-06	
32	-1.60000e+00	5.015265e-06	
33	-1.65000e+00	4.899459e-06	
34	-1.70000e+00	4.783701e-06	
35	-1.75000e+00	4.667992e-06	
36	-1.80000e+00	4.552331e-06	
37	-1.85000e+00	4.436720e-06	
38	-1.90000e+00	4.321159e-06	
39	-1.95000e+00	4.205649e-06	
40	-2.00000e+00	4.090191e-06	
41	-2.05000e+00	3.974785e-06	
42	-2.10000e+00	3.859434e-06	
43	-2.15000e+00	3.744139e-06	
44	-2.20000e+00	3.628901e-06	
45	-2.25000e+00	3.513723e-06	
46	-2.30000e+00	3.398606e-06	
47	-2.35000e+00	3.283554e-06	
48	-2.40000e+00	3.168571e-06	
49	-2.45000e+00	3.053660e-06	
50	-2.50000e+00	2.938826e-06	
51	-2.55000e+00	2.824076e-06	
52	-2.60000e+00	2.709417e-06	
53	-2.65000e+00	2.594858e-06	
54	-2.70000e+00	2.480411e-06	

Index   v-sweep         rds             
--------------------------------------------------------------------------------
55	-2.75000e+00	2.366092e-06	
56	-2.80000e+00	2.251917e-06	
57	-2.85000e+00	2.137910e-06	
58	-2.90000e+00	2.024102e-06	
59	-2.95000e+00	1.910533e-06	
60	-3.00000e+00	1.797252e-06	
61	-3.05000e+00	1.684328e-06	
62	-3.10000e+00	1.571851e-06	
63	-3.15000e+00	1.459943e-06	
64	-3.20000e+00	1.348770e-06	
65	-3.25000e+00	1.238558e-06	
66	-3.30000e+00	1.129618e-06	
67	-3.35000e+00	1.022376e-06	
68	-3.40000e+00	9.174169e-07	
69	-3.45000e+00	8.155251e-07	
70	-3.50000e+00	7.177304e-07	
71	-3.55000e+00	6.253203e-07	
72	-3.60000e+00	5.397890e-07	
73	-3.65000e+00	4.626800e-07	
74	-3.70000e+00	3.953094e-07	
75	-3.75000e+00	3.384377e-07	
76	-3.80000e+00	2.920359e-07	
77	-3.85000e+00	2.552835e-07	
78	-3.90000e+00	2.268028e-07	
79	-3.95000e+00	2.049988e-07	
80	-4.00000e+00	1.883472e-07	
81	-4.05000e+00	1.755561e-07	
82	-4.10000e+00	1.656122e-07	
83	-4.15000e+00	1.577584e-07	
84	-4.20000e+00	1.514442e-07	
85	-4.25000e+00	1.462748e-07	
86	-4.30000e+00	1.419677e-07	
87	-4.35000e+00	1.383202e-07	
88	-4.40000e+00	1.351854e-07	
89	-4.45000e+00	1.324557e-07	
90	-4.50000e+00	1.300511e-07	
91	-4.55000e+00	1.279116e-07	
92	-4.60000e+00	1.259911e-07	
93	-4.65000e+00	1.242541e-07	
94	-4.70000e+00	1.226727e-07	
95	-4.75000e+00	1.212244e-07	
96	-4.80000e+00	1.198914e-07	
97	-4.85000e+00	1.186589e-07	
98	-4.90000e+00	1.175149e-07	
99	-4.95000e+00	1.164492e-07	
100	-5.00000e+00	1.154533e-07	
101	-5.05000e+00	1.145200e-07	
102	-5.10000e+00	1.136432e-07	
103	-5.15000e+00	1.128174e-07	
104	-5.20000e+00	1.120380e-07	
105	-5.25000e+00	1.113010e-07	
106	-5.30000e+00	1.106028e-07	
107	-5.35000e+00	1.099402e-07	
108	-5.40000e+00	1.093105e-07	
109	-5.45000e+00	1.087111e-07	
110	-5.50000e+00	1.081399e-07	
111	-5.55000e+00	1.075948e-07	
112	-5.60000e+00	1.070740e-07	

Index   v-sweep         rds             
--------------------------------------------------------------------------------
113	-5.65000e+00	1.065758e-07	
114	-5.70000e+00	1.060988e-07	
115	-5.75000e+00	1.056416e-07	
116	-5.80000e+00	1.052029e-07	
117	-5.85000e+00	1.047817e-07	
118	-5.90000e+00	1.043769e-07	
119	-5.95000e+00	1.039876e-07	
120	-6.00000e+00	1.036127e-07	
121	-6.05000e+00	1.032516e-07	
122	-6.10000e+00	1.029035e-07	
123	-6.15000e+00	1.025677e-07	
124	-6.20000e+00	1.022436e-07	
125	-6.25000e+00	1.019304e-07	
126	-6.30000e+00	1.016278e-07	
127	-6.35000e+00	1.013351e-07	
128	-6.40000e+00	1.010518e-07	
129	-6.45000e+00	1.007776e-07	
130	-6.50000e+00	1.005120e-07	
131	-6.55000e+00	1.002546e-07	
132	-6.60000e+00	1.000050e-07	
Reset re-loads circuit ***************************

Circuit: ***************************

Note: No ".plot", ".print", or ".fourier" lines; no simulations run
