
Note: Compatibility modes selected: hs

Warning: m=xx on .subckt line will override multiplier m hierarchy!


Circuit: ***************************

Doing analysis at TEMP = 125.000000 and TNOM = 125.000000


No. of Data Rows : 133
                          ***************************
                          DC transfer characteristic  Mon Jan  9 13:58:53  2023
--------------------------------------------------------------------------------
Index   v-sweep         rds             
--------------------------------------------------------------------------------
0	0.000000e+00	5.634351e-05	
1	-5.00000e-02	4.648887e-05	
2	-1.00000e-01	3.676068e-05	
3	-1.50000e-01	2.723831e-05	
4	-2.00000e-01	1.817375e-05	
5	-2.50000e-01	1.033096e-05	
6	-3.00000e-01	5.106363e-06	
7	-3.50000e-01	2.760642e-06	
8	-4.00000e-01	1.910564e-06	
9	-4.50000e-01	1.574351e-06	
10	-5.00000e-01	1.409749e-06	
11	-5.50000e-01	1.311040e-06	
12	-6.00000e-01	1.242334e-06	
13	-6.50000e-01	1.189626e-06	
14	-7.00000e-01	1.146652e-06	
15	-7.50000e-01	1.110245e-06	
16	-8.00000e-01	1.078627e-06	
17	-8.50000e-01	1.050701e-06	
18	-9.00000e-01	1.025739e-06	
19	-9.50000e-01	1.003227e-06	
20	-1.00000e+00	9.827830e-07	
21	-1.05000e+00	9.641148e-07	
22	-1.10000e+00	9.469896e-07	
23	-1.15000e+00	9.312185e-07	
24	-1.20000e+00	9.166457e-07	
25	-1.25000e+00	9.031402e-07	
26	-1.30000e+00	8.905908e-07	
27	-1.35000e+00	8.789024e-07	
28	-1.40000e+00	8.679923e-07	
29	-1.45000e+00	8.577889e-07	
30	-1.50000e+00	8.482292e-07	
31	-1.55000e+00	8.392578e-07	
32	-1.60000e+00	8.308254e-07	
33	-1.65000e+00	8.228884e-07	
34	-1.70000e+00	8.154078e-07	
35	-1.75000e+00	8.083486e-07	
36	-1.80000e+00	8.016793e-07	
37	-1.85000e+00	7.953716e-07	
38	-1.90000e+00	7.893998e-07	
39	-1.95000e+00	7.837405e-07	
40	-2.00000e+00	7.783727e-07	
41	-2.05000e+00	7.732771e-07	
42	-2.10000e+00	7.684359e-07	
43	-2.15000e+00	7.638331e-07	
44	-2.20000e+00	7.594539e-07	
45	-2.25000e+00	7.552846e-07	
46	-2.30000e+00	7.513128e-07	
47	-2.35000e+00	7.475269e-07	
48	-2.40000e+00	7.439162e-07	
49	-2.45000e+00	7.404709e-07	
50	-2.50000e+00	7.371818e-07	
51	-2.55000e+00	7.340405e-07	
52	-2.60000e+00	7.310390e-07	
53	-2.65000e+00	7.281700e-07	
54	-2.70000e+00	7.254267e-07	

Index   v-sweep         rds             
--------------------------------------------------------------------------------
55	-2.75000e+00	7.228028e-07	
56	-2.80000e+00	7.202922e-07	
57	-2.85000e+00	7.178895e-07	
58	-2.90000e+00	7.155893e-07	
59	-2.95000e+00	7.133869e-07	
60	-3.00000e+00	7.112777e-07	
61	-3.05000e+00	7.092573e-07	
62	-3.10000e+00	7.073218e-07	
63	-3.15000e+00	7.054673e-07	
64	-3.20000e+00	7.036903e-07	
65	-3.25000e+00	7.019875e-07	
66	-3.30000e+00	7.003556e-07	
67	-3.35000e+00	6.987917e-07	
68	-3.40000e+00	6.972930e-07	
69	-3.45000e+00	6.958568e-07	
70	-3.50000e+00	6.944805e-07	
71	-3.55000e+00	6.931619e-07	
72	-3.60000e+00	6.918987e-07	
73	-3.65000e+00	6.906887e-07	
74	-3.70000e+00	6.895299e-07	
75	-3.75000e+00	6.884204e-07	
76	-3.80000e+00	6.873584e-07	
77	-3.85000e+00	6.863422e-07	
78	-3.90000e+00	6.853702e-07	
79	-3.95000e+00	6.844408e-07	
80	-4.00000e+00	6.835525e-07	
81	-4.05000e+00	6.827040e-07	
82	-4.10000e+00	6.818939e-07	
83	-4.15000e+00	6.811210e-07	
84	-4.20000e+00	6.803841e-07	
85	-4.25000e+00	6.796820e-07	
86	-4.30000e+00	6.790136e-07	
87	-4.35000e+00	6.783780e-07	
88	-4.40000e+00	6.777741e-07	
89	-4.45000e+00	6.772011e-07	
90	-4.50000e+00	6.766580e-07	
91	-4.55000e+00	6.761439e-07	
92	-4.60000e+00	6.756582e-07	
93	-4.65000e+00	6.752000e-07	
94	-4.70000e+00	6.747685e-07	
95	-4.75000e+00	6.743632e-07	
96	-4.80000e+00	6.739833e-07	
97	-4.85000e+00	6.736282e-07	
98	-4.90000e+00	6.732973e-07	
99	-4.95000e+00	6.729900e-07	
100	-5.00000e+00	6.727058e-07	
101	-5.05000e+00	6.724442e-07	
102	-5.10000e+00	6.722046e-07	
103	-5.15000e+00	6.719866e-07	
104	-5.20000e+00	6.717898e-07	
105	-5.25000e+00	6.716136e-07	
106	-5.30000e+00	6.714577e-07	
107	-5.35000e+00	6.713217e-07	
108	-5.40000e+00	6.712052e-07	
109	-5.45000e+00	6.711079e-07	
110	-5.50000e+00	6.710294e-07	
111	-5.55000e+00	6.709693e-07	
112	-5.60000e+00	6.709274e-07	

Index   v-sweep         rds             
--------------------------------------------------------------------------------
113	-5.65000e+00	6.709034e-07	
114	-5.70000e+00	6.708969e-07	
115	-5.75000e+00	6.709078e-07	
116	-5.80000e+00	6.709356e-07	
117	-5.85000e+00	6.709803e-07	
118	-5.90000e+00	6.710415e-07	
119	-5.95000e+00	6.711189e-07	
120	-6.00000e+00	6.712125e-07	
121	-6.05000e+00	6.713219e-07	
122	-6.10000e+00	6.714469e-07	
123	-6.15000e+00	6.715874e-07	
124	-6.20000e+00	6.717432e-07	
125	-6.25000e+00	6.719141e-07	
126	-6.30000e+00	6.720998e-07	
127	-6.35000e+00	6.723003e-07	
128	-6.40000e+00	6.725154e-07	
129	-6.45000e+00	6.727449e-07	
130	-6.50000e+00	6.729886e-07	
131	-6.55000e+00	6.732464e-07	
132	-6.60000e+00	6.735183e-07	
Reset re-loads circuit ***************************

Circuit: ***************************

Doing analysis at TEMP = 125.000000 and TNOM = 125.000000


No. of Data Rows : 133
                          ***************************
                          DC transfer characteristic  Mon Jan  9 13:58:53  2023
--------------------------------------------------------------------------------
Index   v-sweep         rds             
--------------------------------------------------------------------------------
0	0.000000e+00	2.199071e-04	
1	-5.00000e-02	2.092964e-04	
2	-1.00000e-01	1.987500e-04	
3	-1.50000e-01	1.882677e-04	
4	-2.00000e-01	1.778493e-04	
5	-2.50000e-01	1.674948e-04	
6	-3.00000e-01	1.572044e-04	
7	-3.50000e-01	1.469783e-04	
8	-4.00000e-01	1.368174e-04	
9	-4.50000e-01	1.267227e-04	
10	-5.00000e-01	1.166962e-04	
11	-5.50000e-01	1.067413e-04	
12	-6.00000e-01	9.686339e-05	
13	-6.50000e-01	8.707199e-05	
14	-7.00000e-01	7.738347e-05	
15	-7.50000e-01	6.782727e-05	
16	-8.00000e-01	5.845762e-05	
17	-8.50000e-01	4.937559e-05	
18	-9.00000e-01	4.076607e-05	
19	-9.50000e-01	3.293833e-05	
20	-1.00000e+00	2.630634e-05	
21	-1.05000e+00	2.120591e-05	
22	-1.10000e+00	1.763566e-05	
23	-1.15000e+00	1.525661e-05	
24	-1.20000e+00	1.365227e-05	
25	-1.25000e+00	1.251220e-05	
26	-1.30000e+00	1.165026e-05	
27	-1.35000e+00	1.096285e-05	
28	-1.40000e+00	1.039220e-05	
29	-1.45000e+00	9.904693e-06	
30	-1.50000e+00	9.479651e-06	
31	-1.55000e+00	9.103556e-06	
32	-1.60000e+00	8.767078e-06	
33	-1.65000e+00	8.463461e-06	
34	-1.70000e+00	8.187617e-06	
35	-1.75000e+00	7.935591e-06	
36	-1.80000e+00	7.704229e-06	
37	-1.85000e+00	7.490964e-06	
38	-1.90000e+00	7.293672e-06	
39	-1.95000e+00	7.110571e-06	
40	-2.00000e+00	6.940150e-06	
41	-2.05000e+00	6.781115e-06	
42	-2.10000e+00	6.632349e-06	
43	-2.15000e+00	6.492882e-06	
44	-2.20000e+00	6.361866e-06	
45	-2.25000e+00	6.238555e-06	
46	-2.30000e+00	6.122290e-06	
47	-2.35000e+00	6.012486e-06	
48	-2.40000e+00	5.908623e-06	
49	-2.45000e+00	5.810235e-06	
50	-2.50000e+00	5.716905e-06	
51	-2.55000e+00	5.628256e-06	
52	-2.60000e+00	5.543949e-06	
53	-2.65000e+00	5.463677e-06	
54	-2.70000e+00	5.387162e-06	

Index   v-sweep         rds             
--------------------------------------------------------------------------------
55	-2.75000e+00	5.314150e-06	
56	-2.80000e+00	5.244410e-06	
57	-2.85000e+00	5.177731e-06	
58	-2.90000e+00	5.113920e-06	
59	-2.95000e+00	5.052799e-06	
60	-3.00000e+00	4.994205e-06	
61	-3.05000e+00	4.937989e-06	
62	-3.10000e+00	4.884011e-06	
63	-3.15000e+00	4.832145e-06	
64	-3.20000e+00	4.782271e-06	
65	-3.25000e+00	4.734280e-06	
66	-3.30000e+00	4.688071e-06	
67	-3.35000e+00	4.643548e-06	
68	-3.40000e+00	4.600624e-06	
69	-3.45000e+00	4.559218e-06	
70	-3.50000e+00	4.519251e-06	
71	-3.55000e+00	4.480654e-06	
72	-3.60000e+00	4.443359e-06	
73	-3.65000e+00	4.407303e-06	
74	-3.70000e+00	4.372430e-06	
75	-3.75000e+00	4.338682e-06	
76	-3.80000e+00	4.306010e-06	
77	-3.85000e+00	4.274364e-06	
78	-3.90000e+00	4.243699e-06	
79	-3.95000e+00	4.213972e-06	
80	-4.00000e+00	4.185143e-06	
81	-4.05000e+00	4.157174e-06	
82	-4.10000e+00	4.130029e-06	
83	-4.15000e+00	4.103674e-06	
84	-4.20000e+00	4.078077e-06	
85	-4.25000e+00	4.053208e-06	
86	-4.30000e+00	4.029038e-06	
87	-4.35000e+00	4.005540e-06	
88	-4.40000e+00	3.982688e-06	
89	-4.45000e+00	3.960459e-06	
90	-4.50000e+00	3.938829e-06	
91	-4.55000e+00	3.917776e-06	
92	-4.60000e+00	3.897280e-06	
93	-4.65000e+00	3.877321e-06	
94	-4.70000e+00	3.857880e-06	
95	-4.75000e+00	3.838940e-06	
96	-4.80000e+00	3.820483e-06	
97	-4.85000e+00	3.802495e-06	
98	-4.90000e+00	3.784959e-06	
99	-4.95000e+00	3.767861e-06	
100	-5.00000e+00	3.751187e-06	
101	-5.05000e+00	3.734924e-06	
102	-5.10000e+00	3.719060e-06	
103	-5.15000e+00	3.703583e-06	
104	-5.20000e+00	3.688481e-06	
105	-5.25000e+00	3.673744e-06	
106	-5.30000e+00	3.659361e-06	
107	-5.35000e+00	3.645323e-06	
108	-5.40000e+00	3.631620e-06	
109	-5.45000e+00	3.618242e-06	
110	-5.50000e+00	3.605183e-06	
111	-5.55000e+00	3.592433e-06	
112	-5.60000e+00	3.579984e-06	

Index   v-sweep         rds             
--------------------------------------------------------------------------------
113	-5.65000e+00	3.567830e-06	
114	-5.70000e+00	3.555963e-06	
115	-5.75000e+00	3.544377e-06	
116	-5.80000e+00	3.533064e-06	
117	-5.85000e+00	3.522019e-06	
118	-5.90000e+00	3.511235e-06	
119	-5.95000e+00	3.500708e-06	
120	-6.00000e+00	3.490430e-06	
121	-6.05000e+00	3.480399e-06	
122	-6.10000e+00	3.470607e-06	
123	-6.15000e+00	3.461051e-06	
124	-6.20000e+00	3.451726e-06	
125	-6.25000e+00	3.442627e-06	
126	-6.30000e+00	3.433750e-06	
127	-6.35000e+00	3.425092e-06	
128	-6.40000e+00	3.416647e-06	
129	-6.45000e+00	3.408413e-06	
130	-6.50000e+00	3.400386e-06	
131	-6.55000e+00	3.392562e-06	
132	-6.60000e+00	3.384937e-06	
Reset re-loads circuit ***************************

Circuit: ***************************

Doing analysis at TEMP = 125.000000 and TNOM = 125.000000


No. of Data Rows : 133
                          ***************************
                          DC transfer characteristic  Mon Jan  9 13:58:53  2023
--------------------------------------------------------------------------------
Index   v-sweep         rds             
--------------------------------------------------------------------------------
0	0.000000e+00	3.482597e-04	
1	-5.00000e-02	3.381768e-04	
2	-1.00000e-01	3.281469e-04	
3	-1.50000e-01	3.181699e-04	
4	-2.00000e-01	3.082455e-04	
5	-2.50000e-01	2.983734e-04	
6	-3.00000e-01	2.885534e-04	
7	-3.50000e-01	2.787853e-04	
8	-4.00000e-01	2.690688e-04	
9	-4.50000e-01	2.594037e-04	
10	-5.00000e-01	2.497899e-04	
11	-5.50000e-01	2.402271e-04	
12	-6.00000e-01	2.307152e-04	
13	-6.50000e-01	2.212542e-04	
14	-7.00000e-01	2.118439e-04	
15	-7.50000e-01	2.024843e-04	
16	-8.00000e-01	1.931756e-04	
17	-8.50000e-01	1.839180e-04	
18	-9.00000e-01	1.747118e-04	
19	-9.50000e-01	1.655575e-04	
20	-1.00000e+00	1.564560e-04	
21	-1.05000e+00	1.474087e-04	
22	-1.10000e+00	1.384175e-04	
23	-1.15000e+00	1.294854e-04	
24	-1.20000e+00	1.206167e-04	
25	-1.25000e+00	1.118182e-04	
26	-1.30000e+00	1.031003e-04	
27	-1.35000e+00	9.447952e-05	
28	-1.40000e+00	8.598214e-05	
29	-1.45000e+00	7.765052e-05	
30	-1.50000e+00	6.955269e-05	
31	-1.55000e+00	6.179486e-05	
32	-1.60000e+00	5.453171e-05	
33	-1.65000e+00	4.795882e-05	
34	-1.70000e+00	4.226613e-05	
35	-1.75000e+00	3.755716e-05	
36	-1.80000e+00	3.379414e-05	
37	-1.85000e+00	3.082533e-05	
38	-1.90000e+00	2.846326e-05	
39	-1.95000e+00	2.654429e-05	
40	-2.00000e+00	2.494738e-05	
41	-2.05000e+00	2.358918e-05	
42	-2.10000e+00	2.241310e-05	
43	-2.15000e+00	2.138019e-05	
44	-2.20000e+00	2.046281e-05	
45	-2.25000e+00	1.964073e-05	
46	-2.30000e+00	1.889865e-05	
47	-2.35000e+00	1.822469e-05	
48	-2.40000e+00	1.760944e-05	
49	-2.45000e+00	1.704523e-05	
50	-2.50000e+00	1.652578e-05	
51	-2.55000e+00	1.604585e-05	
52	-2.60000e+00	1.560101e-05	
53	-2.65000e+00	1.518751e-05	
54	-2.70000e+00	1.480212e-05	

Index   v-sweep         rds             
--------------------------------------------------------------------------------
55	-2.75000e+00	1.444205e-05	
56	-2.80000e+00	1.410487e-05	
57	-2.85000e+00	1.378847e-05	
58	-2.90000e+00	1.349098e-05	
59	-2.95000e+00	1.321077e-05	
60	-3.00000e+00	1.294637e-05	
61	-3.05000e+00	1.269649e-05	
62	-3.10000e+00	1.245997e-05	
63	-3.15000e+00	1.223577e-05	
64	-3.20000e+00	1.202297e-05	
65	-3.25000e+00	1.182072e-05	
66	-3.30000e+00	1.162826e-05	
67	-3.35000e+00	1.144491e-05	
68	-3.40000e+00	1.127004e-05	
69	-3.45000e+00	1.110308e-05	
70	-3.50000e+00	1.094352e-05	
71	-3.55000e+00	1.079087e-05	
72	-3.60000e+00	1.064471e-05	
73	-3.65000e+00	1.050463e-05	
74	-3.70000e+00	1.037027e-05	
75	-3.75000e+00	1.024129e-05	
76	-3.80000e+00	1.011737e-05	
77	-3.85000e+00	9.998238e-06	
78	-3.90000e+00	9.883616e-06	
79	-3.95000e+00	9.773259e-06	
80	-4.00000e+00	9.666937e-06	
81	-4.05000e+00	9.564438e-06	
82	-4.10000e+00	9.465561e-06	
83	-4.15000e+00	9.370123e-06	
84	-4.20000e+00	9.277951e-06	
85	-4.25000e+00	9.188882e-06	
86	-4.30000e+00	9.102767e-06	
87	-4.35000e+00	9.019464e-06	
88	-4.40000e+00	8.938841e-06	
89	-4.45000e+00	8.860773e-06	
90	-4.50000e+00	8.785145e-06	
91	-4.55000e+00	8.711846e-06	
92	-4.60000e+00	8.640774e-06	
93	-4.65000e+00	8.571832e-06	
94	-4.70000e+00	8.504928e-06	
95	-4.75000e+00	8.439977e-06	
96	-4.80000e+00	8.376897e-06	
97	-4.85000e+00	8.315612e-06	
98	-4.90000e+00	8.256049e-06	
99	-4.95000e+00	8.198140e-06	
100	-5.00000e+00	8.141820e-06	
101	-5.05000e+00	8.087028e-06	
102	-5.10000e+00	8.033706e-06	
103	-5.15000e+00	7.981799e-06	
104	-5.20000e+00	7.931255e-06	
105	-5.25000e+00	7.882024e-06	
106	-5.30000e+00	7.834061e-06	
107	-5.35000e+00	7.787320e-06	
108	-5.40000e+00	7.741760e-06	
109	-5.45000e+00	7.697339e-06	
110	-5.50000e+00	7.654022e-06	
111	-5.55000e+00	7.611770e-06	
112	-5.60000e+00	7.570550e-06	

Index   v-sweep         rds             
--------------------------------------------------------------------------------
113	-5.65000e+00	7.530330e-06	
114	-5.70000e+00	7.491078e-06	
115	-5.75000e+00	7.452764e-06	
116	-5.80000e+00	7.415360e-06	
117	-5.85000e+00	7.378840e-06	
118	-5.90000e+00	7.343179e-06	
119	-5.95000e+00	7.308351e-06	
120	-6.00000e+00	7.274333e-06	
121	-6.05000e+00	7.241105e-06	
122	-6.10000e+00	7.208643e-06	
123	-6.15000e+00	7.176929e-06	
124	-6.20000e+00	7.145944e-06	
125	-6.25000e+00	7.115668e-06	
126	-6.30000e+00	7.086085e-06	
127	-6.35000e+00	7.057177e-06	
128	-6.40000e+00	7.028930e-06	
129	-6.45000e+00	7.001327e-06	
130	-6.50000e+00	6.974354e-06	
131	-6.55000e+00	6.947998e-06	
132	-6.60000e+00	6.922244e-06	
Reset re-loads circuit ***************************

Circuit: ***************************

Doing analysis at TEMP = 125.000000 and TNOM = 125.000000


No. of Data Rows : 133
                          ***************************
                          DC transfer characteristic  Mon Jan  9 13:58:53  2023
--------------------------------------------------------------------------------
Index   v-sweep         rds             
--------------------------------------------------------------------------------
0	0.000000e+00	4.523940e-04	
1	-5.00000e-02	4.428436e-04	
2	-1.00000e-01	4.333388e-04	
3	-1.50000e-01	4.238794e-04	
4	-2.00000e-01	4.144653e-04	
5	-2.50000e-01	4.050961e-04	
6	-3.00000e-01	3.957717e-04	
7	-3.50000e-01	3.864918e-04	
8	-4.00000e-01	3.772563e-04	
9	-4.50000e-01	3.680649e-04	
10	-5.00000e-01	3.589174e-04	
11	-5.50000e-01	3.498137e-04	
12	-6.00000e-01	3.407535e-04	
13	-6.50000e-01	3.317366e-04	
14	-7.00000e-01	3.227629e-04	
15	-7.50000e-01	3.138322e-04	
16	-8.00000e-01	3.049442e-04	
17	-8.50000e-01	2.960989e-04	
18	-9.00000e-01	2.872961e-04	
19	-9.50000e-01	2.785356e-04	
20	-1.00000e+00	2.698172e-04	
21	-1.05000e+00	2.611410e-04	
22	-1.10000e+00	2.525068e-04	
23	-1.15000e+00	2.439145e-04	
24	-1.20000e+00	2.353641e-04	
25	-1.25000e+00	2.268556e-04	
26	-1.30000e+00	2.183890e-04	
27	-1.35000e+00	2.099645e-04	
28	-1.40000e+00	2.015824e-04	
29	-1.45000e+00	1.932428e-04	
30	-1.50000e+00	1.849464e-04	
31	-1.55000e+00	1.766939e-04	
32	-1.60000e+00	1.684861e-04	
33	-1.65000e+00	1.603245e-04	
34	-1.70000e+00	1.522111e-04	
35	-1.75000e+00	1.441487e-04	
36	-1.80000e+00	1.361411e-04	
37	-1.85000e+00	1.281942e-04	
38	-1.90000e+00	1.203163e-04	
39	-1.95000e+00	1.125195e-04	
40	-2.00000e+00	1.048222e-04	
41	-2.05000e+00	9.725158e-05	
42	-2.10000e+00	8.984788e-05	
43	-2.15000e+00	8.266964e-05	
44	-2.20000e+00	7.579786e-05	
45	-2.25000e+00	6.933518e-05	
46	-2.30000e+00	6.339369e-05	
47	-2.35000e+00	5.806826e-05	
48	-2.40000e+00	5.340551e-05	
49	-2.45000e+00	4.938926e-05	
50	-2.50000e+00	4.595320e-05	
51	-2.55000e+00	4.300851e-05	
52	-2.60000e+00	4.046739e-05	
53	-2.65000e+00	3.825461e-05	
54	-2.70000e+00	3.630996e-05	

Index   v-sweep         rds             
--------------------------------------------------------------------------------
55	-2.75000e+00	3.458639e-05	
56	-2.80000e+00	3.304726e-05	
57	-2.85000e+00	3.166379e-05	
58	-2.90000e+00	3.041303e-05	
59	-2.95000e+00	2.927650e-05	
60	-3.00000e+00	2.823908e-05	
61	-3.05000e+00	2.728826e-05	
62	-3.10000e+00	2.641359e-05	
63	-3.15000e+00	2.560627e-05	
64	-3.20000e+00	2.485881e-05	
65	-3.25000e+00	2.416480e-05	
66	-3.30000e+00	2.351874e-05	
67	-3.35000e+00	2.291583e-05	
68	-3.40000e+00	2.235193e-05	
69	-3.45000e+00	2.182337e-05	
70	-3.50000e+00	2.132696e-05	
71	-3.55000e+00	2.085988e-05	
72	-3.60000e+00	2.041961e-05	
73	-3.65000e+00	2.000394e-05	
74	-3.70000e+00	1.961086e-05	
75	-3.75000e+00	1.923861e-05	
76	-3.80000e+00	1.888559e-05	
77	-3.85000e+00	1.855035e-05	
78	-3.90000e+00	1.823160e-05	
79	-3.95000e+00	1.792816e-05	
80	-4.00000e+00	1.763897e-05	
81	-4.05000e+00	1.736305e-05	
82	-4.10000e+00	1.709953e-05	
83	-4.15000e+00	1.684758e-05	
84	-4.20000e+00	1.660649e-05	
85	-4.25000e+00	1.637556e-05	
86	-4.30000e+00	1.615418e-05	
87	-4.35000e+00	1.594176e-05	
88	-4.40000e+00	1.573780e-05	
89	-4.45000e+00	1.554179e-05	
90	-4.50000e+00	1.535329e-05	
91	-4.55000e+00	1.517187e-05	
92	-4.60000e+00	1.499716e-05	
93	-4.65000e+00	1.482880e-05	
94	-4.70000e+00	1.466644e-05	
95	-4.75000e+00	1.450978e-05	
96	-4.80000e+00	1.435852e-05	
97	-4.85000e+00	1.421241e-05	
98	-4.90000e+00	1.407117e-05	
99	-4.95000e+00	1.393459e-05	
100	-5.00000e+00	1.380243e-05	
101	-5.05000e+00	1.367449e-05	
102	-5.10000e+00	1.355057e-05	
103	-5.15000e+00	1.343050e-05	
104	-5.20000e+00	1.331409e-05	
105	-5.25000e+00	1.320119e-05	
106	-5.30000e+00	1.309165e-05	
107	-5.35000e+00	1.298531e-05	
108	-5.40000e+00	1.288206e-05	
109	-5.45000e+00	1.278175e-05	
110	-5.50000e+00	1.268428e-05	
111	-5.55000e+00	1.258952e-05	
112	-5.60000e+00	1.249736e-05	

Index   v-sweep         rds             
--------------------------------------------------------------------------------
113	-5.65000e+00	1.240772e-05	
114	-5.70000e+00	1.232048e-05	
115	-5.75000e+00	1.223557e-05	
116	-5.80000e+00	1.215288e-05	
117	-5.85000e+00	1.207235e-05	
118	-5.90000e+00	1.199390e-05	
119	-5.95000e+00	1.191744e-05	
120	-6.00000e+00	1.184292e-05	
121	-6.05000e+00	1.177026e-05	
122	-6.10000e+00	1.169940e-05	
123	-6.15000e+00	1.163029e-05	
124	-6.20000e+00	1.156286e-05	
125	-6.25000e+00	1.149706e-05	
126	-6.30000e+00	1.143285e-05	
127	-6.35000e+00	1.137017e-05	
128	-6.40000e+00	1.130898e-05	
129	-6.45000e+00	1.124923e-05	
130	-6.50000e+00	1.119088e-05	
131	-6.55000e+00	1.113389e-05	
132	-6.60000e+00	1.107822e-05	
Reset re-loads circuit ***************************

Circuit: ***************************

Doing analysis at TEMP = 125.000000 and TNOM = 125.000000


No. of Data Rows : 133
                          ***************************
                          DC transfer characteristic  Mon Jan  9 13:58:53  2023
--------------------------------------------------------------------------------
Index   v-sweep         rds             
--------------------------------------------------------------------------------
0	0.000000e+00	5.418201e-04	
1	-5.00000e-02	5.327254e-04	
2	-1.00000e-01	5.236710e-04	
3	-1.50000e-01	5.146567e-04	
4	-2.00000e-01	5.056822e-04	
5	-2.50000e-01	4.967475e-04	
6	-3.00000e-01	4.878522e-04	
7	-3.50000e-01	4.789963e-04	
8	-4.00000e-01	4.701796e-04	
9	-4.50000e-01	4.614018e-04	
10	-5.00000e-01	4.526628e-04	
11	-5.50000e-01	4.439625e-04	
12	-6.00000e-01	4.353006e-04	
13	-6.50000e-01	4.266769e-04	
14	-7.00000e-01	4.180914e-04	
15	-7.50000e-01	4.095438e-04	
16	-8.00000e-01	4.010340e-04	
17	-8.50000e-01	3.925618e-04	
18	-9.00000e-01	3.841270e-04	
19	-9.50000e-01	3.757295e-04	
20	-1.00000e+00	3.673691e-04	
21	-1.05000e+00	3.590457e-04	
22	-1.10000e+00	3.507591e-04	
23	-1.15000e+00	3.425091e-04	
24	-1.20000e+00	3.342957e-04	
25	-1.25000e+00	3.261187e-04	
26	-1.30000e+00	3.179780e-04	
27	-1.35000e+00	3.098734e-04	
28	-1.40000e+00	3.018048e-04	
29	-1.45000e+00	2.937721e-04	
30	-1.50000e+00	2.857753e-04	
31	-1.55000e+00	2.778142e-04	
32	-1.60000e+00	2.698888e-04	
33	-1.65000e+00	2.619990e-04	
34	-1.70000e+00	2.541448e-04	
35	-1.75000e+00	2.463263e-04	
36	-1.80000e+00	2.385434e-04	
37	-1.85000e+00	2.307963e-04	
38	-1.90000e+00	2.230850e-04	
39	-1.95000e+00	2.154099e-04	
40	-2.00000e+00	2.077712e-04	
41	-2.05000e+00	2.001693e-04	
42	-2.10000e+00	1.926049e-04	
43	-2.15000e+00	1.850786e-04	
44	-2.20000e+00	1.775916e-04	
45	-2.25000e+00	1.701454e-04	
46	-2.30000e+00	1.627417e-04	
47	-2.35000e+00	1.553834e-04	
48	-2.40000e+00	1.480739e-04	
49	-2.45000e+00	1.408184e-04	
50	-2.50000e+00	1.336237e-04	
51	-2.55000e+00	1.264997e-04	
52	-2.60000e+00	1.194603e-04	
53	-2.65000e+00	1.125248e-04	
54	-2.70000e+00	1.057204e-04	

Index   v-sweep         rds             
--------------------------------------------------------------------------------
55	-2.75000e+00	9.908423e-05	
56	-2.80000e+00	9.266511e-05	
57	-2.85000e+00	8.652277e-05	
58	-2.90000e+00	8.072307e-05	
59	-2.95000e+00	7.532777e-05	
60	-3.00000e+00	7.038168e-05	
61	-3.05000e+00	6.590317e-05	
62	-3.10000e+00	6.188300e-05	
63	-3.15000e+00	5.829105e-05	
64	-3.20000e+00	5.508584e-05	
65	-3.25000e+00	5.222259e-05	
66	-3.30000e+00	4.965827e-05	
67	-3.35000e+00	4.735396e-05	
68	-3.40000e+00	4.527556e-05	
69	-3.45000e+00	4.339374e-05	
70	-3.50000e+00	4.168344e-05	
71	-3.55000e+00	4.012333e-05	
72	-3.60000e+00	3.869521e-05	
73	-3.65000e+00	3.738358e-05	
74	-3.70000e+00	3.617516e-05	
75	-3.75000e+00	3.505853e-05	
76	-3.80000e+00	3.402386e-05	
77	-3.85000e+00	3.306263e-05	
78	-3.90000e+00	3.216743e-05	
79	-3.95000e+00	3.133181e-05	
80	-4.00000e+00	3.055010e-05	
81	-4.05000e+00	2.981733e-05	
82	-4.10000e+00	2.912911e-05	
83	-4.15000e+00	2.848156e-05	
84	-4.20000e+00	2.787121e-05	
85	-4.25000e+00	2.729499e-05	
86	-4.30000e+00	2.675016e-05	
87	-4.35000e+00	2.623424e-05	
88	-4.40000e+00	2.574502e-05	
89	-4.45000e+00	2.528051e-05	
90	-4.50000e+00	2.483891e-05	
91	-4.55000e+00	2.441857e-05	
92	-4.60000e+00	2.401802e-05	
93	-4.65000e+00	2.363590e-05	
94	-4.70000e+00	2.327099e-05	
95	-4.75000e+00	2.292217e-05	
96	-4.80000e+00	2.258840e-05	
97	-4.85000e+00	2.226875e-05	
98	-4.90000e+00	2.196234e-05	
99	-4.95000e+00	2.166838e-05	
100	-5.00000e+00	2.138614e-05	
101	-5.05000e+00	2.111494e-05	
102	-5.10000e+00	2.085415e-05	
103	-5.15000e+00	2.060319e-05	
104	-5.20000e+00	2.036152e-05	
105	-5.25000e+00	2.012865e-05	
106	-5.30000e+00	1.990410e-05	
107	-5.35000e+00	1.968744e-05	
108	-5.40000e+00	1.947828e-05	
109	-5.45000e+00	1.927624e-05	
110	-5.50000e+00	1.908096e-05	
111	-5.55000e+00	1.889211e-05	
112	-5.60000e+00	1.870939e-05	

Index   v-sweep         rds             
--------------------------------------------------------------------------------
113	-5.65000e+00	1.853252e-05	
114	-5.70000e+00	1.836121e-05	
115	-5.75000e+00	1.819521e-05	
116	-5.80000e+00	1.803430e-05	
117	-5.85000e+00	1.787823e-05	
118	-5.90000e+00	1.772681e-05	
119	-5.95000e+00	1.757983e-05	
120	-6.00000e+00	1.743710e-05	
121	-6.05000e+00	1.729846e-05	
122	-6.10000e+00	1.716372e-05	
123	-6.15000e+00	1.703274e-05	
124	-6.20000e+00	1.690536e-05	
125	-6.25000e+00	1.678145e-05	
126	-6.30000e+00	1.666087e-05	
127	-6.35000e+00	1.654350e-05	
128	-6.40000e+00	1.642921e-05	
129	-6.45000e+00	1.631789e-05	
130	-6.50000e+00	1.620944e-05	
131	-6.55000e+00	1.610376e-05	
132	-6.60000e+00	1.600075e-05	
Reset re-loads circuit ***************************

Circuit: ***************************

Doing analysis at TEMP = 125.000000 and TNOM = 125.000000


No. of Data Rows : 133
                          ***************************
                          DC transfer characteristic  Mon Jan  9 13:58:53  2023
--------------------------------------------------------------------------------
Index   v-sweep         rds             
--------------------------------------------------------------------------------
0	0.000000e+00	6.226272e-04	
1	-5.00000e-02	6.139077e-04	
2	-1.00000e-01	6.052244e-04	
3	-1.50000e-01	5.965772e-04	
4	-2.00000e-01	5.879659e-04	
5	-2.50000e-01	5.793904e-04	
6	-3.00000e-01	5.708505e-04	
7	-3.50000e-01	5.623460e-04	
8	-4.00000e-01	5.538768e-04	
9	-4.50000e-01	5.454428e-04	
10	-5.00000e-01	5.370438e-04	
11	-5.50000e-01	5.286796e-04	
12	-6.00000e-01	5.203501e-04	
13	-6.50000e-01	5.120551e-04	
14	-7.00000e-01	5.037944e-04	
15	-7.50000e-01	4.955681e-04	
16	-8.00000e-01	4.873758e-04	
17	-8.50000e-01	4.792174e-04	
18	-9.00000e-01	4.710928e-04	
19	-9.50000e-01	4.630019e-04	
20	-1.00000e+00	4.549444e-04	
21	-1.05000e+00	4.469203e-04	
22	-1.10000e+00	4.389294e-04	
23	-1.15000e+00	4.309716e-04	
24	-1.20000e+00	4.230467e-04	
25	-1.25000e+00	4.151546e-04	
26	-1.30000e+00	4.072952e-04	
27	-1.35000e+00	3.994683e-04	
28	-1.40000e+00	3.916738e-04	
29	-1.45000e+00	3.839116e-04	
30	-1.50000e+00	3.761815e-04	
31	-1.55000e+00	3.684835e-04	
32	-1.60000e+00	3.608173e-04	
33	-1.65000e+00	3.531830e-04	
34	-1.70000e+00	3.455803e-04	
35	-1.75000e+00	3.380092e-04	
36	-1.80000e+00	3.304696e-04	
37	-1.85000e+00	3.229614e-04	
38	-1.90000e+00	3.154844e-04	
39	-1.95000e+00	3.080387e-04	
40	-2.00000e+00	3.006241e-04	
41	-2.05000e+00	2.932405e-04	
42	-2.10000e+00	2.858880e-04	
43	-2.15000e+00	2.785665e-04	
44	-2.20000e+00	2.712760e-04	
45	-2.25000e+00	2.640165e-04	
46	-2.30000e+00	2.567879e-04	
47	-2.35000e+00	2.495905e-04	
48	-2.40000e+00	2.424242e-04	
49	-2.45000e+00	2.352892e-04	
50	-2.50000e+00	2.281857e-04	
51	-2.55000e+00	2.211140e-04	
52	-2.60000e+00	2.140744e-04	
53	-2.65000e+00	2.070674e-04	
54	-2.70000e+00	2.000936e-04	

Index   v-sweep         rds             
--------------------------------------------------------------------------------
55	-2.75000e+00	1.931538e-04	
56	-2.80000e+00	1.862490e-04	
57	-2.85000e+00	1.793806e-04	
58	-2.90000e+00	1.725503e-04	
59	-2.95000e+00	1.657604e-04	
60	-3.00000e+00	1.590140e-04	
61	-3.05000e+00	1.523151e-04	
62	-3.10000e+00	1.456689e-04	
63	-3.15000e+00	1.390828e-04	
64	-3.20000e+00	1.325662e-04	
65	-3.25000e+00	1.261320e-04	
66	-3.30000e+00	1.197972e-04	
67	-3.35000e+00	1.135841e-04	
68	-3.40000e+00	1.075209e-04	
69	-3.45000e+00	1.016424e-04	
70	-3.50000e+00	9.598834e-05	
71	-3.55000e+00	9.060082e-05	
72	-3.60000e+00	8.551914e-05	
73	-3.65000e+00	8.077415e-05	
74	-3.70000e+00	7.638373e-05	
75	-3.75000e+00	7.235117e-05	
76	-3.80000e+00	6.866668e-05	
77	-3.85000e+00	6.531084e-05	
78	-3.90000e+00	6.225847e-05	
79	-3.95000e+00	5.948199e-05	
80	-4.00000e+00	5.695378e-05	
81	-4.05000e+00	5.464760e-05	
82	-4.10000e+00	5.253934e-05	
83	-4.15000e+00	5.060732e-05	
84	-4.20000e+00	4.883226e-05	
85	-4.25000e+00	4.719718e-05	
86	-4.30000e+00	4.568716e-05	
87	-4.35000e+00	4.428912e-05	
88	-4.40000e+00	4.299163e-05	
89	-4.45000e+00	4.178462e-05	
90	-4.50000e+00	4.065929e-05	
91	-4.55000e+00	3.960787e-05	
92	-4.60000e+00	3.862351e-05	
93	-4.65000e+00	3.770015e-05	
94	-4.70000e+00	3.683242e-05	
95	-4.75000e+00	3.601556e-05	
96	-4.80000e+00	3.524530e-05	
97	-4.85000e+00	3.451784e-05	
98	-4.90000e+00	3.382977e-05	
99	-4.95000e+00	3.317802e-05	
100	-5.00000e+00	3.255985e-05	
101	-5.05000e+00	3.197277e-05	
102	-5.10000e+00	3.141451e-05	
103	-5.15000e+00	3.088304e-05	
104	-5.20000e+00	3.037650e-05	
105	-5.25000e+00	2.989320e-05	
106	-5.30000e+00	2.943160e-05	
107	-5.35000e+00	2.899029e-05	
108	-5.40000e+00	2.856798e-05	
109	-5.45000e+00	2.816348e-05	
110	-5.50000e+00	2.777571e-05	
111	-5.55000e+00	2.740365e-05	
112	-5.60000e+00	2.704639e-05	

Index   v-sweep         rds             
--------------------------------------------------------------------------------
113	-5.65000e+00	2.670307e-05	
114	-5.70000e+00	2.637291e-05	
115	-5.75000e+00	2.605517e-05	
116	-5.80000e+00	2.574916e-05	
117	-5.85000e+00	2.545427e-05	
118	-5.90000e+00	2.516991e-05	
119	-5.95000e+00	2.489552e-05	
120	-6.00000e+00	2.463061e-05	
121	-6.05000e+00	2.437469e-05	
122	-6.10000e+00	2.412732e-05	
123	-6.15000e+00	2.388809e-05	
124	-6.20000e+00	2.365661e-05	
125	-6.25000e+00	2.343251e-05	
126	-6.30000e+00	2.321546e-05	
127	-6.35000e+00	2.300513e-05	
128	-6.40000e+00	2.280122e-05	
129	-6.45000e+00	2.260345e-05	
130	-6.50000e+00	2.241155e-05	
131	-6.55000e+00	2.222526e-05	
132	-6.60000e+00	2.204437e-05	
Reset re-loads circuit ***************************

Circuit: ***************************

Note: No ".plot", ".print", or ".fourier" lines; no simulations run
