
Note: Compatibility modes selected: hs

Warning: m=xx on .subckt line will override multiplier m hierarchy!


Circuit: ***************************

Doing analysis at TEMP = 25.000000 and TNOM = 25.000000


No. of Data Rows : 133
                          ***************************
                          DC transfer characteristic  Mon Jan  9 13:58:52  2023
--------------------------------------------------------------------------------
Index   v-sweep         rds             
--------------------------------------------------------------------------------
0	0.000000e+00	3.676534e-06	
1	-5.00000e-02	2.786317e-06	
2	-1.00000e-01	1.924613e-06	
3	-1.50000e-01	1.129584e-06	
4	-2.00000e-01	5.234864e-07	
5	-2.50000e-01	2.322483e-07	
6	-3.00000e-01	1.408875e-07	
7	-3.50000e-01	1.118170e-07	
8	-4.00000e-01	9.975445e-08	
9	-4.50000e-01	9.317095e-08	
10	-5.00000e-01	8.876988e-08	
11	-5.50000e-01	8.542434e-08	
12	-6.00000e-01	8.268035e-08	
13	-6.50000e-01	8.032701e-08	
14	-7.00000e-01	7.825354e-08	
15	-7.50000e-01	7.639513e-08	
16	-8.00000e-01	7.471034e-08	
17	-8.50000e-01	7.317054e-08	
18	-9.00000e-01	7.175478e-08	
19	-9.50000e-01	7.044699e-08	
20	-1.00000e+00	6.923437e-08	
21	-1.05000e+00	6.810646e-08	
22	-1.10000e+00	6.705451e-08	
23	-1.15000e+00	6.607111e-08	
24	-1.20000e+00	6.514988e-08	
25	-1.25000e+00	6.428528e-08	
26	-1.30000e+00	6.347244e-08	
27	-1.35000e+00	6.270708e-08	
28	-1.40000e+00	6.198541e-08	
29	-1.45000e+00	6.130402e-08	
30	-1.50000e+00	6.065987e-08	
31	-1.55000e+00	6.005024e-08	
32	-1.60000e+00	5.947266e-08	
33	-1.65000e+00	5.892489e-08	
34	-1.70000e+00	5.840490e-08	
35	-1.75000e+00	5.791085e-08	
36	-1.80000e+00	5.744104e-08	
37	-1.85000e+00	5.699395e-08	
38	-1.90000e+00	5.656815e-08	
39	-1.95000e+00	5.616235e-08	
40	-2.00000e+00	5.577536e-08	
41	-2.05000e+00	5.540606e-08	
42	-2.10000e+00	5.505345e-08	
43	-2.15000e+00	5.471658e-08	
44	-2.20000e+00	5.439458e-08	
45	-2.25000e+00	5.408665e-08	
46	-2.30000e+00	5.379203e-08	
47	-2.35000e+00	5.351002e-08	
48	-2.40000e+00	5.323997e-08	
49	-2.45000e+00	5.298128e-08	
50	-2.50000e+00	5.273337e-08	
51	-2.55000e+00	5.249573e-08	
52	-2.60000e+00	5.226784e-08	
53	-2.65000e+00	5.204925e-08	
54	-2.70000e+00	5.183952e-08	

Index   v-sweep         rds             
--------------------------------------------------------------------------------
55	-2.75000e+00	5.163824e-08	
56	-2.80000e+00	5.144502e-08	
57	-2.85000e+00	5.125952e-08	
58	-2.90000e+00	5.108137e-08	
59	-2.95000e+00	5.091027e-08	
60	-3.00000e+00	5.074591e-08	
61	-3.05000e+00	5.058801e-08	
62	-3.10000e+00	5.043629e-08	
63	-3.15000e+00	5.029051e-08	
64	-3.20000e+00	5.015041e-08	
65	-3.25000e+00	5.001578e-08	
66	-3.30000e+00	4.988640e-08	
67	-3.35000e+00	4.976205e-08	
68	-3.40000e+00	4.964256e-08	
69	-3.45000e+00	4.952773e-08	
70	-3.50000e+00	4.941739e-08	
71	-3.55000e+00	4.931138e-08	
72	-3.60000e+00	4.920953e-08	
73	-3.65000e+00	4.911170e-08	
74	-3.70000e+00	4.901774e-08	
75	-3.75000e+00	4.892753e-08	
76	-3.80000e+00	4.884092e-08	
77	-3.85000e+00	4.875781e-08	
78	-3.90000e+00	4.867807e-08	
79	-3.95000e+00	4.860158e-08	
80	-4.00000e+00	4.852825e-08	
81	-4.05000e+00	4.845798e-08	
82	-4.10000e+00	4.839066e-08	
83	-4.15000e+00	4.832620e-08	
84	-4.20000e+00	4.826452e-08	
85	-4.25000e+00	4.820554e-08	
86	-4.30000e+00	4.814917e-08	
87	-4.35000e+00	4.809533e-08	
88	-4.40000e+00	4.804396e-08	
89	-4.45000e+00	4.799499e-08	
90	-4.50000e+00	4.794834e-08	
91	-4.55000e+00	4.790395e-08	
92	-4.60000e+00	4.786177e-08	
93	-4.65000e+00	4.782173e-08	
94	-4.70000e+00	4.778378e-08	
95	-4.75000e+00	4.774786e-08	
96	-4.80000e+00	4.771393e-08	
97	-4.85000e+00	4.768194e-08	
98	-4.90000e+00	4.765183e-08	
99	-4.95000e+00	4.762357e-08	
100	-5.00000e+00	4.759711e-08	
101	-5.05000e+00	4.757240e-08	
102	-5.10000e+00	4.754942e-08	
103	-5.15000e+00	4.752812e-08	
104	-5.20000e+00	4.750847e-08	
105	-5.25000e+00	4.749043e-08	
106	-5.30000e+00	4.747397e-08	
107	-5.35000e+00	4.745905e-08	
108	-5.40000e+00	4.744565e-08	
109	-5.45000e+00	4.743374e-08	
110	-5.50000e+00	4.742328e-08	
111	-5.55000e+00	4.741426e-08	
112	-5.60000e+00	4.740663e-08	

Index   v-sweep         rds             
--------------------------------------------------------------------------------
113	-5.65000e+00	4.740039e-08	
114	-5.70000e+00	4.739551e-08	
115	-5.75000e+00	4.739195e-08	
116	-5.80000e+00	4.738971e-08	
117	-5.85000e+00	4.738875e-08	
118	-5.90000e+00	4.738907e-08	
119	-5.95000e+00	4.739063e-08	
120	-6.00000e+00	4.739342e-08	
121	-6.05000e+00	4.739742e-08	
122	-6.10000e+00	4.740261e-08	
123	-6.15000e+00	4.740898e-08	
124	-6.20000e+00	4.741650e-08	
125	-6.25000e+00	4.742517e-08	
126	-6.30000e+00	4.743497e-08	
127	-6.35000e+00	4.744588e-08	
128	-6.40000e+00	4.745789e-08	
129	-6.45000e+00	4.747098e-08	
130	-6.50000e+00	4.748514e-08	
131	-6.55000e+00	4.750036e-08	
132	-6.60000e+00	4.751662e-08	
Reset re-loads circuit ***************************

Circuit: ***************************

Doing analysis at TEMP = 25.000000 and TNOM = 25.000000


No. of Data Rows : 133
                          ***************************
                          DC transfer characteristic  Mon Jan  9 13:58:52  2023
--------------------------------------------------------------------------------
Index   v-sweep         rds             
--------------------------------------------------------------------------------
0	0.000000e+00	1.853974e-05	
1	-5.00000e-02	1.750404e-05	
2	-1.00000e-01	1.648019e-05	
3	-1.50000e-01	1.546808e-05	
4	-2.00000e-01	1.446762e-05	
5	-2.50000e-01	1.347872e-05	
6	-3.00000e-01	1.250133e-05	
7	-3.50000e-01	1.153545e-05	
8	-4.00000e-01	1.058115e-05	
9	-4.50000e-01	9.638627e-06	
10	-5.00000e-01	8.708283e-06	
11	-5.50000e-01	7.790913e-06	
12	-6.00000e-01	6.888020e-06	
13	-6.50000e-01	6.002495e-06	
14	-7.00000e-01	5.139975e-06	
15	-7.50000e-01	4.311500e-06	
16	-8.00000e-01	3.537949e-06	
17	-8.50000e-01	2.854009e-06	
18	-9.00000e-01	2.301596e-06	
19	-9.50000e-01	1.903112e-06	
20	-1.00000e+00	1.639682e-06	
21	-1.05000e+00	1.468263e-06	
22	-1.10000e+00	1.350912e-06	
23	-1.15000e+00	1.264193e-06	
24	-1.20000e+00	1.195531e-06	
25	-1.25000e+00	1.138335e-06	
26	-1.30000e+00	1.089029e-06	
27	-1.35000e+00	1.045544e-06	
28	-1.40000e+00	1.006596e-06	
29	-1.45000e+00	9.713306e-07	
30	-1.50000e+00	9.391431e-07	
31	-1.55000e+00	9.095844e-07	
32	-1.60000e+00	8.823063e-07	
33	-1.65000e+00	8.570306e-07	
34	-1.70000e+00	8.335294e-07	
35	-1.75000e+00	8.116124e-07	
36	-1.80000e+00	7.911183e-07	
37	-1.85000e+00	7.719088e-07	
38	-1.90000e+00	7.538643e-07	
39	-1.95000e+00	7.368803e-07	
40	-2.00000e+00	7.208649e-07	
41	-2.05000e+00	7.057371e-07	
42	-2.10000e+00	6.914249e-07	
43	-2.15000e+00	6.778640e-07	
44	-2.20000e+00	6.649969e-07	
45	-2.25000e+00	6.527719e-07	
46	-2.30000e+00	6.411424e-07	
47	-2.35000e+00	6.300661e-07	
48	-2.40000e+00	6.195049e-07	
49	-2.45000e+00	6.094240e-07	
50	-2.50000e+00	5.997918e-07	
51	-2.55000e+00	5.905792e-07	
52	-2.60000e+00	5.817598e-07	
53	-2.65000e+00	5.733093e-07	
54	-2.70000e+00	5.652053e-07	

Index   v-sweep         rds             
--------------------------------------------------------------------------------
55	-2.75000e+00	5.574274e-07	
56	-2.80000e+00	5.499565e-07	
57	-2.85000e+00	5.427751e-07	
58	-2.90000e+00	5.358670e-07	
59	-2.95000e+00	5.292172e-07	
60	-3.00000e+00	5.228117e-07	
61	-3.05000e+00	5.166376e-07	
62	-3.10000e+00	5.106828e-07	
63	-3.15000e+00	5.049361e-07	
64	-3.20000e+00	4.993871e-07	
65	-3.25000e+00	4.940259e-07	
66	-3.30000e+00	4.888433e-07	
67	-3.35000e+00	4.838309e-07	
68	-3.40000e+00	4.789805e-07	
69	-3.45000e+00	4.742847e-07	
70	-3.50000e+00	4.697364e-07	
71	-3.55000e+00	4.653289e-07	
72	-3.60000e+00	4.610560e-07	
73	-3.65000e+00	4.569117e-07	
74	-3.70000e+00	4.528906e-07	
75	-3.75000e+00	4.489875e-07	
76	-3.80000e+00	4.451973e-07	
77	-3.85000e+00	4.415154e-07	
78	-3.90000e+00	4.379374e-07	
79	-3.95000e+00	4.344592e-07	
80	-4.00000e+00	4.310767e-07	
81	-4.05000e+00	4.277863e-07	
82	-4.10000e+00	4.245844e-07	
83	-4.15000e+00	4.214676e-07	
84	-4.20000e+00	4.184328e-07	
85	-4.25000e+00	4.154769e-07	
86	-4.30000e+00	4.125971e-07	
87	-4.35000e+00	4.097905e-07	
88	-4.40000e+00	4.070547e-07	
89	-4.45000e+00	4.043871e-07	
90	-4.50000e+00	4.017854e-07	
91	-4.55000e+00	3.992474e-07	
92	-4.60000e+00	3.967709e-07	
93	-4.65000e+00	3.943539e-07	
94	-4.70000e+00	3.919944e-07	
95	-4.75000e+00	3.896907e-07	
96	-4.80000e+00	3.874408e-07	
97	-4.85000e+00	3.852432e-07	
98	-4.90000e+00	3.830963e-07	
99	-4.95000e+00	3.809985e-07	
100	-5.00000e+00	3.789483e-07	
101	-5.05000e+00	3.769444e-07	
102	-5.10000e+00	3.749853e-07	
103	-5.15000e+00	3.730699e-07	
104	-5.20000e+00	3.711969e-07	
105	-5.25000e+00	3.693651e-07	
106	-5.30000e+00	3.675734e-07	
107	-5.35000e+00	3.658207e-07	
108	-5.40000e+00	3.641061e-07	
109	-5.45000e+00	3.624284e-07	
110	-5.50000e+00	3.607868e-07	
111	-5.55000e+00	3.591804e-07	
112	-5.60000e+00	3.576082e-07	

Index   v-sweep         rds             
--------------------------------------------------------------------------------
113	-5.65000e+00	3.560695e-07	
114	-5.70000e+00	3.545634e-07	
115	-5.75000e+00	3.530893e-07	
116	-5.80000e+00	3.516462e-07	
117	-5.85000e+00	3.502336e-07	
118	-5.90000e+00	3.488508e-07	
119	-5.95000e+00	3.474970e-07	
120	-6.00000e+00	3.461717e-07	
121	-6.05000e+00	3.448743e-07	
122	-6.10000e+00	3.436041e-07	
123	-6.15000e+00	3.423606e-07	
124	-6.20000e+00	3.411433e-07	
125	-6.25000e+00	3.399517e-07	
126	-6.30000e+00	3.387851e-07	
127	-6.35000e+00	3.376433e-07	
128	-6.40000e+00	3.365256e-07	
129	-6.45000e+00	3.354316e-07	
130	-6.50000e+00	3.343610e-07	
131	-6.55000e+00	3.333132e-07	
132	-6.60000e+00	3.322878e-07	
Reset re-loads circuit ***************************

Circuit: ***************************

Doing analysis at TEMP = 25.000000 and TNOM = 25.000000


No. of Data Rows : 133
                          ***************************
                          DC transfer characteristic  Mon Jan  9 13:58:52  2023
--------------------------------------------------------------------------------
Index   v-sweep         rds             
--------------------------------------------------------------------------------
0	0.000000e+00	3.011539e-05	
1	-5.00000e-02	2.910940e-05	
2	-1.00000e-01	2.811274e-05	
3	-1.50000e-01	2.712535e-05	
4	-2.00000e-01	2.614714e-05	
5	-2.50000e-01	2.517801e-05	
6	-3.00000e-01	2.421790e-05	
7	-3.50000e-01	2.326673e-05	
8	-4.00000e-01	2.232441e-05	
9	-4.50000e-01	2.139087e-05	
10	-5.00000e-01	2.046605e-05	
11	-5.50000e-01	1.954988e-05	
12	-6.00000e-01	1.864229e-05	
13	-6.50000e-01	1.774325e-05	
14	-7.00000e-01	1.685270e-05	
15	-7.50000e-01	1.597064e-05	
16	-8.00000e-01	1.509704e-05	
17	-8.50000e-01	1.423196e-05	
18	-9.00000e-01	1.337544e-05	
19	-9.50000e-01	1.252765e-05	
20	-1.00000e+00	1.168883e-05	
21	-1.05000e+00	1.085938e-05	
22	-1.10000e+00	1.004000e-05	
23	-1.15000e+00	9.231791e-06	
24	-1.20000e+00	8.436607e-06	
25	-1.25000e+00	7.657538e-06	
26	-1.30000e+00	6.899748e-06	
27	-1.35000e+00	6.171726e-06	
28	-1.40000e+00	5.486688e-06	
29	-1.45000e+00	4.862873e-06	
30	-1.50000e+00	4.320125e-06	
31	-1.55000e+00	3.871512e-06	
32	-1.60000e+00	3.515486e-06	
33	-1.65000e+00	3.237054e-06	
34	-1.70000e+00	3.016537e-06	
35	-1.75000e+00	2.836925e-06	
36	-1.80000e+00	2.686128e-06	
37	-1.85000e+00	2.556223e-06	
38	-1.90000e+00	2.442097e-06	
39	-1.95000e+00	2.340372e-06	
40	-2.00000e+00	2.248724e-06	
41	-2.05000e+00	2.165479e-06	
42	-2.10000e+00	2.089383e-06	
43	-2.15000e+00	2.019463e-06	
44	-2.20000e+00	1.954939e-06	
45	-2.25000e+00	1.895176e-06	
46	-2.30000e+00	1.839642e-06	
47	-2.35000e+00	1.787891e-06	
48	-2.40000e+00	1.739538e-06	
49	-2.45000e+00	1.694256e-06	
50	-2.50000e+00	1.651755e-06	
51	-2.55000e+00	1.611787e-06	
52	-2.60000e+00	1.574129e-06	
53	-2.65000e+00	1.538587e-06	
54	-2.70000e+00	1.504986e-06	

Index   v-sweep         rds             
--------------------------------------------------------------------------------
55	-2.75000e+00	1.473173e-06	
56	-2.80000e+00	1.443009e-06	
57	-2.85000e+00	1.414369e-06	
58	-2.90000e+00	1.387141e-06	
59	-2.95000e+00	1.361223e-06	
60	-3.00000e+00	1.336525e-06	
61	-3.05000e+00	1.312961e-06	
62	-3.10000e+00	1.290458e-06	
63	-3.15000e+00	1.268944e-06	
64	-3.20000e+00	1.248358e-06	
65	-3.25000e+00	1.228640e-06	
66	-3.30000e+00	1.209738e-06	
67	-3.35000e+00	1.191602e-06	
68	-3.40000e+00	1.174187e-06	
69	-3.45000e+00	1.157452e-06	
70	-3.50000e+00	1.141357e-06	
71	-3.55000e+00	1.125868e-06	
72	-3.60000e+00	1.110951e-06	
73	-3.65000e+00	1.096576e-06	
74	-3.70000e+00	1.082713e-06	
75	-3.75000e+00	1.069337e-06	
76	-3.80000e+00	1.056422e-06	
77	-3.85000e+00	1.043945e-06	
78	-3.90000e+00	1.031886e-06	
79	-3.95000e+00	1.020223e-06	
80	-4.00000e+00	1.008937e-06	
81	-4.05000e+00	9.980112e-07	
82	-4.10000e+00	9.874287e-07	
83	-4.15000e+00	9.771737e-07	
84	-4.20000e+00	9.672316e-07	
85	-4.25000e+00	9.575886e-07	
86	-4.30000e+00	9.482316e-07	
87	-4.35000e+00	9.391483e-07	
88	-4.40000e+00	9.303272e-07	
89	-4.45000e+00	9.217573e-07	
90	-4.50000e+00	9.134283e-07	
91	-4.55000e+00	9.053305e-07	
92	-4.60000e+00	8.974546e-07	
93	-4.65000e+00	8.897918e-07	
94	-4.70000e+00	8.823340e-07	
95	-4.75000e+00	8.750731e-07	
96	-4.80000e+00	8.680019e-07	
97	-4.85000e+00	8.611133e-07	
98	-4.90000e+00	8.544004e-07	
99	-4.95000e+00	8.478571e-07	
100	-5.00000e+00	8.414771e-07	
101	-5.05000e+00	8.352549e-07	
102	-5.10000e+00	8.291848e-07	
103	-5.15000e+00	8.232618e-07	
104	-5.20000e+00	8.174808e-07	
105	-5.25000e+00	8.118371e-07	
106	-5.30000e+00	8.063262e-07	
107	-5.35000e+00	8.009439e-07	
108	-5.40000e+00	7.956860e-07	
109	-5.45000e+00	7.905488e-07	
110	-5.50000e+00	7.855283e-07	
111	-5.55000e+00	7.806211e-07	
112	-5.60000e+00	7.758239e-07	

Index   v-sweep         rds             
--------------------------------------------------------------------------------
113	-5.65000e+00	7.711333e-07	
114	-5.70000e+00	7.665463e-07	
115	-5.75000e+00	7.620599e-07	
116	-5.80000e+00	7.576713e-07	
117	-5.85000e+00	7.533779e-07	
118	-5.90000e+00	7.491769e-07	
119	-5.95000e+00	7.450660e-07	
120	-6.00000e+00	7.410427e-07	
121	-6.05000e+00	7.371049e-07	
122	-6.10000e+00	7.332503e-07	
123	-6.15000e+00	7.294769e-07	
124	-6.20000e+00	7.257826e-07	
125	-6.25000e+00	7.221656e-07	
126	-6.30000e+00	7.186240e-07	
127	-6.35000e+00	7.151561e-07	
128	-6.40000e+00	7.117602e-07	
129	-6.45000e+00	7.084346e-07	
130	-6.50000e+00	7.051778e-07	
131	-6.55000e+00	7.019883e-07	
132	-6.60000e+00	6.988647e-07	
Reset re-loads circuit ***************************

Circuit: ***************************

Doing analysis at TEMP = 25.000000 and TNOM = 25.000000


No. of Data Rows : 133
                          ***************************
                          DC transfer characteristic  Mon Jan  9 13:58:52  2023
--------------------------------------------------------------------------------
Index   v-sweep         rds             
--------------------------------------------------------------------------------
0	0.000000e+00	4.016307e-05	
1	-5.00000e-02	3.919925e-05	
2	-1.00000e-01	3.824295e-05	
3	-1.50000e-01	3.729413e-05	
4	-2.00000e-01	3.635272e-05	
5	-2.50000e-01	3.541867e-05	
6	-3.00000e-01	3.449192e-05	
7	-3.50000e-01	3.357242e-05	
8	-4.00000e-01	3.266010e-05	
9	-4.50000e-01	3.175493e-05	
10	-5.00000e-01	3.085684e-05	
11	-5.50000e-01	2.996578e-05	
12	-6.00000e-01	2.908170e-05	
13	-6.50000e-01	2.820454e-05	
14	-7.00000e-01	2.733426e-05	
15	-7.50000e-01	2.647080e-05	
16	-8.00000e-01	2.561412e-05	
17	-8.50000e-01	2.476418e-05	
18	-9.00000e-01	2.392092e-05	
19	-9.50000e-01	2.308432e-05	
20	-1.00000e+00	2.225432e-05	
21	-1.05000e+00	2.143089e-05	
22	-1.10000e+00	2.061401e-05	
23	-1.15000e+00	1.980366e-05	
24	-1.20000e+00	1.899981e-05	
25	-1.25000e+00	1.820246e-05	
26	-1.30000e+00	1.741163e-05	
27	-1.35000e+00	1.662734e-05	
28	-1.40000e+00	1.584966e-05	
29	-1.45000e+00	1.507868e-05	
30	-1.50000e+00	1.431456e-05	
31	-1.55000e+00	1.355753e-05	
32	-1.60000e+00	1.280795e-05	
33	-1.65000e+00	1.206636e-05	
34	-1.70000e+00	1.133357e-05	
35	-1.75000e+00	1.061084e-05	
36	-1.80000e+00	9.900063e-06	
37	-1.85000e+00	9.204160e-06	
38	-1.90000e+00	8.527540e-06	
39	-1.95000e+00	7.876651e-06	
40	-2.00000e+00	7.260302e-06	
41	-2.05000e+00	6.689114e-06	
42	-2.10000e+00	6.173383e-06	
43	-2.15000e+00	5.719626e-06	
44	-2.20000e+00	5.327937e-06	
45	-2.25000e+00	4.992389e-06	
46	-2.30000e+00	4.703988e-06	
47	-2.35000e+00	4.453662e-06	
48	-2.40000e+00	4.233805e-06	
49	-2.45000e+00	4.038555e-06	
50	-2.50000e+00	3.863519e-06	
51	-2.55000e+00	3.705385e-06	
52	-2.60000e+00	3.561612e-06	
53	-2.65000e+00	3.430202e-06	
54	-2.70000e+00	3.309551e-06	

Index   v-sweep         rds             
--------------------------------------------------------------------------------
55	-2.75000e+00	3.198344e-06	
56	-2.80000e+00	3.095489e-06	
57	-2.85000e+00	3.000063e-06	
58	-2.90000e+00	2.911282e-06	
59	-2.95000e+00	2.828471e-06	
60	-3.00000e+00	2.751045e-06	
61	-3.05000e+00	2.678496e-06	
62	-3.10000e+00	2.610378e-06	
63	-3.15000e+00	2.546298e-06	
64	-3.20000e+00	2.485909e-06	
65	-3.25000e+00	2.428902e-06	
66	-3.30000e+00	2.375003e-06	
67	-3.35000e+00	2.323965e-06	
68	-3.40000e+00	2.275569e-06	
69	-3.45000e+00	2.229616e-06	
70	-3.50000e+00	2.185926e-06	
71	-3.55000e+00	2.144339e-06	
72	-3.60000e+00	2.104706e-06	
73	-3.65000e+00	2.066895e-06	
74	-3.70000e+00	2.030784e-06	
75	-3.75000e+00	1.996261e-06	
76	-3.80000e+00	1.963226e-06	
77	-3.85000e+00	1.931584e-06	
78	-3.90000e+00	1.901251e-06	
79	-3.95000e+00	1.872148e-06	
80	-4.00000e+00	1.844201e-06	
81	-4.05000e+00	1.817345e-06	
82	-4.10000e+00	1.791517e-06	
83	-4.15000e+00	1.766660e-06	
84	-4.20000e+00	1.742721e-06	
85	-4.25000e+00	1.719651e-06	
86	-4.30000e+00	1.697403e-06	
87	-4.35000e+00	1.675935e-06	
88	-4.40000e+00	1.655207e-06	
89	-4.45000e+00	1.635182e-06	
90	-4.50000e+00	1.615826e-06	
91	-4.55000e+00	1.597105e-06	
92	-4.60000e+00	1.578989e-06	
93	-4.65000e+00	1.561451e-06	
94	-4.70000e+00	1.544462e-06	
95	-4.75000e+00	1.527999e-06	
96	-4.80000e+00	1.512037e-06	
97	-4.85000e+00	1.496555e-06	
98	-4.90000e+00	1.481530e-06	
99	-4.95000e+00	1.466945e-06	
100	-5.00000e+00	1.452779e-06	
101	-5.05000e+00	1.439016e-06	
102	-5.10000e+00	1.425640e-06	
103	-5.15000e+00	1.412633e-06	
104	-5.20000e+00	1.399982e-06	
105	-5.25000e+00	1.387672e-06	
106	-5.30000e+00	1.375691e-06	
107	-5.35000e+00	1.364025e-06	
108	-5.40000e+00	1.352663e-06	
109	-5.45000e+00	1.341594e-06	
110	-5.50000e+00	1.330806e-06	
111	-5.55000e+00	1.320290e-06	
112	-5.60000e+00	1.310035e-06	

Index   v-sweep         rds             
--------------------------------------------------------------------------------
113	-5.65000e+00	1.300033e-06	
114	-5.70000e+00	1.290275e-06	
115	-5.75000e+00	1.280753e-06	
116	-5.80000e+00	1.271458e-06	
117	-5.85000e+00	1.262383e-06	
118	-5.90000e+00	1.253521e-06	
119	-5.95000e+00	1.244865e-06	
120	-6.00000e+00	1.236409e-06	
121	-6.05000e+00	1.228145e-06	
122	-6.10000e+00	1.220070e-06	
123	-6.15000e+00	1.212175e-06	
124	-6.20000e+00	1.204458e-06	
125	-6.25000e+00	1.196911e-06	
126	-6.30000e+00	1.189531e-06	
127	-6.35000e+00	1.182312e-06	
128	-6.40000e+00	1.175250e-06	
129	-6.45000e+00	1.168341e-06	
130	-6.50000e+00	1.161580e-06	
131	-6.55000e+00	1.154965e-06	
132	-6.60000e+00	1.148490e-06	
Reset re-loads circuit ***************************

Circuit: ***************************

Doing analysis at TEMP = 25.000000 and TNOM = 25.000000


No. of Data Rows : 133
                          ***************************
                          DC transfer characteristic  Mon Jan  9 13:58:52  2023
--------------------------------------------------------------------------------
Index   v-sweep         rds             
--------------------------------------------------------------------------------
0	0.000000e+00	4.865537e-05	
1	-5.00000e-02	4.773769e-05	
2	-1.00000e-01	4.682618e-05	
3	-1.50000e-01	4.592078e-05	
4	-2.00000e-01	4.502148e-05	
5	-2.50000e-01	4.412822e-05	
6	-3.00000e-01	4.324096e-05	
7	-3.50000e-01	4.235968e-05	
8	-4.00000e-01	4.148432e-05	
9	-4.50000e-01	4.061486e-05	
10	-5.00000e-01	3.975125e-05	
11	-5.50000e-01	3.889346e-05	
12	-6.00000e-01	3.804144e-05	
13	-6.50000e-01	3.719516e-05	
14	-7.00000e-01	3.635459e-05	
15	-7.50000e-01	3.551968e-05	
16	-8.00000e-01	3.469040e-05	
17	-8.50000e-01	3.386672e-05	
18	-9.00000e-01	3.304859e-05	
19	-9.50000e-01	3.223599e-05	
20	-1.00000e+00	3.142887e-05	
21	-1.05000e+00	3.062721e-05	
22	-1.10000e+00	2.983097e-05	
23	-1.15000e+00	2.904012e-05	
24	-1.20000e+00	2.825463e-05	
25	-1.25000e+00	2.747446e-05	
26	-1.30000e+00	2.669959e-05	
27	-1.35000e+00	2.593000e-05	
28	-1.40000e+00	2.516564e-05	
29	-1.45000e+00	2.440651e-05	
30	-1.50000e+00	2.365257e-05	
31	-1.55000e+00	2.290382e-05	
32	-1.60000e+00	2.216024e-05	
33	-1.65000e+00	2.142182e-05	
34	-1.70000e+00	2.068855e-05	
35	-1.75000e+00	1.996045e-05	
36	-1.80000e+00	1.923752e-05	
37	-1.85000e+00	1.851981e-05	
38	-1.90000e+00	1.780736e-05	
39	-1.95000e+00	1.710025e-05	
40	-2.00000e+00	1.639858e-05	
41	-2.05000e+00	1.570252e-05	
42	-2.10000e+00	1.501229e-05	
43	-2.15000e+00	1.432820e-05	
44	-2.20000e+00	1.365072e-05	
45	-2.25000e+00	1.298049e-05	
46	-2.30000e+00	1.231846e-05	
47	-2.35000e+00	1.166598e-05	
48	-2.40000e+00	1.102497e-05	
49	-2.45000e+00	1.039818e-05	
50	-2.50000e+00	9.789396e-06	
51	-2.55000e+00	9.203536e-06	
52	-2.60000e+00	8.646510e-06	
53	-2.65000e+00	8.124451e-06	
54	-2.70000e+00	7.642434e-06	

Index   v-sweep         rds             
--------------------------------------------------------------------------------
55	-2.75000e+00	7.203160e-06	
56	-2.80000e+00	6.806395e-06	
57	-2.85000e+00	6.449489e-06	
58	-2.90000e+00	6.128479e-06	
59	-2.95000e+00	5.839082e-06	
60	-3.00000e+00	5.577281e-06	
61	-3.05000e+00	5.339537e-06	
62	-3.10000e+00	5.122819e-06	
63	-3.15000e+00	4.924551e-06	
64	-3.20000e+00	4.742546e-06	
65	-3.25000e+00	4.574935e-06	
66	-3.30000e+00	4.420121e-06	
67	-3.35000e+00	4.276725e-06	
68	-3.40000e+00	4.143558e-06	
69	-3.45000e+00	4.019584e-06	
70	-3.50000e+00	3.903902e-06	
71	-3.55000e+00	3.795721e-06	
72	-3.60000e+00	3.694347e-06	
73	-3.65000e+00	3.599167e-06	
74	-3.70000e+00	3.509638e-06	
75	-3.75000e+00	3.425279e-06	
76	-3.80000e+00	3.345660e-06	
77	-3.85000e+00	3.270399e-06	
78	-3.90000e+00	3.199151e-06	
79	-3.95000e+00	3.131607e-06	
80	-4.00000e+00	3.067489e-06	
81	-4.05000e+00	3.006547e-06	
82	-4.10000e+00	2.948552e-06	
83	-4.15000e+00	2.893299e-06	
84	-4.20000e+00	2.840599e-06	
85	-4.25000e+00	2.790281e-06	
86	-4.30000e+00	2.742190e-06	
87	-4.35000e+00	2.696181e-06	
88	-4.40000e+00	2.652125e-06	
89	-4.45000e+00	2.609901e-06	
90	-4.50000e+00	2.569398e-06	
91	-4.55000e+00	2.530514e-06	
92	-4.60000e+00	2.493155e-06	
93	-4.65000e+00	2.457234e-06	
94	-4.70000e+00	2.422671e-06	
95	-4.75000e+00	2.389391e-06	
96	-4.80000e+00	2.357324e-06	
97	-4.85000e+00	2.326406e-06	
98	-4.90000e+00	2.296577e-06	
99	-4.95000e+00	2.267782e-06	
100	-5.00000e+00	2.239968e-06	
101	-5.05000e+00	2.213086e-06	
102	-5.10000e+00	2.187091e-06	
103	-5.15000e+00	2.161941e-06	
104	-5.20000e+00	2.137595e-06	
105	-5.25000e+00	2.114015e-06	
106	-5.30000e+00	2.091168e-06	
107	-5.35000e+00	2.069019e-06	
108	-5.40000e+00	2.047538e-06	
109	-5.45000e+00	2.026695e-06	
110	-5.50000e+00	2.006462e-06	
111	-5.55000e+00	1.986815e-06	
112	-5.60000e+00	1.967728e-06	

Index   v-sweep         rds             
--------------------------------------------------------------------------------
113	-5.65000e+00	1.949177e-06	
114	-5.70000e+00	1.931142e-06	
115	-5.75000e+00	1.913602e-06	
116	-5.80000e+00	1.896536e-06	
117	-5.85000e+00	1.879927e-06	
118	-5.90000e+00	1.863756e-06	
119	-5.95000e+00	1.848008e-06	
120	-6.00000e+00	1.832665e-06	
121	-6.05000e+00	1.817715e-06	
122	-6.10000e+00	1.803141e-06	
123	-6.15000e+00	1.788931e-06	
124	-6.20000e+00	1.775072e-06	
125	-6.25000e+00	1.761551e-06	
126	-6.30000e+00	1.748358e-06	
127	-6.35000e+00	1.735480e-06	
128	-6.40000e+00	1.722908e-06	
129	-6.45000e+00	1.710631e-06	
130	-6.50000e+00	1.698641e-06	
131	-6.55000e+00	1.686927e-06	
132	-6.60000e+00	1.675481e-06	
Reset re-loads circuit ***************************

Circuit: ***************************

Doing analysis at TEMP = 25.000000 and TNOM = 25.000000


No. of Data Rows : 133
                          ***************************
                          DC transfer characteristic  Mon Jan  9 13:58:52  2023
--------------------------------------------------------------------------------
Index   v-sweep         rds             
--------------------------------------------------------------------------------
0	0.000000e+00	5.618994e-05	
1	-5.00000e-02	5.531637e-05	
2	-1.00000e-01	5.444792e-05	
3	-1.50000e-01	5.358457e-05	
4	-2.00000e-01	5.272628e-05	
5	-2.50000e-01	5.187305e-05	
6	-3.00000e-01	5.102483e-05	
7	-3.50000e-01	5.018159e-05	
8	-4.00000e-01	4.934332e-05	
9	-4.50000e-01	4.850998e-05	
10	-5.00000e-01	4.768154e-05	
11	-5.50000e-01	4.685798e-05	
12	-6.00000e-01	4.603927e-05	
13	-6.50000e-01	4.522538e-05	
14	-7.00000e-01	4.441629e-05	
15	-7.50000e-01	4.361197e-05	
16	-8.00000e-01	4.281239e-05	
17	-8.50000e-01	4.201753e-05	
18	-9.00000e-01	4.122736e-05	
19	-9.50000e-01	4.044184e-05	
20	-1.00000e+00	3.966097e-05	
21	-1.05000e+00	3.888470e-05	
22	-1.10000e+00	3.811302e-05	
23	-1.15000e+00	3.734590e-05	
24	-1.20000e+00	3.658332e-05	
25	-1.25000e+00	3.582524e-05	
26	-1.30000e+00	3.507164e-05	
27	-1.35000e+00	3.432251e-05	
28	-1.40000e+00	3.357782e-05	
29	-1.45000e+00	3.283753e-05	
30	-1.50000e+00	3.210164e-05	
31	-1.55000e+00	3.137011e-05	
32	-1.60000e+00	3.064294e-05	
33	-1.65000e+00	2.992008e-05	
34	-1.70000e+00	2.920154e-05	
35	-1.75000e+00	2.848728e-05	
36	-1.80000e+00	2.777728e-05	
37	-1.85000e+00	2.707154e-05	
38	-1.90000e+00	2.637004e-05	
39	-1.95000e+00	2.567276e-05	
40	-2.00000e+00	2.497969e-05	
41	-2.05000e+00	2.429083e-05	
42	-2.10000e+00	2.360616e-05	
43	-2.15000e+00	2.292569e-05	
44	-2.20000e+00	2.224943e-05	
45	-2.25000e+00	2.157737e-05	
46	-2.30000e+00	2.090955e-05	
47	-2.35000e+00	2.024598e-05	
48	-2.40000e+00	1.958671e-05	
49	-2.45000e+00	1.893179e-05	
50	-2.50000e+00	1.828131e-05	
51	-2.55000e+00	1.763537e-05	
52	-2.60000e+00	1.699413e-05	
53	-2.65000e+00	1.635777e-05	
54	-2.70000e+00	1.572657e-05	

Index   v-sweep         rds             
--------------------------------------------------------------------------------
55	-2.75000e+00	1.510090e-05	
56	-2.80000e+00	1.448125e-05	
57	-2.85000e+00	1.386831e-05	
58	-2.90000e+00	1.326300e-05	
59	-2.95000e+00	1.266658e-05	
60	-3.00000e+00	1.208071e-05	
61	-3.05000e+00	1.150759e-05	
62	-3.10000e+00	1.094995e-05	
63	-3.15000e+00	1.041103e-05	
64	-3.20000e+00	9.894330e-06	
65	-3.25000e+00	9.403222e-06	
66	-3.30000e+00	8.940441e-06	
67	-3.35000e+00	8.507717e-06	
68	-3.40000e+00	8.105633e-06	
69	-3.45000e+00	7.733731e-06	
70	-3.50000e+00	7.390755e-06	
71	-3.55000e+00	7.074936e-06	
72	-3.60000e+00	6.784232e-06	
73	-3.65000e+00	6.516517e-06	
74	-3.70000e+00	6.269698e-06	
75	-3.75000e+00	6.041797e-06	
76	-3.80000e+00	5.830988e-06	
77	-3.85000e+00	5.635607e-06	
78	-3.90000e+00	5.454161e-06	
79	-3.95000e+00	5.285311e-06	
80	-4.00000e+00	5.127865e-06	
81	-4.05000e+00	4.980762e-06	
82	-4.10000e+00	4.843060e-06	
83	-4.15000e+00	4.713917e-06	
84	-4.20000e+00	4.592586e-06	
85	-4.25000e+00	4.478400e-06	
86	-4.30000e+00	4.370763e-06	
87	-4.35000e+00	4.269140e-06	
88	-4.40000e+00	4.173051e-06	
89	-4.45000e+00	4.082067e-06	
90	-4.50000e+00	3.995798e-06	
91	-4.55000e+00	3.913894e-06	
92	-4.60000e+00	3.836037e-06	
93	-4.65000e+00	3.761940e-06	
94	-4.70000e+00	3.691340e-06	
95	-4.75000e+00	3.623999e-06	
96	-4.80000e+00	3.559700e-06	
97	-4.85000e+00	3.498243e-06	
98	-4.90000e+00	3.439449e-06	
99	-4.95000e+00	3.383148e-06	
100	-5.00000e+00	3.329188e-06	
101	-5.05000e+00	3.277428e-06	
102	-5.10000e+00	3.227737e-06	
103	-5.15000e+00	3.179996e-06	
104	-5.20000e+00	3.134093e-06	
105	-5.25000e+00	3.089925e-06	
106	-5.30000e+00	3.047397e-06	
107	-5.35000e+00	3.006421e-06	
108	-5.40000e+00	2.966914e-06	
109	-5.45000e+00	2.928799e-06	
110	-5.50000e+00	2.892006e-06	
111	-5.55000e+00	2.856466e-06	
112	-5.60000e+00	2.822119e-06	

Index   v-sweep         rds             
--------------------------------------------------------------------------------
113	-5.65000e+00	2.788906e-06	
114	-5.70000e+00	2.756772e-06	
115	-5.75000e+00	2.725666e-06	
116	-5.80000e+00	2.695541e-06	
117	-5.85000e+00	2.666351e-06	
118	-5.90000e+00	2.638054e-06	
119	-5.95000e+00	2.610610e-06	
120	-6.00000e+00	2.583983e-06	
121	-6.05000e+00	2.558135e-06	
122	-6.10000e+00	2.533036e-06	
123	-6.15000e+00	2.508652e-06	
124	-6.20000e+00	2.484954e-06	
125	-6.25000e+00	2.461915e-06	
126	-6.30000e+00	2.439508e-06	
127	-6.35000e+00	2.417708e-06	
128	-6.40000e+00	2.396490e-06	
129	-6.45000e+00	2.375834e-06	
130	-6.50000e+00	2.355716e-06	
131	-6.55000e+00	2.336118e-06	
132	-6.60000e+00	2.317020e-06	
Reset re-loads circuit ***************************

Circuit: ***************************

Note: No ".plot", ".print", or ".fourier" lines; no simulations run
