
Note: Compatibility modes selected: hs

Warning: m=xx on .subckt line will override multiplier m hierarchy!


Circuit: ***************************

Doing analysis at TEMP = 125.000000 and TNOM = 125.000000


No. of Data Rows : 133
                          ***************************
                          DC transfer characteristic  Mon Jan  9 13:58:53  2023
--------------------------------------------------------------------------------
Index   v-sweep         rds             
--------------------------------------------------------------------------------
0	0.000000e+00	2.573606e-07	
1	-5.00000e-02	1.971064e-07	
2	-1.00000e-01	1.377778e-07	
3	-1.50000e-01	8.164046e-08	
4	-2.00000e-01	3.631977e-08	
5	-2.50000e-01	1.228601e-08	
6	-3.00000e-01	4.361522e-09	
7	-3.50000e-01	2.006936e-09	
8	-4.00000e-01	1.187295e-09	
9	-4.50000e-01	8.414330e-10	
10	-5.00000e-01	6.696546e-10	
11	-5.50000e-01	5.724387e-10	
12	-6.00000e-01	5.113879e-10	
13	-6.50000e-01	4.697383e-10	
14	-7.00000e-01	4.393970e-10	
15	-7.50000e-01	4.161199e-10	
16	-8.00000e-01	3.975219e-10	
17	-8.50000e-01	3.821810e-10	
18	-9.00000e-01	3.692052e-10	
19	-9.50000e-01	3.580099e-10	
20	-1.00000e+00	3.481962e-10	
21	-1.05000e+00	3.394828e-10	
22	-1.10000e+00	3.316653e-10	
23	-1.15000e+00	3.245909e-10	
24	-1.20000e+00	3.181426e-10	
25	-1.25000e+00	3.122291e-10	
26	-1.30000e+00	3.067779e-10	
27	-1.35000e+00	3.017301e-10	
28	-1.40000e+00	2.970375e-10	
29	-1.45000e+00	2.926601e-10	
30	-1.50000e+00	2.885641e-10	
31	-1.55000e+00	2.847208e-10	
32	-1.60000e+00	2.811059e-10	
33	-1.65000e+00	2.776979e-10	
34	-1.70000e+00	2.744786e-10	
35	-1.75000e+00	2.714316e-10	
36	-1.80000e+00	2.685429e-10	
37	-1.85000e+00	2.657997e-10	
38	-1.90000e+00	2.631909e-10	
39	-1.95000e+00	2.607063e-10	
40	-2.00000e+00	2.583371e-10	
41	-2.05000e+00	2.560750e-10	
42	-2.10000e+00	2.539127e-10	
43	-2.15000e+00	2.518437e-10	
44	-2.20000e+00	2.498617e-10	
45	-2.25000e+00	2.479614e-10	
46	-2.30000e+00	2.461376e-10	
47	-2.35000e+00	2.443857e-10	
48	-2.40000e+00	2.427015e-10	
49	-2.45000e+00	2.410811e-10	
50	-2.50000e+00	2.395208e-10	
51	-2.55000e+00	2.380173e-10	
52	-2.60000e+00	2.365676e-10	
53	-2.65000e+00	2.351687e-10	
54	-2.70000e+00	2.338181e-10	

Index   v-sweep         rds             
--------------------------------------------------------------------------------
55	-2.75000e+00	2.325132e-10	
56	-2.80000e+00	2.312517e-10	
57	-2.85000e+00	2.300315e-10	
58	-2.90000e+00	2.288506e-10	
59	-2.95000e+00	2.277071e-10	
60	-3.00000e+00	2.265993e-10	
61	-3.05000e+00	2.255254e-10	
62	-3.10000e+00	2.244841e-10	
63	-3.15000e+00	2.234737e-10	
64	-3.20000e+00	2.224930e-10	
65	-3.25000e+00	2.215406e-10	
66	-3.30000e+00	2.206154e-10	
67	-3.35000e+00	2.197162e-10	
68	-3.40000e+00	2.188419e-10	
69	-3.45000e+00	2.179916e-10	
70	-3.50000e+00	2.171642e-10	
71	-3.55000e+00	2.163589e-10	
72	-3.60000e+00	2.155748e-10	
73	-3.65000e+00	2.148111e-10	
74	-3.70000e+00	2.140670e-10	
75	-3.75000e+00	2.133417e-10	
76	-3.80000e+00	2.126347e-10	
77	-3.85000e+00	2.119452e-10	
78	-3.90000e+00	2.112727e-10	
79	-3.95000e+00	2.106164e-10	
80	-4.00000e+00	2.099760e-10	
81	-4.05000e+00	2.093507e-10	
82	-4.10000e+00	2.087401e-10	
83	-4.15000e+00	2.081438e-10	
84	-4.20000e+00	2.075612e-10	
85	-4.25000e+00	2.069920e-10	
86	-4.30000e+00	2.064356e-10	
87	-4.35000e+00	2.058918e-10	
88	-4.40000e+00	2.053600e-10	
89	-4.45000e+00	2.048400e-10	
90	-4.50000e+00	2.043314e-10	
91	-4.55000e+00	2.038339e-10	
92	-4.60000e+00	2.033471e-10	
93	-4.65000e+00	2.028708e-10	
94	-4.70000e+00	2.024046e-10	
95	-4.75000e+00	2.019482e-10	
96	-4.80000e+00	2.015015e-10	
97	-4.85000e+00	2.010641e-10	
98	-4.90000e+00	2.006359e-10	
99	-4.95000e+00	2.002164e-10	
100	-5.00000e+00	1.998056e-10	
101	-5.05000e+00	1.994033e-10	
102	-5.10000e+00	1.990091e-10	
103	-5.15000e+00	1.986230e-10	
104	-5.20000e+00	1.982447e-10	
105	-5.25000e+00	1.978740e-10	
106	-5.30000e+00	1.975108e-10	
107	-5.35000e+00	1.971548e-10	
108	-5.40000e+00	1.968060e-10	
109	-5.45000e+00	1.964642e-10	
110	-5.50000e+00	1.961292e-10	
111	-5.55000e+00	1.958008e-10	
112	-5.60000e+00	1.954790e-10	

Index   v-sweep         rds             
--------------------------------------------------------------------------------
113	-5.65000e+00	1.951635e-10	
114	-5.70000e+00	1.948543e-10	
115	-5.75000e+00	1.945513e-10	
116	-5.80000e+00	1.942542e-10	
117	-5.85000e+00	1.939631e-10	
118	-5.90000e+00	1.936777e-10	
119	-5.95000e+00	1.933980e-10	
120	-6.00000e+00	1.931238e-10	
121	-6.05000e+00	1.928551e-10	
122	-6.10000e+00	1.925917e-10	
123	-6.15000e+00	1.923336e-10	
124	-6.20000e+00	1.920807e-10	
125	-6.25000e+00	1.918328e-10	
126	-6.30000e+00	1.915899e-10	
127	-6.35000e+00	1.913519e-10	
128	-6.40000e+00	1.911187e-10	
129	-6.45000e+00	1.908902e-10	
130	-6.50000e+00	1.906663e-10	
131	-6.55000e+00	1.904471e-10	
132	-6.60000e+00	1.902323e-10	
Reset re-loads circuit ***************************

Circuit: ***************************

Doing analysis at TEMP = 125.000000 and TNOM = 125.000000


No. of Data Rows : 133
                          ***************************
                          DC transfer characteristic  Mon Jan  9 13:58:53  2023
--------------------------------------------------------------------------------
Index   v-sweep         rds             
--------------------------------------------------------------------------------
0	0.000000e+00	1.255333e-06	
1	-5.00000e-02	1.186639e-06	
2	-1.00000e-01	1.117967e-06	
3	-1.50000e-01	1.049319e-06	
4	-2.00000e-01	9.806995e-07	
5	-2.50000e-01	9.121120e-07	
6	-3.00000e-01	8.435639e-07	
7	-3.50000e-01	7.750657e-07	
8	-4.00000e-01	7.066339e-07	
9	-4.50000e-01	6.382948e-07	
10	-5.00000e-01	5.700918e-07	
11	-5.50000e-01	5.020999e-07	
12	-6.00000e-01	4.344527e-07	
13	-6.50000e-01	3.673985e-07	
14	-7.00000e-01	3.014149e-07	
15	-7.50000e-01	2.374350e-07	
16	-8.00000e-01	1.772350e-07	
17	-8.50000e-01	1.238200e-07	
18	-9.00000e-01	8.097670e-08	
19	-9.50000e-01	5.103263e-08	
20	-1.00000e+00	3.272882e-08	
21	-1.05000e+00	2.241978e-08	
22	-1.10000e+00	1.670283e-08	
23	-1.15000e+00	1.342766e-08	
24	-1.20000e+00	1.144271e-08	
25	-1.25000e+00	1.016107e-08	
26	-1.30000e+00	9.281204e-09	
27	-1.35000e+00	8.642988e-09	
28	-1.40000e+00	8.157657e-09	
29	-1.45000e+00	7.773760e-09	
30	-1.50000e+00	7.460141e-09	
31	-1.55000e+00	7.197146e-09	
32	-1.60000e+00	6.971896e-09	
33	-1.65000e+00	6.775650e-09	
34	-1.70000e+00	6.602286e-09	
35	-1.75000e+00	6.447387e-09	
36	-1.80000e+00	6.307683e-09	
37	-1.85000e+00	6.180696e-09	
38	-1.90000e+00	6.064506e-09	
39	-1.95000e+00	5.957598e-09	
40	-2.00000e+00	5.858756e-09	
41	-2.05000e+00	5.766989e-09	
42	-2.10000e+00	5.681478e-09	
43	-2.15000e+00	5.601538e-09	
44	-2.20000e+00	5.526590e-09	
45	-2.25000e+00	5.456141e-09	
46	-2.30000e+00	5.389765e-09	
47	-2.35000e+00	5.327094e-09	
48	-2.40000e+00	5.267806e-09	
49	-2.45000e+00	5.211617e-09	
50	-2.50000e+00	5.158278e-09	
51	-2.55000e+00	5.107567e-09	
52	-2.60000e+00	5.059285e-09	
53	-2.65000e+00	5.013255e-09	
54	-2.70000e+00	4.969317e-09	

Index   v-sweep         rds             
--------------------------------------------------------------------------------
55	-2.75000e+00	4.927326e-09	
56	-2.80000e+00	4.887152e-09	
57	-2.85000e+00	4.848677e-09	
58	-2.90000e+00	4.811791e-09	
59	-2.95000e+00	4.776396e-09	
60	-3.00000e+00	4.742402e-09	
61	-3.05000e+00	4.709725e-09	
62	-3.10000e+00	4.678289e-09	
63	-3.15000e+00	4.648023e-09	
64	-3.20000e+00	4.618862e-09	
65	-3.25000e+00	4.590746e-09	
66	-3.30000e+00	4.563619e-09	
67	-3.35000e+00	4.537429e-09	
68	-3.40000e+00	4.512128e-09	
69	-3.45000e+00	4.487671e-09	
70	-3.50000e+00	4.464016e-09	
71	-3.55000e+00	4.441124e-09	
72	-3.60000e+00	4.418959e-09	
73	-3.65000e+00	4.397486e-09	
74	-3.70000e+00	4.376673e-09	
75	-3.75000e+00	4.356490e-09	
76	-3.80000e+00	4.336910e-09	
77	-3.85000e+00	4.317904e-09	
78	-3.90000e+00	4.299449e-09	
79	-3.95000e+00	4.281521e-09	
80	-4.00000e+00	4.264098e-09	
81	-4.05000e+00	4.247158e-09	
82	-4.10000e+00	4.230683e-09	
83	-4.15000e+00	4.214653e-09	
84	-4.20000e+00	4.199050e-09	
85	-4.25000e+00	4.183859e-09	
86	-4.30000e+00	4.169063e-09	
87	-4.35000e+00	4.154648e-09	
88	-4.40000e+00	4.140598e-09	
89	-4.45000e+00	4.126901e-09	
90	-4.50000e+00	4.113545e-09	
91	-4.55000e+00	4.100515e-09	
92	-4.60000e+00	4.087803e-09	
93	-4.65000e+00	4.075395e-09	
94	-4.70000e+00	4.063282e-09	
95	-4.75000e+00	4.051455e-09	
96	-4.80000e+00	4.039902e-09	
97	-4.85000e+00	4.028616e-09	
98	-4.90000e+00	4.017589e-09	
99	-4.95000e+00	4.006810e-09	
100	-5.00000e+00	3.996274e-09	
101	-5.05000e+00	3.985972e-09	
102	-5.10000e+00	3.975898e-09	
103	-5.15000e+00	3.966044e-09	
104	-5.20000e+00	3.956405e-09	
105	-5.25000e+00	3.946973e-09	
106	-5.30000e+00	3.937744e-09	
107	-5.35000e+00	3.928711e-09	
108	-5.40000e+00	3.919868e-09	
109	-5.45000e+00	3.911212e-09	
110	-5.50000e+00	3.902736e-09	
111	-5.55000e+00	3.894436e-09	
112	-5.60000e+00	3.886308e-09	

Index   v-sweep         rds             
--------------------------------------------------------------------------------
113	-5.65000e+00	3.878347e-09	
114	-5.70000e+00	3.870548e-09	
115	-5.75000e+00	3.862909e-09	
116	-5.80000e+00	3.855424e-09	
117	-5.85000e+00	3.848091e-09	
118	-5.90000e+00	3.840905e-09	
119	-5.95000e+00	3.833864e-09	
120	-6.00000e+00	3.826964e-09	
121	-6.05000e+00	3.820201e-09	
122	-6.10000e+00	3.813573e-09	
123	-6.15000e+00	3.807077e-09	
124	-6.20000e+00	3.800710e-09	
125	-6.25000e+00	3.794469e-09	
126	-6.30000e+00	3.788352e-09	
127	-6.35000e+00	3.782355e-09	
128	-6.40000e+00	3.776478e-09	
129	-6.45000e+00	3.770716e-09	
130	-6.50000e+00	3.765068e-09	
131	-6.55000e+00	3.759533e-09	
132	-6.60000e+00	3.754106e-09	
Reset re-loads circuit ***************************

Circuit: ***************************

Doing analysis at TEMP = 125.000000 and TNOM = 125.000000


No. of Data Rows : 133
                          ***************************
                          DC transfer characteristic  Mon Jan  9 13:58:53  2023
--------------------------------------------------------------------------------
Index   v-sweep         rds             
--------------------------------------------------------------------------------
0	0.000000e+00	2.176234e-06	
1	-5.00000e-02	2.109623e-06	
2	-1.00000e-01	2.043026e-06	
3	-1.50000e-01	1.976442e-06	
4	-2.00000e-01	1.909872e-06	
5	-2.50000e-01	1.843316e-06	
6	-3.00000e-01	1.776775e-06	
7	-3.50000e-01	1.710248e-06	
8	-4.00000e-01	1.643738e-06	
9	-4.50000e-01	1.577243e-06	
10	-5.00000e-01	1.510766e-06	
11	-5.50000e-01	1.444306e-06	
12	-6.00000e-01	1.377867e-06	
13	-6.50000e-01	1.311449e-06	
14	-7.00000e-01	1.245056e-06	
15	-7.50000e-01	1.178689e-06	
16	-8.00000e-01	1.112355e-06	
17	-8.50000e-01	1.046058e-06	
18	-9.00000e-01	9.798079e-07	
19	-9.50000e-01	9.136151e-07	
20	-1.00000e+00	8.474966e-07	
21	-1.05000e+00	7.814766e-07	
22	-1.10000e+00	7.155910e-07	
23	-1.15000e+00	6.498943e-07	
24	-1.20000e+00	5.844712e-07	
25	-1.25000e+00	5.194560e-07	
26	-1.30000e+00	4.550662e-07	
27	-1.35000e+00	3.916592e-07	
28	-1.40000e+00	3.298238e-07	
29	-1.45000e+00	2.705116e-07	
30	-1.50000e+00	2.151747e-07	
31	-1.55000e+00	1.657680e-07	
32	-1.60000e+00	1.243596e-07	
33	-1.65000e+00	9.226313e-08	
34	-1.70000e+00	6.926178e-08	
35	-1.75000e+00	5.373898e-08	
36	-1.80000e+00	4.357187e-08	
37	-1.85000e+00	3.691179e-08	
38	-1.90000e+00	3.245065e-08	
39	-1.95000e+00	2.935598e-08	
40	-2.00000e+00	2.712165e-08	
41	-2.05000e+00	2.544296e-08	
42	-2.10000e+00	2.413462e-08	
43	-2.15000e+00	2.308157e-08	
44	-2.20000e+00	2.221047e-08	
45	-2.25000e+00	2.147320e-08	
46	-2.30000e+00	2.083730e-08	
47	-2.35000e+00	2.028025e-08	
48	-2.40000e+00	1.978599e-08	
49	-2.45000e+00	1.934276e-08	
50	-2.50000e+00	1.894178e-08	
51	-2.55000e+00	1.857634e-08	
52	-2.60000e+00	1.824119e-08	
53	-2.65000e+00	1.793219e-08	
54	-2.70000e+00	1.764597e-08	

Index   v-sweep         rds             
--------------------------------------------------------------------------------
55	-2.75000e+00	1.737979e-08	
56	-2.80000e+00	1.713138e-08	
57	-2.85000e+00	1.689883e-08	
58	-2.90000e+00	1.668052e-08	
59	-2.95000e+00	1.647506e-08	
60	-3.00000e+00	1.628128e-08	
61	-3.05000e+00	1.609811e-08	
62	-3.10000e+00	1.592467e-08	
63	-3.15000e+00	1.576014e-08	
64	-3.20000e+00	1.560383e-08	
65	-3.25000e+00	1.545509e-08	
66	-3.30000e+00	1.531338e-08	
67	-3.35000e+00	1.517817e-08	
68	-3.40000e+00	1.504903e-08	
69	-3.45000e+00	1.492552e-08	
70	-3.50000e+00	1.480729e-08	
71	-3.55000e+00	1.469400e-08	
72	-3.60000e+00	1.458532e-08	
73	-3.65000e+00	1.448098e-08	
74	-3.70000e+00	1.438072e-08	
75	-3.75000e+00	1.428429e-08	
76	-3.80000e+00	1.419149e-08	
77	-3.85000e+00	1.410210e-08	
78	-3.90000e+00	1.401594e-08	
79	-3.95000e+00	1.393283e-08	
80	-4.00000e+00	1.385262e-08	
81	-4.05000e+00	1.377514e-08	
82	-4.10000e+00	1.370027e-08	
83	-4.15000e+00	1.362788e-08	
84	-4.20000e+00	1.355783e-08	
85	-4.25000e+00	1.349002e-08	
86	-4.30000e+00	1.342434e-08	
87	-4.35000e+00	1.336070e-08	
88	-4.40000e+00	1.329899e-08	
89	-4.45000e+00	1.323914e-08	
90	-4.50000e+00	1.318105e-08	
91	-4.55000e+00	1.312466e-08	
92	-4.60000e+00	1.306989e-08	
93	-4.65000e+00	1.301667e-08	
94	-4.70000e+00	1.296493e-08	
95	-4.75000e+00	1.291462e-08	
96	-4.80000e+00	1.286567e-08	
97	-4.85000e+00	1.281804e-08	
98	-4.90000e+00	1.277167e-08	
99	-4.95000e+00	1.272652e-08	
100	-5.00000e+00	1.268253e-08	
101	-5.05000e+00	1.263966e-08	
102	-5.10000e+00	1.259787e-08	
103	-5.15000e+00	1.255713e-08	
104	-5.20000e+00	1.251739e-08	
105	-5.25000e+00	1.247862e-08	
106	-5.30000e+00	1.244078e-08	
107	-5.35000e+00	1.240384e-08	
108	-5.40000e+00	1.236778e-08	
109	-5.45000e+00	1.233256e-08	
110	-5.50000e+00	1.229816e-08	
111	-5.55000e+00	1.226454e-08	
112	-5.60000e+00	1.223169e-08	

Index   v-sweep         rds             
--------------------------------------------------------------------------------
113	-5.65000e+00	1.219958e-08	
114	-5.70000e+00	1.216818e-08	
115	-5.75000e+00	1.213748e-08	
116	-5.80000e+00	1.210745e-08	
117	-5.85000e+00	1.207808e-08	
118	-5.90000e+00	1.204934e-08	
119	-5.95000e+00	1.202122e-08	
120	-6.00000e+00	1.199370e-08	
121	-6.05000e+00	1.196676e-08	
122	-6.10000e+00	1.194039e-08	
123	-6.15000e+00	1.191457e-08	
124	-6.20000e+00	1.188928e-08	
125	-6.25000e+00	1.186452e-08	
126	-6.30000e+00	1.184027e-08	
127	-6.35000e+00	1.181651e-08	
128	-6.40000e+00	1.179324e-08	
129	-6.45000e+00	1.177045e-08	
130	-6.50000e+00	1.174811e-08	
131	-6.55000e+00	1.172622e-08	
132	-6.60000e+00	1.170477e-08	
Reset re-loads circuit ***************************

Circuit: ***************************

Doing analysis at TEMP = 125.000000 and TNOM = 125.000000


No. of Data Rows : 133
                          ***************************
                          DC transfer characteristic  Mon Jan  9 13:58:53  2023
--------------------------------------------------------------------------------
Index   v-sweep         rds             
--------------------------------------------------------------------------------
0	0.000000e+00	3.022476e-06	
1	-5.00000e-02	2.958380e-06	
2	-1.00000e-01	2.894295e-06	
3	-1.50000e-01	2.830221e-06	
4	-2.00000e-01	2.766158e-06	
5	-2.50000e-01	2.702107e-06	
6	-3.00000e-01	2.638067e-06	
7	-3.50000e-01	2.574039e-06	
8	-4.00000e-01	2.510022e-06	
9	-4.50000e-01	2.446017e-06	
10	-5.00000e-01	2.382023e-06	
11	-5.50000e-01	2.318042e-06	
12	-6.00000e-01	2.254072e-06	
13	-6.50000e-01	2.190115e-06	
14	-7.00000e-01	2.126170e-06	
15	-7.50000e-01	2.062238e-06	
16	-8.00000e-01	1.998319e-06	
17	-8.50000e-01	1.934414e-06	
18	-9.00000e-01	1.870522e-06	
19	-9.50000e-01	1.806646e-06	
20	-1.00000e+00	1.742784e-06	
21	-1.05000e+00	1.678939e-06	
22	-1.10000e+00	1.615111e-06	
23	-1.15000e+00	1.551302e-06	
24	-1.20000e+00	1.487512e-06	
25	-1.25000e+00	1.423746e-06	
26	-1.30000e+00	1.360004e-06	
27	-1.35000e+00	1.296291e-06	
28	-1.40000e+00	1.232611e-06	
29	-1.45000e+00	1.168970e-06	
30	-1.50000e+00	1.105375e-06	
31	-1.55000e+00	1.041836e-06	
32	-1.60000e+00	9.783670e-07	
33	-1.65000e+00	9.149867e-07	
34	-1.70000e+00	8.517208e-07	
35	-1.75000e+00	7.886061e-07	
36	-1.80000e+00	7.256946e-07	
37	-1.85000e+00	6.630627e-07	
38	-1.90000e+00	6.008223e-07	
39	-1.95000e+00	5.391415e-07	
40	-2.00000e+00	4.782730e-07	
41	-2.05000e+00	4.185989e-07	
42	-2.10000e+00	3.606900e-07	
43	-2.15000e+00	3.053731e-07	
44	-2.20000e+00	2.537726e-07	
45	-2.25000e+00	2.072514e-07	
46	-2.30000e+00	1.671629e-07	
47	-2.35000e+00	1.344172e-07	
48	-2.40000e+00	1.090881e-07	
49	-2.45000e+00	9.037156e-08	
50	-2.50000e+00	7.693761e-08	
51	-2.55000e+00	6.738778e-08	
52	-2.60000e+00	6.054728e-08	
53	-2.65000e+00	5.554887e-08	
54	-2.70000e+00	5.179689e-08	

Index   v-sweep         rds             
--------------------------------------------------------------------------------
55	-2.75000e+00	4.889632e-08	
56	-2.80000e+00	4.658808e-08	
57	-2.85000e+00	4.470164e-08	
58	-2.90000e+00	4.312332e-08	
59	-2.95000e+00	4.177595e-08	
60	-3.00000e+00	4.060604e-08	
61	-3.05000e+00	3.957570e-08	
62	-3.10000e+00	3.865747e-08	
63	-3.15000e+00	3.783104e-08	
64	-3.20000e+00	3.708105e-08	
65	-3.25000e+00	3.639566e-08	
66	-3.30000e+00	3.576558e-08	
67	-3.35000e+00	3.518340e-08	
68	-3.40000e+00	3.464310e-08	
69	-3.45000e+00	3.413976e-08	
70	-3.50000e+00	3.366926e-08	
71	-3.55000e+00	3.322816e-08	
72	-3.60000e+00	3.281351e-08	
73	-3.65000e+00	3.242279e-08	
74	-3.70000e+00	3.205383e-08	
75	-3.75000e+00	3.170472e-08	
76	-3.80000e+00	3.137379e-08	
77	-3.85000e+00	3.105959e-08	
78	-3.90000e+00	3.076081e-08	
79	-3.95000e+00	3.047627e-08	
80	-4.00000e+00	3.020495e-08	
81	-4.05000e+00	2.994591e-08	
82	-4.10000e+00	2.969830e-08	
83	-4.15000e+00	2.946135e-08	
84	-4.20000e+00	2.923438e-08	
85	-4.25000e+00	2.901674e-08	
86	-4.30000e+00	2.880786e-08	
87	-4.35000e+00	2.860722e-08	
88	-4.40000e+00	2.841431e-08	
89	-4.45000e+00	2.822870e-08	
90	-4.50000e+00	2.804998e-08	
91	-4.55000e+00	2.787775e-08	
92	-4.60000e+00	2.771167e-08	
93	-4.65000e+00	2.755142e-08	
94	-4.70000e+00	2.739668e-08	
95	-4.75000e+00	2.724717e-08	
96	-4.80000e+00	2.710263e-08	
97	-4.85000e+00	2.696282e-08	
98	-4.90000e+00	2.682751e-08	
99	-4.95000e+00	2.669647e-08	
100	-5.00000e+00	2.656952e-08	
101	-5.05000e+00	2.644645e-08	
102	-5.10000e+00	2.632711e-08	
103	-5.15000e+00	2.621131e-08	
104	-5.20000e+00	2.609890e-08	
105	-5.25000e+00	2.598975e-08	
106	-5.30000e+00	2.588370e-08	
107	-5.35000e+00	2.578062e-08	
108	-5.40000e+00	2.568041e-08	
109	-5.45000e+00	2.558293e-08	
110	-5.50000e+00	2.548808e-08	
111	-5.55000e+00	2.539575e-08	
112	-5.60000e+00	2.530585e-08	

Index   v-sweep         rds             
--------------------------------------------------------------------------------
113	-5.65000e+00	2.521829e-08	
114	-5.70000e+00	2.513297e-08	
115	-5.75000e+00	2.504981e-08	
116	-5.80000e+00	2.496873e-08	
117	-5.85000e+00	2.488967e-08	
118	-5.90000e+00	2.481253e-08	
119	-5.95000e+00	2.473727e-08	
120	-6.00000e+00	2.466380e-08	
121	-6.05000e+00	2.459208e-08	
122	-6.10000e+00	2.452204e-08	
123	-6.15000e+00	2.445363e-08	
124	-6.20000e+00	2.438679e-08	
125	-6.25000e+00	2.432147e-08	
126	-6.30000e+00	2.425763e-08	
127	-6.35000e+00	2.419522e-08	
128	-6.40000e+00	2.413420e-08	
129	-6.45000e+00	2.407451e-08	
130	-6.50000e+00	2.401613e-08	
131	-6.55000e+00	2.395902e-08	
132	-6.60000e+00	2.390313e-08	
Reset re-loads circuit ***************************

Circuit: ***************************

Doing analysis at TEMP = 125.000000 and TNOM = 125.000000


No. of Data Rows : 133
                          ***************************
                          DC transfer characteristic  Mon Jan  9 13:58:53  2023
--------------------------------------------------------------------------------
Index   v-sweep         rds             
--------------------------------------------------------------------------------
0	0.000000e+00	3.840164e-06	
1	-5.00000e-02	3.778288e-06	
2	-1.00000e-01	3.716422e-06	
3	-1.50000e-01	3.654566e-06	
4	-2.00000e-01	3.592720e-06	
5	-2.50000e-01	3.530885e-06	
6	-3.00000e-01	3.469059e-06	
7	-3.50000e-01	3.407243e-06	
8	-4.00000e-01	3.345438e-06	
9	-4.50000e-01	3.283643e-06	
10	-5.00000e-01	3.221858e-06	
11	-5.50000e-01	3.160083e-06	
12	-6.00000e-01	3.098318e-06	
13	-6.50000e-01	3.036563e-06	
14	-7.00000e-01	2.974819e-06	
15	-7.50000e-01	2.913085e-06	
16	-8.00000e-01	2.851362e-06	
17	-8.50000e-01	2.789649e-06	
18	-9.00000e-01	2.727946e-06	
19	-9.50000e-01	2.666254e-06	
20	-1.00000e+00	2.604573e-06	
21	-1.05000e+00	2.542903e-06	
22	-1.10000e+00	2.481244e-06	
23	-1.15000e+00	2.419596e-06	
24	-1.20000e+00	2.357960e-06	
25	-1.25000e+00	2.296335e-06	
26	-1.30000e+00	2.234722e-06	
27	-1.35000e+00	2.173122e-06	
28	-1.40000e+00	2.111534e-06	
29	-1.45000e+00	2.049959e-06	
30	-1.50000e+00	1.988398e-06	
31	-1.55000e+00	1.926851e-06	
32	-1.60000e+00	1.865320e-06	
33	-1.65000e+00	1.803804e-06	
34	-1.70000e+00	1.742305e-06	
35	-1.75000e+00	1.680825e-06	
36	-1.80000e+00	1.619365e-06	
37	-1.85000e+00	1.557927e-06	
38	-1.90000e+00	1.496513e-06	
39	-1.95000e+00	1.435127e-06	
40	-2.00000e+00	1.373772e-06	
41	-2.05000e+00	1.312452e-06	
42	-2.10000e+00	1.251175e-06	
43	-2.15000e+00	1.189947e-06	
44	-2.20000e+00	1.128778e-06	
45	-2.25000e+00	1.067682e-06	
46	-2.30000e+00	1.006675e-06	
47	-2.35000e+00	9.457806e-07	
48	-2.40000e+00	8.850287e-07	
49	-2.45000e+00	8.244615e-07	
50	-2.50000e+00	7.641370e-07	
51	-2.55000e+00	7.041359e-07	
52	-2.60000e+00	6.445722e-07	
53	-2.65000e+00	5.856083e-07	
54	-2.70000e+00	5.274752e-07	

Index   v-sweep         rds             
--------------------------------------------------------------------------------
55	-2.75000e+00	4.705023e-07	
56	-2.80000e+00	4.151523e-07	
57	-2.85000e+00	3.620570e-07	
58	-2.90000e+00	3.120367e-07	
59	-2.95000e+00	2.660669e-07	
60	-3.00000e+00	2.251550e-07	
61	-3.05000e+00	1.901149e-07	
62	-3.10000e+00	1.613131e-07	
63	-3.15000e+00	1.385308e-07	
64	-3.20000e+00	1.210403e-07	
65	-3.25000e+00	1.078438e-07	
66	-3.30000e+00	9.792590e-08	
67	-3.35000e+00	9.041390e-08	
68	-3.40000e+00	8.463114e-08	
69	-3.45000e+00	8.008465e-08	
70	-3.50000e+00	7.642720e-08	
71	-3.55000e+00	7.341773e-08	
72	-3.60000e+00	7.088916e-08	
73	-3.65000e+00	6.872480e-08	
74	-3.70000e+00	6.684218e-08	
75	-3.75000e+00	6.518204e-08	
76	-3.80000e+00	6.370106e-08	
77	-3.85000e+00	6.236699e-08	
78	-3.90000e+00	6.115535e-08	
79	-3.95000e+00	6.004725e-08	
80	-4.00000e+00	5.902783e-08	
81	-4.05000e+00	5.808525e-08	
82	-4.10000e+00	5.720989e-08	
83	-4.15000e+00	5.639387e-08	
84	-4.20000e+00	5.563061e-08	
85	-4.25000e+00	5.491461e-08	
86	-4.30000e+00	5.424115e-08	
87	-4.35000e+00	5.360622e-08	
88	-4.40000e+00	5.300633e-08	
89	-4.45000e+00	5.243843e-08	
90	-4.50000e+00	5.189988e-08	
91	-4.55000e+00	5.138831e-08	
92	-4.60000e+00	5.090164e-08	
93	-4.65000e+00	5.043800e-08	
94	-4.70000e+00	4.999573e-08	
95	-4.75000e+00	4.957332e-08	
96	-4.80000e+00	4.916942e-08	
97	-4.85000e+00	4.878281e-08	
98	-4.90000e+00	4.841235e-08	
99	-4.95000e+00	4.805704e-08	
100	-5.00000e+00	4.771594e-08	
101	-5.05000e+00	4.738819e-08	
102	-5.10000e+00	4.707302e-08	
103	-5.15000e+00	4.676971e-08	
104	-5.20000e+00	4.647758e-08	
105	-5.25000e+00	4.619602e-08	
106	-5.30000e+00	4.592446e-08	
107	-5.35000e+00	4.566237e-08	
108	-5.40000e+00	4.540925e-08	
109	-5.45000e+00	4.516466e-08	
110	-5.50000e+00	4.492817e-08	
111	-5.55000e+00	4.469937e-08	
112	-5.60000e+00	4.447790e-08	

Index   v-sweep         rds             
--------------------------------------------------------------------------------
113	-5.65000e+00	4.426341e-08	
114	-5.70000e+00	4.405557e-08	
115	-5.75000e+00	4.385408e-08	
116	-5.80000e+00	4.365864e-08	
117	-5.85000e+00	4.346900e-08	
118	-5.90000e+00	4.328490e-08	
119	-5.95000e+00	4.310609e-08	
120	-6.00000e+00	4.293236e-08	
121	-6.05000e+00	4.276349e-08	
122	-6.10000e+00	4.259929e-08	
123	-6.15000e+00	4.243955e-08	
124	-6.20000e+00	4.228411e-08	
125	-6.25000e+00	4.213280e-08	
126	-6.30000e+00	4.198545e-08	
127	-6.35000e+00	4.184192e-08	
128	-6.40000e+00	4.170205e-08	
129	-6.45000e+00	4.156572e-08	
130	-6.50000e+00	4.143279e-08	
131	-6.55000e+00	4.130314e-08	
132	-6.60000e+00	4.117666e-08	
Reset re-loads circuit ***************************

Circuit: ***************************

Doing analysis at TEMP = 125.000000 and TNOM = 125.000000


No. of Data Rows : 133
                          ***************************
                          DC transfer characteristic  Mon Jan  9 13:58:53  2023
--------------------------------------------------------------------------------
Index   v-sweep         rds             
--------------------------------------------------------------------------------
0	0.000000e+00	4.634396e-06	
1	-5.00000e-02	4.574440e-06	
2	-1.00000e-01	4.514493e-06	
3	-1.50000e-01	4.454555e-06	
4	-2.00000e-01	4.394627e-06	
5	-2.50000e-01	4.334708e-06	
6	-3.00000e-01	4.274799e-06	
7	-3.50000e-01	4.214899e-06	
8	-4.00000e-01	4.155008e-06	
9	-4.50000e-01	4.095127e-06	
10	-5.00000e-01	4.035255e-06	
11	-5.50000e-01	3.975392e-06	
12	-6.00000e-01	3.915538e-06	
13	-6.50000e-01	3.855694e-06	
14	-7.00000e-01	3.795860e-06	
15	-7.50000e-01	3.736034e-06	
16	-8.00000e-01	3.676218e-06	
17	-8.50000e-01	3.616411e-06	
18	-9.00000e-01	3.556614e-06	
19	-9.50000e-01	3.496826e-06	
20	-1.00000e+00	3.437048e-06	
21	-1.05000e+00	3.377279e-06	
22	-1.10000e+00	3.317519e-06	
23	-1.15000e+00	3.257769e-06	
24	-1.20000e+00	3.198029e-06	
25	-1.25000e+00	3.138298e-06	
26	-1.30000e+00	3.078577e-06	
27	-1.35000e+00	3.018866e-06	
28	-1.40000e+00	2.959165e-06	
29	-1.45000e+00	2.899473e-06	
30	-1.50000e+00	2.839792e-06	
31	-1.55000e+00	2.780120e-06	
32	-1.60000e+00	2.720459e-06	
33	-1.65000e+00	2.660808e-06	
34	-1.70000e+00	2.601168e-06	
35	-1.75000e+00	2.541539e-06	
36	-1.80000e+00	2.481921e-06	
37	-1.85000e+00	2.422314e-06	
38	-1.90000e+00	2.362718e-06	
39	-1.95000e+00	2.303135e-06	
40	-2.00000e+00	2.243564e-06	
41	-2.05000e+00	2.184005e-06	
42	-2.10000e+00	2.124460e-06	
43	-2.15000e+00	2.064929e-06	
44	-2.20000e+00	2.005413e-06	
45	-2.25000e+00	1.945912e-06	
46	-2.30000e+00	1.886427e-06	
47	-2.35000e+00	1.826961e-06	
48	-2.40000e+00	1.767513e-06	
49	-2.45000e+00	1.708086e-06	
50	-2.50000e+00	1.648683e-06	
51	-2.55000e+00	1.589304e-06	
52	-2.60000e+00	1.529954e-06	
53	-2.65000e+00	1.470636e-06	
54	-2.70000e+00	1.411354e-06	

Index   v-sweep         rds             
--------------------------------------------------------------------------------
55	-2.75000e+00	1.352115e-06	
56	-2.80000e+00	1.292925e-06	
57	-2.85000e+00	1.233792e-06	
58	-2.90000e+00	1.174728e-06	
59	-2.95000e+00	1.115748e-06	
60	-3.00000e+00	1.056869e-06	
61	-3.05000e+00	9.981146e-07	
62	-3.10000e+00	9.395171e-07	
63	-3.15000e+00	8.811175e-07	
64	-3.20000e+00	8.229712e-07	
65	-3.25000e+00	7.651532e-07	
66	-3.30000e+00	7.077651e-07	
67	-3.35000e+00	6.509459e-07	
68	-3.40000e+00	5.948859e-07	
69	-3.45000e+00	5.398446e-07	
70	-3.50000e+00	4.861730e-07	
71	-3.55000e+00	4.343353e-07	
72	-3.60000e+00	3.849235e-07	
73	-3.65000e+00	3.386481e-07	
74	-3.70000e+00	2.962852e-07	
75	-3.75000e+00	2.585655e-07	
76	-3.80000e+00	2.260164e-07	
77	-3.85000e+00	1.988167e-07	
78	-3.90000e+00	1.767374e-07	
79	-3.95000e+00	1.592070e-07	
80	-4.00000e+00	1.454644e-07	
81	-4.05000e+00	1.347202e-07	
82	-4.10000e+00	1.262682e-07	
83	-4.15000e+00	1.195340e-07	
84	-4.20000e+00	1.140775e-07	
85	-4.25000e+00	1.095739e-07	
86	-4.30000e+00	1.057875e-07	
87	-4.35000e+00	1.025487e-07	
88	-4.40000e+00	9.973495e-08	
89	-4.45000e+00	9.725707e-08	
90	-4.50000e+00	9.504937e-08	
91	-4.55000e+00	9.306274e-08	
92	-4.60000e+00	9.125993e-08	
93	-4.65000e+00	8.961218e-08	
94	-4.70000e+00	8.809698e-08	
95	-4.75000e+00	8.669638e-08	
96	-4.80000e+00	8.539590e-08	
97	-4.85000e+00	8.418367e-08	
98	-4.90000e+00	8.304986e-08	
99	-4.95000e+00	8.198620e-08	
100	-5.00000e+00	8.098569e-08	
101	-5.05000e+00	8.004233e-08	
102	-5.10000e+00	7.915094e-08	
103	-5.15000e+00	7.830701e-08	
104	-5.20000e+00	7.750659e-08	
105	-5.25000e+00	7.674620e-08	
106	-5.30000e+00	7.602274e-08	
107	-5.35000e+00	7.533346e-08	
108	-5.40000e+00	7.467587e-08	
109	-5.45000e+00	7.404777e-08	
110	-5.50000e+00	7.344713e-08	
111	-5.55000e+00	7.287216e-08	
112	-5.60000e+00	7.232118e-08	

Index   v-sweep         rds             
--------------------------------------------------------------------------------
113	-5.65000e+00	7.179269e-08	
114	-5.70000e+00	7.128531e-08	
115	-5.75000e+00	7.079778e-08	
116	-5.80000e+00	7.032893e-08	
117	-5.85000e+00	6.987770e-08	
118	-5.90000e+00	6.944310e-08	
119	-5.95000e+00	6.902421e-08	
120	-6.00000e+00	6.862018e-08	
121	-6.05000e+00	6.823024e-08	
122	-6.10000e+00	6.785365e-08	
123	-6.15000e+00	6.748974e-08	
124	-6.20000e+00	6.713787e-08	
125	-6.25000e+00	6.679745e-08	
126	-6.30000e+00	6.646793e-08	
127	-6.35000e+00	6.614879e-08	
128	-6.40000e+00	6.583955e-08	
129	-6.45000e+00	6.553975e-08	
130	-6.50000e+00	6.524898e-08	
131	-6.55000e+00	6.496682e-08	
132	-6.60000e+00	6.469290e-08	
Reset re-loads circuit ***************************

Circuit: ***************************

Note: No ".plot", ".print", or ".fourier" lines; no simulations run
