
Note: Compatibility modes selected: hs

Warning: m=xx on .subckt line will override multiplier m hierarchy!


Circuit: ***************************

Doing analysis at TEMP = 25.000000 and TNOM = 25.000000


No. of Data Rows : 133
                          ***************************
                          DC transfer characteristic  Mon Jan  9 13:58:51  2023
--------------------------------------------------------------------------------
Index   v-sweep         rds             
--------------------------------------------------------------------------------
0	0.000000e+00	1.030719e-04	
1	-5.00000e-02	7.201183e-05	
2	-1.00000e-01	4.277933e-05	
3	-1.50000e-01	1.924769e-05	
4	-2.00000e-01	7.578739e-06	
5	-2.50000e-01	4.230413e-06	
6	-3.00000e-01	3.265509e-06	
7	-3.50000e-01	2.878616e-06	
8	-4.00000e-01	2.668788e-06	
9	-4.50000e-01	2.530387e-06	
10	-5.00000e-01	2.428134e-06	
11	-5.50000e-01	2.347501e-06	
12	-6.00000e-01	2.281379e-06	
13	-6.50000e-01	2.225785e-06	
14	-7.00000e-01	2.178241e-06	
15	-7.50000e-01	2.137079e-06	
16	-8.00000e-01	2.101113e-06	
17	-8.50000e-01	2.069458e-06	
18	-9.00000e-01	2.041436e-06	
19	-9.50000e-01	2.016511e-06	
20	-1.00000e+00	1.994254e-06	
21	-1.05000e+00	1.974315e-06	
22	-1.10000e+00	1.956403e-06	
23	-1.15000e+00	1.940277e-06	
24	-1.20000e+00	1.925731e-06	
25	-1.25000e+00	1.912592e-06	
26	-1.30000e+00	1.900711e-06	
27	-1.35000e+00	1.889959e-06	
28	-1.40000e+00	1.880224e-06	
29	-1.45000e+00	1.871410e-06	
30	-1.50000e+00	1.863431e-06	
31	-1.55000e+00	1.856212e-06	
32	-1.60000e+00	1.849686e-06	
33	-1.65000e+00	1.843795e-06	
34	-1.70000e+00	1.838487e-06	
35	-1.75000e+00	1.833714e-06	
36	-1.80000e+00	1.829435e-06	
37	-1.85000e+00	1.825611e-06	
38	-1.90000e+00	1.822210e-06	
39	-1.95000e+00	1.819199e-06	
40	-2.00000e+00	1.816552e-06	
41	-2.05000e+00	1.814243e-06	
42	-2.10000e+00	1.812250e-06	
43	-2.15000e+00	1.810550e-06	
44	-2.20000e+00	1.809125e-06	
45	-2.25000e+00	1.807957e-06	
46	-2.30000e+00	1.807031e-06	
47	-2.35000e+00	1.806331e-06	
48	-2.40000e+00	1.805844e-06	
49	-2.45000e+00	1.805557e-06	
50	-2.50000e+00	1.805458e-06	
51	-2.55000e+00	1.805538e-06	
52	-2.60000e+00	1.805786e-06	
53	-2.65000e+00	1.806192e-06	
54	-2.70000e+00	1.806748e-06	

Index   v-sweep         rds             
--------------------------------------------------------------------------------
55	-2.75000e+00	1.807447e-06	
56	-2.80000e+00	1.808280e-06	
57	-2.85000e+00	1.809242e-06	
58	-2.90000e+00	1.810325e-06	
59	-2.95000e+00	1.811523e-06	
60	-3.00000e+00	1.812831e-06	
61	-3.05000e+00	1.814243e-06	
62	-3.10000e+00	1.815756e-06	
63	-3.15000e+00	1.817363e-06	
64	-3.20000e+00	1.819060e-06	
65	-3.25000e+00	1.820845e-06	
66	-3.30000e+00	1.822712e-06	
67	-3.35000e+00	1.824658e-06	
68	-3.40000e+00	1.826680e-06	
69	-3.45000e+00	1.828774e-06	
70	-3.50000e+00	1.830938e-06	
71	-3.55000e+00	1.833169e-06	
72	-3.60000e+00	1.835464e-06	
73	-3.65000e+00	1.837820e-06	
74	-3.70000e+00	1.840236e-06	
75	-3.75000e+00	1.842708e-06	
76	-3.80000e+00	1.845235e-06	
77	-3.85000e+00	1.847815e-06	
78	-3.90000e+00	1.850446e-06	
79	-3.95000e+00	1.853125e-06	
80	-4.00000e+00	1.855853e-06	
81	-4.05000e+00	1.858626e-06	
82	-4.10000e+00	1.861443e-06	
83	-4.15000e+00	1.864303e-06	
84	-4.20000e+00	1.867205e-06	
85	-4.25000e+00	1.870147e-06	
86	-4.30000e+00	1.873128e-06	
87	-4.35000e+00	1.876147e-06	
88	-4.40000e+00	1.879202e-06	
89	-4.45000e+00	1.882294e-06	
90	-4.50000e+00	1.885420e-06	
91	-4.55000e+00	1.888580e-06	
92	-4.60000e+00	1.891774e-06	
93	-4.65000e+00	1.894999e-06	
94	-4.70000e+00	1.898256e-06	
95	-4.75000e+00	1.901544e-06	
96	-4.80000e+00	1.904861e-06	
97	-4.85000e+00	1.908208e-06	
98	-4.90000e+00	1.911584e-06	
99	-4.95000e+00	1.914988e-06	
100	-5.00000e+00	1.918420e-06	
101	-5.05000e+00	1.921879e-06	
102	-5.10000e+00	1.925365e-06	
103	-5.15000e+00	1.928877e-06	
104	-5.20000e+00	1.932414e-06	
105	-5.25000e+00	1.935977e-06	
106	-5.30000e+00	1.939566e-06	
107	-5.35000e+00	1.943178e-06	
108	-5.40000e+00	1.946816e-06	
109	-5.45000e+00	1.950477e-06	
110	-5.50000e+00	1.954162e-06	
111	-5.55000e+00	1.957870e-06	
112	-5.60000e+00	1.961602e-06	

Index   v-sweep         rds             
--------------------------------------------------------------------------------
113	-5.65000e+00	1.965357e-06	
114	-5.70000e+00	1.969134e-06	
115	-5.75000e+00	1.972934e-06	
116	-5.80000e+00	1.976757e-06	
117	-5.85000e+00	1.980601e-06	
118	-5.90000e+00	1.984468e-06	
119	-5.95000e+00	1.988357e-06	
120	-6.00000e+00	1.992267e-06	
121	-6.05000e+00	1.996199e-06	
122	-6.10000e+00	2.000152e-06	
123	-6.15000e+00	2.004127e-06	
124	-6.20000e+00	2.008123e-06	
125	-6.25000e+00	2.012141e-06	
126	-6.30000e+00	2.016179e-06	
127	-6.35000e+00	2.020239e-06	
128	-6.40000e+00	2.024319e-06	
129	-6.45000e+00	2.028421e-06	
130	-6.50000e+00	2.032543e-06	
131	-6.55000e+00	2.036686e-06	
132	-6.60000e+00	2.040850e-06	
Reset re-loads circuit ***************************

Circuit: ***************************

Doing analysis at TEMP = 25.000000 and TNOM = 25.000000


No. of Data Rows : 133
                          ***************************
                          DC transfer characteristic  Mon Jan  9 13:58:51  2023
--------------------------------------------------------------------------------
Index   v-sweep         rds             
--------------------------------------------------------------------------------
0	0.000000e+00	6.445880e-04	
1	-5.00000e-02	6.070261e-04	
2	-1.00000e-01	5.699631e-04	
3	-1.50000e-01	5.333931e-04	
4	-2.00000e-01	4.973105e-04	
5	-2.50000e-01	4.617109e-04	
6	-3.00000e-01	4.265909e-04	
7	-3.50000e-01	3.919494e-04	
8	-4.00000e-01	3.577888e-04	
9	-4.50000e-01	3.241170e-04	
10	-5.00000e-01	2.909525e-04	
11	-5.50000e-01	2.583321e-04	
12	-6.00000e-01	2.263293e-04	
13	-6.50000e-01	1.950892e-04	
14	-7.00000e-01	1.649007e-04	
15	-7.50000e-01	1.363284e-04	
16	-8.00000e-01	1.103771e-04	
17	-8.50000e-01	8.844232e-05	
18	-9.00000e-01	7.161209e-05	
19	-9.50000e-01	5.972896e-05	
20	-1.00000e+00	5.156508e-05	
21	-1.05000e+00	4.580097e-05	
22	-1.10000e+00	4.152474e-05	
23	-1.15000e+00	3.819974e-05	
24	-1.20000e+00	3.551741e-05	
25	-1.25000e+00	3.329351e-05	
26	-1.30000e+00	3.141162e-05	
27	-1.35000e+00	2.979395e-05	
28	-1.40000e+00	2.838600e-05	
29	-1.45000e+00	2.714810e-05	
30	-1.50000e+00	2.605040e-05	
31	-1.55000e+00	2.506994e-05	
32	-1.60000e+00	2.418866e-05	
33	-1.65000e+00	2.339211e-05	
34	-1.70000e+00	2.266861e-05	
35	-1.75000e+00	2.200852e-05	
36	-1.80000e+00	2.140388e-05	
37	-1.85000e+00	2.084802e-05	
38	-1.90000e+00	2.033530e-05	
39	-1.95000e+00	1.986092e-05	
40	-2.00000e+00	1.942078e-05	
41	-2.05000e+00	1.901135e-05	
42	-2.10000e+00	1.862957e-05	
43	-2.15000e+00	1.827275e-05	
44	-2.20000e+00	1.793858e-05	
45	-2.25000e+00	1.762499e-05	
46	-2.30000e+00	1.733019e-05	
47	-2.35000e+00	1.705255e-05	
48	-2.40000e+00	1.679066e-05	
49	-2.45000e+00	1.654324e-05	
50	-2.50000e+00	1.630916e-05	
51	-2.55000e+00	1.608738e-05	
52	-2.60000e+00	1.587700e-05	
53	-2.65000e+00	1.567718e-05	
54	-2.70000e+00	1.548716e-05	

Index   v-sweep         rds             
--------------------------------------------------------------------------------
55	-2.75000e+00	1.530626e-05	
56	-2.80000e+00	1.513386e-05	
57	-2.85000e+00	1.496940e-05	
58	-2.90000e+00	1.481236e-05	
59	-2.95000e+00	1.466227e-05	
60	-3.00000e+00	1.451868e-05	
61	-3.05000e+00	1.438121e-05	
62	-3.10000e+00	1.424949e-05	
63	-3.15000e+00	1.412318e-05	
64	-3.20000e+00	1.400196e-05	
65	-3.25000e+00	1.388555e-05	
66	-3.30000e+00	1.377368e-05	
67	-3.35000e+00	1.366611e-05	
68	-3.40000e+00	1.356259e-05	
69	-3.45000e+00	1.346293e-05	
70	-3.50000e+00	1.336692e-05	
71	-3.55000e+00	1.327437e-05	
72	-3.60000e+00	1.318511e-05	
73	-3.65000e+00	1.309898e-05	
74	-3.70000e+00	1.301582e-05	
75	-3.75000e+00	1.293551e-05	
76	-3.80000e+00	1.285789e-05	
77	-3.85000e+00	1.278286e-05	
78	-3.90000e+00	1.271028e-05	
79	-3.95000e+00	1.264006e-05	
80	-4.00000e+00	1.257208e-05	
81	-4.05000e+00	1.250626e-05	
82	-4.10000e+00	1.244250e-05	
83	-4.15000e+00	1.238070e-05	
84	-4.20000e+00	1.232080e-05	
85	-4.25000e+00	1.226272e-05	
86	-4.30000e+00	1.220638e-05	
87	-4.35000e+00	1.215171e-05	
88	-4.40000e+00	1.209865e-05	
89	-4.45000e+00	1.204714e-05	
90	-4.50000e+00	1.199711e-05	
91	-4.55000e+00	1.194853e-05	
92	-4.60000e+00	1.190132e-05	
93	-4.65000e+00	1.185545e-05	
94	-4.70000e+00	1.181087e-05	
95	-4.75000e+00	1.176753e-05	
96	-4.80000e+00	1.172540e-05	
97	-4.85000e+00	1.168442e-05	
98	-4.90000e+00	1.164457e-05	
99	-4.95000e+00	1.160580e-05	
100	-5.00000e+00	1.156809e-05	
101	-5.05000e+00	1.153140e-05	
102	-5.10000e+00	1.149570e-05	
103	-5.15000e+00	1.146096e-05	
104	-5.20000e+00	1.142715e-05	
105	-5.25000e+00	1.139426e-05	
106	-5.30000e+00	1.136224e-05	
107	-5.35000e+00	1.133108e-05	
108	-5.40000e+00	1.130075e-05	
109	-5.45000e+00	1.127124e-05	
110	-5.50000e+00	1.124252e-05	
111	-5.55000e+00	1.121458e-05	
112	-5.60000e+00	1.118738e-05	

Index   v-sweep         rds             
--------------------------------------------------------------------------------
113	-5.65000e+00	1.116092e-05	
114	-5.70000e+00	1.113518e-05	
115	-5.75000e+00	1.111015e-05	
116	-5.80000e+00	1.108579e-05	
117	-5.85000e+00	1.106211e-05	
118	-5.90000e+00	1.103909e-05	
119	-5.95000e+00	1.101671e-05	
120	-6.00000e+00	1.099496e-05	
121	-6.05000e+00	1.097383e-05	
122	-6.10000e+00	1.095331e-05	
123	-6.15000e+00	1.093338e-05	
124	-6.20000e+00	1.091403e-05	
125	-6.25000e+00	1.089526e-05	
126	-6.30000e+00	1.087705e-05	
127	-6.35000e+00	1.085940e-05	
128	-6.40000e+00	1.084228e-05	
129	-6.45000e+00	1.082571e-05	
130	-6.50000e+00	1.080965e-05	
131	-6.55000e+00	1.079412e-05	
132	-6.60000e+00	1.077910e-05	
Reset re-loads circuit ***************************

Circuit: ***************************

Doing analysis at TEMP = 25.000000 and TNOM = 25.000000


No. of Data Rows : 133
                          ***************************
                          DC transfer characteristic  Mon Jan  9 13:58:51  2023
--------------------------------------------------------------------------------
Index   v-sweep         rds             
--------------------------------------------------------------------------------
0	0.000000e+00	1.035141e-03	
1	-5.00000e-02	9.994526e-04	
2	-1.00000e-01	9.641596e-04	
3	-1.50000e-01	9.292575e-04	
4	-2.00000e-01	8.947416e-04	
5	-2.50000e-01	8.606073e-04	
6	-3.00000e-01	8.268502e-04	
7	-3.50000e-01	7.934659e-04	
8	-4.00000e-01	7.604501e-04	
9	-4.50000e-01	7.277987e-04	
10	-5.00000e-01	6.955077e-04	
11	-5.50000e-01	6.635733e-04	
12	-6.00000e-01	6.319919e-04	
13	-6.50000e-01	6.007603e-04	
14	-7.00000e-01	5.698756e-04	
15	-7.50000e-01	5.393354e-04	
16	-8.00000e-01	5.091380e-04	
17	-8.50000e-01	4.792827e-04	
18	-9.00000e-01	4.497702e-04	
19	-9.50000e-01	4.206036e-04	
20	-1.00000e+00	3.917890e-04	
21	-1.05000e+00	3.633381e-04	
22	-1.10000e+00	3.352709e-04	
23	-1.15000e+00	3.076218e-04	
24	-1.20000e+00	2.804496e-04	
25	-1.25000e+00	2.538542e-04	
26	-1.30000e+00	2.280051e-04	
27	-1.35000e+00	2.031812e-04	
28	-1.40000e+00	1.798068e-04	
29	-1.45000e+00	1.584350e-04	
30	-1.50000e+00	1.396081e-04	
31	-1.55000e+00	1.236257e-04	
32	-1.60000e+00	1.104125e-04	
33	-1.65000e+00	9.960876e-05	
34	-1.70000e+00	9.076002e-05	
35	-1.75000e+00	8.344744e-05	
36	-1.80000e+00	7.733317e-05	
37	-1.85000e+00	7.215884e-05	
38	-1.90000e+00	6.772996e-05	
39	-1.95000e+00	6.389988e-05	
40	-2.00000e+00	6.055691e-05	
41	-2.05000e+00	5.761496e-05	
42	-2.10000e+00	5.500683e-05	
43	-2.15000e+00	5.267935e-05	
44	-2.20000e+00	5.058997e-05	
45	-2.25000e+00	4.870430e-05	
46	-2.30000e+00	4.699418e-05	
47	-2.35000e+00	4.543642e-05	
48	-2.40000e+00	4.401172e-05	
49	-2.45000e+00	4.270387e-05	
50	-2.50000e+00	4.149920e-05	
51	-2.55000e+00	4.038608e-05	
52	-2.60000e+00	3.935456e-05	
53	-2.65000e+00	3.839607e-05	
54	-2.70000e+00	3.750320e-05	

Index   v-sweep         rds             
--------------------------------------------------------------------------------
55	-2.75000e+00	3.666951e-05	
56	-2.80000e+00	3.588937e-05	
57	-2.85000e+00	3.515784e-05	
58	-2.90000e+00	3.447057e-05	
59	-2.95000e+00	3.382370e-05	
60	-3.00000e+00	3.321383e-05	
61	-3.05000e+00	3.263791e-05	
62	-3.10000e+00	3.209322e-05	
63	-3.15000e+00	3.157733e-05	
64	-3.20000e+00	3.108804e-05	
65	-3.25000e+00	3.062338e-05	
66	-3.30000e+00	3.018157e-05	
67	-3.35000e+00	2.976098e-05	
68	-3.40000e+00	2.936016e-05	
69	-3.45000e+00	2.897776e-05	
70	-3.50000e+00	2.861257e-05	
71	-3.55000e+00	2.826348e-05	
72	-3.60000e+00	2.792946e-05	
73	-3.65000e+00	2.760957e-05	
74	-3.70000e+00	2.730297e-05	
75	-3.75000e+00	2.700885e-05	
76	-3.80000e+00	2.672649e-05	
77	-3.85000e+00	2.645521e-05	
78	-3.90000e+00	2.619439e-05	
79	-3.95000e+00	2.594345e-05	
80	-4.00000e+00	2.570186e-05	
81	-4.05000e+00	2.546911e-05	
82	-4.10000e+00	2.524474e-05	
83	-4.15000e+00	2.502832e-05	
84	-4.20000e+00	2.481946e-05	
85	-4.25000e+00	2.461776e-05	
86	-4.30000e+00	2.442289e-05	
87	-4.35000e+00	2.423452e-05	
88	-4.40000e+00	2.405233e-05	
89	-4.45000e+00	2.387604e-05	
90	-4.50000e+00	2.370538e-05	
91	-4.55000e+00	2.354010e-05	
92	-4.60000e+00	2.337995e-05	
93	-4.65000e+00	2.322472e-05	
94	-4.70000e+00	2.307419e-05	
95	-4.75000e+00	2.292816e-05	
96	-4.80000e+00	2.278645e-05	
97	-4.85000e+00	2.264887e-05	
98	-4.90000e+00	2.251528e-05	
99	-4.95000e+00	2.238550e-05	
100	-5.00000e+00	2.225938e-05	
101	-5.05000e+00	2.213680e-05	
102	-5.10000e+00	2.201761e-05	
103	-5.15000e+00	2.190169e-05	
104	-5.20000e+00	2.178892e-05	
105	-5.25000e+00	2.167919e-05	
106	-5.30000e+00	2.157239e-05	
107	-5.35000e+00	2.146843e-05	
108	-5.40000e+00	2.136720e-05	
109	-5.45000e+00	2.126861e-05	
110	-5.50000e+00	2.117259e-05	
111	-5.55000e+00	2.107904e-05	
112	-5.60000e+00	2.098789e-05	

Index   v-sweep         rds             
--------------------------------------------------------------------------------
113	-5.65000e+00	2.089907e-05	
114	-5.70000e+00	2.081251e-05	
115	-5.75000e+00	2.072814e-05	
116	-5.80000e+00	2.064589e-05	
117	-5.85000e+00	2.056572e-05	
118	-5.90000e+00	2.048755e-05	
119	-5.95000e+00	2.041134e-05	
120	-6.00000e+00	2.033704e-05	
121	-6.05000e+00	2.026459e-05	
122	-6.10000e+00	2.019396e-05	
123	-6.15000e+00	2.012509e-05	
124	-6.20000e+00	2.005794e-05	
125	-6.25000e+00	1.999247e-05	
126	-6.30000e+00	1.992865e-05	
127	-6.35000e+00	1.986644e-05	
128	-6.40000e+00	1.980580e-05	
129	-6.45000e+00	1.974669e-05	
130	-6.50000e+00	1.968910e-05	
131	-6.55000e+00	1.963298e-05	
132	-6.60000e+00	1.957831e-05	
Reset re-loads circuit ***************************

Circuit: ***************************

Doing analysis at TEMP = 25.000000 and TNOM = 25.000000


No. of Data Rows : 133
                          ***************************
                          DC transfer characteristic  Mon Jan  9 13:58:51  2023
--------------------------------------------------------------------------------
Index   v-sweep         rds             
--------------------------------------------------------------------------------
0	0.000000e+00	1.332211e-03	
1	-5.00000e-02	1.298733e-03	
2	-1.00000e-01	1.265579e-03	
3	-1.50000e-01	1.232744e-03	
4	-2.00000e-01	1.200226e-03	
5	-2.50000e-01	1.168021e-03	
6	-3.00000e-01	1.136125e-03	
7	-3.50000e-01	1.104536e-03	
8	-4.00000e-01	1.073250e-03	
9	-4.50000e-01	1.042264e-03	
10	-5.00000e-01	1.011575e-03	
11	-5.50000e-01	9.811802e-04	
12	-6.00000e-01	9.510760e-04	
13	-6.50000e-01	9.212597e-04	
14	-7.00000e-01	8.917282e-04	
15	-7.50000e-01	8.624787e-04	
16	-8.00000e-01	8.335084e-04	
17	-8.50000e-01	8.048145e-04	
18	-9.00000e-01	7.763944e-04	
19	-9.50000e-01	7.482453e-04	
20	-1.00000e+00	7.203649e-04	
21	-1.05000e+00	6.927506e-04	
22	-1.10000e+00	6.654004e-04	
23	-1.15000e+00	6.383119e-04	
24	-1.20000e+00	6.114834e-04	
25	-1.25000e+00	5.849131e-04	
26	-1.30000e+00	5.585998e-04	
27	-1.35000e+00	5.325423e-04	
28	-1.40000e+00	5.067404e-04	
29	-1.45000e+00	4.811943e-04	
30	-1.50000e+00	4.559054e-04	
31	-1.55000e+00	4.308764e-04	
32	-1.60000e+00	4.061124e-04	
33	-1.65000e+00	3.816215e-04	
34	-1.70000e+00	3.574170e-04	
35	-1.75000e+00	3.335203e-04	
36	-1.80000e+00	3.099661e-04	
37	-1.85000e+00	2.868120e-04	
38	-1.90000e+00	2.641535e-04	
39	-1.95000e+00	2.421464e-04	
40	-2.00000e+00	2.210298e-04	
41	-2.05000e+00	2.011259e-04	
42	-2.10000e+00	1.827878e-04	
43	-2.15000e+00	1.662978e-04	
44	-2.20000e+00	1.517782e-04	
45	-2.25000e+00	1.391776e-04	
46	-2.30000e+00	1.283226e-04	
47	-2.35000e+00	1.189860e-04	
48	-2.40000e+00	1.109363e-04	
49	-2.45000e+00	1.039636e-04	
50	-2.50000e+00	9.788872e-05	
51	-2.55000e+00	9.256281e-05	
52	-2.60000e+00	8.786424e-05	
53	-2.65000e+00	8.369398e-05	
54	-2.70000e+00	7.997139e-05	

Index   v-sweep         rds             
--------------------------------------------------------------------------------
55	-2.75000e+00	7.663056e-05	
56	-2.80000e+00	7.361737e-05	
57	-2.85000e+00	7.088712e-05	
58	-2.90000e+00	6.840265e-05	
59	-2.95000e+00	6.613288e-05	
60	-3.00000e+00	6.405164e-05	
61	-3.05000e+00	6.213678e-05	
62	-3.10000e+00	6.036944e-05	
63	-3.15000e+00	5.873345e-05	
64	-3.20000e+00	5.721492e-05	
65	-3.25000e+00	5.580179e-05	
66	-3.30000e+00	5.448362e-05	
67	-3.35000e+00	5.325126e-05	
68	-3.40000e+00	5.209671e-05	
69	-3.45000e+00	5.101293e-05	
70	-3.50000e+00	4.999367e-05	
71	-3.55000e+00	4.903343e-05	
72	-3.60000e+00	4.812728e-05	
73	-3.65000e+00	4.727084e-05	
74	-3.70000e+00	4.646017e-05	
75	-3.75000e+00	4.569176e-05	
76	-3.80000e+00	4.496243e-05	
77	-3.85000e+00	4.426932e-05	
78	-3.90000e+00	4.360982e-05	
79	-3.95000e+00	4.298158e-05	
80	-4.00000e+00	4.238248e-05	
81	-4.05000e+00	4.181055e-05	
82	-4.10000e+00	4.126402e-05	
83	-4.15000e+00	4.074125e-05	
84	-4.20000e+00	4.024077e-05	
85	-4.25000e+00	3.976119e-05	
86	-4.30000e+00	3.930125e-05	
87	-4.35000e+00	3.885980e-05	
88	-4.40000e+00	3.843576e-05	
89	-4.45000e+00	3.802814e-05	
90	-4.50000e+00	3.763603e-05	
91	-4.55000e+00	3.725856e-05	
92	-4.60000e+00	3.689497e-05	
93	-4.65000e+00	3.654450e-05	
94	-4.70000e+00	3.620648e-05	
95	-4.75000e+00	3.588027e-05	
96	-4.80000e+00	3.556527e-05	
97	-4.85000e+00	3.526095e-05	
98	-4.90000e+00	3.496676e-05	
99	-4.95000e+00	3.468225e-05	
100	-5.00000e+00	3.440693e-05	
101	-5.05000e+00	3.414040e-05	
102	-5.10000e+00	3.388226e-05	
103	-5.15000e+00	3.363212e-05	
104	-5.20000e+00	3.338964e-05	
105	-5.25000e+00	3.315449e-05	
106	-5.30000e+00	3.292634e-05	
107	-5.35000e+00	3.270492e-05	
108	-5.40000e+00	3.248994e-05	
109	-5.45000e+00	3.228115e-05	
110	-5.50000e+00	3.207828e-05	
111	-5.55000e+00	3.188113e-05	
112	-5.60000e+00	3.168946e-05	

Index   v-sweep         rds             
--------------------------------------------------------------------------------
113	-5.65000e+00	3.150307e-05	
114	-5.70000e+00	3.132175e-05	
115	-5.75000e+00	3.114534e-05	
116	-5.80000e+00	3.097365e-05	
117	-5.85000e+00	3.080651e-05	
118	-5.90000e+00	3.064377e-05	
119	-5.95000e+00	3.048528e-05	
120	-6.00000e+00	3.033091e-05	
121	-6.05000e+00	3.018050e-05	
122	-6.10000e+00	3.003395e-05	
123	-6.15000e+00	2.989113e-05	
124	-6.20000e+00	2.975192e-05	
125	-6.25000e+00	2.961622e-05	
126	-6.30000e+00	2.948393e-05	
127	-6.35000e+00	2.935494e-05	
128	-6.40000e+00	2.922917e-05	
129	-6.45000e+00	2.910653e-05	
130	-6.50000e+00	2.898693e-05	
131	-6.55000e+00	2.887030e-05	
132	-6.60000e+00	2.875656e-05	
Reset re-loads circuit ***************************

Circuit: ***************************

Doing analysis at TEMP = 25.000000 and TNOM = 25.000000


No. of Data Rows : 133
                          ***************************
                          DC transfer characteristic  Mon Jan  9 13:58:51  2023
--------------------------------------------------------------------------------
Index   v-sweep         rds             
--------------------------------------------------------------------------------
0	0.000000e+00	1.572607e-03	
1	-5.00000e-02	1.541178e-03	
2	-1.00000e-01	1.510019e-03	
3	-1.50000e-01	1.479128e-03	
4	-2.00000e-01	1.448503e-03	
5	-2.50000e-01	1.418140e-03	
6	-3.00000e-01	1.388038e-03	
7	-3.50000e-01	1.358194e-03	
8	-4.00000e-01	1.328605e-03	
9	-4.50000e-01	1.299270e-03	
10	-5.00000e-01	1.270185e-03	
11	-5.50000e-01	1.241348e-03	
12	-6.00000e-01	1.212758e-03	
13	-6.50000e-01	1.184412e-03	
14	-7.00000e-01	1.156306e-03	
15	-7.50000e-01	1.128441e-03	
16	-8.00000e-01	1.100812e-03	
17	-8.50000e-01	1.073417e-03	
18	-9.00000e-01	1.046255e-03	
19	-9.50000e-01	1.019324e-03	
20	-1.00000e+00	9.926209e-04	
21	-1.05000e+00	9.661438e-04	
22	-1.10000e+00	9.398908e-04	
23	-1.15000e+00	9.138599e-04	
24	-1.20000e+00	8.880489e-04	
25	-1.25000e+00	8.624561e-04	
26	-1.30000e+00	8.370793e-04	
27	-1.35000e+00	8.119168e-04	
28	-1.40000e+00	7.869666e-04	
29	-1.45000e+00	7.622270e-04	
30	-1.50000e+00	7.376961e-04	
31	-1.55000e+00	7.133723e-04	
32	-1.60000e+00	6.892539e-04	
33	-1.65000e+00	6.653392e-04	
34	-1.70000e+00	6.416265e-04	
35	-1.75000e+00	6.181144e-04	
36	-1.80000e+00	5.948013e-04	
37	-1.85000e+00	5.716855e-04	
38	-1.90000e+00	5.487654e-04	
39	-1.95000e+00	5.260393e-04	
40	-2.00000e+00	5.035051e-04	
41	-2.05000e+00	4.811605e-04	
42	-2.10000e+00	4.590022e-04	
43	-2.15000e+00	4.370261e-04	
44	-2.20000e+00	4.152262e-04	
45	-2.25000e+00	3.935942e-04	
46	-2.30000e+00	3.721192e-04	
47	-2.35000e+00	3.507885e-04	
48	-2.40000e+00	3.295922e-04	
49	-2.45000e+00	3.085357e-04	
50	-2.50000e+00	2.876656e-04	
51	-2.55000e+00	2.671072e-04	
52	-2.60000e+00	2.470966e-04	
53	-2.65000e+00	2.279698e-04	
54	-2.70000e+00	2.100883e-04	

Index   v-sweep         rds             
--------------------------------------------------------------------------------
55	-2.75000e+00	1.937371e-04	
56	-2.80000e+00	1.790577e-04	
57	-2.85000e+00	1.660466e-04	
58	-2.90000e+00	1.545968e-04	
59	-2.95000e+00	1.445482e-04	
60	-3.00000e+00	1.357247e-04	
61	-3.05000e+00	1.279571e-04	
62	-3.10000e+00	1.210932e-04	
63	-3.15000e+00	1.150013e-04	
64	-3.20000e+00	1.095693e-04	
65	-3.25000e+00	1.047030e-04	
66	-3.30000e+00	1.003236e-04	
67	-3.35000e+00	9.636505e-05	
68	-3.40000e+00	9.277206e-05	
69	-3.45000e+00	8.949805e-05	
70	-3.50000e+00	8.650371e-05	
71	-3.55000e+00	8.375569e-05	
72	-3.60000e+00	8.122557e-05	
73	-3.65000e+00	7.888903e-05	
74	-3.70000e+00	7.672515e-05	
75	-3.75000e+00	7.471585e-05	
76	-3.80000e+00	7.284544e-05	
77	-3.85000e+00	7.110026e-05	
78	-3.90000e+00	6.946835e-05	
79	-3.95000e+00	6.793920e-05	
80	-4.00000e+00	6.650355e-05	
81	-4.05000e+00	6.515321e-05	
82	-4.10000e+00	6.388091e-05	
83	-4.15000e+00	6.268016e-05	
84	-4.20000e+00	6.154519e-05	
85	-4.25000e+00	6.047081e-05	
86	-4.30000e+00	5.945235e-05	
87	-4.35000e+00	5.848563e-05	
88	-4.40000e+00	5.756685e-05	
89	-4.45000e+00	5.669259e-05	
90	-4.50000e+00	5.585973e-05	
91	-4.55000e+00	5.506543e-05	
92	-4.60000e+00	5.430713e-05	
93	-4.65000e+00	5.358246e-05	
94	-4.70000e+00	5.288927e-05	
95	-4.75000e+00	5.222558e-05	
96	-4.80000e+00	5.158957e-05	
97	-4.85000e+00	5.097958e-05	
98	-4.90000e+00	5.039407e-05	
99	-4.95000e+00	4.983161e-05	
100	-5.00000e+00	4.929090e-05	
101	-5.05000e+00	4.877071e-05	
102	-5.10000e+00	4.826992e-05	
103	-5.15000e+00	4.778750e-05	
104	-5.20000e+00	4.732245e-05	
105	-5.25000e+00	4.687389e-05	
106	-5.30000e+00	4.644096e-05	
107	-5.35000e+00	4.602288e-05	
108	-5.40000e+00	4.561892e-05	
109	-5.45000e+00	4.522839e-05	
110	-5.50000e+00	4.485065e-05	
111	-5.55000e+00	4.448510e-05	
112	-5.60000e+00	4.413118e-05	

Index   v-sweep         rds             
--------------------------------------------------------------------------------
113	-5.65000e+00	4.378835e-05	
114	-5.70000e+00	4.345613e-05	
115	-5.75000e+00	4.313404e-05	
116	-5.80000e+00	4.282164e-05	
117	-5.85000e+00	4.251853e-05	
118	-5.90000e+00	4.222431e-05	
119	-5.95000e+00	4.193863e-05	
120	-6.00000e+00	4.166113e-05	
121	-6.05000e+00	4.139149e-05	
122	-6.10000e+00	4.112941e-05	
123	-6.15000e+00	4.087459e-05	
124	-6.20000e+00	4.062676e-05	
125	-6.25000e+00	4.038566e-05	
126	-6.30000e+00	4.015105e-05	
127	-6.35000e+00	3.992270e-05	
128	-6.40000e+00	3.970039e-05	
129	-6.45000e+00	3.948391e-05	
130	-6.50000e+00	3.927307e-05	
131	-6.55000e+00	3.906767e-05	
132	-6.60000e+00	3.886756e-05	
Reset re-loads circuit ***************************

Circuit: ***************************

Doing analysis at TEMP = 25.000000 and TNOM = 25.000000


No. of Data Rows : 133
                          ***************************
                          DC transfer characteristic  Mon Jan  9 13:58:51  2023
--------------------------------------------------------------------------------
Index   v-sweep         rds             
--------------------------------------------------------------------------------
0	0.000000e+00	1.765012e-03	
1	-5.00000e-02	1.735463e-03	
2	-1.00000e-01	1.706145e-03	
3	-1.50000e-01	1.677055e-03	
4	-2.00000e-01	1.648192e-03	
5	-2.50000e-01	1.619554e-03	
6	-3.00000e-01	1.591138e-03	
7	-3.50000e-01	1.562944e-03	
8	-4.00000e-01	1.534968e-03	
9	-4.50000e-01	1.507209e-03	
10	-5.00000e-01	1.479665e-03	
11	-5.50000e-01	1.452335e-03	
12	-6.00000e-01	1.425216e-03	
13	-6.50000e-01	1.398307e-03	
14	-7.00000e-01	1.371606e-03	
15	-7.50000e-01	1.345111e-03	
16	-8.00000e-01	1.318820e-03	
17	-8.50000e-01	1.292732e-03	
18	-9.00000e-01	1.266845e-03	
19	-9.50000e-01	1.241157e-03	
20	-1.00000e+00	1.215666e-03	
21	-1.05000e+00	1.190371e-03	
22	-1.10000e+00	1.165270e-03	
23	-1.15000e+00	1.140361e-03	
24	-1.20000e+00	1.115643e-03	
25	-1.25000e+00	1.091114e-03	
26	-1.30000e+00	1.066773e-03	
27	-1.35000e+00	1.042618e-03	
28	-1.40000e+00	1.018647e-03	
29	-1.45000e+00	9.948589e-04	
30	-1.50000e+00	9.712522e-04	
31	-1.55000e+00	9.478254e-04	
32	-1.60000e+00	9.245769e-04	
33	-1.65000e+00	9.015053e-04	
34	-1.70000e+00	8.786091e-04	
35	-1.75000e+00	8.558870e-04	
36	-1.80000e+00	8.333374e-04	
37	-1.85000e+00	8.109591e-04	
38	-1.90000e+00	7.887505e-04	
39	-1.95000e+00	7.667104e-04	
40	-2.00000e+00	7.448373e-04	
41	-2.05000e+00	7.231297e-04	
42	-2.10000e+00	7.015862e-04	
43	-2.15000e+00	6.802053e-04	
44	-2.20000e+00	6.589854e-04	
45	-2.25000e+00	6.379247e-04	
46	-2.30000e+00	6.170211e-04	
47	-2.35000e+00	5.962723e-04	
48	-2.40000e+00	5.756756e-04	
49	-2.45000e+00	5.552272e-04	
50	-2.50000e+00	5.349225e-04	
51	-2.55000e+00	5.147552e-04	
52	-2.60000e+00	4.947165e-04	
53	-2.65000e+00	4.747943e-04	
54	-2.70000e+00	4.549713e-04	

Index   v-sweep         rds             
--------------------------------------------------------------------------------
55	-2.75000e+00	4.352236e-04	
56	-2.80000e+00	4.155179e-04	
57	-2.85000e+00	3.958110e-04	
58	-2.90000e+00	3.760506e-04	
59	-2.95000e+00	3.561840e-04	
60	-3.00000e+00	3.361796e-04	
61	-3.05000e+00	3.160646e-04	
62	-3.10000e+00	2.959693e-04	
63	-3.15000e+00	2.761532e-04	
64	-3.20000e+00	2.569771e-04	
65	-3.25000e+00	2.388210e-04	
66	-3.30000e+00	2.219904e-04	
67	-3.35000e+00	2.066598e-04	
68	-3.40000e+00	1.928709e-04	
69	-3.45000e+00	1.805655e-04	
70	-3.50000e+00	1.696260e-04	
71	-3.55000e+00	1.599095e-04	
72	-3.60000e+00	1.512693e-04	
73	-3.65000e+00	1.435676e-04	
74	-3.70000e+00	1.366803e-04	
75	-3.75000e+00	1.304988e-04	
76	-3.80000e+00	1.249298e-04	
77	-3.85000e+00	1.198932e-04	
78	-3.90000e+00	1.153210e-04	
79	-3.95000e+00	1.111553e-04	
80	-4.00000e+00	1.073467e-04	
81	-4.05000e+00	1.038530e-04	
82	-4.10000e+00	1.006382e-04	
83	-4.15000e+00	9.767117e-05	
84	-4.20000e+00	9.492526e-05	
85	-4.25000e+00	9.237728e-05	
86	-4.30000e+00	9.000710e-05	
87	-4.35000e+00	8.779715e-05	
88	-4.40000e+00	8.573208e-05	
89	-4.45000e+00	8.379837e-05	
90	-4.50000e+00	8.198412e-05	
91	-4.55000e+00	8.027878e-05	
92	-4.60000e+00	7.867302e-05	
93	-4.65000e+00	7.715849e-05	
94	-4.70000e+00	7.572776e-05	
95	-4.75000e+00	7.437418e-05	
96	-4.80000e+00	7.309177e-05	
97	-4.85000e+00	7.187515e-05	
98	-4.90000e+00	7.071944e-05	
99	-4.95000e+00	6.962027e-05	
100	-5.00000e+00	6.857364e-05	
101	-5.05000e+00	6.757592e-05	
102	-5.10000e+00	6.662382e-05	
103	-5.15000e+00	6.571432e-05	
104	-5.20000e+00	6.484467e-05	
105	-5.25000e+00	6.401235e-05	
106	-5.30000e+00	6.321503e-05	
107	-5.35000e+00	6.245060e-05	
108	-5.40000e+00	6.171708e-05	
109	-5.45000e+00	6.101266e-05	
110	-5.50000e+00	6.033569e-05	
111	-5.55000e+00	5.968460e-05	
112	-5.60000e+00	5.905797e-05	

Index   v-sweep         rds             
--------------------------------------------------------------------------------
113	-5.65000e+00	5.845447e-05	
114	-5.70000e+00	5.787286e-05	
115	-5.75000e+00	5.731200e-05	
116	-5.80000e+00	5.677081e-05	
117	-5.85000e+00	5.624830e-05	
118	-5.90000e+00	5.574355e-05	
119	-5.95000e+00	5.525567e-05	
120	-6.00000e+00	5.478385e-05	
121	-6.05000e+00	5.432735e-05	
122	-6.10000e+00	5.388544e-05	
123	-6.15000e+00	5.345745e-05	
124	-6.20000e+00	5.304276e-05	
125	-6.25000e+00	5.264078e-05	
126	-6.30000e+00	5.225095e-05	
127	-6.35000e+00	5.187276e-05	
128	-6.40000e+00	5.150571e-05	
129	-6.45000e+00	5.114935e-05	
130	-6.50000e+00	5.080323e-05	
131	-6.55000e+00	5.046695e-05	
132	-6.60000e+00	5.014013e-05	
Reset re-loads circuit ***************************

Circuit: ***************************

Note: No ".plot", ".print", or ".fourier" lines; no simulations run
