
Note: Compatibility modes selected: hs

Warning: m=xx on .subckt line will override multiplier m hierarchy!


Circuit: ***************************

Doing analysis at TEMP = 125.000000 and TNOM = 125.000000


No. of Data Rows : 133
                          ***************************
                          DC transfer characteristic  Mon Jan  9 13:58:53  2023
--------------------------------------------------------------------------------
Index   v-sweep         rds             
--------------------------------------------------------------------------------
0	0.000000e+00	1.108330e-04	
1	-5.00000e-02	9.101462e-05	
2	-1.00000e-01	7.146101e-05	
3	-1.50000e-01	5.235172e-05	
4	-2.00000e-01	3.426637e-05	
5	-2.50000e-01	1.893914e-05	
6	-3.00000e-01	9.220245e-06	
7	-3.50000e-01	5.084094e-06	
8	-4.00000e-01	3.606005e-06	
9	-4.50000e-01	3.010790e-06	
10	-5.00000e-01	2.711776e-06	
11	-5.50000e-01	2.528586e-06	
12	-6.00000e-01	2.399267e-06	
13	-6.50000e-01	2.299248e-06	
14	-7.00000e-01	2.217353e-06	
15	-7.50000e-01	2.147841e-06	
16	-8.00000e-01	2.087437e-06	
17	-8.50000e-01	2.034095e-06	
18	-9.00000e-01	1.986442e-06	
19	-9.50000e-01	1.943501e-06	
20	-1.00000e+00	1.904542e-06	
21	-1.05000e+00	1.869003e-06	
22	-1.10000e+00	1.836436e-06	
23	-1.15000e+00	1.806475e-06	
24	-1.20000e+00	1.778819e-06	
25	-1.25000e+00	1.753215e-06	
26	-1.30000e+00	1.729448e-06	
27	-1.35000e+00	1.707334e-06	
28	-1.40000e+00	1.686714e-06	
29	-1.45000e+00	1.667448e-06	
30	-1.50000e+00	1.649415e-06	
31	-1.55000e+00	1.632508e-06	
32	-1.60000e+00	1.616632e-06	
33	-1.65000e+00	1.601704e-06	
34	-1.70000e+00	1.587647e-06	
35	-1.75000e+00	1.574395e-06	
36	-1.80000e+00	1.561887e-06	
37	-1.85000e+00	1.550068e-06	
38	-1.90000e+00	1.538889e-06	
39	-1.95000e+00	1.528306e-06	
40	-2.00000e+00	1.518278e-06	
41	-2.05000e+00	1.508767e-06	
42	-2.10000e+00	1.499741e-06	
43	-2.15000e+00	1.491168e-06	
44	-2.20000e+00	1.483020e-06	
45	-2.25000e+00	1.475270e-06	
46	-2.30000e+00	1.467896e-06	
47	-2.35000e+00	1.460874e-06	
48	-2.40000e+00	1.454185e-06	
49	-2.45000e+00	1.447809e-06	
50	-2.50000e+00	1.441730e-06	
51	-2.55000e+00	1.435930e-06	
52	-2.60000e+00	1.430396e-06	
53	-2.65000e+00	1.425113e-06	
54	-2.70000e+00	1.420067e-06	

Index   v-sweep         rds             
--------------------------------------------------------------------------------
55	-2.75000e+00	1.415248e-06	
56	-2.80000e+00	1.410643e-06	
57	-2.85000e+00	1.406242e-06	
58	-2.90000e+00	1.402035e-06	
59	-2.95000e+00	1.398013e-06	
60	-3.00000e+00	1.394167e-06	
61	-3.05000e+00	1.390488e-06	
62	-3.10000e+00	1.386971e-06	
63	-3.15000e+00	1.383606e-06	
64	-3.20000e+00	1.380388e-06	
65	-3.25000e+00	1.377309e-06	
66	-3.30000e+00	1.374365e-06	
67	-3.35000e+00	1.371549e-06	
68	-3.40000e+00	1.368856e-06	
69	-3.45000e+00	1.366280e-06	
70	-3.50000e+00	1.363818e-06	
71	-3.55000e+00	1.361465e-06	
72	-3.60000e+00	1.359216e-06	
73	-3.65000e+00	1.357067e-06	
74	-3.70000e+00	1.355015e-06	
75	-3.75000e+00	1.353056e-06	
76	-3.80000e+00	1.351186e-06	
77	-3.85000e+00	1.349403e-06	
78	-3.90000e+00	1.347703e-06	
79	-3.95000e+00	1.346083e-06	
80	-4.00000e+00	1.344541e-06	
81	-4.05000e+00	1.343074e-06	
82	-4.10000e+00	1.341679e-06	
83	-4.15000e+00	1.340354e-06	
84	-4.20000e+00	1.339096e-06	
85	-4.25000e+00	1.337905e-06	
86	-4.30000e+00	1.336777e-06	
87	-4.35000e+00	1.335710e-06	
88	-4.40000e+00	1.334703e-06	
89	-4.45000e+00	1.333755e-06	
90	-4.50000e+00	1.332863e-06	
91	-4.55000e+00	1.332025e-06	
92	-4.60000e+00	1.331241e-06	
93	-4.65000e+00	1.330509e-06	
94	-4.70000e+00	1.329827e-06	
95	-4.75000e+00	1.329194e-06	
96	-4.80000e+00	1.328609e-06	
97	-4.85000e+00	1.328071e-06	
98	-4.90000e+00	1.327579e-06	
99	-4.95000e+00	1.327131e-06	
100	-5.00000e+00	1.326727e-06	
101	-5.05000e+00	1.326365e-06	
102	-5.10000e+00	1.326044e-06	
103	-5.15000e+00	1.325765e-06	
104	-5.20000e+00	1.325525e-06	
105	-5.25000e+00	1.325324e-06	
106	-5.30000e+00	1.325162e-06	
107	-5.35000e+00	1.325037e-06	
108	-5.40000e+00	1.324949e-06	
109	-5.45000e+00	1.324897e-06	
110	-5.50000e+00	1.324881e-06	
111	-5.55000e+00	1.324900e-06	
112	-5.60000e+00	1.324953e-06	

Index   v-sweep         rds             
--------------------------------------------------------------------------------
113	-5.65000e+00	1.325039e-06	
114	-5.70000e+00	1.325159e-06	
115	-5.75000e+00	1.325312e-06	
116	-5.80000e+00	1.325497e-06	
117	-5.85000e+00	1.325713e-06	
118	-5.90000e+00	1.325961e-06	
119	-5.95000e+00	1.326240e-06	
120	-6.00000e+00	1.326549e-06	
121	-6.05000e+00	1.326888e-06	
122	-6.10000e+00	1.327257e-06	
123	-6.15000e+00	1.327656e-06	
124	-6.20000e+00	1.328083e-06	
125	-6.25000e+00	1.328539e-06	
126	-6.30000e+00	1.329023e-06	
127	-6.35000e+00	1.329535e-06	
128	-6.40000e+00	1.330075e-06	
129	-6.45000e+00	1.330642e-06	
130	-6.50000e+00	1.331236e-06	
131	-6.55000e+00	1.331857e-06	
132	-6.60000e+00	1.332505e-06	
Reset re-loads circuit ***************************

Circuit: ***************************

Doing analysis at TEMP = 125.000000 and TNOM = 125.000000


No. of Data Rows : 133
                          ***************************
                          DC transfer characteristic  Mon Jan  9 13:58:53  2023
--------------------------------------------------------------------------------
Index   v-sweep         rds             
--------------------------------------------------------------------------------
0	0.000000e+00	4.424047e-04	
1	-5.00000e-02	4.209796e-04	
2	-1.00000e-01	3.996858e-04	
3	-1.50000e-01	3.785228e-04	
4	-2.00000e-01	3.574904e-04	
5	-2.50000e-01	3.365885e-04	
6	-3.00000e-01	3.158174e-04	
7	-3.50000e-01	2.951778e-04	
8	-4.00000e-01	2.746710e-04	
9	-4.50000e-01	2.542995e-04	
10	-5.00000e-01	2.340673e-04	
11	-5.50000e-01	2.139814e-04	
12	-6.00000e-01	1.940531e-04	
13	-6.50000e-01	1.743020e-04	
14	-7.00000e-01	1.547623e-04	
15	-7.50000e-01	1.354955e-04	
16	-8.00000e-01	1.166150e-04	
17	-8.50000e-01	9.833287e-05	
18	-9.00000e-01	8.103573e-05	
19	-9.50000e-01	6.536502e-05	
20	-1.00000e+00	5.216124e-05	
21	-1.05000e+00	4.207073e-05	
22	-1.10000e+00	3.503617e-05	
23	-1.15000e+00	3.034568e-05	
24	-1.20000e+00	2.716816e-05	
25	-1.25000e+00	2.489745e-05	
26	-1.30000e+00	2.317291e-05	
27	-1.35000e+00	2.179379e-05	
28	-1.40000e+00	2.064750e-05	
29	-1.45000e+00	1.966807e-05	
30	-1.50000e+00	1.881454e-05	
31	-1.55000e+00	1.805993e-05	
32	-1.60000e+00	1.738549e-05	
33	-1.65000e+00	1.677760e-05	
34	-1.70000e+00	1.622593e-05	
35	-1.75000e+00	1.572245e-05	
36	-1.80000e+00	1.526075e-05	
37	-1.85000e+00	1.483560e-05	
38	-1.90000e+00	1.444267e-05	
39	-1.95000e+00	1.407834e-05	
40	-2.00000e+00	1.373955e-05	
41	-2.05000e+00	1.342365e-05	
42	-2.10000e+00	1.312838e-05	
43	-2.15000e+00	1.285177e-05	
44	-2.20000e+00	1.259211e-05	
45	-2.25000e+00	1.234788e-05	
46	-2.30000e+00	1.211776e-05	
47	-2.35000e+00	1.190055e-05	
48	-2.40000e+00	1.169522e-05	
49	-2.45000e+00	1.150081e-05	
50	-2.50000e+00	1.131650e-05	
51	-2.55000e+00	1.114152e-05	
52	-2.60000e+00	1.097519e-05	
53	-2.65000e+00	1.081689e-05	
54	-2.70000e+00	1.066607e-05	

Index   v-sweep         rds             
--------------------------------------------------------------------------------
55	-2.75000e+00	1.052221e-05	
56	-2.80000e+00	1.038486e-05	
57	-2.85000e+00	1.025358e-05	
58	-2.90000e+00	1.012800e-05	
59	-2.95000e+00	1.000776e-05	
60	-3.00000e+00	9.892533e-06	
61	-3.05000e+00	9.782016e-06	
62	-3.10000e+00	9.675935e-06	
63	-3.15000e+00	9.574036e-06	
64	-3.20000e+00	9.476082e-06	
65	-3.25000e+00	9.381855e-06	
66	-3.30000e+00	9.291151e-06	
67	-3.35000e+00	9.203783e-06	
68	-3.40000e+00	9.119576e-06	
69	-3.45000e+00	9.038367e-06	
70	-3.50000e+00	8.960003e-06	
71	-3.55000e+00	8.884343e-06	
72	-3.60000e+00	8.811254e-06	
73	-3.65000e+00	8.740612e-06	
74	-3.70000e+00	8.672302e-06	
75	-3.75000e+00	8.606212e-06	
76	-3.80000e+00	8.542243e-06	
77	-3.85000e+00	8.480298e-06	
78	-3.90000e+00	8.420286e-06	
79	-3.95000e+00	8.362123e-06	
80	-4.00000e+00	8.305728e-06	
81	-4.05000e+00	8.251027e-06	
82	-4.10000e+00	8.197948e-06	
83	-4.15000e+00	8.146424e-06	
84	-4.20000e+00	8.096393e-06	
85	-4.25000e+00	8.047793e-06	
86	-4.30000e+00	8.000570e-06	
87	-4.35000e+00	7.954668e-06	
88	-4.40000e+00	7.910038e-06	
89	-4.45000e+00	7.866631e-06	
90	-4.50000e+00	7.824403e-06	
91	-4.55000e+00	7.783309e-06	
92	-4.60000e+00	7.743310e-06	
93	-4.65000e+00	7.704366e-06	
94	-4.70000e+00	7.666440e-06	
95	-4.75000e+00	7.629498e-06	
96	-4.80000e+00	7.593507e-06	
97	-4.85000e+00	7.558434e-06	
98	-4.90000e+00	7.524250e-06	
99	-4.95000e+00	7.490927e-06	
100	-5.00000e+00	7.458436e-06	
101	-5.05000e+00	7.426753e-06	
102	-5.10000e+00	7.395853e-06	
103	-5.15000e+00	7.365712e-06	
104	-5.20000e+00	7.336308e-06	
105	-5.25000e+00	7.307620e-06	
106	-5.30000e+00	7.279627e-06	
107	-5.35000e+00	7.252310e-06	
108	-5.40000e+00	7.225652e-06	
109	-5.45000e+00	7.199633e-06	
110	-5.50000e+00	7.174238e-06	
111	-5.55000e+00	7.149451e-06	
112	-5.60000e+00	7.125255e-06	

Index   v-sweep         rds             
--------------------------------------------------------------------------------
113	-5.65000e+00	7.101637e-06	
114	-5.70000e+00	7.078583e-06	
115	-5.75000e+00	7.056079e-06	
116	-5.80000e+00	7.034113e-06	
117	-5.85000e+00	7.012672e-06	
118	-5.90000e+00	6.991745e-06	
119	-5.95000e+00	6.971321e-06	
120	-6.00000e+00	6.951388e-06	
121	-6.05000e+00	6.931937e-06	
122	-6.10000e+00	6.912958e-06	
123	-6.15000e+00	6.894442e-06	
124	-6.20000e+00	6.876378e-06	
125	-6.25000e+00	6.858760e-06	
126	-6.30000e+00	6.841578e-06	
127	-6.35000e+00	6.824824e-06	
128	-6.40000e+00	6.808491e-06	
129	-6.45000e+00	6.792572e-06	
130	-6.50000e+00	6.777059e-06	
131	-6.55000e+00	6.761945e-06	
132	-6.60000e+00	6.747224e-06	
Reset re-loads circuit ***************************

Circuit: ***************************

Doing analysis at TEMP = 125.000000 and TNOM = 125.000000


No. of Data Rows : 133
                          ***************************
                          DC transfer characteristic  Mon Jan  9 13:58:53  2023
--------------------------------------------------------------------------------
Index   v-sweep         rds             
--------------------------------------------------------------------------------
0	0.000000e+00	7.012353e-04	
1	-5.00000e-02	6.808886e-04	
2	-1.00000e-01	6.606504e-04	
3	-1.50000e-01	6.405202e-04	
4	-2.00000e-01	6.204973e-04	
5	-2.50000e-01	6.005814e-04	
6	-3.00000e-01	5.807718e-04	
7	-3.50000e-01	5.610681e-04	
8	-4.00000e-01	5.414699e-04	
9	-4.50000e-01	5.219766e-04	
10	-5.00000e-01	5.025879e-04	
11	-5.50000e-01	4.833035e-04	
12	-6.00000e-01	4.641229e-04	
13	-6.50000e-01	4.450461e-04	
14	-7.00000e-01	4.260728e-04	
15	-7.50000e-01	4.072031e-04	
16	-8.00000e-01	3.884372e-04	
17	-8.50000e-01	3.697753e-04	
18	-9.00000e-01	3.512183e-04	
19	-9.50000e-01	3.327672e-04	
20	-1.00000e+00	3.144238e-04	
21	-1.05000e+00	2.961908e-04	
22	-1.10000e+00	2.780721e-04	
23	-1.15000e+00	2.600736e-04	
24	-1.20000e+00	2.422044e-04	
25	-1.25000e+00	2.244781e-04	
26	-1.30000e+00	2.069160e-04	
27	-1.35000e+00	1.895516e-04	
28	-1.40000e+00	1.724387e-04	
29	-1.45000e+00	1.556637e-04	
30	-1.50000e+00	1.393656e-04	
31	-1.55000e+00	1.237610e-04	
32	-1.60000e+00	1.091638e-04	
33	-1.65000e+00	9.596814e-05	
34	-1.70000e+00	8.455046e-05	
35	-1.75000e+00	7.510774e-05	
36	-1.80000e+00	6.755393e-05	
37	-1.85000e+00	6.158169e-05	
38	-1.90000e+00	5.681857e-05	
39	-1.95000e+00	5.294172e-05	
40	-2.00000e+00	4.971242e-05	
41	-2.05000e+00	4.696553e-05	
42	-2.10000e+00	4.458825e-05	
43	-2.15000e+00	4.250232e-05	
44	-2.20000e+00	4.065188e-05	
45	-2.25000e+00	3.899580e-05	
46	-2.30000e+00	3.750285e-05	
47	-2.35000e+00	3.614874e-05	
48	-2.40000e+00	3.491412e-05	
49	-2.45000e+00	3.378331e-05	
50	-2.50000e+00	3.274342e-05	
51	-2.55000e+00	3.178369e-05	
52	-2.60000e+00	3.089507e-05	
53	-2.65000e+00	3.006984e-05	
54	-2.70000e+00	2.930142e-05	

Index   v-sweep         rds             
--------------------------------------------------------------------------------
55	-2.75000e+00	2.858410e-05	
56	-2.80000e+00	2.791295e-05	
57	-2.85000e+00	2.728364e-05	
58	-2.90000e+00	2.669238e-05	
59	-2.95000e+00	2.613583e-05	
60	-3.00000e+00	2.561104e-05	
61	-3.05000e+00	2.511538e-05	
62	-3.10000e+00	2.464649e-05	
63	-3.15000e+00	2.420229e-05	
64	-3.20000e+00	2.378089e-05	
65	-3.25000e+00	2.338059e-05	
66	-3.30000e+00	2.299985e-05	
67	-3.35000e+00	2.263730e-05	
68	-3.40000e+00	2.229168e-05	
69	-3.45000e+00	2.196183e-05	
70	-3.50000e+00	2.164672e-05	
71	-3.55000e+00	2.134539e-05	
72	-3.60000e+00	2.105697e-05	
73	-3.65000e+00	2.078066e-05	
74	-3.70000e+00	2.051571e-05	
75	-3.75000e+00	2.026146e-05	
76	-3.80000e+00	2.001728e-05	
77	-3.85000e+00	1.978259e-05	
78	-3.90000e+00	1.955686e-05	
79	-3.95000e+00	1.933959e-05	
80	-4.00000e+00	1.913033e-05	
81	-4.05000e+00	1.892864e-05	
82	-4.10000e+00	1.873414e-05	
83	-4.15000e+00	1.854645e-05	
84	-4.20000e+00	1.836522e-05	
85	-4.25000e+00	1.819014e-05	
86	-4.30000e+00	1.802091e-05	
87	-4.35000e+00	1.785724e-05	
88	-4.40000e+00	1.769887e-05	
89	-4.45000e+00	1.754555e-05	
90	-4.50000e+00	1.739706e-05	
91	-4.55000e+00	1.725317e-05	
92	-4.60000e+00	1.711368e-05	
93	-4.65000e+00	1.697839e-05	
94	-4.70000e+00	1.684713e-05	
95	-4.75000e+00	1.671973e-05	
96	-4.80000e+00	1.659602e-05	
97	-4.85000e+00	1.647585e-05	
98	-4.90000e+00	1.635908e-05	
99	-4.95000e+00	1.624557e-05	
100	-5.00000e+00	1.613520e-05	
101	-5.05000e+00	1.602784e-05	
102	-5.10000e+00	1.592337e-05	
103	-5.15000e+00	1.582170e-05	
104	-5.20000e+00	1.572271e-05	
105	-5.25000e+00	1.562631e-05	
106	-5.30000e+00	1.553240e-05	
107	-5.35000e+00	1.544091e-05	
108	-5.40000e+00	1.535174e-05	
109	-5.45000e+00	1.526481e-05	
110	-5.50000e+00	1.518006e-05	
111	-5.55000e+00	1.509740e-05	
112	-5.60000e+00	1.501678e-05	

Index   v-sweep         rds             
--------------------------------------------------------------------------------
113	-5.65000e+00	1.493812e-05	
114	-5.70000e+00	1.486137e-05	
115	-5.75000e+00	1.478646e-05	
116	-5.80000e+00	1.471335e-05	
117	-5.85000e+00	1.464198e-05	
118	-5.90000e+00	1.457229e-05	
119	-5.95000e+00	1.450424e-05	
120	-6.00000e+00	1.443779e-05	
121	-6.05000e+00	1.437289e-05	
122	-6.10000e+00	1.430951e-05	
123	-6.15000e+00	1.424759e-05	
124	-6.20000e+00	1.418710e-05	
125	-6.25000e+00	1.412801e-05	
126	-6.30000e+00	1.407029e-05	
127	-6.35000e+00	1.401389e-05	
128	-6.40000e+00	1.395879e-05	
129	-6.45000e+00	1.390496e-05	
130	-6.50000e+00	1.385237e-05	
131	-6.55000e+00	1.380100e-05	
132	-6.60000e+00	1.375081e-05	
Reset re-loads circuit ***************************

Circuit: ***************************

Doing analysis at TEMP = 125.000000 and TNOM = 125.000000


No. of Data Rows : 133
                          ***************************
                          DC transfer characteristic  Mon Jan  9 13:58:53  2023
--------------------------------------------------------------------------------
Index   v-sweep         rds             
--------------------------------------------------------------------------------
0	0.000000e+00	9.087954e-04	
1	-5.00000e-02	8.895373e-04	
2	-1.00000e-01	8.703725e-04	
3	-1.50000e-01	8.513005e-04	
4	-2.00000e-01	8.323209e-04	
5	-2.50000e-01	8.134331e-04	
6	-3.00000e-01	7.946369e-04	
7	-3.50000e-01	7.759317e-04	
8	-4.00000e-01	7.573171e-04	
9	-4.50000e-01	7.387926e-04	
10	-5.00000e-01	7.203579e-04	
11	-5.50000e-01	7.020125e-04	
12	-6.00000e-01	6.837560e-04	
13	-6.50000e-01	6.655880e-04	
14	-7.00000e-01	6.475081e-04	
15	-7.50000e-01	6.295160e-04	
16	-8.00000e-01	6.116112e-04	
17	-8.50000e-01	5.937935e-04	
18	-9.00000e-01	5.760625e-04	
19	-9.50000e-01	5.584179e-04	
20	-1.00000e+00	5.408593e-04	
21	-1.05000e+00	5.233867e-04	
22	-1.10000e+00	5.059998e-04	
23	-1.15000e+00	4.886984e-04	
24	-1.20000e+00	4.714825e-04	
25	-1.25000e+00	4.543520e-04	
26	-1.30000e+00	4.373071e-04	
27	-1.35000e+00	4.203481e-04	
28	-1.40000e+00	4.034753e-04	
29	-1.45000e+00	3.866895e-04	
30	-1.50000e+00	3.699916e-04	
31	-1.55000e+00	3.533831e-04	
32	-1.60000e+00	3.368659e-04	
33	-1.65000e+00	3.204429e-04	
34	-1.70000e+00	3.041182e-04	
35	-1.75000e+00	2.878974e-04	
36	-1.80000e+00	2.717887e-04	
37	-1.85000e+00	2.558039e-04	
38	-1.90000e+00	2.399601e-04	
39	-1.95000e+00	2.242828e-04	
40	-2.00000e+00	2.088097e-04	
41	-2.05000e+00	1.935973e-04	
42	-2.10000e+00	1.787290e-04	
43	-2.15000e+00	1.643260e-04	
44	-2.20000e+00	1.505547e-04	
45	-2.25000e+00	1.376236e-04	
46	-2.30000e+00	1.257562e-04	
47	-2.35000e+00	1.151353e-04	
48	-2.40000e+00	1.058433e-04	
49	-2.45000e+00	9.783823e-05	
50	-2.50000e+00	9.098377e-05	
51	-2.55000e+00	8.510370e-05	
52	-2.60000e+00	8.002591e-05	
53	-2.65000e+00	7.560322e-05	
54	-2.70000e+00	7.171728e-05	

Index   v-sweep         rds             
--------------------------------------------------------------------------------
55	-2.75000e+00	6.827508e-05	
56	-2.80000e+00	6.520371e-05	
57	-2.85000e+00	6.244552e-05	
58	-2.90000e+00	5.995443e-05	
59	-2.95000e+00	5.769314e-05	
60	-3.00000e+00	5.563112e-05	
61	-3.05000e+00	5.374307e-05	
62	-3.10000e+00	5.200787e-05	
63	-3.15000e+00	5.040770e-05	
64	-3.20000e+00	4.892745e-05	
65	-3.25000e+00	4.755416e-05	
66	-3.30000e+00	4.627670e-05	
67	-3.35000e+00	4.508544e-05	
68	-3.40000e+00	4.397198e-05	
69	-3.45000e+00	4.292900e-05	
70	-3.50000e+00	4.195005e-05	
71	-3.55000e+00	4.102946e-05	
72	-3.60000e+00	4.016219e-05	
73	-3.65000e+00	3.934379e-05	
74	-3.70000e+00	3.857027e-05	
75	-3.75000e+00	3.783807e-05	
76	-3.80000e+00	3.714399e-05	
77	-3.85000e+00	3.648516e-05	
78	-3.90000e+00	3.585898e-05	
79	-3.95000e+00	3.526312e-05	
80	-4.00000e+00	3.469544e-05	
81	-4.05000e+00	3.415401e-05	
82	-4.10000e+00	3.363707e-05	
83	-4.15000e+00	3.314301e-05	
84	-4.20000e+00	3.267037e-05	
85	-4.25000e+00	3.221780e-05	
86	-4.30000e+00	3.178406e-05	
87	-4.35000e+00	3.136801e-05	
88	-4.40000e+00	3.096861e-05	
89	-4.45000e+00	3.058489e-05	
90	-4.50000e+00	3.021596e-05	
91	-4.55000e+00	2.986098e-05	
92	-4.60000e+00	2.951920e-05	
93	-4.65000e+00	2.918991e-05	
94	-4.70000e+00	2.887243e-05	
95	-4.75000e+00	2.856616e-05	
96	-4.80000e+00	2.827052e-05	
97	-4.85000e+00	2.798498e-05	
98	-4.90000e+00	2.770904e-05	
99	-4.95000e+00	2.744223e-05	
100	-5.00000e+00	2.718410e-05	
101	-5.05000e+00	2.693427e-05	
102	-5.10000e+00	2.669233e-05	
103	-5.15000e+00	2.645793e-05	
104	-5.20000e+00	2.623073e-05	
105	-5.25000e+00	2.601041e-05	
106	-5.30000e+00	2.579668e-05	
107	-5.35000e+00	2.558924e-05	
108	-5.40000e+00	2.538783e-05	
109	-5.45000e+00	2.519221e-05	
110	-5.50000e+00	2.500213e-05	
111	-5.55000e+00	2.481738e-05	
112	-5.60000e+00	2.463773e-05	

Index   v-sweep         rds             
--------------------------------------------------------------------------------
113	-5.65000e+00	2.446300e-05	
114	-5.70000e+00	2.429298e-05	
115	-5.75000e+00	2.412751e-05	
116	-5.80000e+00	2.396642e-05	
117	-5.85000e+00	2.380953e-05	
118	-5.90000e+00	2.365671e-05	
119	-5.95000e+00	2.350781e-05	
120	-6.00000e+00	2.336268e-05	
121	-6.05000e+00	2.322121e-05	
122	-6.10000e+00	2.308327e-05	
123	-6.15000e+00	2.294873e-05	
124	-6.20000e+00	2.281750e-05	
125	-6.25000e+00	2.268946e-05	
126	-6.30000e+00	2.256452e-05	
127	-6.35000e+00	2.244257e-05	
128	-6.40000e+00	2.232354e-05	
129	-6.45000e+00	2.220733e-05	
130	-6.50000e+00	2.209386e-05	
131	-6.55000e+00	2.198305e-05	
132	-6.60000e+00	2.187483e-05	
Reset re-loads circuit ***************************

Circuit: ***************************

Doing analysis at TEMP = 125.000000 and TNOM = 125.000000


No. of Data Rows : 133
                          ***************************
                          DC transfer characteristic  Mon Jan  9 13:58:53  2023
--------------------------------------------------------------------------------
Index   v-sweep         rds             
--------------------------------------------------------------------------------
0	0.000000e+00	1.091924e-03	
1	-5.00000e-02	1.073573e-03	
2	-1.00000e-01	1.055304e-03	
3	-1.50000e-01	1.037118e-03	
4	-2.00000e-01	1.019013e-03	
5	-2.50000e-01	1.000990e-03	
6	-3.00000e-01	9.830472e-04	
7	-3.50000e-01	9.651852e-04	
8	-4.00000e-01	9.474035e-04	
9	-4.50000e-01	9.297015e-04	
10	-5.00000e-01	9.120789e-04	
11	-5.50000e-01	8.945354e-04	
12	-6.00000e-01	8.770706e-04	
13	-6.50000e-01	8.596841e-04	
14	-7.00000e-01	8.423757e-04	
15	-7.50000e-01	8.251448e-04	
16	-8.00000e-01	8.079912e-04	
17	-8.50000e-01	7.909145e-04	
18	-9.00000e-01	7.739144e-04	
19	-9.50000e-01	7.569906e-04	
20	-1.00000e+00	7.401427e-04	
21	-1.05000e+00	7.233704e-04	
22	-1.10000e+00	7.066733e-04	
23	-1.15000e+00	6.900513e-04	
24	-1.20000e+00	6.735039e-04	
25	-1.25000e+00	6.570309e-04	
26	-1.30000e+00	6.406320e-04	
27	-1.35000e+00	6.243070e-04	
28	-1.40000e+00	6.080556e-04	
29	-1.45000e+00	5.918776e-04	
30	-1.50000e+00	5.757727e-04	
31	-1.55000e+00	5.597408e-04	
32	-1.60000e+00	5.437818e-04	
33	-1.65000e+00	5.278956e-04	
34	-1.70000e+00	5.120820e-04	
35	-1.75000e+00	4.963411e-04	
36	-1.80000e+00	4.806730e-04	
37	-1.85000e+00	4.650777e-04	
38	-1.90000e+00	4.495556e-04	
39	-1.95000e+00	4.341071e-04	
40	-2.00000e+00	4.187326e-04	
41	-2.05000e+00	4.034331e-04	
42	-2.10000e+00	3.882096e-04	
43	-2.15000e+00	3.730637e-04	
44	-2.20000e+00	3.579973e-04	
45	-2.25000e+00	3.430132e-04	
46	-2.30000e+00	3.281150e-04	
47	-2.35000e+00	3.133080e-04	
48	-2.40000e+00	2.985989e-04	
49	-2.45000e+00	2.839973e-04	
50	-2.50000e+00	2.695166e-04	
51	-2.55000e+00	2.551755e-04	
52	-2.60000e+00	2.410003e-04	
53	-2.65000e+00	2.270282e-04	
54	-2.70000e+00	2.133112e-04	

Index   v-sweep         rds             
--------------------------------------------------------------------------------
55	-2.75000e+00	1.999204e-04	
56	-2.80000e+00	1.869499e-04	
57	-2.85000e+00	1.745160e-04	
58	-2.90000e+00	1.627488e-04	
59	-2.95000e+00	1.517735e-04	
60	-3.00000e+00	1.416853e-04	
61	-3.05000e+00	1.325296e-04	
62	-3.10000e+00	1.242975e-04	
63	-3.15000e+00	1.169364e-04	
64	-3.20000e+00	1.103679e-04	
65	-3.25000e+00	1.045043e-04	
66	-3.30000e+00	9.925904e-05	
67	-3.35000e+00	9.455260e-05	
68	-3.40000e+00	9.031460e-05	
69	-3.45000e+00	8.648406e-05	
70	-3.50000e+00	8.300870e-05	
71	-3.55000e+00	7.984388e-05	
72	-3.60000e+00	7.695159e-05	
73	-3.65000e+00	7.429937e-05	
74	-3.70000e+00	7.185948e-05	
75	-3.75000e+00	6.960811e-05	
76	-3.80000e+00	6.752477e-05	
77	-3.85000e+00	6.559172e-05	
78	-3.90000e+00	6.379361e-05	
79	-3.95000e+00	6.211703e-05	
80	-4.00000e+00	6.055027e-05	
81	-4.05000e+00	5.908306e-05	
82	-4.10000e+00	5.770635e-05	
83	-4.15000e+00	5.641213e-05	
84	-4.20000e+00	5.519330e-05	
85	-4.25000e+00	5.404355e-05	
86	-4.30000e+00	5.295724e-05	
87	-4.35000e+00	5.192933e-05	
88	-4.40000e+00	5.095528e-05	
89	-4.45000e+00	5.003103e-05	
90	-4.50000e+00	4.915289e-05	
91	-4.55000e+00	4.831754e-05	
92	-4.60000e+00	4.752196e-05	
93	-4.65000e+00	4.676341e-05	
94	-4.70000e+00	4.603940e-05	
95	-4.75000e+00	4.534764e-05	
96	-4.80000e+00	4.468605e-05	
97	-4.85000e+00	4.405273e-05	
98	-4.90000e+00	4.344592e-05	
99	-4.95000e+00	4.286401e-05	
100	-5.00000e+00	4.230552e-05	
101	-5.05000e+00	4.176909e-05	
102	-5.10000e+00	4.125344e-05	
103	-5.15000e+00	4.075740e-05	
104	-5.20000e+00	4.027990e-05	
105	-5.25000e+00	3.981993e-05	
106	-5.30000e+00	3.937655e-05	
107	-5.35000e+00	3.894890e-05	
108	-5.40000e+00	3.853615e-05	
109	-5.45000e+00	3.813757e-05	
110	-5.50000e+00	3.775245e-05	
111	-5.55000e+00	3.738011e-05	
112	-5.60000e+00	3.701996e-05	

Index   v-sweep         rds             
--------------------------------------------------------------------------------
113	-5.65000e+00	3.667141e-05	
114	-5.70000e+00	3.633392e-05	
115	-5.75000e+00	3.600698e-05	
116	-5.80000e+00	3.569011e-05	
117	-5.85000e+00	3.538288e-05	
118	-5.90000e+00	3.508484e-05	
119	-5.95000e+00	3.479562e-05	
120	-6.00000e+00	3.451483e-05	
121	-6.05000e+00	3.424212e-05	
122	-6.10000e+00	3.397716e-05	
123	-6.15000e+00	3.371963e-05	
124	-6.20000e+00	3.346924e-05	
125	-6.25000e+00	3.322571e-05	
126	-6.30000e+00	3.298877e-05	
127	-6.35000e+00	3.275817e-05	
128	-6.40000e+00	3.253368e-05	
129	-6.45000e+00	3.231507e-05	
130	-6.50000e+00	3.210212e-05	
131	-6.55000e+00	3.189464e-05	
132	-6.60000e+00	3.169243e-05	
Reset re-loads circuit ***************************

Circuit: ***************************

Doing analysis at TEMP = 125.000000 and TNOM = 125.000000


No. of Data Rows : 133
                          ***************************
                          DC transfer characteristic  Mon Jan  9 13:58:53  2023
--------------------------------------------------------------------------------
Index   v-sweep         rds             
--------------------------------------------------------------------------------
0	0.000000e+00	1.254801e-03	
1	-5.00000e-02	1.237201e-03	
2	-1.00000e-01	1.219676e-03	
3	-1.50000e-01	1.202225e-03	
4	-2.00000e-01	1.184847e-03	
5	-2.50000e-01	1.167543e-03	
6	-3.00000e-01	1.150312e-03	
7	-3.50000e-01	1.133154e-03	
8	-4.00000e-01	1.116068e-03	
9	-4.50000e-01	1.099054e-03	
10	-5.00000e-01	1.082112e-03	
11	-5.50000e-01	1.065241e-03	
12	-6.00000e-01	1.048442e-03	
13	-6.50000e-01	1.031713e-03	
14	-7.00000e-01	1.015055e-03	
15	-7.50000e-01	9.984670e-04	
16	-8.00000e-01	9.819489e-04	
17	-8.50000e-01	9.655003e-04	
18	-9.00000e-01	9.491210e-04	
19	-9.50000e-01	9.328106e-04	
20	-1.00000e+00	9.165688e-04	
21	-1.05000e+00	9.003954e-04	
22	-1.10000e+00	8.842900e-04	
23	-1.15000e+00	8.682524e-04	
24	-1.20000e+00	8.522822e-04	
25	-1.25000e+00	8.363792e-04	
26	-1.30000e+00	8.205431e-04	
27	-1.35000e+00	8.047736e-04	
28	-1.40000e+00	7.890705e-04	
29	-1.45000e+00	7.734334e-04	
30	-1.50000e+00	7.578622e-04	
31	-1.55000e+00	7.423564e-04	
32	-1.60000e+00	7.269160e-04	
33	-1.65000e+00	7.115407e-04	
34	-1.70000e+00	6.962301e-04	
35	-1.75000e+00	6.809842e-04	
36	-1.80000e+00	6.658026e-04	
37	-1.85000e+00	6.506852e-04	
38	-1.90000e+00	6.356318e-04	
39	-1.95000e+00	6.206422e-04	
40	-2.00000e+00	6.057163e-04	
41	-2.05000e+00	5.908539e-04	
42	-2.10000e+00	5.760548e-04	
43	-2.15000e+00	5.613191e-04	
44	-2.20000e+00	5.466467e-04	
45	-2.25000e+00	5.320374e-04	
46	-2.30000e+00	5.174915e-04	
47	-2.35000e+00	5.030089e-04	
48	-2.40000e+00	4.885899e-04	
49	-2.45000e+00	4.742346e-04	
50	-2.50000e+00	4.599435e-04	
51	-2.55000e+00	4.457170e-04	
52	-2.60000e+00	4.315557e-04	
53	-2.65000e+00	4.174606e-04	
54	-2.70000e+00	4.034326e-04	

Index   v-sweep         rds             
--------------------------------------------------------------------------------
55	-2.75000e+00	3.894734e-04	
56	-2.80000e+00	3.755847e-04	
57	-2.85000e+00	3.617691e-04	
58	-2.90000e+00	3.480297e-04	
59	-2.95000e+00	3.343707e-04	
60	-3.00000e+00	3.207977e-04	
61	-3.05000e+00	3.073180e-04	
62	-3.10000e+00	2.939412e-04	
63	-3.15000e+00	2.806803e-04	
64	-3.20000e+00	2.675526e-04	
65	-3.25000e+00	2.545811e-04	
66	-3.30000e+00	2.417967e-04	
67	-3.35000e+00	2.292402e-04	
68	-3.40000e+00	2.169643e-04	
69	-3.45000e+00	2.050352e-04	
70	-3.50000e+00	1.935317e-04	
71	-3.55000e+00	1.825406e-04	
72	-3.60000e+00	1.721473e-04	
73	-3.65000e+00	1.624232e-04	
74	-3.70000e+00	1.534144e-04	
75	-3.75000e+00	1.451363e-04	
76	-3.80000e+00	1.375748e-04	
77	-3.85000e+00	1.306937e-04	
78	-3.90000e+00	1.244429e-04	
79	-3.95000e+00	1.187659e-04	
80	-4.00000e+00	1.136054e-04	
81	-4.05000e+00	1.089062e-04	
82	-4.10000e+00	1.046180e-04	
83	-4.15000e+00	1.006950e-04	
84	-4.20000e+00	9.709675e-05	
85	-4.25000e+00	9.378756e-05	
86	-4.30000e+00	9.073613e-05	
87	-4.35000e+00	8.791510e-05	
88	-4.40000e+00	8.530053e-05	
89	-4.45000e+00	8.287146e-05	
90	-4.50000e+00	8.060953e-05	
91	-4.55000e+00	7.849860e-05	
92	-4.60000e+00	7.652447e-05	
93	-4.65000e+00	7.467459e-05	
94	-4.70000e+00	7.293787e-05	
95	-4.75000e+00	7.130446e-05	
96	-4.80000e+00	6.976560e-05	
97	-4.85000e+00	6.831345e-05	
98	-4.90000e+00	6.694101e-05	
99	-4.95000e+00	6.564202e-05	
100	-5.00000e+00	6.441082e-05	
101	-5.05000e+00	6.324233e-05	
102	-5.10000e+00	6.213193e-05	
103	-5.15000e+00	6.107548e-05	
104	-5.20000e+00	6.006918e-05	
105	-5.25000e+00	5.910959e-05	
106	-5.30000e+00	5.819359e-05	
107	-5.35000e+00	5.731830e-05	
108	-5.40000e+00	5.648111e-05	
109	-5.45000e+00	5.567961e-05	
110	-5.50000e+00	5.491160e-05	
111	-5.55000e+00	5.417506e-05	
112	-5.60000e+00	5.346810e-05	

Index   v-sweep         rds             
--------------------------------------------------------------------------------
113	-5.65000e+00	5.278902e-05	
114	-5.70000e+00	5.213620e-05	
115	-5.75000e+00	5.150819e-05	
116	-5.80000e+00	5.090360e-05	
117	-5.85000e+00	5.032117e-05	
118	-5.90000e+00	4.975972e-05	
119	-5.95000e+00	4.921815e-05	
120	-6.00000e+00	4.869545e-05	
121	-6.05000e+00	4.819065e-05	
122	-6.10000e+00	4.770287e-05	
123	-6.15000e+00	4.723126e-05	
124	-6.20000e+00	4.677507e-05	
125	-6.25000e+00	4.633354e-05	
126	-6.30000e+00	4.590601e-05	
127	-6.35000e+00	4.549182e-05	
128	-6.40000e+00	4.509038e-05	
129	-6.45000e+00	4.470112e-05	
130	-6.50000e+00	4.432350e-05	
131	-6.55000e+00	4.395703e-05	
132	-6.60000e+00	4.360122e-05	
Reset re-loads circuit ***************************

Circuit: ***************************

Note: No ".plot", ".print", or ".fourier" lines; no simulations run
