
Note: Compatibility modes selected: hs

Warning: m=xx on .subckt line will override multiplier m hierarchy!


Circuit: ***************************

Doing analysis at TEMP = -40.000000 and TNOM = -40.000000


No. of Data Rows : 133
                          ***************************
                          DC transfer characteristic  Mon Jan  9 13:58:52  2023
--------------------------------------------------------------------------------
Index   v-sweep         rds             
--------------------------------------------------------------------------------
0	0.000000e+00	6.301183e-08	
1	-5.00000e-02	1.980353e-08	
2	-1.00000e-01	2.812760e-09	
3	-1.50000e-01	5.676962e-10	
4	-2.00000e-01	2.040366e-10	
5	-2.50000e-01	1.063854e-10	
6	-3.00000e-01	6.976084e-11	
7	-3.50000e-01	5.265701e-11	
8	-4.00000e-01	4.334621e-11	
9	-4.50000e-01	3.767505e-11	
10	-5.00000e-01	3.391495e-11	
11	-5.50000e-01	3.125375e-11	
12	-6.00000e-01	2.927194e-11	
13	-6.50000e-01	2.773566e-11	
14	-7.00000e-01	2.650610e-11	
15	-7.50000e-01	2.549640e-11	
16	-8.00000e-01	2.464976e-11	
17	-8.50000e-01	2.392757e-11	
18	-9.00000e-01	2.330269e-11	
19	-9.50000e-01	2.275553e-11	
20	-1.00000e+00	2.227154e-11	
21	-1.05000e+00	2.183972e-11	
22	-1.10000e+00	2.145154e-11	
23	-1.15000e+00	2.110033e-11	
24	-1.20000e+00	2.078075e-11	
25	-1.25000e+00	2.048847e-11	
26	-1.30000e+00	2.021995e-11	
27	-1.35000e+00	1.997228e-11	
28	-1.40000e+00	1.974301e-11	
29	-1.45000e+00	1.953006e-11	
30	-1.50000e+00	1.933169e-11	
31	-1.55000e+00	1.914639e-11	
32	-1.60000e+00	1.897286e-11	
33	-1.65000e+00	1.880998e-11	
34	-1.70000e+00	1.865677e-11	
35	-1.75000e+00	1.851236e-11	
36	-1.80000e+00	1.837601e-11	
37	-1.85000e+00	1.824703e-11	
38	-1.90000e+00	1.812483e-11	
39	-1.95000e+00	1.800888e-11	
40	-2.00000e+00	1.789869e-11	
41	-2.05000e+00	1.779386e-11	
42	-2.10000e+00	1.769398e-11	
43	-2.15000e+00	1.759870e-11	
44	-2.20000e+00	1.750772e-11	
45	-2.25000e+00	1.742074e-11	
46	-2.30000e+00	1.733751e-11	
47	-2.35000e+00	1.725777e-11	
48	-2.40000e+00	1.718133e-11	
49	-2.45000e+00	1.710796e-11	
50	-2.50000e+00	1.703750e-11	
51	-2.55000e+00	1.696976e-11	
52	-2.60000e+00	1.690460e-11	
53	-2.65000e+00	1.684187e-11	
54	-2.70000e+00	1.678143e-11	

Index   v-sweep         rds             
--------------------------------------------------------------------------------
55	-2.75000e+00	1.672316e-11	
56	-2.80000e+00	1.666695e-11	
57	-2.85000e+00	1.661269e-11	
58	-2.90000e+00	1.656028e-11	
59	-2.95000e+00	1.650962e-11	
60	-3.00000e+00	1.646063e-11	
61	-3.05000e+00	1.641323e-11	
62	-3.10000e+00	1.636734e-11	
63	-3.15000e+00	1.632290e-11	
64	-3.20000e+00	1.627983e-11	
65	-3.25000e+00	1.623807e-11	
66	-3.30000e+00	1.619757e-11	
67	-3.35000e+00	1.615826e-11	
68	-3.40000e+00	1.612011e-11	
69	-3.45000e+00	1.608305e-11	
70	-3.50000e+00	1.604705e-11	
71	-3.55000e+00	1.601205e-11	
72	-3.60000e+00	1.597803e-11	
73	-3.65000e+00	1.594493e-11	
74	-3.70000e+00	1.591273e-11	
75	-3.75000e+00	1.588138e-11	
76	-3.80000e+00	1.585086e-11	
77	-3.85000e+00	1.582114e-11	
78	-3.90000e+00	1.579218e-11	
79	-3.95000e+00	1.576396e-11	
80	-4.00000e+00	1.573645e-11	
81	-4.05000e+00	1.570963e-11	
82	-4.10000e+00	1.568347e-11	
83	-4.15000e+00	1.565795e-11	
84	-4.20000e+00	1.563304e-11	
85	-4.25000e+00	1.560874e-11	
86	-4.30000e+00	1.558501e-11	
87	-4.35000e+00	1.556184e-11	
88	-4.40000e+00	1.553921e-11	
89	-4.45000e+00	1.551710e-11	
90	-4.50000e+00	1.549551e-11	
91	-4.55000e+00	1.547440e-11	
92	-4.60000e+00	1.545378e-11	
93	-4.65000e+00	1.543362e-11	
94	-4.70000e+00	1.541391e-11	
95	-4.75000e+00	1.539464e-11	
96	-4.80000e+00	1.537579e-11	
97	-4.85000e+00	1.535735e-11	
98	-4.90000e+00	1.533932e-11	
99	-4.95000e+00	1.532168e-11	
100	-5.00000e+00	1.530443e-11	
101	-5.05000e+00	1.528754e-11	
102	-5.10000e+00	1.527101e-11	
103	-5.15000e+00	1.525484e-11	
104	-5.20000e+00	1.523901e-11	
105	-5.25000e+00	1.522352e-11	
106	-5.30000e+00	1.520836e-11	
107	-5.35000e+00	1.519351e-11	
108	-5.40000e+00	1.517898e-11	
109	-5.45000e+00	1.516475e-11	
110	-5.50000e+00	1.515082e-11	
111	-5.55000e+00	1.513718e-11	
112	-5.60000e+00	1.512383e-11	

Index   v-sweep         rds             
--------------------------------------------------------------------------------
113	-5.65000e+00	1.511076e-11	
114	-5.70000e+00	1.509796e-11	
115	-5.75000e+00	1.508542e-11	
116	-5.80000e+00	1.507315e-11	
117	-5.85000e+00	1.506113e-11	
118	-5.90000e+00	1.504937e-11	
119	-5.95000e+00	1.503785e-11	
120	-6.00000e+00	1.502657e-11	
121	-6.05000e+00	1.501553e-11	
122	-6.10000e+00	1.500472e-11	
123	-6.15000e+00	1.499414e-11	
124	-6.20000e+00	1.498378e-11	
125	-6.25000e+00	1.497364e-11	
126	-6.30000e+00	1.496371e-11	
127	-6.35000e+00	1.495400e-11	
128	-6.40000e+00	1.494449e-11	
129	-6.45000e+00	1.493519e-11	
130	-6.50000e+00	1.492609e-11	
131	-6.55000e+00	1.491718e-11	
132	-6.60000e+00	1.490847e-11	
Reset re-loads circuit ***************************

Circuit: ***************************

Doing analysis at TEMP = -40.000000 and TNOM = -40.000000


No. of Data Rows : 133
                          ***************************
                          DC transfer characteristic  Mon Jan  9 13:58:53  2023
--------------------------------------------------------------------------------
Index   v-sweep         rds             
--------------------------------------------------------------------------------
0	0.000000e+00	1.082802e-06	
1	-5.00000e-02	1.008339e-06	
2	-1.00000e-01	9.339377e-07	
3	-1.50000e-01	8.596057e-07	
4	-2.00000e-01	7.853527e-07	
5	-2.50000e-01	7.111954e-07	
6	-3.00000e-01	6.371611e-07	
7	-3.50000e-01	5.632976e-07	
8	-4.00000e-01	4.896911e-07	
9	-4.50000e-01	4.165056e-07	
10	-5.00000e-01	3.440689e-07	
11	-5.50000e-01	2.730633e-07	
12	-6.00000e-01	2.049310e-07	
13	-6.50000e-01	1.425529e-07	
14	-7.00000e-01	9.058290e-08	
15	-7.50000e-01	5.341142e-08	
16	-8.00000e-01	3.104645e-08	
17	-8.50000e-01	1.910008e-08	
18	-9.00000e-01	1.290880e-08	
19	-9.50000e-01	9.584600e-09	
20	-1.00000e+00	7.680728e-09	
21	-1.05000e+00	6.510661e-09	
22	-1.10000e+00	5.742604e-09	
23	-1.15000e+00	5.208562e-09	
24	-1.20000e+00	4.818705e-09	
25	-1.25000e+00	4.522339e-09	
26	-1.30000e+00	4.289375e-09	
27	-1.35000e+00	4.101127e-09	
28	-1.40000e+00	3.945504e-09	
29	-1.45000e+00	3.814393e-09	
30	-1.50000e+00	3.702173e-09	
31	-1.55000e+00	3.604837e-09	
32	-1.60000e+00	3.519452e-09	
33	-1.65000e+00	3.443825e-09	
34	-1.70000e+00	3.376282e-09	
35	-1.75000e+00	3.315522e-09	
36	-1.80000e+00	3.260517e-09	
37	-1.85000e+00	3.210444e-09	
38	-1.90000e+00	3.164635e-09	
39	-1.95000e+00	3.122541e-09	
40	-2.00000e+00	3.083708e-09	
41	-2.05000e+00	3.047753e-09	
42	-2.10000e+00	3.014357e-09	
43	-2.15000e+00	2.983243e-09	
44	-2.20000e+00	2.954178e-09	
45	-2.25000e+00	2.926959e-09	
46	-2.30000e+00	2.901410e-09	
47	-2.35000e+00	2.877376e-09	
48	-2.40000e+00	2.854724e-09	
49	-2.45000e+00	2.833333e-09	
50	-2.50000e+00	2.813100e-09	
51	-2.55000e+00	2.793930e-09	
52	-2.60000e+00	2.775740e-09	
53	-2.65000e+00	2.758455e-09	
54	-2.70000e+00	2.742009e-09	

Index   v-sweep         rds             
--------------------------------------------------------------------------------
55	-2.75000e+00	2.726339e-09	
56	-2.80000e+00	2.711392e-09	
57	-2.85000e+00	2.697118e-09	
58	-2.90000e+00	2.683472e-09	
59	-2.95000e+00	2.670412e-09	
60	-3.00000e+00	2.657902e-09	
61	-3.05000e+00	2.645907e-09	
62	-3.10000e+00	2.634395e-09	
63	-3.15000e+00	2.623338e-09	
64	-3.20000e+00	2.612708e-09	
65	-3.25000e+00	2.602482e-09	
66	-3.30000e+00	2.592636e-09	
67	-3.35000e+00	2.583150e-09	
68	-3.40000e+00	2.574004e-09	
69	-3.45000e+00	2.565180e-09	
70	-3.50000e+00	2.556661e-09	
71	-3.55000e+00	2.548432e-09	
72	-3.60000e+00	2.540478e-09	
73	-3.65000e+00	2.532785e-09	
74	-3.70000e+00	2.525342e-09	
75	-3.75000e+00	2.518135e-09	
76	-3.80000e+00	2.511153e-09	
77	-3.85000e+00	2.504388e-09	
78	-3.90000e+00	2.497827e-09	
79	-3.95000e+00	2.491463e-09	
80	-4.00000e+00	2.485287e-09	
81	-4.05000e+00	2.479291e-09	
82	-4.10000e+00	2.473466e-09	
83	-4.15000e+00	2.467806e-09	
84	-4.20000e+00	2.462305e-09	
85	-4.25000e+00	2.456954e-09	
86	-4.30000e+00	2.451750e-09	
87	-4.35000e+00	2.446685e-09	
88	-4.40000e+00	2.441754e-09	
89	-4.45000e+00	2.436952e-09	
90	-4.50000e+00	2.432275e-09	
91	-4.55000e+00	2.427718e-09	
92	-4.60000e+00	2.423276e-09	
93	-4.65000e+00	2.418945e-09	
94	-4.70000e+00	2.414721e-09	
95	-4.75000e+00	2.410601e-09	
96	-4.80000e+00	2.406581e-09	
97	-4.85000e+00	2.402658e-09	
98	-4.90000e+00	2.398828e-09	
99	-4.95000e+00	2.395088e-09	
100	-5.00000e+00	2.391436e-09	
101	-5.05000e+00	2.387868e-09	
102	-5.10000e+00	2.384382e-09	
103	-5.15000e+00	2.380976e-09	
104	-5.20000e+00	2.377647e-09	
105	-5.25000e+00	2.374392e-09	
106	-5.30000e+00	2.371210e-09	
107	-5.35000e+00	2.368098e-09	
108	-5.40000e+00	2.365055e-09	
109	-5.45000e+00	2.362079e-09	
110	-5.50000e+00	2.359167e-09	
111	-5.55000e+00	2.356318e-09	
112	-5.60000e+00	2.353530e-09	

Index   v-sweep         rds             
--------------------------------------------------------------------------------
113	-5.65000e+00	2.350802e-09	
114	-5.70000e+00	2.348131e-09	
115	-5.75000e+00	2.345518e-09	
116	-5.80000e+00	2.342959e-09	
117	-5.85000e+00	2.340455e-09	
118	-5.90000e+00	2.338002e-09	
119	-5.95000e+00	2.335601e-09	
120	-6.00000e+00	2.333250e-09	
121	-6.05000e+00	2.330948e-09	
122	-6.10000e+00	2.328693e-09	
123	-6.15000e+00	2.326485e-09	
124	-6.20000e+00	2.324323e-09	
125	-6.25000e+00	2.322205e-09	
126	-6.30000e+00	2.320131e-09	
127	-6.35000e+00	2.318100e-09	
128	-6.40000e+00	2.316110e-09	
129	-6.45000e+00	2.314161e-09	
130	-6.50000e+00	2.312252e-09	
131	-6.55000e+00	2.310382e-09	
132	-6.60000e+00	2.308551e-09	
Reset re-loads circuit ***************************

Circuit: ***************************

Doing analysis at TEMP = -40.000000 and TNOM = -40.000000


No. of Data Rows : 133
                          ***************************
                          DC transfer characteristic  Mon Jan  9 13:58:53  2023
--------------------------------------------------------------------------------
Index   v-sweep         rds             
--------------------------------------------------------------------------------
0	0.000000e+00	2.003021e-06	
1	-5.00000e-02	1.932503e-06	
2	-1.00000e-01	1.862026e-06	
3	-1.50000e-01	1.791591e-06	
4	-2.00000e-01	1.721198e-06	
5	-2.50000e-01	1.650848e-06	
6	-3.00000e-01	1.580541e-06	
7	-3.50000e-01	1.510277e-06	
8	-4.00000e-01	1.440060e-06	
9	-4.50000e-01	1.369889e-06	
10	-5.00000e-01	1.299767e-06	
11	-5.50000e-01	1.229696e-06	
12	-6.00000e-01	1.159681e-06	
13	-6.50000e-01	1.089725e-06	
14	-7.00000e-01	1.019837e-06	
15	-7.50000e-01	9.500251e-07	
16	-8.00000e-01	8.803041e-07	
17	-8.50000e-01	8.106945e-07	
18	-9.00000e-01	7.412274e-07	
19	-9.50000e-01	6.719507e-07	
20	-1.00000e+00	6.029400e-07	
21	-1.05000e+00	5.343181e-07	
22	-1.10000e+00	4.662886e-07	
23	-1.15000e+00	3.991968e-07	
24	-1.20000e+00	3.336332e-07	
25	-1.25000e+00	2.705955e-07	
26	-1.30000e+00	2.116818e-07	
27	-1.35000e+00	1.591486e-07	
28	-1.40000e+00	1.154661e-07	
29	-1.45000e+00	8.219150e-08	
30	-1.50000e+00	5.895573e-08	
31	-1.55000e+00	4.372525e-08	
32	-1.60000e+00	3.401328e-08	
33	-1.65000e+00	2.778972e-08	
34	-1.70000e+00	2.369550e-08	
35	-1.75000e+00	2.090166e-08	
36	-1.80000e+00	1.891863e-08	
37	-1.85000e+00	1.745685e-08	
38	-1.90000e+00	1.634180e-08	
39	-1.95000e+00	1.546535e-08	
40	-2.00000e+00	1.475848e-08	
41	-2.05000e+00	1.417575e-08	
42	-2.10000e+00	1.368634e-08	
43	-2.15000e+00	1.326877e-08	
44	-2.20000e+00	1.290769e-08	
45	-2.25000e+00	1.259186e-08	
46	-2.30000e+00	1.231286e-08	
47	-2.35000e+00	1.206430e-08	
48	-2.40000e+00	1.184119e-08	
49	-2.45000e+00	1.163963e-08	
50	-2.50000e+00	1.145648e-08	
51	-2.55000e+00	1.128921e-08	
52	-2.60000e+00	1.113575e-08	
53	-2.65000e+00	1.099439e-08	
54	-2.70000e+00	1.086367e-08	

Index   v-sweep         rds             
--------------------------------------------------------------------------------
55	-2.75000e+00	1.074241e-08	
56	-2.80000e+00	1.062957e-08	
57	-2.85000e+00	1.052427e-08	
58	-2.90000e+00	1.042575e-08	
59	-2.95000e+00	1.033336e-08	
60	-3.00000e+00	1.024653e-08	
61	-3.05000e+00	1.016476e-08	
62	-3.10000e+00	1.008761e-08	
63	-3.15000e+00	1.001468e-08	
64	-3.20000e+00	9.945630e-09	
65	-3.25000e+00	9.880155e-09	
66	-3.30000e+00	9.817977e-09	
67	-3.35000e+00	9.758848e-09	
68	-3.40000e+00	9.702546e-09	
69	-3.45000e+00	9.648869e-09	
70	-3.50000e+00	9.597635e-09	
71	-3.55000e+00	9.548678e-09	
72	-3.60000e+00	9.501849e-09	
73	-3.65000e+00	9.457010e-09	
74	-3.70000e+00	9.414035e-09	
75	-3.75000e+00	9.372809e-09	
76	-3.80000e+00	9.333226e-09	
77	-3.85000e+00	9.295189e-09	
78	-3.90000e+00	9.258609e-09	
79	-3.95000e+00	9.223403e-09	
80	-4.00000e+00	9.189494e-09	
81	-4.05000e+00	9.156811e-09	
82	-4.10000e+00	9.125290e-09	
83	-4.15000e+00	9.094868e-09	
84	-4.20000e+00	9.065489e-09	
85	-4.25000e+00	9.037101e-09	
86	-4.30000e+00	9.009653e-09	
87	-4.35000e+00	8.983099e-09	
88	-4.40000e+00	8.957398e-09	
89	-4.45000e+00	8.932508e-09	
90	-4.50000e+00	8.908391e-09	
91	-4.55000e+00	8.885013e-09	
92	-4.60000e+00	8.862339e-09	
93	-4.65000e+00	8.840339e-09	
94	-4.70000e+00	8.818984e-09	
95	-4.75000e+00	8.798245e-09	
96	-4.80000e+00	8.778097e-09	
97	-4.85000e+00	8.758515e-09	
98	-4.90000e+00	8.739475e-09	
99	-4.95000e+00	8.720957e-09	
100	-5.00000e+00	8.702939e-09	
101	-5.05000e+00	8.685402e-09	
102	-5.10000e+00	8.668327e-09	
103	-5.15000e+00	8.651697e-09	
104	-5.20000e+00	8.635495e-09	
105	-5.25000e+00	8.619705e-09	
106	-5.30000e+00	8.604313e-09	
107	-5.35000e+00	8.589304e-09	
108	-5.40000e+00	8.574664e-09	
109	-5.45000e+00	8.560382e-09	
110	-5.50000e+00	8.546445e-09	
111	-5.55000e+00	8.532841e-09	
112	-5.60000e+00	8.519559e-09	

Index   v-sweep         rds             
--------------------------------------------------------------------------------
113	-5.65000e+00	8.506589e-09	
114	-5.70000e+00	8.493920e-09	
115	-5.75000e+00	8.481544e-09	
116	-5.80000e+00	8.469451e-09	
117	-5.85000e+00	8.457633e-09	
118	-5.90000e+00	8.446081e-09	
119	-5.95000e+00	8.434787e-09	
120	-6.00000e+00	8.423745e-09	
121	-6.05000e+00	8.412946e-09	
122	-6.10000e+00	8.402383e-09	
123	-6.15000e+00	8.392051e-09	
124	-6.20000e+00	8.381942e-09	
125	-6.25000e+00	8.372052e-09	
126	-6.30000e+00	8.362373e-09	
127	-6.35000e+00	8.352901e-09	
128	-6.40000e+00	8.343630e-09	
129	-6.45000e+00	8.334555e-09	
130	-6.50000e+00	8.325672e-09	
131	-6.55000e+00	8.316974e-09	
132	-6.60000e+00	8.308459e-09	
Reset re-loads circuit ***************************

Circuit: ***************************

Doing analysis at TEMP = -40.000000 and TNOM = -40.000000


No. of Data Rows : 133
                          ***************************
                          DC transfer characteristic  Mon Jan  9 13:58:53  2023
--------------------------------------------------------------------------------
Index   v-sweep         rds             
--------------------------------------------------------------------------------
0	0.000000e+00	2.808790e-06	
1	-5.00000e-02	2.742770e-06	
2	-1.00000e-01	2.676784e-06	
3	-1.50000e-01	2.610832e-06	
4	-2.00000e-01	2.544914e-06	
5	-2.50000e-01	2.479030e-06	
6	-3.00000e-01	2.413181e-06	
7	-3.50000e-01	2.347366e-06	
8	-4.00000e-01	2.281585e-06	
9	-4.50000e-01	2.215840e-06	
10	-5.00000e-01	2.150129e-06	
11	-5.50000e-01	2.084453e-06	
12	-6.00000e-01	2.018813e-06	
13	-6.50000e-01	1.953208e-06	
14	-7.00000e-01	1.887639e-06	
15	-7.50000e-01	1.822107e-06	
16	-8.00000e-01	1.756612e-06	
17	-8.50000e-01	1.691155e-06	
18	-9.00000e-01	1.625737e-06	
19	-9.50000e-01	1.560358e-06	
20	-1.00000e+00	1.495021e-06	
21	-1.05000e+00	1.429728e-06	
22	-1.10000e+00	1.364480e-06	
23	-1.15000e+00	1.299280e-06	
24	-1.20000e+00	1.234133e-06	
25	-1.25000e+00	1.169043e-06	
26	-1.30000e+00	1.104017e-06	
27	-1.35000e+00	1.039065e-06	
28	-1.40000e+00	9.741976e-07	
29	-1.45000e+00	9.094331e-07	
30	-1.50000e+00	8.447951e-07	
31	-1.55000e+00	7.803177e-07	
32	-1.60000e+00	7.160505e-07	
33	-1.65000e+00	6.520664e-07	
34	-1.70000e+00	5.884754e-07	
35	-1.75000e+00	5.254446e-07	
36	-1.80000e+00	4.632318e-07	
37	-1.85000e+00	4.022353e-07	
38	-1.90000e+00	3.430646e-07	
39	-1.95000e+00	2.866231e-07	
40	-2.00000e+00	2.341595e-07	
41	-2.05000e+00	1.871932e-07	
42	-2.10000e+00	1.471959e-07	
43	-2.15000e+00	1.150599e-07	
44	-2.20000e+00	9.067669e-08	
45	-2.25000e+00	7.299376e-08	
46	-2.30000e+00	6.049745e-08	
47	-2.35000e+00	5.171664e-08	
48	-2.40000e+00	4.548247e-08	
49	-2.45000e+00	4.096444e-08	
50	-2.50000e+00	3.760542e-08	
51	-2.55000e+00	3.504022e-08	
52	-2.60000e+00	3.302995e-08	
53	-2.65000e+00	3.141682e-08	
54	-2.70000e+00	3.009476e-08	

Index   v-sweep         rds             
--------------------------------------------------------------------------------
55	-2.75000e+00	2.899107e-08	
56	-2.80000e+00	2.805481e-08	
57	-2.85000e+00	2.724951e-08	
58	-2.90000e+00	2.654854e-08	
59	-2.95000e+00	2.593204e-08	
60	-3.00000e+00	2.538494e-08	
61	-3.05000e+00	2.489560e-08	
62	-3.10000e+00	2.445491e-08	
63	-3.15000e+00	2.405563e-08	
64	-3.20000e+00	2.369190e-08	
65	-3.25000e+00	2.335897e-08	
66	-3.30000e+00	2.305292e-08	
67	-3.35000e+00	2.277048e-08	
68	-3.40000e+00	2.250891e-08	
69	-3.45000e+00	2.226591e-08	
70	-3.50000e+00	2.203948e-08	
71	-3.55000e+00	2.182794e-08	
72	-3.60000e+00	2.162981e-08	
73	-3.65000e+00	2.144383e-08	
74	-3.70000e+00	2.126887e-08	
75	-3.75000e+00	2.110396e-08	
76	-3.80000e+00	2.094824e-08	
77	-3.85000e+00	2.080095e-08	
78	-3.90000e+00	2.066139e-08	
79	-3.95000e+00	2.052897e-08	
80	-4.00000e+00	2.040315e-08	
81	-4.05000e+00	2.028343e-08	
82	-4.10000e+00	2.016937e-08	
83	-4.15000e+00	2.006058e-08	
84	-4.20000e+00	1.995669e-08	
85	-4.25000e+00	1.985737e-08	
86	-4.30000e+00	1.976233e-08	
87	-4.35000e+00	1.967130e-08	
88	-4.40000e+00	1.958401e-08	
89	-4.45000e+00	1.950025e-08	
90	-4.50000e+00	1.941980e-08	
91	-4.55000e+00	1.934246e-08	
92	-4.60000e+00	1.926807e-08	
93	-4.65000e+00	1.919645e-08	
94	-4.70000e+00	1.912745e-08	
95	-4.75000e+00	1.906092e-08	
96	-4.80000e+00	1.899674e-08	
97	-4.85000e+00	1.893479e-08	
98	-4.90000e+00	1.887495e-08	
99	-4.95000e+00	1.881710e-08	
100	-5.00000e+00	1.876117e-08	
101	-5.05000e+00	1.870705e-08	
102	-5.10000e+00	1.865465e-08	
103	-5.15000e+00	1.860389e-08	
104	-5.20000e+00	1.855471e-08	
105	-5.25000e+00	1.850702e-08	
106	-5.30000e+00	1.846076e-08	
107	-5.35000e+00	1.841587e-08	
108	-5.40000e+00	1.837228e-08	
109	-5.45000e+00	1.832995e-08	
110	-5.50000e+00	1.828882e-08	
111	-5.55000e+00	1.824883e-08	
112	-5.60000e+00	1.820995e-08	

Index   v-sweep         rds             
--------------------------------------------------------------------------------
113	-5.65000e+00	1.817213e-08	
114	-5.70000e+00	1.813533e-08	
115	-5.75000e+00	1.809950e-08	
116	-5.80000e+00	1.806461e-08	
117	-5.85000e+00	1.803063e-08	
118	-5.90000e+00	1.799752e-08	
119	-5.95000e+00	1.796525e-08	
120	-6.00000e+00	1.793378e-08	
121	-6.05000e+00	1.790310e-08	
122	-6.10000e+00	1.787317e-08	
123	-6.15000e+00	1.784397e-08	
124	-6.20000e+00	1.781547e-08	
125	-6.25000e+00	1.778765e-08	
126	-6.30000e+00	1.776048e-08	
127	-6.35000e+00	1.773395e-08	
128	-6.40000e+00	1.770804e-08	
129	-6.45000e+00	1.768272e-08	
130	-6.50000e+00	1.765798e-08	
131	-6.55000e+00	1.763380e-08	
132	-6.60000e+00	1.761016e-08	
Reset re-loads circuit ***************************

Circuit: ***************************

Doing analysis at TEMP = -40.000000 and TNOM = -40.000000


No. of Data Rows : 133
                          ***************************
                          DC transfer characteristic  Mon Jan  9 13:58:53  2023
--------------------------------------------------------------------------------
Index   v-sweep         rds             
--------------------------------------------------------------------------------
0	0.000000e+00	3.523784e-06	
1	-5.00000e-02	3.462046e-06	
2	-1.00000e-01	3.400337e-06	
3	-1.50000e-01	3.338657e-06	
4	-2.00000e-01	3.277006e-06	
5	-2.50000e-01	3.215383e-06	
6	-3.00000e-01	3.153790e-06	
7	-3.50000e-01	3.092226e-06	
8	-4.00000e-01	3.030691e-06	
9	-4.50000e-01	2.969185e-06	
10	-5.00000e-01	2.907708e-06	
11	-5.50000e-01	2.846260e-06	
12	-6.00000e-01	2.784841e-06	
13	-6.50000e-01	2.723451e-06	
14	-7.00000e-01	2.662091e-06	
15	-7.50000e-01	2.600760e-06	
16	-8.00000e-01	2.539458e-06	
17	-8.50000e-01	2.478186e-06	
18	-9.00000e-01	2.416943e-06	
19	-9.50000e-01	2.355730e-06	
20	-1.00000e+00	2.294548e-06	
21	-1.05000e+00	2.233395e-06	
22	-1.10000e+00	2.172272e-06	
23	-1.15000e+00	2.111181e-06	
24	-1.20000e+00	2.050120e-06	
25	-1.25000e+00	1.989090e-06	
26	-1.30000e+00	1.928093e-06	
27	-1.35000e+00	1.867127e-06	
28	-1.40000e+00	1.806195e-06	
29	-1.45000e+00	1.745296e-06	
30	-1.50000e+00	1.684432e-06	
31	-1.55000e+00	1.623604e-06	
32	-1.60000e+00	1.562813e-06	
33	-1.65000e+00	1.502061e-06	
34	-1.70000e+00	1.441350e-06	
35	-1.75000e+00	1.380683e-06	
36	-1.80000e+00	1.320063e-06	
37	-1.85000e+00	1.259495e-06	
38	-1.90000e+00	1.198983e-06	
39	-1.95000e+00	1.138534e-06	
40	-2.00000e+00	1.078159e-06	
41	-2.05000e+00	1.017868e-06	
42	-2.10000e+00	9.576771e-07	
43	-2.15000e+00	8.976084e-07	
44	-2.20000e+00	8.376907e-07	
45	-2.25000e+00	7.779643e-07	
46	-2.30000e+00	7.184856e-07	
47	-2.35000e+00	6.593342e-07	
48	-2.40000e+00	6.006246e-07	
49	-2.45000e+00	5.425217e-07	
50	-2.50000e+00	4.852652e-07	
51	-2.55000e+00	4.292014e-07	
52	-2.60000e+00	3.748240e-07	
53	-2.65000e+00	3.228147e-07	
54	-2.70000e+00	2.740594e-07	

Index   v-sweep         rds             
--------------------------------------------------------------------------------
55	-2.75000e+00	2.295992e-07	
56	-2.80000e+00	1.904684e-07	
57	-2.85000e+00	1.574263e-07	
58	-2.90000e+00	1.306944e-07	
59	-2.95000e+00	1.098707e-07	
60	-3.00000e+00	9.408566e-08	
61	-3.05000e+00	8.228496e-08	
62	-3.10000e+00	7.347223e-08	
63	-3.15000e+00	6.683142e-08	
64	-3.20000e+00	6.174888e-08	
65	-3.25000e+00	5.778464e-08	
66	-3.30000e+00	5.463034e-08	
67	-3.35000e+00	5.207121e-08	
68	-3.40000e+00	4.995701e-08	
69	-3.45000e+00	4.818157e-08	
70	-3.50000e+00	4.666874e-08	
71	-3.55000e+00	4.536308e-08	
72	-3.60000e+00	4.422350e-08	
73	-3.65000e+00	4.321907e-08	
74	-3.70000e+00	4.232613e-08	
75	-3.75000e+00	4.152628e-08	
76	-3.80000e+00	4.080504e-08	
77	-3.85000e+00	4.015084e-08	
78	-3.90000e+00	3.955434e-08	
79	-3.95000e+00	3.900788e-08	
80	-4.00000e+00	3.850516e-08	
81	-4.05000e+00	3.804092e-08	
82	-4.10000e+00	3.761073e-08	
83	-4.15000e+00	3.721084e-08	
84	-4.20000e+00	3.683805e-08	
85	-4.25000e+00	3.648960e-08	
86	-4.30000e+00	3.616312e-08	
87	-4.35000e+00	3.585653e-08	
88	-4.40000e+00	3.556801e-08	
89	-4.45000e+00	3.529598e-08	
90	-4.50000e+00	3.503903e-08	
91	-4.55000e+00	3.479591e-08	
92	-4.60000e+00	3.456551e-08	
93	-4.65000e+00	3.434684e-08	
94	-4.70000e+00	3.413901e-08	
95	-4.75000e+00	3.394122e-08	
96	-4.80000e+00	3.375275e-08	
97	-4.85000e+00	3.357294e-08	
98	-4.90000e+00	3.340121e-08	
99	-4.95000e+00	3.323701e-08	
100	-5.00000e+00	3.307986e-08	
101	-5.05000e+00	3.292931e-08	
102	-5.10000e+00	3.278494e-08	
103	-5.15000e+00	3.264638e-08	
104	-5.20000e+00	3.251329e-08	
105	-5.25000e+00	3.238533e-08	
106	-5.30000e+00	3.226223e-08	
107	-5.35000e+00	3.214370e-08	
108	-5.40000e+00	3.202950e-08	
109	-5.45000e+00	3.191939e-08	
110	-5.50000e+00	3.181315e-08	
111	-5.55000e+00	3.171059e-08	
112	-5.60000e+00	3.161151e-08	

Index   v-sweep         rds             
--------------------------------------------------------------------------------
113	-5.65000e+00	3.151574e-08	
114	-5.70000e+00	3.142312e-08	
115	-5.75000e+00	3.133349e-08	
116	-5.80000e+00	3.124671e-08	
117	-5.85000e+00	3.116266e-08	
118	-5.90000e+00	3.108119e-08	
119	-5.95000e+00	3.100220e-08	
120	-6.00000e+00	3.092558e-08	
121	-6.05000e+00	3.085121e-08	
122	-6.10000e+00	3.077901e-08	
123	-6.15000e+00	3.070888e-08	
124	-6.20000e+00	3.064073e-08	
125	-6.25000e+00	3.057448e-08	
126	-6.30000e+00	3.051006e-08	
127	-6.35000e+00	3.044739e-08	
128	-6.40000e+00	3.038640e-08	
129	-6.45000e+00	3.032703e-08	
130	-6.50000e+00	3.026922e-08	
131	-6.55000e+00	3.021290e-08	
132	-6.60000e+00	3.015802e-08	
Reset re-loads circuit ***************************

Circuit: ***************************

Doing analysis at TEMP = -40.000000 and TNOM = -40.000000


No. of Data Rows : 133
                          ***************************
                          DC transfer characteristic  Mon Jan  9 13:58:53  2023
--------------------------------------------------------------------------------
Index   v-sweep         rds             
--------------------------------------------------------------------------------
0	0.000000e+00	4.154317e-06	
1	-5.00000e-02	4.096573e-06	
2	-1.00000e-01	4.038854e-06	
3	-1.50000e-01	3.981160e-06	
4	-2.00000e-01	3.923491e-06	
5	-2.50000e-01	3.865847e-06	
6	-3.00000e-01	3.808228e-06	
7	-3.50000e-01	3.750633e-06	
8	-4.00000e-01	3.693064e-06	
9	-4.50000e-01	3.635520e-06	
10	-5.00000e-01	3.578000e-06	
11	-5.50000e-01	3.520505e-06	
12	-6.00000e-01	3.463036e-06	
13	-6.50000e-01	3.405591e-06	
14	-7.00000e-01	3.348171e-06	
15	-7.50000e-01	3.290776e-06	
16	-8.00000e-01	3.233406e-06	
17	-8.50000e-01	3.176061e-06	
18	-9.00000e-01	3.118740e-06	
19	-9.50000e-01	3.061445e-06	
20	-1.00000e+00	3.004175e-06	
21	-1.05000e+00	2.946930e-06	
22	-1.10000e+00	2.889710e-06	
23	-1.15000e+00	2.832515e-06	
24	-1.20000e+00	2.775345e-06	
25	-1.25000e+00	2.718201e-06	
26	-1.30000e+00	2.661082e-06	
27	-1.35000e+00	2.603988e-06	
28	-1.40000e+00	2.546920e-06	
29	-1.45000e+00	2.489878e-06	
30	-1.50000e+00	2.432861e-06	
31	-1.55000e+00	2.375871e-06	
32	-1.60000e+00	2.318906e-06	
33	-1.65000e+00	2.261968e-06	
34	-1.70000e+00	2.205056e-06	
35	-1.75000e+00	2.148172e-06	
36	-1.80000e+00	2.091314e-06	
37	-1.85000e+00	2.034484e-06	
38	-1.90000e+00	1.977682e-06	
39	-1.95000e+00	1.920909e-06	
40	-2.00000e+00	1.864165e-06	
41	-2.05000e+00	1.807451e-06	
42	-2.10000e+00	1.750767e-06	
43	-2.15000e+00	1.694115e-06	
44	-2.20000e+00	1.637497e-06	
45	-2.25000e+00	1.580913e-06	
46	-2.30000e+00	1.524365e-06	
47	-2.35000e+00	1.467855e-06	
48	-2.40000e+00	1.411387e-06	
49	-2.45000e+00	1.354963e-06	
50	-2.50000e+00	1.298587e-06	
51	-2.55000e+00	1.242264e-06	
52	-2.60000e+00	1.186000e-06	
53	-2.65000e+00	1.129804e-06	
54	-2.70000e+00	1.073686e-06	

Index   v-sweep         rds             
--------------------------------------------------------------------------------
55	-2.75000e+00	1.017657e-06	
56	-2.80000e+00	9.617361e-07	
57	-2.85000e+00	9.059444e-07	
58	-2.90000e+00	8.503113e-07	
59	-2.95000e+00	7.948762e-07	
60	-3.00000e+00	7.396924e-07	
61	-3.05000e+00	6.848325e-07	
62	-3.10000e+00	6.303964e-07	
63	-3.15000e+00	5.765223e-07	
64	-3.20000e+00	5.234021e-07	
65	-3.25000e+00	4.713005e-07	
66	-3.30000e+00	4.205791e-07	
67	-3.35000e+00	3.717190e-07	
68	-3.40000e+00	3.253338e-07	
69	-3.45000e+00	2.821518e-07	
70	-3.50000e+00	2.429470e-07	
71	-3.55000e+00	2.084067e-07	
72	-3.60000e+00	1.789640e-07	
73	-3.65000e+00	1.546688e-07	
74	-3.70000e+00	1.351721e-07	
75	-3.75000e+00	1.198340e-07	
76	-3.80000e+00	1.078908e-07	
77	-3.85000e+00	9.860088e-08	
78	-3.90000e+00	9.132827e-08	
79	-3.95000e+00	8.556880e-08	
80	-4.00000e+00	8.094121e-08	
81	-4.05000e+00	7.716450e-08	
82	-4.10000e+00	7.403388e-08	
83	-4.15000e+00	7.140024e-08	
84	-4.20000e+00	6.915443e-08	
85	-4.25000e+00	6.721576e-08	
86	-4.30000e+00	6.552388e-08	
87	-4.35000e+00	6.403305e-08	
88	-4.40000e+00	6.270813e-08	
89	-4.45000e+00	6.152174e-08	
90	-4.50000e+00	6.045230e-08	
91	-4.55000e+00	5.948256e-08	
92	-4.60000e+00	5.859857e-08	
93	-4.65000e+00	5.778894e-08	
94	-4.70000e+00	5.704426e-08	
95	-4.75000e+00	5.635670e-08	
96	-4.80000e+00	5.571968e-08	
97	-4.85000e+00	5.512761e-08	
98	-4.90000e+00	5.457572e-08	
99	-4.95000e+00	5.405993e-08	
100	-5.00000e+00	5.357670e-08	
101	-5.05000e+00	5.312295e-08	
102	-5.10000e+00	5.269599e-08	
103	-5.15000e+00	5.229346e-08	
104	-5.20000e+00	5.191327e-08	
105	-5.25000e+00	5.155356e-08	
106	-5.30000e+00	5.121270e-08	
107	-5.35000e+00	5.088922e-08	
108	-5.40000e+00	5.058179e-08	
109	-5.45000e+00	5.028923e-08	
110	-5.50000e+00	5.001047e-08	
111	-5.55000e+00	4.974454e-08	
112	-5.60000e+00	4.949057e-08	

Index   v-sweep         rds             
--------------------------------------------------------------------------------
113	-5.65000e+00	4.924776e-08	
114	-5.70000e+00	4.901538e-08	
115	-5.75000e+00	4.879277e-08	
116	-5.80000e+00	4.857931e-08	
117	-5.85000e+00	4.837446e-08	
118	-5.90000e+00	4.817769e-08	
119	-5.95000e+00	4.798854e-08	
120	-6.00000e+00	4.780656e-08	
121	-6.05000e+00	4.763136e-08	
122	-6.10000e+00	4.746256e-08	
123	-6.15000e+00	4.729981e-08	
124	-6.20000e+00	4.714280e-08	
125	-6.25000e+00	4.699123e-08	
126	-6.30000e+00	4.684481e-08	
127	-6.35000e+00	4.670329e-08	
128	-6.40000e+00	4.656643e-08	
129	-6.45000e+00	4.643400e-08	
130	-6.50000e+00	4.630579e-08	
131	-6.55000e+00	4.618160e-08	
132	-6.60000e+00	4.606125e-08	
Reset re-loads circuit ***************************

Circuit: ***************************

Note: No ".plot", ".print", or ".fourier" lines; no simulations run
