
Note: Compatibility modes selected: hs

Warning: m=xx on .subckt line will override multiplier m hierarchy!


Circuit: ***************************

Doing analysis at TEMP = -40.000000 and TNOM = -40.000000


No. of Data Rows : 133
                          ***************************
                          DC transfer characteristic  Mon Jan  9 13:58:52  2023
--------------------------------------------------------------------------------
Index   v-sweep         rds             
--------------------------------------------------------------------------------
0	0.000000e+00	1.598036e-06	
1	-5.00000e-02	4.209717e-07	
2	-1.00000e-01	5.322472e-08	
3	-1.50000e-01	1.174271e-08	
4	-2.00000e-01	4.727399e-09	
5	-2.50000e-01	2.727706e-09	
6	-3.00000e-01	1.932639e-09	
7	-3.50000e-01	1.538605e-09	
8	-4.00000e-01	1.310753e-09	
9	-4.50000e-01	1.163471e-09	
10	-5.00000e-01	1.060161e-09	
11	-5.50000e-01	9.831624e-10	
12	-6.00000e-01	9.231014e-10	
13	-6.50000e-01	8.746015e-10	
14	-7.00000e-01	8.343765e-10	
15	-7.50000e-01	8.003076e-10	
16	-8.00000e-01	7.709660e-10	
17	-8.50000e-01	7.453509e-10	
18	-9.00000e-01	7.227380e-10	
19	-9.50000e-01	7.025884e-10	
20	-1.00000e+00	6.844913e-10	
21	-1.05000e+00	6.681274e-10	
22	-1.10000e+00	6.532434e-10	
23	-1.15000e+00	6.396359e-10	
24	-1.20000e+00	6.271387e-10	
25	-1.25000e+00	6.156147e-10	
26	-1.30000e+00	6.049494e-10	
27	-1.35000e+00	5.950465e-10	
28	-1.40000e+00	5.858239e-10	
29	-1.45000e+00	5.772117e-10	
30	-1.50000e+00	5.691491e-10	
31	-1.55000e+00	5.615839e-10	
32	-1.60000e+00	5.544701e-10	
33	-1.65000e+00	5.477676e-10	
34	-1.70000e+00	5.414409e-10	
35	-1.75000e+00	5.354588e-10	
36	-1.80000e+00	5.297932e-10	
37	-1.85000e+00	5.244193e-10	
38	-1.90000e+00	5.193149e-10	
39	-1.95000e+00	5.144598e-10	
40	-2.00000e+00	5.098361e-10	
41	-2.05000e+00	5.054273e-10	
42	-2.10000e+00	5.012188e-10	
43	-2.15000e+00	4.971970e-10	
44	-2.20000e+00	4.933496e-10	
45	-2.25000e+00	4.896656e-10	
46	-2.30000e+00	4.861346e-10	
47	-2.35000e+00	4.827473e-10	
48	-2.40000e+00	4.794950e-10	
49	-2.45000e+00	4.763698e-10	
50	-2.50000e+00	4.733643e-10	
51	-2.55000e+00	4.704719e-10	
52	-2.60000e+00	4.676861e-10	
53	-2.65000e+00	4.650013e-10	
54	-2.70000e+00	4.624119e-10	

Index   v-sweep         rds             
--------------------------------------------------------------------------------
55	-2.75000e+00	4.599132e-10	
56	-2.80000e+00	4.575002e-10	
57	-2.85000e+00	4.551688e-10	
58	-2.90000e+00	4.529149e-10	
59	-2.95000e+00	4.507346e-10	
60	-3.00000e+00	4.486245e-10	
61	-3.05000e+00	4.465813e-10	
62	-3.10000e+00	4.446017e-10	
63	-3.15000e+00	4.426830e-10	
64	-3.20000e+00	4.408224e-10	
65	-3.25000e+00	4.390172e-10	
66	-3.30000e+00	4.372652e-10	
67	-3.35000e+00	4.355640e-10	
68	-3.40000e+00	4.339114e-10	
69	-3.45000e+00	4.323055e-10	
70	-3.50000e+00	4.307443e-10	
71	-3.55000e+00	4.292261e-10	
72	-3.60000e+00	4.277491e-10	
73	-3.65000e+00	4.263117e-10	
74	-3.70000e+00	4.249124e-10	
75	-3.75000e+00	4.235498e-10	
76	-3.80000e+00	4.222224e-10	
77	-3.85000e+00	4.209290e-10	
78	-3.90000e+00	4.196684e-10	
79	-3.95000e+00	4.184393e-10	
80	-4.00000e+00	4.172407e-10	
81	-4.05000e+00	4.160715e-10	
82	-4.10000e+00	4.149308e-10	
83	-4.15000e+00	4.138174e-10	
84	-4.20000e+00	4.127307e-10	
85	-4.25000e+00	4.116696e-10	
86	-4.30000e+00	4.106333e-10	
87	-4.35000e+00	4.096212e-10	
88	-4.40000e+00	4.086324e-10	
89	-4.45000e+00	4.076661e-10	
90	-4.50000e+00	4.067219e-10	
91	-4.55000e+00	4.057989e-10	
92	-4.60000e+00	4.048965e-10	
93	-4.65000e+00	4.040142e-10	
94	-4.70000e+00	4.031514e-10	
95	-4.75000e+00	4.023076e-10	
96	-4.80000e+00	4.014822e-10	
97	-4.85000e+00	4.006747e-10	
98	-4.90000e+00	3.998847e-10	
99	-4.95000e+00	3.991117e-10	
100	-5.00000e+00	3.983552e-10	
101	-5.05000e+00	3.976149e-10	
102	-5.10000e+00	3.968903e-10	
103	-5.15000e+00	3.961811e-10	
104	-5.20000e+00	3.954869e-10	
105	-5.25000e+00	3.948073e-10	
106	-5.30000e+00	3.941419e-10	
107	-5.35000e+00	3.934905e-10	
108	-5.40000e+00	3.928528e-10	
109	-5.45000e+00	3.922284e-10	
110	-5.50000e+00	3.916170e-10	
111	-5.55000e+00	3.910183e-10	
112	-5.60000e+00	3.904322e-10	

Index   v-sweep         rds             
--------------------------------------------------------------------------------
113	-5.65000e+00	3.898582e-10	
114	-5.70000e+00	3.892963e-10	
115	-5.75000e+00	3.887460e-10	
116	-5.80000e+00	3.882072e-10	
117	-5.85000e+00	3.876796e-10	
118	-5.90000e+00	3.871631e-10	
119	-5.95000e+00	3.866574e-10	
120	-6.00000e+00	3.861623e-10	
121	-6.05000e+00	3.856776e-10	
122	-6.10000e+00	3.852031e-10	
123	-6.15000e+00	3.847386e-10	
124	-6.20000e+00	3.842840e-10	
125	-6.25000e+00	3.838390e-10	
126	-6.30000e+00	3.834035e-10	
127	-6.35000e+00	3.829773e-10	
128	-6.40000e+00	3.825603e-10	
129	-6.45000e+00	3.821523e-10	
130	-6.50000e+00	3.817532e-10	
131	-6.55000e+00	3.813627e-10	
132	-6.60000e+00	3.809808e-10	
Reset re-loads circuit ***************************

Circuit: ***************************

Doing analysis at TEMP = -40.000000 and TNOM = -40.000000


No. of Data Rows : 133
                          ***************************
                          DC transfer characteristic  Mon Jan  9 13:58:52  2023
--------------------------------------------------------------------------------
Index   v-sweep         rds             
--------------------------------------------------------------------------------
0	0.000000e+00	3.315163e-05	
1	-5.00000e-02	3.086853e-05	
2	-1.00000e-01	2.858996e-05	
3	-1.50000e-01	2.631610e-05	
4	-2.00000e-01	2.404725e-05	
5	-2.50000e-01	2.178389e-05	
6	-3.00000e-01	1.952682e-05	
7	-3.50000e-01	1.727745e-05	
8	-4.00000e-01	1.503830e-05	
9	-4.50000e-01	1.281418e-05	
10	-5.00000e-01	1.061470e-05	
11	-5.50000e-01	8.459784e-06	
12	-6.00000e-01	6.391595e-06	
13	-6.50000e-01	4.494550e-06	
14	-7.00000e-01	2.906397e-06	
15	-7.50000e-01	1.760575e-06	
16	-8.00000e-01	1.062825e-06	
17	-8.50000e-01	6.844368e-07	
18	-9.00000e-01	4.843899e-07	
19	-9.50000e-01	3.740849e-07	
20	-1.00000e+00	3.087601e-07	
21	-1.05000e+00	2.670318e-07	
22	-1.10000e+00	2.384864e-07	
23	-1.15000e+00	2.177991e-07	
24	-1.20000e+00	2.020864e-07	
25	-1.25000e+00	1.896952e-07	
26	-1.30000e+00	1.796264e-07	
27	-1.35000e+00	1.712465e-07	
28	-1.40000e+00	1.641363e-07	
29	-1.45000e+00	1.580080e-07	
30	-1.50000e+00	1.526571e-07	
31	-1.55000e+00	1.479343e-07	
32	-1.60000e+00	1.437279e-07	
33	-1.65000e+00	1.399520e-07	
34	-1.70000e+00	1.365400e-07	
35	-1.75000e+00	1.334387e-07	
36	-1.80000e+00	1.306052e-07	
37	-1.85000e+00	1.280047e-07	
38	-1.90000e+00	1.256082e-07	
39	-1.95000e+00	1.233918e-07	
40	-2.00000e+00	1.213351e-07	
41	-2.05000e+00	1.194207e-07	
42	-2.10000e+00	1.176341e-07	
43	-2.15000e+00	1.159624e-07	
44	-2.20000e+00	1.143946e-07	
45	-2.25000e+00	1.129211e-07	
46	-2.30000e+00	1.115334e-07	
47	-2.35000e+00	1.102241e-07	
48	-2.40000e+00	1.089866e-07	
49	-2.45000e+00	1.078150e-07	
50	-2.50000e+00	1.067042e-07	
51	-2.55000e+00	1.056494e-07	
52	-2.60000e+00	1.046465e-07	
53	-2.65000e+00	1.036917e-07	
54	-2.70000e+00	1.027816e-07	

Index   v-sweep         rds             
--------------------------------------------------------------------------------
55	-2.75000e+00	1.019130e-07	
56	-2.80000e+00	1.010832e-07	
57	-2.85000e+00	1.002896e-07	
58	-2.90000e+00	9.952987e-08	
59	-2.95000e+00	9.880187e-08	
60	-3.00000e+00	9.810363e-08	
61	-3.05000e+00	9.743336e-08	
62	-3.10000e+00	9.678940e-08	
63	-3.15000e+00	9.617023e-08	
64	-3.20000e+00	9.557444e-08	
65	-3.25000e+00	9.500072e-08	
66	-3.30000e+00	9.444787e-08	
67	-3.35000e+00	9.391476e-08	
68	-3.40000e+00	9.340036e-08	
69	-3.45000e+00	9.290369e-08	
70	-3.50000e+00	9.242386e-08	
71	-3.55000e+00	9.196003e-08	
72	-3.60000e+00	9.151140e-08	
73	-3.65000e+00	9.107725e-08	
74	-3.70000e+00	9.065688e-08	
75	-3.75000e+00	9.024965e-08	
76	-3.80000e+00	8.985496e-08	
77	-3.85000e+00	8.947225e-08	
78	-3.90000e+00	8.910097e-08	
79	-3.95000e+00	8.874064e-08	
80	-4.00000e+00	8.839076e-08	
81	-4.05000e+00	8.805092e-08	
82	-4.10000e+00	8.772067e-08	
83	-4.15000e+00	8.739963e-08	
84	-4.20000e+00	8.708743e-08	
85	-4.25000e+00	8.678371e-08	
86	-4.30000e+00	8.648815e-08	
87	-4.35000e+00	8.620041e-08	
88	-4.40000e+00	8.592021e-08	
89	-4.45000e+00	8.564727e-08	
90	-4.50000e+00	8.538131e-08	
91	-4.55000e+00	8.512208e-08	
92	-4.60000e+00	8.486934e-08	
93	-4.65000e+00	8.462286e-08	
94	-4.70000e+00	8.438242e-08	
95	-4.75000e+00	8.414782e-08	
96	-4.80000e+00	8.391886e-08	
97	-4.85000e+00	8.369534e-08	
98	-4.90000e+00	8.347710e-08	
99	-4.95000e+00	8.326397e-08	
100	-5.00000e+00	8.305577e-08	
101	-5.05000e+00	8.285237e-08	
102	-5.10000e+00	8.265360e-08	
103	-5.15000e+00	8.245934e-08	
104	-5.20000e+00	8.226944e-08	
105	-5.25000e+00	8.208378e-08	
106	-5.30000e+00	8.190223e-08	
107	-5.35000e+00	8.172469e-08	
108	-5.40000e+00	8.155103e-08	
109	-5.45000e+00	8.138115e-08	
110	-5.50000e+00	8.121495e-08	
111	-5.55000e+00	8.105233e-08	
112	-5.60000e+00	8.089320e-08	

Index   v-sweep         rds             
--------------------------------------------------------------------------------
113	-5.65000e+00	8.073747e-08	
114	-5.70000e+00	8.058505e-08	
115	-5.75000e+00	8.043585e-08	
116	-5.80000e+00	8.028980e-08	
117	-5.85000e+00	8.014683e-08	
118	-5.90000e+00	8.000686e-08	
119	-5.95000e+00	7.986981e-08	
120	-6.00000e+00	7.973562e-08	
121	-6.05000e+00	7.960424e-08	
122	-6.10000e+00	7.947558e-08	
123	-6.15000e+00	7.934960e-08	
124	-6.20000e+00	7.922624e-08	
125	-6.25000e+00	7.910543e-08	
126	-6.30000e+00	7.898713e-08	
127	-6.35000e+00	7.887128e-08	
128	-6.40000e+00	7.875784e-08	
129	-6.45000e+00	7.864675e-08	
130	-6.50000e+00	7.853797e-08	
131	-6.55000e+00	7.843146e-08	
132	-6.60000e+00	7.832716e-08	
Reset re-loads circuit ***************************

Circuit: ***************************

Doing analysis at TEMP = -40.000000 and TNOM = -40.000000


No. of Data Rows : 133
                          ***************************
                          DC transfer characteristic  Mon Jan  9 13:58:52  2023
--------------------------------------------------------------------------------
Index   v-sweep         rds             
--------------------------------------------------------------------------------
0	0.000000e+00	5.975206e-05	
1	-5.00000e-02	5.764773e-05	
2	-1.00000e-01	5.554687e-05	
3	-1.50000e-01	5.344950e-05	
4	-2.00000e-01	5.135560e-05	
5	-2.50000e-01	4.926520e-05	
6	-3.00000e-01	4.717831e-05	
7	-3.50000e-01	4.509494e-05	
8	-4.00000e-01	4.301513e-05	
9	-4.50000e-01	4.093890e-05	
10	-5.00000e-01	3.886631e-05	
11	-5.50000e-01	3.679742e-05	
12	-6.00000e-01	3.473232e-05	
13	-6.50000e-01	3.267115e-05	
14	-7.00000e-01	3.061408e-05	
15	-7.50000e-01	2.856136e-05	
16	-8.00000e-01	2.651337e-05	
17	-8.50000e-01	2.447064e-05	
18	-9.00000e-01	2.243398e-05	
19	-9.50000e-01	2.040464e-05	
20	-1.00000e+00	1.838457e-05	
21	-1.05000e+00	1.637692e-05	
22	-1.10000e+00	1.438690e-05	
23	-1.15000e+00	1.242327e-05	
24	-1.20000e+00	1.050101e-05	
25	-1.25000e+00	8.645497e-06	
26	-1.30000e+00	6.897958e-06	
27	-1.35000e+00	5.318580e-06	
28	-1.40000e+00	3.977961e-06	
29	-1.45000e+00	2.928912e-06	
30	-1.50000e+00	2.174132e-06	
31	-1.55000e+00	1.664506e-06	
32	-1.60000e+00	1.330063e-06	
33	-1.65000e+00	1.109416e-06	
34	-1.70000e+00	9.597359e-07	
35	-1.75000e+00	8.542332e-07	
36	-1.80000e+00	7.768204e-07	
37	-1.85000e+00	7.178531e-07	
38	-1.90000e+00	6.714413e-07	
39	-1.95000e+00	6.338847e-07	
40	-2.00000e+00	6.027830e-07	
41	-2.05000e+00	5.765283e-07	
42	-2.10000e+00	5.540098e-07	
43	-2.15000e+00	5.344373e-07	
44	-2.20000e+00	5.172344e-07	
45	-2.25000e+00	5.019700e-07	
46	-2.30000e+00	4.883154e-07	
47	-2.35000e+00	4.760146e-07	
48	-2.40000e+00	4.648656e-07	
49	-2.45000e+00	4.547060e-07	
50	-2.50000e+00	4.454036e-07	
51	-2.55000e+00	4.368500e-07	
52	-2.60000e+00	4.289547e-07	
53	-2.65000e+00	4.216418e-07	
54	-2.70000e+00	4.148472e-07	

Index   v-sweep         rds             
--------------------------------------------------------------------------------
55	-2.75000e+00	4.085158e-07	
56	-2.80000e+00	4.026007e-07	
57	-2.85000e+00	3.970610e-07	
58	-2.90000e+00	3.918613e-07	
59	-2.95000e+00	3.869705e-07	
60	-3.00000e+00	3.823613e-07	
61	-3.05000e+00	3.780098e-07	
62	-3.10000e+00	3.738944e-07	
63	-3.15000e+00	3.699963e-07	
64	-3.20000e+00	3.662984e-07	
65	-3.25000e+00	3.627855e-07	
66	-3.30000e+00	3.594438e-07	
67	-3.35000e+00	3.562611e-07	
68	-3.40000e+00	3.532261e-07	
69	-3.45000e+00	3.503287e-07	
70	-3.50000e+00	3.475597e-07	
71	-3.55000e+00	3.449107e-07	
72	-3.60000e+00	3.423739e-07	
73	-3.65000e+00	3.399424e-07	
74	-3.70000e+00	3.376097e-07	
75	-3.75000e+00	3.353699e-07	
76	-3.80000e+00	3.332175e-07	
77	-3.85000e+00	3.311474e-07	
78	-3.90000e+00	3.291551e-07	
79	-3.95000e+00	3.272362e-07	
80	-4.00000e+00	3.253867e-07	
81	-4.05000e+00	3.236030e-07	
82	-4.10000e+00	3.218815e-07	
83	-4.15000e+00	3.202191e-07	
84	-4.20000e+00	3.186128e-07	
85	-4.25000e+00	3.170597e-07	
86	-4.30000e+00	3.155574e-07	
87	-4.35000e+00	3.141033e-07	
88	-4.40000e+00	3.126952e-07	
89	-4.45000e+00	3.113309e-07	
90	-4.50000e+00	3.100084e-07	
91	-4.55000e+00	3.087259e-07	
92	-4.60000e+00	3.074816e-07	
93	-4.65000e+00	3.062738e-07	
94	-4.70000e+00	3.051010e-07	
95	-4.75000e+00	3.039616e-07	
96	-4.80000e+00	3.028543e-07	
97	-4.85000e+00	3.017778e-07	
98	-4.90000e+00	3.007308e-07	
99	-4.95000e+00	2.997122e-07	
100	-5.00000e+00	2.987208e-07	
101	-5.05000e+00	2.977556e-07	
102	-5.10000e+00	2.968156e-07	
103	-5.15000e+00	2.958999e-07	
104	-5.20000e+00	2.950075e-07	
105	-5.25000e+00	2.941377e-07	
106	-5.30000e+00	2.932896e-07	
107	-5.35000e+00	2.924624e-07	
108	-5.40000e+00	2.916555e-07	
109	-5.45000e+00	2.908681e-07	
110	-5.50000e+00	2.900995e-07	
111	-5.55000e+00	2.893493e-07	
112	-5.60000e+00	2.886167e-07	

Index   v-sweep         rds             
--------------------------------------------------------------------------------
113	-5.65000e+00	2.879012e-07	
114	-5.70000e+00	2.872023e-07	
115	-5.75000e+00	2.865194e-07	
116	-5.80000e+00	2.858521e-07	
117	-5.85000e+00	2.851999e-07	
118	-5.90000e+00	2.845623e-07	
119	-5.95000e+00	2.839390e-07	
120	-6.00000e+00	2.833294e-07	
121	-6.05000e+00	2.827333e-07	
122	-6.10000e+00	2.821502e-07	
123	-6.15000e+00	2.815798e-07	
124	-6.20000e+00	2.810218e-07	
125	-6.25000e+00	2.804758e-07	
126	-6.30000e+00	2.799415e-07	
127	-6.35000e+00	2.794187e-07	
128	-6.40000e+00	2.789069e-07	
129	-6.45000e+00	2.784060e-07	
130	-6.50000e+00	2.779157e-07	
131	-6.55000e+00	2.774358e-07	
132	-6.60000e+00	2.769659e-07	
Reset re-loads circuit ***************************

Circuit: ***************************

Doing analysis at TEMP = -40.000000 and TNOM = -40.000000


No. of Data Rows : 133
                          ***************************
                          DC transfer characteristic  Mon Jan  9 13:58:52  2023
--------------------------------------------------------------------------------
Index   v-sweep         rds             
--------------------------------------------------------------------------------
0	0.000000e+00	8.114213e-05	
1	-5.00000e-02	7.922441e-05	
2	-1.00000e-01	7.730959e-05	
3	-1.50000e-01	7.539765e-05	
4	-2.00000e-01	7.348861e-05	
5	-2.50000e-01	7.158244e-05	
6	-3.00000e-01	6.967917e-05	
7	-3.50000e-01	6.777877e-05	
8	-4.00000e-01	6.588125e-05	
9	-4.50000e-01	6.398661e-05	
10	-5.00000e-01	6.209486e-05	
11	-5.50000e-01	6.020598e-05	
12	-6.00000e-01	5.831999e-05	
13	-6.50000e-01	5.643689e-05	
14	-7.00000e-01	5.455668e-05	
15	-7.50000e-01	5.267937e-05	
16	-8.00000e-01	5.080498e-05	
17	-8.50000e-01	4.893351e-05	
18	-9.00000e-01	4.706500e-05	
19	-9.50000e-01	4.519945e-05	
20	-1.00000e+00	4.333692e-05	
21	-1.05000e+00	4.147743e-05	
22	-1.10000e+00	3.962104e-05	
23	-1.15000e+00	3.776784e-05	
24	-1.20000e+00	3.591790e-05	
25	-1.25000e+00	3.407135e-05	
26	-1.30000e+00	3.222836e-05	
27	-1.35000e+00	3.038916e-05	
28	-1.40000e+00	2.855404e-05	
29	-1.45000e+00	2.672343e-05	
30	-1.50000e+00	2.489791e-05	
31	-1.55000e+00	2.307832e-05	
32	-1.60000e+00	2.126587e-05	
33	-1.65000e+00	1.946233e-05	
34	-1.70000e+00	1.767036e-05	
35	-1.75000e+00	1.589398e-05	
36	-1.80000e+00	1.413937e-05	
37	-1.85000e+00	1.241606e-05	
38	-1.90000e+00	1.073872e-05	
39	-1.95000e+00	9.129264e-06	
40	-2.00000e+00	7.618724e-06	
41	-2.05000e+00	6.246451e-06	
42	-2.10000e+00	5.053649e-06	
43	-2.15000e+00	4.070292e-06	
44	-2.20000e+00	3.301930e-06	
45	-2.25000e+00	2.727124e-06	
46	-2.30000e+00	2.307842e-06	
47	-2.35000e+00	2.003613e-06	
48	-2.40000e+00	1.780457e-06	
49	-2.45000e+00	1.613324e-06	
50	-2.50000e+00	1.484956e-06	
51	-2.55000e+00	1.383796e-06	
52	-2.60000e+00	1.302139e-06	
53	-2.65000e+00	1.234802e-06	
54	-2.70000e+00	1.178235e-06	

Index   v-sweep         rds             
--------------------------------------------------------------------------------
55	-2.75000e+00	1.129955e-06	
56	-2.80000e+00	1.088187e-06	
57	-2.85000e+00	1.051635e-06	
58	-2.90000e+00	1.019330e-06	
59	-2.95000e+00	9.905355e-07	
60	-3.00000e+00	9.646802e-07	
61	-3.05000e+00	9.413147e-07	
62	-3.10000e+00	9.200795e-07	
63	-3.15000e+00	9.006838e-07	
64	-3.20000e+00	8.828889e-07	
65	-3.25000e+00	8.664972e-07	
66	-3.30000e+00	8.513435e-07	
67	-3.35000e+00	8.372882e-07	
68	-3.40000e+00	8.242126e-07	
69	-3.45000e+00	8.120151e-07	
70	-3.50000e+00	8.006079e-07	
71	-3.55000e+00	7.899150e-07	
72	-3.60000e+00	7.798699e-07	
73	-3.65000e+00	7.704143e-07	
74	-3.70000e+00	7.614971e-07	
75	-3.75000e+00	7.530728e-07	
76	-3.80000e+00	7.451010e-07	
77	-3.85000e+00	7.375458e-07	
78	-3.90000e+00	7.303749e-07	
79	-3.95000e+00	7.235595e-07	
80	-4.00000e+00	7.170734e-07	
81	-4.05000e+00	7.108933e-07	
82	-4.10000e+00	7.049977e-07	
83	-4.15000e+00	6.993673e-07	
84	-4.20000e+00	6.939845e-07	
85	-4.25000e+00	6.888332e-07	
86	-4.30000e+00	6.838987e-07	
87	-4.35000e+00	6.791676e-07	
88	-4.40000e+00	6.746275e-07	
89	-4.45000e+00	6.702669e-07	
90	-4.50000e+00	6.660755e-07	
91	-4.55000e+00	6.620436e-07	
92	-4.60000e+00	6.581621e-07	
93	-4.65000e+00	6.544229e-07	
94	-4.70000e+00	6.508182e-07	
95	-4.75000e+00	6.473409e-07	
96	-4.80000e+00	6.439844e-07	
97	-4.85000e+00	6.407425e-07	
98	-4.90000e+00	6.376093e-07	
99	-4.95000e+00	6.345797e-07	
100	-5.00000e+00	6.316484e-07	
101	-5.05000e+00	6.288109e-07	
102	-5.10000e+00	6.260627e-07	
103	-5.15000e+00	6.233996e-07	
104	-5.20000e+00	6.208179e-07	
105	-5.25000e+00	6.183139e-07	
106	-5.30000e+00	6.158840e-07	
107	-5.35000e+00	6.135253e-07	
108	-5.40000e+00	6.112345e-07	
109	-5.45000e+00	6.090088e-07	
110	-5.50000e+00	6.068456e-07	
111	-5.55000e+00	6.047422e-07	
112	-5.60000e+00	6.026964e-07	

Index   v-sweep         rds             
--------------------------------------------------------------------------------
113	-5.65000e+00	6.007058e-07	
114	-5.70000e+00	5.987682e-07	
115	-5.75000e+00	5.968816e-07	
116	-5.80000e+00	5.950442e-07	
117	-5.85000e+00	5.932540e-07	
118	-5.90000e+00	5.915094e-07	
119	-5.95000e+00	5.898087e-07	
120	-6.00000e+00	5.881503e-07	
121	-6.05000e+00	5.865328e-07	
122	-6.10000e+00	5.849547e-07	
123	-6.15000e+00	5.834148e-07	
124	-6.20000e+00	5.819117e-07	
125	-6.25000e+00	5.804442e-07	
126	-6.30000e+00	5.790112e-07	
127	-6.35000e+00	5.776116e-07	
128	-6.40000e+00	5.762443e-07	
129	-6.45000e+00	5.749084e-07	
130	-6.50000e+00	5.736029e-07	
131	-6.55000e+00	5.723268e-07	
132	-6.60000e+00	5.710793e-07	
Reset re-loads circuit ***************************

Circuit: ***************************

Doing analysis at TEMP = -40.000000 and TNOM = -40.000000


No. of Data Rows : 133
                          ***************************
                          DC transfer characteristic  Mon Jan  9 13:58:52  2023
--------------------------------------------------------------------------------
Index   v-sweep         rds             
--------------------------------------------------------------------------------
0	0.000000e+00	9.843204e-05	
1	-5.00000e-02	9.668623e-05	
2	-1.00000e-01	9.494287e-05	
3	-1.50000e-01	9.320194e-05	
4	-2.00000e-01	9.146344e-05	
5	-2.50000e-01	8.972736e-05	
6	-3.00000e-01	8.799372e-05	
7	-3.50000e-01	8.626249e-05	
8	-4.00000e-01	8.453368e-05	
9	-4.50000e-01	8.280728e-05	
10	-5.00000e-01	8.108330e-05	
11	-5.50000e-01	7.936173e-05	
12	-6.00000e-01	7.764256e-05	
13	-6.50000e-01	7.592580e-05	
14	-7.00000e-01	7.421144e-05	
15	-7.50000e-01	7.249948e-05	
16	-8.00000e-01	7.078992e-05	
17	-8.50000e-01	6.908276e-05	
18	-9.00000e-01	6.737800e-05	
19	-9.50000e-01	6.567563e-05	
20	-1.00000e+00	6.397567e-05	
21	-1.05000e+00	6.227811e-05	
22	-1.10000e+00	6.058295e-05	
23	-1.15000e+00	5.889020e-05	
24	-1.20000e+00	5.719986e-05	
25	-1.25000e+00	5.551193e-05	
26	-1.30000e+00	5.382644e-05	
27	-1.35000e+00	5.214338e-05	
28	-1.40000e+00	5.046277e-05	
29	-1.45000e+00	4.878462e-05	
30	-1.50000e+00	4.710897e-05	
31	-1.55000e+00	4.543582e-05	
32	-1.60000e+00	4.376522e-05	
33	-1.65000e+00	4.209720e-05	
34	-1.70000e+00	4.043182e-05	
35	-1.75000e+00	3.876913e-05	
36	-1.80000e+00	3.710922e-05	
37	-1.85000e+00	3.545219e-05	
38	-1.90000e+00	3.379817e-05	
39	-1.95000e+00	3.214732e-05	
40	-2.00000e+00	3.049986e-05	
41	-2.05000e+00	2.885610e-05	
42	-2.10000e+00	2.721639e-05	
43	-2.15000e+00	2.558128e-05	
44	-2.20000e+00	2.395145e-05	
45	-2.25000e+00	2.232788e-05	
46	-2.30000e+00	2.071192e-05	
47	-2.35000e+00	1.910549e-05	
48	-2.40000e+00	1.751132e-05	
49	-2.45000e+00	1.593334e-05	
50	-2.50000e+00	1.437726e-05	
51	-2.55000e+00	1.285135e-05	
52	-2.60000e+00	1.136743e-05	
53	-2.65000e+00	9.941946e-06	
54	-2.70000e+00	8.596575e-06	

Index   v-sweep         rds             
--------------------------------------------------------------------------------
55	-2.75000e+00	7.357437e-06	
56	-2.80000e+00	6.251608e-06	
57	-2.85000e+00	5.300741e-06	
58	-2.90000e+00	4.514066e-06	
59	-2.95000e+00	3.885018e-06	
60	-3.00000e+00	3.393960e-06	
61	-3.05000e+00	3.014929e-06	
62	-3.10000e+00	2.722135e-06	
63	-3.15000e+00	2.493702e-06	
64	-3.20000e+00	2.312707e-06	
65	-3.25000e+00	2.166719e-06	
66	-3.30000e+00	2.046822e-06	
67	-3.35000e+00	1.946663e-06	
68	-3.40000e+00	1.861695e-06	
69	-3.45000e+00	1.788628e-06	
70	-3.50000e+00	1.725042e-06	
71	-3.55000e+00	1.669135e-06	
72	-3.60000e+00	1.619536e-06	
73	-3.65000e+00	1.575188e-06	
74	-3.70000e+00	1.535263e-06	
75	-3.75000e+00	1.499103e-06	
76	-3.80000e+00	1.466178e-06	
77	-3.85000e+00	1.436056e-06	
78	-3.90000e+00	1.408380e-06	
79	-3.95000e+00	1.382855e-06	
80	-4.00000e+00	1.359232e-06	
81	-4.05000e+00	1.337300e-06	
82	-4.10000e+00	1.316879e-06	
83	-4.15000e+00	1.297814e-06	
84	-4.20000e+00	1.279972e-06	
85	-4.25000e+00	1.263236e-06	
86	-4.30000e+00	1.247504e-06	
87	-4.35000e+00	1.232689e-06	
88	-4.40000e+00	1.218709e-06	
89	-4.45000e+00	1.205497e-06	
90	-4.50000e+00	1.192989e-06	
91	-4.55000e+00	1.181130e-06	
92	-4.60000e+00	1.169871e-06	
93	-4.65000e+00	1.159166e-06	
94	-4.70000e+00	1.148975e-06	
95	-4.75000e+00	1.139262e-06	
96	-4.80000e+00	1.129994e-06	
97	-4.85000e+00	1.121141e-06	
98	-4.90000e+00	1.112675e-06	
99	-4.95000e+00	1.104571e-06	
100	-5.00000e+00	1.096807e-06	
101	-5.05000e+00	1.089361e-06	
102	-5.10000e+00	1.082215e-06	
103	-5.15000e+00	1.075350e-06	
104	-5.20000e+00	1.068750e-06	
105	-5.25000e+00	1.062401e-06	
106	-5.30000e+00	1.056287e-06	
107	-5.35000e+00	1.050397e-06	
108	-5.40000e+00	1.044718e-06	
109	-5.45000e+00	1.039239e-06	
110	-5.50000e+00	1.033950e-06	
111	-5.55000e+00	1.028840e-06	
112	-5.60000e+00	1.023902e-06	

Index   v-sweep         rds             
--------------------------------------------------------------------------------
113	-5.65000e+00	1.019126e-06	
114	-5.70000e+00	1.014505e-06	
115	-5.75000e+00	1.010031e-06	
116	-5.80000e+00	1.005698e-06	
117	-5.85000e+00	1.001498e-06	
118	-5.90000e+00	9.974268e-07	
119	-5.95000e+00	9.934775e-07	
120	-6.00000e+00	9.896449e-07	
121	-6.05000e+00	9.859241e-07	
122	-6.10000e+00	9.823103e-07	
123	-6.15000e+00	9.787990e-07	
124	-6.20000e+00	9.753859e-07	
125	-6.25000e+00	9.720672e-07	
126	-6.30000e+00	9.688389e-07	
127	-6.35000e+00	9.656976e-07	
128	-6.40000e+00	9.626399e-07	
129	-6.45000e+00	9.596625e-07	
130	-6.50000e+00	9.567625e-07	
131	-6.55000e+00	9.539369e-07	
132	-6.60000e+00	9.511831e-07	
Reset re-loads circuit ***************************

Circuit: ***************************

Doing analysis at TEMP = -40.000000 and TNOM = -40.000000


No. of Data Rows : 133
                          ***************************
                          DC transfer characteristic  Mon Jan  9 13:58:52  2023
--------------------------------------------------------------------------------
Index   v-sweep         rds             
--------------------------------------------------------------------------------
0	0.000000e+00	1.122597e-04	
1	-5.00000e-02	1.106695e-04	
2	-1.00000e-01	1.090814e-04	
3	-1.50000e-01	1.074953e-04	
4	-2.00000e-01	1.059113e-04	
5	-2.50000e-01	1.043294e-04	
6	-3.00000e-01	1.027495e-04	
7	-3.50000e-01	1.011716e-04	
8	-4.00000e-01	9.959582e-05	
9	-4.50000e-01	9.802206e-05	
10	-5.00000e-01	9.645034e-05	
11	-5.50000e-01	9.488066e-05	
12	-6.00000e-01	9.331301e-05	
13	-6.50000e-01	9.174739e-05	
14	-7.00000e-01	9.018381e-05	
15	-7.50000e-01	8.862225e-05	
16	-8.00000e-01	8.706271e-05	
17	-8.50000e-01	8.550519e-05	
18	-9.00000e-01	8.394970e-05	
19	-9.50000e-01	8.239622e-05	
20	-1.00000e+00	8.084476e-05	
21	-1.05000e+00	7.929531e-05	
22	-1.10000e+00	7.774788e-05	
23	-1.15000e+00	7.620245e-05	
24	-1.20000e+00	7.465904e-05	
25	-1.25000e+00	7.311763e-05	
26	-1.30000e+00	7.157823e-05	
27	-1.35000e+00	7.004084e-05	
28	-1.40000e+00	6.850545e-05	
29	-1.45000e+00	6.697208e-05	
30	-1.50000e+00	6.544071e-05	
31	-1.55000e+00	6.391135e-05	
32	-1.60000e+00	6.238400e-05	
33	-1.65000e+00	6.085867e-05	
34	-1.70000e+00	5.933536e-05	
35	-1.75000e+00	5.781406e-05	
36	-1.80000e+00	5.629480e-05	
37	-1.85000e+00	5.477757e-05	
38	-1.90000e+00	5.326239e-05	
39	-1.95000e+00	5.174926e-05	
40	-2.00000e+00	5.023819e-05	
41	-2.05000e+00	4.872921e-05	
42	-2.10000e+00	4.722234e-05	
43	-2.15000e+00	4.571758e-05	
44	-2.20000e+00	4.421498e-05	
45	-2.25000e+00	4.271457e-05	
46	-2.30000e+00	4.121638e-05	
47	-2.35000e+00	3.972048e-05	
48	-2.40000e+00	3.822691e-05	
49	-2.45000e+00	3.673577e-05	
50	-2.50000e+00	3.524714e-05	
51	-2.55000e+00	3.376114e-05	
52	-2.60000e+00	3.227793e-05	
53	-2.65000e+00	3.079770e-05	
54	-2.70000e+00	2.932070e-05	

Index   v-sweep         rds             
--------------------------------------------------------------------------------
55	-2.75000e+00	2.784723e-05	
56	-2.80000e+00	2.637771e-05	
57	-2.85000e+00	2.491269e-05	
58	-2.90000e+00	2.345288e-05	
59	-2.95000e+00	2.199923e-05	
60	-3.00000e+00	2.055305e-05	
61	-3.05000e+00	1.911611e-05	
62	-3.10000e+00	1.769084e-05	
63	-3.15000e+00	1.628061e-05	
64	-3.20000e+00	1.489009e-05	
65	-3.25000e+00	1.352573e-05	
66	-3.30000e+00	1.219633e-05	
67	-3.35000e+00	1.091361e-05	
68	-3.40000e+00	9.692533e-06	
69	-3.45000e+00	8.550901e-06	
70	-3.50000e+00	7.507705e-06	
71	-3.55000e+00	6.579960e-06	
72	-3.60000e+00	5.778675e-06	
73	-3.65000e+00	5.105720e-06	
74	-3.70000e+00	4.553358e-06	
75	-3.75000e+00	4.106736e-06	
76	-3.80000e+00	3.747801e-06	
77	-3.85000e+00	3.458770e-06	
78	-3.90000e+00	3.224171e-06	
79	-3.95000e+00	3.031528e-06	
80	-4.00000e+00	2.871224e-06	
81	-4.05000e+00	2.736015e-06	
82	-4.10000e+00	2.620491e-06	
83	-4.15000e+00	2.520611e-06	
84	-4.20000e+00	2.433333e-06	
85	-4.25000e+00	2.356344e-06	
86	-4.30000e+00	2.287862e-06	
87	-4.35000e+00	2.226499e-06	
88	-4.40000e+00	2.171158e-06	
89	-4.45000e+00	2.120960e-06	
90	-4.50000e+00	2.075194e-06	
91	-4.55000e+00	2.033277e-06	
92	-4.60000e+00	1.994728e-06	
93	-4.65000e+00	1.959144e-06	
94	-4.70000e+00	1.926187e-06	
95	-4.75000e+00	1.895568e-06	
96	-4.80000e+00	1.867042e-06	
97	-4.85000e+00	1.840396e-06	
98	-4.90000e+00	1.815446e-06	
99	-4.95000e+00	1.792034e-06	
100	-5.00000e+00	1.770019e-06	
101	-5.05000e+00	1.749278e-06	
102	-5.10000e+00	1.729701e-06	
103	-5.15000e+00	1.711193e-06	
104	-5.20000e+00	1.693667e-06	
105	-5.25000e+00	1.677046e-06	
106	-5.30000e+00	1.661262e-06	
107	-5.35000e+00	1.646253e-06	
108	-5.40000e+00	1.631961e-06	
109	-5.45000e+00	1.618338e-06	
110	-5.50000e+00	1.605336e-06	
111	-5.55000e+00	1.592914e-06	
112	-5.60000e+00	1.581034e-06	

Index   v-sweep         rds             
--------------------------------------------------------------------------------
113	-5.65000e+00	1.569661e-06	
114	-5.70000e+00	1.558763e-06	
115	-5.75000e+00	1.548311e-06	
116	-5.80000e+00	1.538279e-06	
117	-5.85000e+00	1.528640e-06	
118	-5.90000e+00	1.519373e-06	
119	-5.95000e+00	1.510457e-06	
120	-6.00000e+00	1.501871e-06	
121	-6.05000e+00	1.493599e-06	
122	-6.10000e+00	1.485622e-06	
123	-6.15000e+00	1.477926e-06	
124	-6.20000e+00	1.470496e-06	
125	-6.25000e+00	1.463318e-06	
126	-6.30000e+00	1.456381e-06	
127	-6.35000e+00	1.449671e-06	
128	-6.40000e+00	1.443178e-06	
129	-6.45000e+00	1.436892e-06	
130	-6.50000e+00	1.430803e-06	
131	-6.55000e+00	1.424902e-06	
132	-6.60000e+00	1.419181e-06	
Reset re-loads circuit ***************************

Circuit: ***************************

Note: No ".plot", ".print", or ".fourier" lines; no simulations run
