
Note: Compatibility modes selected: hs

Warning: m=xx on .subckt line will override multiplier m hierarchy!


Circuit: ***************************

Doing analysis at TEMP = 25.000000 and TNOM = 25.000000


No. of Data Rows : 133
                          ***************************
                          DC transfer characteristic  Mon Jan  9 13:58:51  2023
--------------------------------------------------------------------------------
Index   v-sweep         rds             
--------------------------------------------------------------------------------
0	0.000000e+00	4.602311e-05	
1	-5.00000e-02	3.113772e-05	
2	-1.00000e-01	1.733361e-05	
3	-1.50000e-01	7.044929e-06	
4	-2.00000e-01	2.773447e-06	
5	-2.50000e-01	1.675182e-06	
6	-3.00000e-01	1.350728e-06	
7	-3.50000e-01	1.213340e-06	
8	-4.00000e-01	1.135664e-06	
9	-4.50000e-01	1.083086e-06	
10	-5.00000e-01	1.043629e-06	
11	-5.50000e-01	1.012208e-06	
12	-6.00000e-01	9.862754e-07	
13	-6.50000e-01	9.643759e-07	
14	-7.00000e-01	9.455902e-07	
15	-7.50000e-01	9.292930e-07	
16	-8.00000e-01	9.150341e-07	
17	-8.50000e-01	9.024761e-07	
18	-9.00000e-01	8.913580e-07	
19	-9.50000e-01	8.814729e-07	
20	-1.00000e+00	8.726538e-07	
21	-1.05000e+00	8.647637e-07	
22	-1.10000e+00	8.576890e-07	
23	-1.15000e+00	8.513340e-07	
24	-1.20000e+00	8.456182e-07	
25	-1.25000e+00	8.404724e-07	
26	-1.30000e+00	8.358374e-07	
27	-1.35000e+00	8.316619e-07	
28	-1.40000e+00	8.279012e-07	
29	-1.45000e+00	8.245165e-07	
30	-1.50000e+00	8.214735e-07	
31	-1.55000e+00	8.187418e-07	
32	-1.60000e+00	8.162949e-07	
33	-1.65000e+00	8.141089e-07	
34	-1.70000e+00	8.121625e-07	
35	-1.75000e+00	8.104368e-07	
36	-1.80000e+00	8.089148e-07	
37	-1.85000e+00	8.075810e-07	
38	-1.90000e+00	8.064217e-07	
39	-1.95000e+00	8.054244e-07	
40	-2.00000e+00	8.045776e-07	
41	-2.05000e+00	8.038710e-07	
42	-2.10000e+00	8.032952e-07	
43	-2.15000e+00	8.028417e-07	
44	-2.20000e+00	8.025024e-07	
45	-2.25000e+00	8.022703e-07	
46	-2.30000e+00	8.021387e-07	
47	-2.35000e+00	8.021016e-07	
48	-2.40000e+00	8.021532e-07	
49	-2.45000e+00	8.022884e-07	
50	-2.50000e+00	8.025025e-07	
51	-2.55000e+00	8.027910e-07	
52	-2.60000e+00	8.031498e-07	
53	-2.65000e+00	8.035751e-07	
54	-2.70000e+00	8.040634e-07	

Index   v-sweep         rds             
--------------------------------------------------------------------------------
55	-2.75000e+00	8.046113e-07	
56	-2.80000e+00	8.052158e-07	
57	-2.85000e+00	8.058740e-07	
58	-2.90000e+00	8.065832e-07	
59	-2.95000e+00	8.073410e-07	
60	-3.00000e+00	8.081450e-07	
61	-3.05000e+00	8.089930e-07	
62	-3.10000e+00	8.098830e-07	
63	-3.15000e+00	8.108131e-07	
64	-3.20000e+00	8.117814e-07	
65	-3.25000e+00	8.127862e-07	
66	-3.30000e+00	8.138260e-07	
67	-3.35000e+00	8.148993e-07	
68	-3.40000e+00	8.160046e-07	
69	-3.45000e+00	8.171406e-07	
70	-3.50000e+00	8.183060e-07	
71	-3.55000e+00	8.194998e-07	
72	-3.60000e+00	8.207207e-07	
73	-3.65000e+00	8.219677e-07	
74	-3.70000e+00	8.232398e-07	
75	-3.75000e+00	8.245361e-07	
76	-3.80000e+00	8.258557e-07	
77	-3.85000e+00	8.271978e-07	
78	-3.90000e+00	8.285615e-07	
79	-3.95000e+00	8.299462e-07	
80	-4.00000e+00	8.313510e-07	
81	-4.05000e+00	8.327755e-07	
82	-4.10000e+00	8.342188e-07	
83	-4.15000e+00	8.356804e-07	
84	-4.20000e+00	8.371598e-07	
85	-4.25000e+00	8.386564e-07	
86	-4.30000e+00	8.401698e-07	
87	-4.35000e+00	8.416993e-07	
88	-4.40000e+00	8.432447e-07	
89	-4.45000e+00	8.448054e-07	
90	-4.50000e+00	8.463810e-07	
91	-4.55000e+00	8.479713e-07	
92	-4.60000e+00	8.495757e-07	
93	-4.65000e+00	8.511940e-07	
94	-4.70000e+00	8.528259e-07	
95	-4.75000e+00	8.544710e-07	
96	-4.80000e+00	8.561291e-07	
97	-4.85000e+00	8.577999e-07	
98	-4.90000e+00	8.594831e-07	
99	-4.95000e+00	8.611785e-07	
100	-5.00000e+00	8.628859e-07	
101	-5.05000e+00	8.646051e-07	
102	-5.10000e+00	8.663358e-07	
103	-5.15000e+00	8.680779e-07	
104	-5.20000e+00	8.698312e-07	
105	-5.25000e+00	8.715955e-07	
106	-5.30000e+00	8.733707e-07	
107	-5.35000e+00	8.751566e-07	
108	-5.40000e+00	8.769532e-07	
109	-5.45000e+00	8.787602e-07	
110	-5.50000e+00	8.805775e-07	
111	-5.55000e+00	8.824051e-07	
112	-5.60000e+00	8.842428e-07	

Index   v-sweep         rds             
--------------------------------------------------------------------------------
113	-5.65000e+00	8.860906e-07	
114	-5.70000e+00	8.879483e-07	
115	-5.75000e+00	8.898159e-07	
116	-5.80000e+00	8.916933e-07	
117	-5.85000e+00	8.935804e-07	
118	-5.90000e+00	8.954772e-07	
119	-5.95000e+00	8.973835e-07	
120	-6.00000e+00	8.992994e-07	
121	-6.05000e+00	9.012248e-07	
122	-6.10000e+00	9.031596e-07	
123	-6.15000e+00	9.051038e-07	
124	-6.20000e+00	9.070574e-07	
125	-6.25000e+00	9.090203e-07	
126	-6.30000e+00	9.109924e-07	
127	-6.35000e+00	9.129739e-07	
128	-6.40000e+00	9.149646e-07	
129	-6.45000e+00	9.169645e-07	
130	-6.50000e+00	9.189735e-07	
131	-6.55000e+00	9.209918e-07	
132	-6.60000e+00	9.230193e-07	
Reset re-loads circuit ***************************

Circuit: ***************************

Doing analysis at TEMP = 25.000000 and TNOM = 25.000000


No. of Data Rows : 133
                          ***************************
                          DC transfer characteristic  Mon Jan  9 13:58:51  2023
--------------------------------------------------------------------------------
Index   v-sweep         rds             
--------------------------------------------------------------------------------
0	0.000000e+00	3.207195e-04	
1	-5.00000e-02	3.021233e-04	
2	-1.00000e-01	2.837738e-04	
3	-1.50000e-01	2.656678e-04	
4	-2.00000e-01	2.478026e-04	
5	-2.50000e-01	2.301760e-04	
6	-3.00000e-01	2.127864e-04	
7	-3.50000e-01	1.956330e-04	
8	-4.00000e-01	1.787170e-04	
9	-4.50000e-01	1.620420e-04	
10	-5.00000e-01	1.456167e-04	
11	-5.50000e-01	1.294585e-04	
12	-6.00000e-01	1.136019e-04	
13	-6.50000e-01	9.811480e-05	
14	-7.00000e-01	8.313262e-05	
15	-7.50000e-01	6.891998e-05	
16	-8.00000e-01	5.595277e-05	
17	-8.50000e-01	4.491167e-05	
18	-9.00000e-01	3.636842e-05	
19	-9.50000e-01	3.030607e-05	
20	-1.00000e+00	2.614372e-05	
21	-1.05000e+00	2.321571e-05	
22	-1.10000e+00	2.105094e-05	
23	-1.15000e+00	1.937092e-05	
24	-1.20000e+00	1.801636e-05	
25	-1.25000e+00	1.689294e-05	
26	-1.30000e+00	1.594152e-05	
27	-1.35000e+00	1.512286e-05	
28	-1.40000e+00	1.440956e-05	
29	-1.45000e+00	1.378171e-05	
30	-1.50000e+00	1.322439e-05	
31	-1.55000e+00	1.272610e-05	
32	-1.60000e+00	1.227779e-05	
33	-1.65000e+00	1.187223e-05	
34	-1.70000e+00	1.150355e-05	
35	-1.75000e+00	1.116693e-05	
36	-1.80000e+00	1.085837e-05	
37	-1.85000e+00	1.057451e-05	
38	-1.90000e+00	1.031251e-05	
39	-1.95000e+00	1.006997e-05	
40	-2.00000e+00	9.844808e-06	
41	-2.05000e+00	9.635245e-06	
42	-2.10000e+00	9.439735e-06	
43	-2.15000e+00	9.256928e-06	
44	-2.20000e+00	9.085643e-06	
45	-2.25000e+00	8.924843e-06	
46	-2.30000e+00	8.773610e-06	
47	-2.35000e+00	8.631131e-06	
48	-2.40000e+00	8.496683e-06	
49	-2.45000e+00	8.369620e-06	
50	-2.50000e+00	8.249362e-06	
51	-2.55000e+00	8.135392e-06	
52	-2.60000e+00	8.027240e-06	
53	-2.65000e+00	7.924484e-06	
54	-2.70000e+00	7.826741e-06	

Index   v-sweep         rds             
--------------------------------------------------------------------------------
55	-2.75000e+00	7.733663e-06	
56	-2.80000e+00	7.644935e-06	
57	-2.85000e+00	7.560268e-06	
58	-2.90000e+00	7.479398e-06	
59	-2.95000e+00	7.402085e-06	
60	-3.00000e+00	7.328107e-06	
61	-3.05000e+00	7.257261e-06	
62	-3.10000e+00	7.189360e-06	
63	-3.15000e+00	7.124231e-06	
64	-3.20000e+00	7.061715e-06	
65	-3.25000e+00	7.001665e-06	
66	-3.30000e+00	6.943943e-06	
67	-3.35000e+00	6.888425e-06	
68	-3.40000e+00	6.834991e-06	
69	-3.45000e+00	6.783532e-06	
70	-3.50000e+00	6.733947e-06	
71	-3.55000e+00	6.686140e-06	
72	-3.60000e+00	6.640022e-06	
73	-3.65000e+00	6.595512e-06	
74	-3.70000e+00	6.552531e-06	
75	-3.75000e+00	6.511007e-06	
76	-3.80000e+00	6.470872e-06	
77	-3.85000e+00	6.432061e-06	
78	-3.90000e+00	6.394516e-06	
79	-3.95000e+00	6.358179e-06	
80	-4.00000e+00	6.322998e-06	
81	-4.05000e+00	6.288923e-06	
82	-4.10000e+00	6.255907e-06	
83	-4.15000e+00	6.223905e-06	
84	-4.20000e+00	6.192876e-06	
85	-4.25000e+00	6.162781e-06	
86	-4.30000e+00	6.133582e-06	
87	-4.35000e+00	6.105244e-06	
88	-4.40000e+00	6.077734e-06	
89	-4.45000e+00	6.051020e-06	
90	-4.50000e+00	6.025073e-06	
91	-4.55000e+00	5.999864e-06	
92	-4.60000e+00	5.975368e-06	
93	-4.65000e+00	5.951557e-06	
94	-4.70000e+00	5.928410e-06	
95	-4.75000e+00	5.905901e-06	
96	-4.80000e+00	5.884012e-06	
97	-4.85000e+00	5.862719e-06	
98	-4.90000e+00	5.842005e-06	
99	-4.95000e+00	5.821851e-06	
100	-5.00000e+00	5.802239e-06	
101	-5.05000e+00	5.783152e-06	
102	-5.10000e+00	5.764575e-06	
103	-5.15000e+00	5.746492e-06	
104	-5.20000e+00	5.728890e-06	
105	-5.25000e+00	5.711754e-06	
106	-5.30000e+00	5.695072e-06	
107	-5.35000e+00	5.678830e-06	
108	-5.40000e+00	5.663018e-06	
109	-5.45000e+00	5.647625e-06	
110	-5.50000e+00	5.632638e-06	
111	-5.55000e+00	5.618049e-06	
112	-5.60000e+00	5.603847e-06	

Index   v-sweep         rds             
--------------------------------------------------------------------------------
113	-5.65000e+00	5.590023e-06	
114	-5.70000e+00	5.576568e-06	
115	-5.75000e+00	5.563474e-06	
116	-5.80000e+00	5.550733e-06	
117	-5.85000e+00	5.538337e-06	
118	-5.90000e+00	5.526278e-06	
119	-5.95000e+00	5.514549e-06	
120	-6.00000e+00	5.503145e-06	
121	-6.05000e+00	5.492057e-06	
122	-6.10000e+00	5.481281e-06	
123	-6.15000e+00	5.470810e-06	
124	-6.20000e+00	5.460638e-06	
125	-6.25000e+00	5.450760e-06	
126	-6.30000e+00	5.441171e-06	
127	-6.35000e+00	5.431865e-06	
128	-6.40000e+00	5.422839e-06	
129	-6.45000e+00	5.414086e-06	
130	-6.50000e+00	5.405604e-06	
131	-6.55000e+00	5.397386e-06	
132	-6.60000e+00	5.389430e-06	
Reset re-loads circuit ***************************

Circuit: ***************************

Doing analysis at TEMP = 25.000000 and TNOM = 25.000000


No. of Data Rows : 133
                          ***************************
                          DC transfer characteristic  Mon Jan  9 13:58:51  2023
--------------------------------------------------------------------------------
Index   v-sweep         rds             
--------------------------------------------------------------------------------
0	0.000000e+00	5.139145e-04	
1	-5.00000e-02	4.962315e-04	
2	-1.00000e-01	4.787441e-04	
3	-1.50000e-01	4.614499e-04	
4	-2.00000e-01	4.443468e-04	
5	-2.50000e-01	4.274324e-04	
6	-3.00000e-01	4.107045e-04	
7	-3.50000e-01	3.941609e-04	
8	-4.00000e-01	3.777996e-04	
9	-4.50000e-01	3.616185e-04	
10	-5.00000e-01	3.456157e-04	
11	-5.50000e-01	3.297892e-04	
12	-6.00000e-01	3.141374e-04	
13	-6.50000e-01	2.986585e-04	
14	-7.00000e-01	2.833513e-04	
15	-7.50000e-01	2.682144e-04	
16	-8.00000e-01	2.532472e-04	
17	-8.50000e-01	2.384492e-04	
18	-9.00000e-01	2.238209e-04	
19	-9.50000e-01	2.093637e-04	
20	-1.00000e+00	1.950808e-04	
21	-1.05000e+00	1.809779e-04	
22	-1.10000e+00	1.670650e-04	
23	-1.15000e+00	1.533592e-04	
24	-1.20000e+00	1.398895e-04	
25	-1.25000e+00	1.267052e-04	
26	-1.30000e+00	1.138897e-04	
27	-1.35000e+00	1.015801e-04	
28	-1.40000e+00	8.998511e-05	
29	-1.45000e+00	7.937780e-05	
30	-1.50000e+00	7.002819e-05	
31	-1.55000e+00	6.208791e-05	
32	-1.60000e+00	5.552178e-05	
33	-1.65000e+00	5.015110e-05	
34	-1.70000e+00	4.574896e-05	
35	-1.75000e+00	4.210675e-05	
36	-1.80000e+00	3.905683e-05	
37	-1.85000e+00	3.647151e-05	
38	-1.90000e+00	3.425491e-05	
39	-1.95000e+00	3.233483e-05	
40	-2.00000e+00	3.065632e-05	
41	-2.05000e+00	2.917699e-05	
42	-2.10000e+00	2.786372e-05	
43	-2.15000e+00	2.669030e-05	
44	-2.20000e+00	2.563569e-05	
45	-2.25000e+00	2.468288e-05	
46	-2.30000e+00	2.381792e-05	
47	-2.35000e+00	2.302930e-05	
48	-2.40000e+00	2.230743e-05	
49	-2.45000e+00	2.164425e-05	
50	-2.50000e+00	2.103294e-05	
51	-2.55000e+00	2.046770e-05	
52	-2.60000e+00	1.994356e-05	
53	-2.65000e+00	1.945624e-05	
54	-2.70000e+00	1.900203e-05	

Index   v-sweep         rds             
--------------------------------------------------------------------------------
55	-2.75000e+00	1.857770e-05	
56	-2.80000e+00	1.818043e-05	
57	-2.85000e+00	1.780774e-05	
58	-2.90000e+00	1.745744e-05	
59	-2.95000e+00	1.712760e-05	
60	-3.00000e+00	1.681650e-05	
61	-3.05000e+00	1.652260e-05	
62	-3.10000e+00	1.624454e-05	
63	-3.15000e+00	1.598109e-05	
64	-3.20000e+00	1.573114e-05	
65	-3.25000e+00	1.549370e-05	
66	-3.30000e+00	1.526787e-05	
67	-3.35000e+00	1.505282e-05	
68	-3.40000e+00	1.484782e-05	
69	-3.45000e+00	1.465220e-05	
70	-3.50000e+00	1.446532e-05	
71	-3.55000e+00	1.428664e-05	
72	-3.60000e+00	1.411563e-05	
73	-3.65000e+00	1.395182e-05	
74	-3.70000e+00	1.379478e-05	
75	-3.75000e+00	1.364410e-05	
76	-3.80000e+00	1.349941e-05	
77	-3.85000e+00	1.336037e-05	
78	-3.90000e+00	1.322667e-05	
79	-3.95000e+00	1.309800e-05	
80	-4.00000e+00	1.297410e-05	
81	-4.05000e+00	1.285472e-05	
82	-4.10000e+00	1.273962e-05	
83	-4.15000e+00	1.262857e-05	
84	-4.20000e+00	1.252138e-05	
85	-4.25000e+00	1.241785e-05	
86	-4.30000e+00	1.231781e-05	
87	-4.35000e+00	1.222109e-05	
88	-4.40000e+00	1.212753e-05	
89	-4.45000e+00	1.203698e-05	
90	-4.50000e+00	1.194931e-05	
91	-4.55000e+00	1.186439e-05	
92	-4.60000e+00	1.178209e-05	
93	-4.65000e+00	1.170231e-05	
94	-4.70000e+00	1.162494e-05	
95	-4.75000e+00	1.154986e-05	
96	-4.80000e+00	1.147700e-05	
97	-4.85000e+00	1.140625e-05	
98	-4.90000e+00	1.133754e-05	
99	-4.95000e+00	1.127078e-05	
100	-5.00000e+00	1.120590e-05	
101	-5.05000e+00	1.114282e-05	
102	-5.10000e+00	1.108148e-05	
103	-5.15000e+00	1.102182e-05	
104	-5.20000e+00	1.096376e-05	
105	-5.25000e+00	1.090727e-05	
106	-5.30000e+00	1.085227e-05	
107	-5.35000e+00	1.079873e-05	
108	-5.40000e+00	1.074658e-05	
109	-5.45000e+00	1.069579e-05	
110	-5.50000e+00	1.064631e-05	
111	-5.55000e+00	1.059810e-05	
112	-5.60000e+00	1.055112e-05	

Index   v-sweep         rds             
--------------------------------------------------------------------------------
113	-5.65000e+00	1.050533e-05	
114	-5.70000e+00	1.046069e-05	
115	-5.75000e+00	1.041718e-05	
116	-5.80000e+00	1.037475e-05	
117	-5.85000e+00	1.033339e-05	
118	-5.90000e+00	1.029305e-05	
119	-5.95000e+00	1.025371e-05	
120	-6.00000e+00	1.021535e-05	
121	-6.05000e+00	1.017794e-05	
122	-6.10000e+00	1.014146e-05	
123	-6.15000e+00	1.010588e-05	
124	-6.20000e+00	1.007118e-05	
125	-6.25000e+00	1.003734e-05	
126	-6.30000e+00	1.000434e-05	
127	-6.35000e+00	9.972158e-06	
128	-6.40000e+00	9.940784e-06	
129	-6.45000e+00	9.910197e-06	
130	-6.50000e+00	9.880380e-06	
131	-6.55000e+00	9.851317e-06	
132	-6.60000e+00	9.822993e-06	
Reset re-loads circuit ***************************

Circuit: ***************************

Doing analysis at TEMP = 25.000000 and TNOM = 25.000000


No. of Data Rows : 133
                          ***************************
                          DC transfer characteristic  Mon Jan  9 13:58:51  2023
--------------------------------------------------------------------------------
Index   v-sweep         rds             
--------------------------------------------------------------------------------
0	0.000000e+00	6.622755e-04	
1	-5.00000e-02	6.456689e-04	
2	-1.00000e-01	6.292221e-04	
3	-1.50000e-01	6.129335e-04	
4	-2.00000e-01	5.968014e-04	
5	-2.50000e-01	5.808241e-04	
6	-3.00000e-01	5.650000e-04	
7	-3.50000e-01	5.493275e-04	
8	-4.00000e-01	5.338051e-04	
9	-4.50000e-01	5.184311e-04	
10	-5.00000e-01	5.032041e-04	
11	-5.50000e-01	4.881225e-04	
12	-6.00000e-01	4.731848e-04	
13	-6.50000e-01	4.583895e-04	
14	-7.00000e-01	4.437353e-04	
15	-7.50000e-01	4.292205e-04	
16	-8.00000e-01	4.148440e-04	
17	-8.50000e-01	4.006043e-04	
18	-9.00000e-01	3.865000e-04	
19	-9.50000e-01	3.725300e-04	
20	-1.00000e+00	3.586929e-04	
21	-1.05000e+00	3.449876e-04	
22	-1.10000e+00	3.314131e-04	
23	-1.15000e+00	3.179682e-04	
24	-1.20000e+00	3.046520e-04	
25	-1.25000e+00	2.914638e-04	
26	-1.30000e+00	2.784030e-04	
27	-1.35000e+00	2.654690e-04	
28	-1.40000e+00	2.526618e-04	
29	-1.45000e+00	2.399816e-04	
30	-1.50000e+00	2.274293e-04	
31	-1.55000e+00	2.150064e-04	
32	-1.60000e+00	2.027158e-04	
33	-1.65000e+00	1.905618e-04	
34	-1.70000e+00	1.785518e-04	
35	-1.75000e+00	1.666973e-04	
36	-1.80000e+00	1.550166e-04	
37	-1.85000e+00	1.435398e-04	
38	-1.90000e+00	1.323156e-04	
39	-1.95000e+00	1.214212e-04	
40	-2.00000e+00	1.109727e-04	
41	-2.05000e+00	1.011243e-04	
42	-2.10000e+00	9.204392e-05	
43	-2.15000e+00	8.386623e-05	
44	-2.20000e+00	7.665105e-05	
45	-2.25000e+00	7.037529e-05	
46	-2.30000e+00	6.495663e-05	
47	-2.35000e+00	6.028575e-05	
48	-2.40000e+00	5.625051e-05	
49	-2.45000e+00	5.274866e-05	
50	-2.50000e+00	4.969246e-05	
51	-2.55000e+00	4.700889e-05	
52	-2.60000e+00	4.463805e-05	
53	-2.65000e+00	4.253105e-05	
54	-2.70000e+00	4.064800e-05	

Index   v-sweep         rds             
--------------------------------------------------------------------------------
55	-2.75000e+00	3.895622e-05	
56	-2.80000e+00	3.742884e-05	
57	-2.85000e+00	3.604361e-05	
58	-2.90000e+00	3.478201e-05	
59	-2.95000e+00	3.362853e-05	
60	-3.00000e+00	3.257010e-05	
61	-3.05000e+00	3.159562e-05	
62	-3.10000e+00	3.069566e-05	
63	-3.15000e+00	2.986209e-05	
64	-3.20000e+00	2.908794e-05	
65	-3.25000e+00	2.836717e-05	
66	-3.30000e+00	2.769450e-05	
67	-3.35000e+00	2.706534e-05	
68	-3.40000e+00	2.647565e-05	
69	-3.45000e+00	2.592188e-05	
70	-3.50000e+00	2.540088e-05	
71	-3.55000e+00	2.490987e-05	
72	-3.60000e+00	2.444636e-05	
73	-3.65000e+00	2.400813e-05	
74	-3.70000e+00	2.359320e-05	
75	-3.75000e+00	2.319977e-05	
76	-3.80000e+00	2.282625e-05	
77	-3.85000e+00	2.247118e-05	
78	-3.90000e+00	2.213325e-05	
79	-3.95000e+00	2.181125e-05	
80	-4.00000e+00	2.150411e-05	
81	-4.05000e+00	2.121083e-05	
82	-4.10000e+00	2.093052e-05	
83	-4.15000e+00	2.066234e-05	
84	-4.20000e+00	2.040553e-05	
85	-4.25000e+00	2.015940e-05	
86	-4.30000e+00	1.992331e-05	
87	-4.35000e+00	1.969666e-05	
88	-4.40000e+00	1.947892e-05	
89	-4.45000e+00	1.926956e-05	
90	-4.50000e+00	1.906814e-05	
91	-4.55000e+00	1.887421e-05	
92	-4.60000e+00	1.868738e-05	
93	-4.65000e+00	1.850726e-05	
94	-4.70000e+00	1.833351e-05	
95	-4.75000e+00	1.816581e-05	
96	-4.80000e+00	1.800386e-05	
97	-4.85000e+00	1.784736e-05	
98	-4.90000e+00	1.769606e-05	
99	-4.95000e+00	1.754971e-05	
100	-5.00000e+00	1.740807e-05	
101	-5.05000e+00	1.727094e-05	
102	-5.10000e+00	1.713810e-05	
103	-5.15000e+00	1.700937e-05	
104	-5.20000e+00	1.688456e-05	
105	-5.25000e+00	1.676351e-05	
106	-5.30000e+00	1.664605e-05	
107	-5.35000e+00	1.653203e-05	
108	-5.40000e+00	1.642132e-05	
109	-5.45000e+00	1.631379e-05	
110	-5.50000e+00	1.620929e-05	
111	-5.55000e+00	1.610772e-05	
112	-5.60000e+00	1.600897e-05	

Index   v-sweep         rds             
--------------------------------------------------------------------------------
113	-5.65000e+00	1.591292e-05	
114	-5.70000e+00	1.581948e-05	
115	-5.75000e+00	1.572855e-05	
116	-5.80000e+00	1.564004e-05	
117	-5.85000e+00	1.555387e-05	
118	-5.90000e+00	1.546996e-05	
119	-5.95000e+00	1.538823e-05	
120	-6.00000e+00	1.530860e-05	
121	-6.05000e+00	1.523102e-05	
122	-6.10000e+00	1.515541e-05	
123	-6.15000e+00	1.508171e-05	
124	-6.20000e+00	1.500987e-05	
125	-6.25000e+00	1.493983e-05	
126	-6.30000e+00	1.487153e-05	
127	-6.35000e+00	1.480493e-05	
128	-6.40000e+00	1.473998e-05	
129	-6.45000e+00	1.467663e-05	
130	-6.50000e+00	1.461484e-05	
131	-6.55000e+00	1.455457e-05	
132	-6.60000e+00	1.449579e-05	
Reset re-loads circuit ***************************

Circuit: ***************************

Doing analysis at TEMP = 25.000000 and TNOM = 25.000000


No. of Data Rows : 133
                          ***************************
                          DC transfer characteristic  Mon Jan  9 13:58:51  2023
--------------------------------------------------------------------------------
Index   v-sweep         rds             
--------------------------------------------------------------------------------
0	0.000000e+00	7.798903e-04	
1	-5.00000e-02	7.643059e-04	
2	-1.00000e-01	7.488551e-04	
3	-1.50000e-01	7.335367e-04	
4	-2.00000e-01	7.183493e-04	
5	-2.50000e-01	7.032919e-04	
6	-3.00000e-01	6.883631e-04	
7	-3.50000e-01	6.735618e-04	
8	-4.00000e-01	6.588868e-04	
9	-4.50000e-01	6.443368e-04	
10	-5.00000e-01	6.299108e-04	
11	-5.50000e-01	6.156075e-04	
12	-6.00000e-01	6.014258e-04	
13	-6.50000e-01	5.873645e-04	
14	-7.00000e-01	5.734226e-04	
15	-7.50000e-01	5.595989e-04	
16	-8.00000e-01	5.458924e-04	
17	-8.50000e-01	5.323018e-04	
18	-9.00000e-01	5.188263e-04	
19	-9.50000e-01	5.054646e-04	
20	-1.00000e+00	4.922157e-04	
21	-1.05000e+00	4.790787e-04	
22	-1.10000e+00	4.660524e-04	
23	-1.15000e+00	4.531359e-04	
24	-1.20000e+00	4.403283e-04	
25	-1.25000e+00	4.276285e-04	
26	-1.30000e+00	4.150356e-04	
27	-1.35000e+00	4.025487e-04	
28	-1.40000e+00	3.901669e-04	
29	-1.45000e+00	3.778893e-04	
30	-1.50000e+00	3.657150e-04	
31	-1.55000e+00	3.536433e-04	
32	-1.60000e+00	3.416732e-04	
33	-1.65000e+00	3.298041e-04	
34	-1.70000e+00	3.180352e-04	
35	-1.75000e+00	3.063657e-04	
36	-1.80000e+00	2.947950e-04	
37	-1.85000e+00	2.833225e-04	
38	-1.90000e+00	2.719474e-04	
39	-1.95000e+00	2.606691e-04	
40	-2.00000e+00	2.494869e-04	
41	-2.05000e+00	2.384000e-04	
42	-2.10000e+00	2.274075e-04	
43	-2.15000e+00	2.165080e-04	
44	-2.20000e+00	2.056997e-04	
45	-2.25000e+00	1.949802e-04	
46	-2.30000e+00	1.843465e-04	
47	-2.35000e+00	1.737951e-04	
48	-2.40000e+00	1.633252e-04	
49	-2.45000e+00	1.529438e-04	
50	-2.50000e+00	1.426772e-04	
51	-2.55000e+00	1.325883e-04	
52	-2.60000e+00	1.227900e-04	
53	-2.65000e+00	1.134393e-04	
54	-2.70000e+00	1.047034e-04	

Index   v-sweep         rds             
--------------------------------------------------------------------------------
55	-2.75000e+00	9.671287e-05	
56	-2.80000e+00	8.953136e-05	
57	-2.85000e+00	8.315516e-05	
58	-2.90000e+00	7.753258e-05	
59	-2.95000e+00	7.258703e-05	
60	-3.00000e+00	6.823462e-05	
61	-3.05000e+00	6.439455e-05	
62	-3.10000e+00	6.099407e-05	
63	-3.15000e+00	5.796994e-05	
64	-3.20000e+00	5.526833e-05	
65	-3.25000e+00	5.284385e-05	
66	-3.30000e+00	5.065841e-05	
67	-3.35000e+00	4.868001e-05	
68	-3.40000e+00	4.688179e-05	
69	-3.45000e+00	4.524109e-05	
70	-3.50000e+00	4.373872e-05	
71	-3.55000e+00	4.235839e-05	
72	-3.60000e+00	4.108619e-05	
73	-3.65000e+00	3.991017e-05	
74	-3.70000e+00	3.882006e-05	
75	-3.75000e+00	3.780695e-05	
76	-3.80000e+00	3.686312e-05	
77	-3.85000e+00	3.598181e-05	
78	-3.90000e+00	3.515712e-05	
79	-3.95000e+00	3.438384e-05	
80	-4.00000e+00	3.365739e-05	
81	-4.05000e+00	3.297369e-05	
82	-4.10000e+00	3.232914e-05	
83	-4.15000e+00	3.172051e-05	
84	-4.20000e+00	3.114493e-05	
85	-4.25000e+00	3.059981e-05	
86	-4.30000e+00	3.008282e-05	
87	-4.35000e+00	2.959188e-05	
88	-4.40000e+00	2.912509e-05	
89	-4.45000e+00	2.868074e-05	
90	-4.50000e+00	2.825727e-05	
91	-4.55000e+00	2.785326e-05	
92	-4.60000e+00	2.746742e-05	
93	-4.65000e+00	2.709856e-05	
94	-4.70000e+00	2.674562e-05	
95	-4.75000e+00	2.640758e-05	
96	-4.80000e+00	2.608355e-05	
97	-4.85000e+00	2.577269e-05	
98	-4.90000e+00	2.547421e-05	
99	-4.95000e+00	2.518741e-05	
100	-5.00000e+00	2.491162e-05	
101	-5.05000e+00	2.464624e-05	
102	-5.10000e+00	2.439069e-05	
103	-5.15000e+00	2.414445e-05	
104	-5.20000e+00	2.390703e-05	
105	-5.25000e+00	2.367797e-05	
106	-5.30000e+00	2.345684e-05	
107	-5.35000e+00	2.324326e-05	
108	-5.40000e+00	2.303685e-05	
109	-5.45000e+00	2.283726e-05	
110	-5.50000e+00	2.264417e-05	
111	-5.55000e+00	2.245727e-05	
112	-5.60000e+00	2.227628e-05	

Index   v-sweep         rds             
--------------------------------------------------------------------------------
113	-5.65000e+00	2.210094e-05	
114	-5.70000e+00	2.193099e-05	
115	-5.75000e+00	2.176619e-05	
116	-5.80000e+00	2.160633e-05	
117	-5.85000e+00	2.145119e-05	
118	-5.90000e+00	2.130059e-05	
119	-5.95000e+00	2.115432e-05	
120	-6.00000e+00	2.101222e-05	
121	-6.05000e+00	2.087413e-05	
122	-6.10000e+00	2.073988e-05	
123	-6.15000e+00	2.060933e-05	
124	-6.20000e+00	2.048234e-05	
125	-6.25000e+00	2.035879e-05	
126	-6.30000e+00	2.023854e-05	
127	-6.35000e+00	2.012148e-05	
128	-6.40000e+00	2.000750e-05	
129	-6.45000e+00	1.989649e-05	
130	-6.50000e+00	1.978835e-05	
131	-6.55000e+00	1.968299e-05	
132	-6.60000e+00	1.958032e-05	
Reset re-loads circuit ***************************

Circuit: ***************************

Doing analysis at TEMP = 25.000000 and TNOM = 25.000000


No. of Data Rows : 133
                          ***************************
                          DC transfer characteristic  Mon Jan  9 13:58:52  2023
--------------------------------------------------------------------------------
Index   v-sweep         rds             
--------------------------------------------------------------------------------
0	0.000000e+00	8.761357e-04	
1	-5.00000e-02	8.614762e-04	
2	-1.00000e-01	8.469305e-04	
3	-1.50000e-01	8.324976e-04	
4	-2.00000e-01	8.181766e-04	
5	-2.50000e-01	8.039665e-04	
6	-3.00000e-01	7.898665e-04	
7	-3.50000e-01	7.758754e-04	
8	-4.00000e-01	7.619925e-04	
9	-4.50000e-01	7.482168e-04	
10	-5.00000e-01	7.345474e-04	
11	-5.50000e-01	7.209833e-04	
12	-6.00000e-01	7.075237e-04	
13	-6.50000e-01	6.941678e-04	
14	-7.00000e-01	6.809145e-04	
15	-7.50000e-01	6.677630e-04	
16	-8.00000e-01	6.547125e-04	
17	-8.50000e-01	6.417621e-04	
18	-9.00000e-01	6.289109e-04	
19	-9.50000e-01	6.161582e-04	
20	-1.00000e+00	6.035029e-04	
21	-1.05000e+00	5.909444e-04	
22	-1.10000e+00	5.784818e-04	
23	-1.15000e+00	5.661143e-04	
24	-1.20000e+00	5.538411e-04	
25	-1.25000e+00	5.416614e-04	
26	-1.30000e+00	5.295744e-04	
27	-1.35000e+00	5.175793e-04	
28	-1.40000e+00	5.056754e-04	
29	-1.45000e+00	4.938620e-04	
30	-1.50000e+00	4.821382e-04	
31	-1.55000e+00	4.705033e-04	
32	-1.60000e+00	4.589567e-04	
33	-1.65000e+00	4.474976e-04	
34	-1.70000e+00	4.361253e-04	
35	-1.75000e+00	4.248391e-04	
36	-1.80000e+00	4.136383e-04	
37	-1.85000e+00	4.025223e-04	
38	-1.90000e+00	3.914903e-04	
39	-1.95000e+00	3.805418e-04	
40	-2.00000e+00	3.696760e-04	
41	-2.05000e+00	3.588922e-04	
42	-2.10000e+00	3.481899e-04	
43	-2.15000e+00	3.375682e-04	
44	-2.20000e+00	3.270264e-04	
45	-2.25000e+00	3.165639e-04	
46	-2.30000e+00	3.061796e-04	
47	-2.35000e+00	2.958725e-04	
48	-2.40000e+00	2.856415e-04	
49	-2.45000e+00	2.754851e-04	
50	-2.50000e+00	2.654012e-04	
51	-2.55000e+00	2.553872e-04	
52	-2.60000e+00	2.454394e-04	
53	-2.65000e+00	2.355527e-04	
54	-2.70000e+00	2.257198e-04	

Index   v-sweep         rds             
--------------------------------------------------------------------------------
55	-2.75000e+00	2.159305e-04	
56	-2.80000e+00	2.061707e-04	
57	-2.85000e+00	1.964217e-04	
58	-2.90000e+00	1.866611e-04	
59	-2.95000e+00	1.768666e-04	
60	-3.00000e+00	1.670256e-04	
61	-3.05000e+00	1.571522e-04	
62	-3.10000e+00	1.473078e-04	
63	-3.15000e+00	1.376135e-04	
64	-3.20000e+00	1.282372e-04	
65	-3.25000e+00	1.193568e-04	
66	-3.30000e+00	1.111157e-04	
67	-3.35000e+00	1.035969e-04	
68	-3.40000e+00	9.682075e-05	
69	-3.45000e+00	9.076061e-05	
70	-3.50000e+00	8.536129e-05	
71	-3.55000e+00	8.055513e-05	
72	-3.60000e+00	7.627243e-05	
73	-3.65000e+00	7.244724e-05	
74	-3.70000e+00	6.902011e-05	
75	-3.75000e+00	6.593883e-05	
76	-3.80000e+00	6.315825e-05	
77	-3.85000e+00	6.063969e-05	
78	-3.90000e+00	5.835009e-05	
79	-3.95000e+00	5.626128e-05	
80	-4.00000e+00	5.434918e-05	
81	-4.05000e+00	5.259318e-05	
82	-4.10000e+00	5.097560e-05	
83	-4.15000e+00	4.948124e-05	
84	-4.20000e+00	4.809692e-05	
85	-4.25000e+00	4.681126e-05	
86	-4.30000e+00	4.561433e-05	
87	-4.35000e+00	4.449745e-05	
88	-4.40000e+00	4.345303e-05	
89	-4.45000e+00	4.247437e-05	
90	-4.50000e+00	4.155557e-05	
91	-4.55000e+00	4.069140e-05	
92	-4.60000e+00	3.987720e-05	
93	-4.65000e+00	3.910885e-05	
94	-4.70000e+00	3.838263e-05	
95	-4.75000e+00	3.769522e-05	
96	-4.80000e+00	3.704365e-05	
97	-4.85000e+00	3.642522e-05	
98	-4.90000e+00	3.583751e-05	
99	-4.95000e+00	3.527831e-05	
100	-5.00000e+00	3.474563e-05	
101	-5.05000e+00	3.423765e-05	
102	-5.10000e+00	3.375273e-05	
103	-5.15000e+00	3.328934e-05	
104	-5.20000e+00	3.284610e-05	
105	-5.25000e+00	3.242175e-05	
106	-5.30000e+00	3.201513e-05	
107	-5.35000e+00	3.162515e-05	
108	-5.40000e+00	3.125084e-05	
109	-5.45000e+00	3.089128e-05	
110	-5.50000e+00	3.054564e-05	
111	-5.55000e+00	3.021313e-05	
112	-5.60000e+00	2.989303e-05	

Index   v-sweep         rds             
--------------------------------------------------------------------------------
113	-5.65000e+00	2.958467e-05	
114	-5.70000e+00	2.928742e-05	
115	-5.75000e+00	2.900071e-05	
116	-5.80000e+00	2.872400e-05	
117	-5.85000e+00	2.845679e-05	
118	-5.90000e+00	2.819859e-05	
119	-5.95000e+00	2.794899e-05	
120	-6.00000e+00	2.770755e-05	
121	-6.05000e+00	2.747390e-05	
122	-6.10000e+00	2.724768e-05	
123	-6.15000e+00	2.702854e-05	
124	-6.20000e+00	2.681618e-05	
125	-6.25000e+00	2.661028e-05	
126	-6.30000e+00	2.641058e-05	
127	-6.35000e+00	2.621681e-05	
128	-6.40000e+00	2.602872e-05	
129	-6.45000e+00	2.584607e-05	
130	-6.50000e+00	2.566864e-05	
131	-6.55000e+00	2.549623e-05	
132	-6.60000e+00	2.532864e-05	
Reset re-loads circuit ***************************

Circuit: ***************************

Note: No ".plot", ".print", or ".fourier" lines; no simulations run
