
Note: Compatibility modes selected: hs

Warning: m=xx on .subckt line will override multiplier m hierarchy!


Circuit: ***************************

Doing analysis at TEMP = 25.000000 and TNOM = 25.000000


No. of Data Rows : 133
                          ***************************
                          DC transfer characteristic  Mon Jan  9 13:58:52  2023
--------------------------------------------------------------------------------
Index   v-sweep         rds             
--------------------------------------------------------------------------------
0	0.000000e+00	9.739526e-06	
1	-5.00000e-02	6.882944e-06	
2	-1.00000e-01	4.180148e-06	
3	-1.50000e-01	1.946845e-06	
4	-2.00000e-01	7.625603e-07	
5	-2.50000e-01	4.069302e-07	
6	-3.00000e-01	3.074248e-07	
7	-3.50000e-01	2.697624e-07	
8	-4.00000e-01	2.502211e-07	
9	-4.50000e-01	2.375791e-07	
10	-5.00000e-01	2.282420e-07	
11	-5.50000e-01	2.208020e-07	
12	-6.00000e-01	2.146054e-07	
13	-6.50000e-01	2.093024e-07	
14	-7.00000e-01	2.046835e-07	
15	-7.50000e-01	2.006107e-07	
16	-8.00000e-01	1.969874e-07	
17	-8.50000e-01	1.937417e-07	
18	-9.00000e-01	1.908184e-07	
19	-9.50000e-01	1.881737e-07	
20	-1.00000e+00	1.857721e-07	
21	-1.05000e+00	1.835844e-07	
22	-1.10000e+00	1.815860e-07	
23	-1.15000e+00	1.797563e-07	
24	-1.20000e+00	1.780775e-07	
25	-1.25000e+00	1.765344e-07	
26	-1.30000e+00	1.751138e-07	
27	-1.35000e+00	1.738042e-07	
28	-1.40000e+00	1.725955e-07	
29	-1.45000e+00	1.714788e-07	
30	-1.50000e+00	1.704461e-07	
31	-1.55000e+00	1.694906e-07	
32	-1.60000e+00	1.686060e-07	
33	-1.65000e+00	1.677866e-07	
34	-1.70000e+00	1.670275e-07	
35	-1.75000e+00	1.663242e-07	
36	-1.80000e+00	1.656726e-07	
37	-1.85000e+00	1.650690e-07	
38	-1.90000e+00	1.645100e-07	
39	-1.95000e+00	1.639927e-07	
40	-2.00000e+00	1.635141e-07	
41	-2.05000e+00	1.630719e-07	
42	-2.10000e+00	1.626637e-07	
43	-2.15000e+00	1.622872e-07	
44	-2.20000e+00	1.619407e-07	
45	-2.25000e+00	1.616223e-07	
46	-2.30000e+00	1.613302e-07	
47	-2.35000e+00	1.610631e-07	
48	-2.40000e+00	1.608195e-07	
49	-2.45000e+00	1.605980e-07	
50	-2.50000e+00	1.603974e-07	
51	-2.55000e+00	1.602167e-07	
52	-2.60000e+00	1.600547e-07	
53	-2.65000e+00	1.599106e-07	
54	-2.70000e+00	1.597833e-07	

Index   v-sweep         rds             
--------------------------------------------------------------------------------
55	-2.75000e+00	1.596720e-07	
56	-2.80000e+00	1.595759e-07	
57	-2.85000e+00	1.594943e-07	
58	-2.90000e+00	1.594266e-07	
59	-2.95000e+00	1.593719e-07	
60	-3.00000e+00	1.593297e-07	
61	-3.05000e+00	1.592995e-07	
62	-3.10000e+00	1.592808e-07	
63	-3.15000e+00	1.592729e-07	
64	-3.20000e+00	1.592754e-07	
65	-3.25000e+00	1.592879e-07	
66	-3.30000e+00	1.593099e-07	
67	-3.35000e+00	1.593411e-07	
68	-3.40000e+00	1.593811e-07	
69	-3.45000e+00	1.594294e-07	
70	-3.50000e+00	1.594859e-07	
71	-3.55000e+00	1.595501e-07	
72	-3.60000e+00	1.596217e-07	
73	-3.65000e+00	1.597005e-07	
74	-3.70000e+00	1.597863e-07	
75	-3.75000e+00	1.598786e-07	
76	-3.80000e+00	1.599774e-07	
77	-3.85000e+00	1.600824e-07	
78	-3.90000e+00	1.601933e-07	
79	-3.95000e+00	1.603100e-07	
80	-4.00000e+00	1.604322e-07	
81	-4.05000e+00	1.605598e-07	
82	-4.10000e+00	1.606927e-07	
83	-4.15000e+00	1.608305e-07	
84	-4.20000e+00	1.609732e-07	
85	-4.25000e+00	1.611207e-07	
86	-4.30000e+00	1.612727e-07	
87	-4.35000e+00	1.614292e-07	
88	-4.40000e+00	1.615900e-07	
89	-4.45000e+00	1.617550e-07	
90	-4.50000e+00	1.619240e-07	
91	-4.55000e+00	1.620971e-07	
92	-4.60000e+00	1.622740e-07	
93	-4.65000e+00	1.624547e-07	
94	-4.70000e+00	1.626390e-07	
95	-4.75000e+00	1.628270e-07	
96	-4.80000e+00	1.630184e-07	
97	-4.85000e+00	1.632133e-07	
98	-4.90000e+00	1.634115e-07	
99	-4.95000e+00	1.636129e-07	
100	-5.00000e+00	1.638176e-07	
101	-5.05000e+00	1.640254e-07	
102	-5.10000e+00	1.642363e-07	
103	-5.15000e+00	1.644501e-07	
104	-5.20000e+00	1.646670e-07	
105	-5.25000e+00	1.648867e-07	
106	-5.30000e+00	1.651093e-07	
107	-5.35000e+00	1.653347e-07	
108	-5.40000e+00	1.655629e-07	
109	-5.45000e+00	1.657938e-07	
110	-5.50000e+00	1.660273e-07	
111	-5.55000e+00	1.662635e-07	
112	-5.60000e+00	1.665023e-07	

Index   v-sweep         rds             
--------------------------------------------------------------------------------
113	-5.65000e+00	1.667436e-07	
114	-5.70000e+00	1.669875e-07	
115	-5.75000e+00	1.672339e-07	
116	-5.80000e+00	1.674827e-07	
117	-5.85000e+00	1.677340e-07	
118	-5.90000e+00	1.679877e-07	
119	-5.95000e+00	1.682438e-07	
120	-6.00000e+00	1.685023e-07	
121	-6.05000e+00	1.687631e-07	
122	-6.10000e+00	1.690262e-07	
123	-6.15000e+00	1.692916e-07	
124	-6.20000e+00	1.695593e-07	
125	-6.25000e+00	1.698293e-07	
126	-6.30000e+00	1.701015e-07	
127	-6.35000e+00	1.703759e-07	
128	-6.40000e+00	1.706526e-07	
129	-6.45000e+00	1.709314e-07	
130	-6.50000e+00	1.712125e-07	
131	-6.55000e+00	1.714957e-07	
132	-6.60000e+00	1.717811e-07	
Reset re-loads circuit ***************************

Circuit: ***************************

Doing analysis at TEMP = 25.000000 and TNOM = 25.000000


No. of Data Rows : 133
                          ***************************
                          DC transfer characteristic  Mon Jan  9 13:58:52  2023
--------------------------------------------------------------------------------
Index   v-sweep         rds             
--------------------------------------------------------------------------------
0	0.000000e+00	6.109990e-05	
1	-5.00000e-02	5.761672e-05	
2	-1.00000e-01	5.417885e-05	
3	-1.50000e-01	5.078575e-05	
4	-2.00000e-01	4.743692e-05	
5	-2.50000e-01	4.413193e-05	
6	-3.00000e-01	4.087048e-05	
7	-3.50000e-01	3.765243e-05	
8	-4.00000e-01	3.447792e-05	
9	-4.50000e-01	3.134754e-05	
10	-5.00000e-01	2.826267e-05	
11	-5.50000e-01	2.522613e-05	
12	-6.00000e-01	2.224346e-05	
13	-6.50000e-01	1.932545e-05	
14	-7.00000e-01	1.649343e-05	
15	-7.50000e-01	1.378921e-05	
16	-8.00000e-01	1.129019e-05	
17	-8.50000e-01	9.116919e-06	
18	-9.00000e-01	7.394307e-06	
19	-9.50000e-01	6.158144e-06	
20	-1.00000e+00	5.319393e-06	
21	-1.05000e+00	4.743783e-06	
22	-1.10000e+00	4.327004e-06	
23	-1.15000e+00	4.006702e-06	
24	-1.20000e+00	3.748446e-06	
25	-1.25000e+00	3.532926e-06	
26	-1.30000e+00	3.348681e-06	
27	-1.35000e+00	3.188432e-06	
28	-1.40000e+00	3.047259e-06	
29	-1.45000e+00	2.921653e-06	
30	-1.50000e+00	2.809006e-06	
31	-1.55000e+00	2.707311e-06	
32	-1.60000e+00	2.614988e-06	
33	-1.65000e+00	2.530764e-06	
34	-1.70000e+00	2.453598e-06	
35	-1.75000e+00	2.382627e-06	
36	-1.80000e+00	2.317128e-06	
37	-1.85000e+00	2.256489e-06	
38	-1.90000e+00	2.200189e-06	
39	-1.95000e+00	2.147778e-06	
40	-2.00000e+00	2.098869e-06	
41	-2.05000e+00	2.053123e-06	
42	-2.10000e+00	2.010247e-06	
43	-2.15000e+00	1.969981e-06	
44	-2.20000e+00	1.932097e-06	
45	-2.25000e+00	1.896390e-06	
46	-2.30000e+00	1.862683e-06	
47	-2.35000e+00	1.830813e-06	
48	-2.40000e+00	1.800637e-06	
49	-2.45000e+00	1.772026e-06	
50	-2.50000e+00	1.744863e-06	
51	-2.55000e+00	1.719043e-06	
52	-2.60000e+00	1.694471e-06	
53	-2.65000e+00	1.671060e-06	
54	-2.70000e+00	1.648732e-06	

Index   v-sweep         rds             
--------------------------------------------------------------------------------
55	-2.75000e+00	1.627415e-06	
56	-2.80000e+00	1.607044e-06	
57	-2.85000e+00	1.587558e-06	
58	-2.90000e+00	1.568904e-06	
59	-2.95000e+00	1.551029e-06	
60	-3.00000e+00	1.533888e-06	
61	-3.05000e+00	1.517438e-06	
62	-3.10000e+00	1.501638e-06	
63	-3.15000e+00	1.486453e-06	
64	-3.20000e+00	1.471849e-06	
65	-3.25000e+00	1.457793e-06	
66	-3.30000e+00	1.444257e-06	
67	-3.35000e+00	1.431214e-06	
68	-3.40000e+00	1.418637e-06	
69	-3.45000e+00	1.406504e-06	
70	-3.50000e+00	1.394792e-06	
71	-3.55000e+00	1.383480e-06	
72	-3.60000e+00	1.372550e-06	
73	-3.65000e+00	1.361984e-06	
74	-3.70000e+00	1.351763e-06	
75	-3.75000e+00	1.341873e-06	
76	-3.80000e+00	1.332298e-06	
77	-3.85000e+00	1.323025e-06	
78	-3.90000e+00	1.314040e-06	
79	-3.95000e+00	1.305330e-06	
80	-4.00000e+00	1.296884e-06	
81	-4.05000e+00	1.288692e-06	
82	-4.10000e+00	1.280741e-06	
83	-4.15000e+00	1.273023e-06	
84	-4.20000e+00	1.265529e-06	
85	-4.25000e+00	1.258249e-06	
86	-4.30000e+00	1.251175e-06	
87	-4.35000e+00	1.244299e-06	
88	-4.40000e+00	1.237614e-06	
89	-4.45000e+00	1.231112e-06	
90	-4.50000e+00	1.224788e-06	
91	-4.55000e+00	1.218633e-06	
92	-4.60000e+00	1.212644e-06	
93	-4.65000e+00	1.206813e-06	
94	-4.70000e+00	1.201135e-06	
95	-4.75000e+00	1.195606e-06	
96	-4.80000e+00	1.190219e-06	
97	-4.85000e+00	1.184972e-06	
98	-4.90000e+00	1.179858e-06	
99	-4.95000e+00	1.174874e-06	
100	-5.00000e+00	1.170015e-06	
101	-5.05000e+00	1.165279e-06	
102	-5.10000e+00	1.160660e-06	
103	-5.15000e+00	1.156157e-06	
104	-5.20000e+00	1.151765e-06	
105	-5.25000e+00	1.147481e-06	
106	-5.30000e+00	1.143302e-06	
107	-5.35000e+00	1.139226e-06	
108	-5.40000e+00	1.135249e-06	
109	-5.45000e+00	1.131369e-06	
110	-5.50000e+00	1.127583e-06	
111	-5.55000e+00	1.123890e-06	
112	-5.60000e+00	1.120286e-06	

Index   v-sweep         rds             
--------------------------------------------------------------------------------
113	-5.65000e+00	1.116769e-06	
114	-5.70000e+00	1.113338e-06	
115	-5.75000e+00	1.109990e-06	
116	-5.80000e+00	1.106724e-06	
117	-5.85000e+00	1.103537e-06	
118	-5.90000e+00	1.100429e-06	
119	-5.95000e+00	1.097396e-06	
120	-6.00000e+00	1.094438e-06	
121	-6.05000e+00	1.091552e-06	
122	-6.10000e+00	1.088739e-06	
123	-6.15000e+00	1.085995e-06	
124	-6.20000e+00	1.083320e-06	
125	-6.25000e+00	1.080712e-06	
126	-6.30000e+00	1.078171e-06	
127	-6.35000e+00	1.075694e-06	
128	-6.40000e+00	1.073281e-06	
129	-6.45000e+00	1.070930e-06	
130	-6.50000e+00	1.068641e-06	
131	-6.55000e+00	1.066412e-06	
132	-6.60000e+00	1.064242e-06	
Reset re-loads circuit ***************************

Circuit: ***************************

Doing analysis at TEMP = 25.000000 and TNOM = 25.000000


No. of Data Rows : 133
                          ***************************
                          DC transfer characteristic  Mon Jan  9 13:58:52  2023
--------------------------------------------------------------------------------
Index   v-sweep         rds             
--------------------------------------------------------------------------------
0	0.000000e+00	9.791880e-05	
1	-5.00000e-02	9.457887e-05	
2	-1.00000e-01	9.127505e-05	
3	-1.50000e-01	8.800690e-05	
4	-2.00000e-01	8.477403e-05	
5	-2.50000e-01	8.157602e-05	
6	-3.00000e-01	7.841248e-05	
7	-3.50000e-01	7.528302e-05	
8	-4.00000e-01	7.218727e-05	
9	-4.50000e-01	6.912486e-05	
10	-5.00000e-01	6.609544e-05	
11	-5.50000e-01	6.309868e-05	
12	-6.00000e-01	6.013427e-05	
13	-6.50000e-01	5.720192e-05	
14	-7.00000e-01	5.430140e-05	
15	-7.50000e-01	5.143251e-05	
16	-8.00000e-01	4.859512e-05	
17	-8.50000e-01	4.578921e-05	
18	-9.00000e-01	4.301490e-05	
19	-9.50000e-01	4.027253e-05	
20	-1.00000e+00	3.756276e-05	
21	-1.05000e+00	3.488677e-05	
22	-1.10000e+00	3.224661e-05	
23	-1.15000e+00	2.964567e-05	
24	-1.20000e+00	2.708972e-05	
25	-1.25000e+00	2.458843e-05	
26	-1.30000e+00	2.215805e-05	
27	-1.35000e+00	1.982509e-05	
28	-1.40000e+00	1.763004e-05	
29	-1.45000e+00	1.562643e-05	
30	-1.50000e+00	1.386830e-05	
31	-1.55000e+00	1.238639e-05	
32	-1.60000e+00	1.117205e-05	
33	-1.65000e+00	1.018564e-05	
34	-1.70000e+00	9.378457e-06	
35	-1.75000e+00	8.707830e-06	
36	-1.80000e+00	8.141404e-06	
37	-1.85000e+00	7.655822e-06	
38	-1.90000e+00	7.234274e-06	
39	-1.95000e+00	6.864445e-06	
40	-2.00000e+00	6.537110e-06	
41	-2.05000e+00	6.245189e-06	
42	-2.10000e+00	5.983147e-06	
43	-2.15000e+00	5.746572e-06	
44	-2.20000e+00	5.531899e-06	
45	-2.25000e+00	5.336212e-06	
46	-2.30000e+00	5.157094e-06	
47	-2.35000e+00	4.992528e-06	
48	-2.40000e+00	4.840813e-06	
49	-2.45000e+00	4.700506e-06	
50	-2.50000e+00	4.570371e-06	
51	-2.55000e+00	4.449348e-06	
52	-2.60000e+00	4.336517e-06	
53	-2.65000e+00	4.231078e-06	
54	-2.70000e+00	4.132335e-06	

Index   v-sweep         rds             
--------------------------------------------------------------------------------
55	-2.75000e+00	4.039673e-06	
56	-2.80000e+00	3.952553e-06	
57	-2.85000e+00	3.870495e-06	
58	-2.90000e+00	3.793076e-06	
59	-2.95000e+00	3.719917e-06	
60	-3.00000e+00	3.650679e-06	
61	-3.05000e+00	3.585059e-06	
62	-3.10000e+00	3.522783e-06	
63	-3.15000e+00	3.463605e-06	
64	-3.20000e+00	3.407303e-06	
65	-3.25000e+00	3.353675e-06	
66	-3.30000e+00	3.302537e-06	
67	-3.35000e+00	3.253721e-06	
68	-3.40000e+00	3.207076e-06	
69	-3.45000e+00	3.162462e-06	
70	-3.50000e+00	3.119752e-06	
71	-3.55000e+00	3.078827e-06	
72	-3.60000e+00	3.039580e-06	
73	-3.65000e+00	3.001912e-06	
74	-3.70000e+00	2.965730e-06	
75	-3.75000e+00	2.930951e-06	
76	-3.80000e+00	2.897496e-06	
77	-3.85000e+00	2.865292e-06	
78	-3.90000e+00	2.834271e-06	
79	-3.95000e+00	2.804371e-06	
80	-4.00000e+00	2.775534e-06	
81	-4.05000e+00	2.747705e-06	
82	-4.10000e+00	2.720833e-06	
83	-4.15000e+00	2.694870e-06	
84	-4.20000e+00	2.669774e-06	
85	-4.25000e+00	2.645502e-06	
86	-4.30000e+00	2.622015e-06	
87	-4.35000e+00	2.599277e-06	
88	-4.40000e+00	2.577254e-06	
89	-4.45000e+00	2.555913e-06	
90	-4.50000e+00	2.535225e-06	
91	-4.55000e+00	2.515160e-06	
92	-4.60000e+00	2.495693e-06	
93	-4.65000e+00	2.476797e-06	
94	-4.70000e+00	2.458450e-06	
95	-4.75000e+00	2.440629e-06	
96	-4.80000e+00	2.423312e-06	
97	-4.85000e+00	2.406479e-06	
98	-4.90000e+00	2.390112e-06	
99	-4.95000e+00	2.374192e-06	
100	-5.00000e+00	2.358703e-06	
101	-5.05000e+00	2.343628e-06	
102	-5.10000e+00	2.328952e-06	
103	-5.15000e+00	2.314662e-06	
104	-5.20000e+00	2.300742e-06	
105	-5.25000e+00	2.287180e-06	
106	-5.30000e+00	2.273965e-06	
107	-5.35000e+00	2.261083e-06	
108	-5.40000e+00	2.248524e-06	
109	-5.45000e+00	2.236278e-06	
110	-5.50000e+00	2.224334e-06	
111	-5.55000e+00	2.212682e-06	
112	-5.60000e+00	2.201315e-06	

Index   v-sweep         rds             
--------------------------------------------------------------------------------
113	-5.65000e+00	2.190222e-06	
114	-5.70000e+00	2.179396e-06	
115	-5.75000e+00	2.168829e-06	
116	-5.80000e+00	2.158513e-06	
117	-5.85000e+00	2.148442e-06	
118	-5.90000e+00	2.138608e-06	
119	-5.95000e+00	2.129005e-06	
120	-6.00000e+00	2.119627e-06	
121	-6.05000e+00	2.110468e-06	
122	-6.10000e+00	2.101523e-06	
123	-6.15000e+00	2.092785e-06	
124	-6.20000e+00	2.084251e-06	
125	-6.25000e+00	2.075914e-06	
126	-6.30000e+00	2.067771e-06	
127	-6.35000e+00	2.059816e-06	
128	-6.40000e+00	2.052046e-06	
129	-6.45000e+00	2.044457e-06	
130	-6.50000e+00	2.037043e-06	
131	-6.55000e+00	2.029803e-06	
132	-6.60000e+00	2.022732e-06	
Reset re-loads circuit ***************************

Circuit: ***************************

Doing analysis at TEMP = 25.000000 and TNOM = 25.000000


No. of Data Rows : 133
                          ***************************
                          DC transfer characteristic  Mon Jan  9 13:58:52  2023
--------------------------------------------------------------------------------
Index   v-sweep         rds             
--------------------------------------------------------------------------------
0	0.000000e+00	1.264579e-04	
1	-5.00000e-02	1.233042e-04	
2	-1.00000e-01	1.201798e-04	
3	-1.50000e-01	1.170846e-04	
4	-2.00000e-01	1.140183e-04	
5	-2.50000e-01	1.109806e-04	
6	-3.00000e-01	1.079711e-04	
7	-3.50000e-01	1.049896e-04	
8	-4.00000e-01	1.020359e-04	
9	-4.50000e-01	9.910956e-05	
10	-5.00000e-01	9.621041e-05	
11	-5.50000e-01	9.333816e-05	
12	-6.00000e-01	9.049254e-05	
13	-6.50000e-01	8.767329e-05	
14	-7.00000e-01	8.488015e-05	
15	-7.50000e-01	8.211288e-05	
16	-8.00000e-01	7.937122e-05	
17	-8.50000e-01	7.665495e-05	
18	-9.00000e-01	7.396383e-05	
19	-9.50000e-01	7.129765e-05	
20	-1.00000e+00	6.865618e-05	
21	-1.05000e+00	6.603924e-05	
22	-1.10000e+00	6.344666e-05	
23	-1.15000e+00	6.087826e-05	
24	-1.20000e+00	5.833392e-05	
25	-1.25000e+00	5.581354e-05	
26	-1.30000e+00	5.331706e-05	
27	-1.35000e+00	5.084450e-05	
28	-1.40000e+00	4.839594e-05	
29	-1.45000e+00	4.597160e-05	
30	-1.50000e+00	4.357186e-05	
31	-1.55000e+00	4.119734e-05	
32	-1.60000e+00	3.884905e-05	
33	-1.65000e+00	3.652853e-05	
34	-1.70000e+00	3.423819e-05	
35	-1.75000e+00	3.198177e-05	
36	-1.80000e+00	2.976503e-05	
37	-1.85000e+00	2.759688e-05	
38	-1.90000e+00	2.549068e-05	
39	-1.95000e+00	2.346562e-05	
40	-2.00000e+00	2.154690e-05	
41	-2.05000e+00	1.976295e-05	
42	-2.10000e+00	1.813900e-05	
43	-2.15000e+00	1.668953e-05	
44	-2.20000e+00	1.541458e-05	
45	-2.25000e+00	1.430218e-05	
46	-2.30000e+00	1.333380e-05	
47	-2.35000e+00	1.248931e-05	
48	-2.40000e+00	1.174984e-05	
49	-2.45000e+00	1.109894e-05	
50	-2.50000e+00	1.052278e-05	
51	-2.55000e+00	1.000989e-05	
52	-2.60000e+00	9.550846e-06	
53	-2.65000e+00	9.137889e-06	
54	-2.70000e+00	8.764609e-06	

Index   v-sweep         rds             
--------------------------------------------------------------------------------
55	-2.75000e+00	8.425687e-06	
56	-2.80000e+00	8.116688e-06	
57	-2.85000e+00	7.833890e-06	
58	-2.90000e+00	7.574151e-06	
59	-2.95000e+00	7.334804e-06	
60	-3.00000e+00	7.113571e-06	
61	-3.05000e+00	6.908498e-06	
62	-3.10000e+00	6.717899e-06	
63	-3.15000e+00	6.540311e-06	
64	-3.20000e+00	6.374462e-06	
65	-3.25000e+00	6.219238e-06	
66	-3.30000e+00	6.073660e-06	
67	-3.35000e+00	5.936867e-06	
68	-3.40000e+00	5.808095e-06	
69	-3.45000e+00	5.686666e-06	
70	-3.50000e+00	5.571977e-06	
71	-3.55000e+00	5.463487e-06	
72	-3.60000e+00	5.360713e-06	
73	-3.65000e+00	5.263219e-06	
74	-3.70000e+00	5.170613e-06	
75	-3.75000e+00	5.082542e-06	
76	-3.80000e+00	4.998682e-06	
77	-3.85000e+00	4.918744e-06	
78	-3.90000e+00	4.842462e-06	
79	-3.95000e+00	4.769593e-06	
80	-4.00000e+00	4.699916e-06	
81	-4.05000e+00	4.633230e-06	
82	-4.10000e+00	4.569347e-06	
83	-4.15000e+00	4.508097e-06	
84	-4.20000e+00	4.449322e-06	
85	-4.25000e+00	4.392879e-06	
86	-4.30000e+00	4.338632e-06	
87	-4.35000e+00	4.286459e-06	
88	-4.40000e+00	4.236243e-06	
89	-4.45000e+00	4.187880e-06	
90	-4.50000e+00	4.141269e-06	
91	-4.55000e+00	4.096319e-06	
92	-4.60000e+00	4.052943e-06	
93	-4.65000e+00	4.011064e-06	
94	-4.70000e+00	3.970605e-06	
95	-4.75000e+00	3.931496e-06	
96	-4.80000e+00	3.893674e-06	
97	-4.85000e+00	3.857077e-06	
98	-4.90000e+00	3.821647e-06	
99	-4.95000e+00	3.787330e-06	
100	-5.00000e+00	3.754078e-06	
101	-5.05000e+00	3.721841e-06	
102	-5.10000e+00	3.690576e-06	
103	-5.15000e+00	3.660241e-06	
104	-5.20000e+00	3.630795e-06	
105	-5.25000e+00	3.602203e-06	
106	-5.30000e+00	3.574428e-06	
107	-5.35000e+00	3.547437e-06	
108	-5.40000e+00	3.521200e-06	
109	-5.45000e+00	3.495686e-06	
110	-5.50000e+00	3.470868e-06	
111	-5.55000e+00	3.446719e-06	
112	-5.60000e+00	3.423214e-06	

Index   v-sweep         rds             
--------------------------------------------------------------------------------
113	-5.65000e+00	3.400329e-06	
114	-5.70000e+00	3.378041e-06	
115	-5.75000e+00	3.356330e-06	
116	-5.80000e+00	3.335176e-06	
117	-5.85000e+00	3.314558e-06	
118	-5.90000e+00	3.294459e-06	
119	-5.95000e+00	3.274861e-06	
120	-6.00000e+00	3.255749e-06	
121	-6.05000e+00	3.237106e-06	
122	-6.10000e+00	3.218917e-06	
123	-6.15000e+00	3.201170e-06	
124	-6.20000e+00	3.183849e-06	
125	-6.25000e+00	3.166943e-06	
126	-6.30000e+00	3.150439e-06	
127	-6.35000e+00	3.134326e-06	
128	-6.40000e+00	3.118592e-06	
129	-6.45000e+00	3.103228e-06	
130	-6.50000e+00	3.088224e-06	
131	-6.55000e+00	3.073569e-06	
132	-6.60000e+00	3.059255e-06	
Reset re-loads circuit ***************************

Circuit: ***************************

Doing analysis at TEMP = 25.000000 and TNOM = 25.000000


No. of Data Rows : 133
                          ***************************
                          DC transfer characteristic  Mon Jan  9 13:58:52  2023
--------------------------------------------------------------------------------
Index   v-sweep         rds             
--------------------------------------------------------------------------------
0	0.000000e+00	1.508594e-04	
1	-5.00000e-02	1.478780e-04	
2	-1.00000e-01	1.449212e-04	
3	-1.50000e-01	1.419888e-04	
4	-2.00000e-01	1.390806e-04	
5	-2.50000e-01	1.361963e-04	
6	-3.00000e-01	1.333357e-04	
7	-3.50000e-01	1.304986e-04	
8	-4.00000e-01	1.276849e-04	
9	-4.50000e-01	1.248942e-04	
10	-5.00000e-01	1.221265e-04	
11	-5.50000e-01	1.193814e-04	
12	-6.00000e-01	1.166589e-04	
13	-6.50000e-01	1.139586e-04	
14	-7.00000e-01	1.112804e-04	
15	-7.50000e-01	1.086242e-04	
16	-8.00000e-01	1.059896e-04	
17	-8.50000e-01	1.033765e-04	
18	-9.00000e-01	1.007848e-04	
19	-9.50000e-01	9.821417e-05	
20	-1.00000e+00	9.566453e-05	
21	-1.05000e+00	9.313566e-05	
22	-1.10000e+00	9.062739e-05	
23	-1.15000e+00	8.813954e-05	
24	-1.20000e+00	8.567195e-05	
25	-1.25000e+00	8.322444e-05	
26	-1.30000e+00	8.079687e-05	
27	-1.35000e+00	7.838907e-05	
28	-1.40000e+00	7.600089e-05	
29	-1.45000e+00	7.363219e-05	
30	-1.50000e+00	7.128283e-05	
31	-1.55000e+00	6.895269e-05	
32	-1.60000e+00	6.664165e-05	
33	-1.65000e+00	6.434961e-05	
34	-1.70000e+00	6.207648e-05	
35	-1.75000e+00	5.982218e-05	
36	-1.80000e+00	5.758669e-05	
37	-1.85000e+00	5.536998e-05	
38	-1.90000e+00	5.317209e-05	
39	-1.95000e+00	5.099310e-05	
40	-2.00000e+00	4.883316e-05	
41	-2.05000e+00	4.669251e-05	
42	-2.10000e+00	4.457153e-05	
43	-2.15000e+00	4.247078e-05	
44	-2.20000e+00	4.039105e-05	
45	-2.25000e+00	3.833351e-05	
46	-2.30000e+00	3.629982e-05	
47	-2.35000e+00	3.429243e-05	
48	-2.40000e+00	3.231494e-05	
49	-2.45000e+00	3.037270e-05	
50	-2.50000e+00	2.847370e-05	
51	-2.55000e+00	2.662957e-05	
52	-2.60000e+00	2.485621e-05	
53	-2.65000e+00	2.317289e-05	
54	-2.70000e+00	2.159917e-05	

Index   v-sweep         rds             
--------------------------------------------------------------------------------
55	-2.75000e+00	2.015035e-05	
56	-2.80000e+00	1.883406e-05	
57	-2.85000e+00	1.764960e-05	
58	-2.90000e+00	1.658983e-05	
59	-2.95000e+00	1.564384e-05	
60	-3.00000e+00	1.479928e-05	
61	-3.05000e+00	1.404391e-05	
62	-3.10000e+00	1.336637e-05	
63	-3.15000e+00	1.275658e-05	
64	-3.20000e+00	1.220576e-05	
65	-3.25000e+00	1.170634e-05	
66	-3.30000e+00	1.125186e-05	
67	-3.35000e+00	1.083681e-05	
68	-3.40000e+00	1.045647e-05	
69	-3.45000e+00	1.010681e-05	
70	-3.50000e+00	9.784376e-06	
71	-3.55000e+00	9.486190e-06	
72	-3.60000e+00	9.209680e-06	
73	-3.65000e+00	8.952615e-06	
74	-3.70000e+00	8.713054e-06	
75	-3.75000e+00	8.489300e-06	
76	-3.80000e+00	8.279865e-06	
77	-3.85000e+00	8.083438e-06	
78	-3.90000e+00	7.898862e-06	
79	-3.95000e+00	7.725111e-06	
80	-4.00000e+00	7.561274e-06	
81	-4.05000e+00	7.406536e-06	
82	-4.10000e+00	7.260170e-06	
83	-4.15000e+00	7.121523e-06	
84	-4.20000e+00	6.990008e-06	
85	-4.25000e+00	6.865095e-06	
86	-4.30000e+00	6.746305e-06	
87	-4.35000e+00	6.633204e-06	
88	-4.40000e+00	6.525399e-06	
89	-4.45000e+00	6.422529e-06	
90	-4.50000e+00	6.324269e-06	
91	-4.55000e+00	6.230319e-06	
92	-4.60000e+00	6.140405e-06	
93	-4.65000e+00	6.054275e-06	
94	-4.70000e+00	5.971700e-06	
95	-4.75000e+00	5.892465e-06	
96	-4.80000e+00	5.816375e-06	
97	-4.85000e+00	5.743250e-06	
98	-4.90000e+00	5.672921e-06	
99	-4.95000e+00	5.605233e-06	
100	-5.00000e+00	5.540042e-06	
101	-5.05000e+00	5.477215e-06	
102	-5.10000e+00	5.416627e-06	
103	-5.15000e+00	5.358163e-06	
104	-5.20000e+00	5.301715e-06	
105	-5.25000e+00	5.247182e-06	
106	-5.30000e+00	5.194469e-06	
107	-5.35000e+00	5.143489e-06	
108	-5.40000e+00	5.094160e-06	
109	-5.45000e+00	5.046403e-06	
110	-5.50000e+00	5.000147e-06	
111	-5.55000e+00	4.955324e-06	
112	-5.60000e+00	4.911869e-06	

Index   v-sweep         rds             
--------------------------------------------------------------------------------
113	-5.65000e+00	4.869723e-06	
114	-5.70000e+00	4.828828e-06	
115	-5.75000e+00	4.789132e-06	
116	-5.80000e+00	4.750585e-06	
117	-5.85000e+00	4.713138e-06	
118	-5.90000e+00	4.676748e-06	
119	-5.95000e+00	4.641372e-06	
120	-6.00000e+00	4.606970e-06	
121	-6.05000e+00	4.573504e-06	
122	-6.10000e+00	4.540939e-06	
123	-6.15000e+00	4.509241e-06	
124	-6.20000e+00	4.478379e-06	
125	-6.25000e+00	4.448321e-06	
126	-6.30000e+00	4.419039e-06	
127	-6.35000e+00	4.390506e-06	
128	-6.40000e+00	4.362696e-06	
129	-6.45000e+00	4.335585e-06	
130	-6.50000e+00	4.309150e-06	
131	-6.55000e+00	4.283368e-06	
132	-6.60000e+00	4.258218e-06	
Reset re-loads circuit ***************************

Circuit: ***************************

Doing analysis at TEMP = 25.000000 and TNOM = 25.000000


No. of Data Rows : 133
                          ***************************
                          DC transfer characteristic  Mon Jan  9 13:58:52  2023
--------------------------------------------------------------------------------
Index   v-sweep         rds             
--------------------------------------------------------------------------------
0	0.000000e+00	1.717907e-04	
1	-5.00000e-02	1.689663e-04	
2	-1.00000e-01	1.661629e-04	
3	-1.50000e-01	1.633801e-04	
4	-2.00000e-01	1.606180e-04	
5	-2.50000e-01	1.578763e-04	
6	-3.00000e-01	1.551548e-04	
7	-3.50000e-01	1.524534e-04	
8	-4.00000e-01	1.497720e-04	
9	-4.50000e-01	1.471103e-04	
10	-5.00000e-01	1.444683e-04	
11	-5.50000e-01	1.418457e-04	
12	-6.00000e-01	1.392424e-04	
13	-6.50000e-01	1.366583e-04	
14	-7.00000e-01	1.340932e-04	
15	-7.50000e-01	1.315469e-04	
16	-8.00000e-01	1.290194e-04	
17	-8.50000e-01	1.265103e-04	
18	-9.00000e-01	1.240197e-04	
19	-9.50000e-01	1.215473e-04	
20	-1.00000e+00	1.190930e-04	
21	-1.05000e+00	1.166567e-04	
22	-1.10000e+00	1.142381e-04	
23	-1.15000e+00	1.118373e-04	
24	-1.20000e+00	1.094540e-04	
25	-1.25000e+00	1.070881e-04	
26	-1.30000e+00	1.047394e-04	
27	-1.35000e+00	1.024079e-04	
28	-1.40000e+00	1.000934e-04	
29	-1.45000e+00	9.779568e-05	
30	-1.50000e+00	9.551475e-05	
31	-1.55000e+00	9.325043e-05	
32	-1.60000e+00	9.100259e-05	
33	-1.65000e+00	8.877113e-05	
34	-1.70000e+00	8.655591e-05	
35	-1.75000e+00	8.435682e-05	
36	-1.80000e+00	8.217376e-05	
37	-1.85000e+00	8.000661e-05	
38	-1.90000e+00	7.785527e-05	
39	-1.95000e+00	7.571964e-05	
40	-2.00000e+00	7.359962e-05	
41	-2.05000e+00	7.149512e-05	
42	-2.10000e+00	6.940607e-05	
43	-2.15000e+00	6.733237e-05	
44	-2.20000e+00	6.527396e-05	
45	-2.25000e+00	6.323078e-05	
46	-2.30000e+00	6.120277e-05	
47	-2.35000e+00	5.918989e-05	
48	-2.40000e+00	5.719211e-05	
49	-2.45000e+00	5.520941e-05	
50	-2.50000e+00	5.324177e-05	
51	-2.55000e+00	5.128918e-05	
52	-2.60000e+00	4.935165e-05	
53	-2.65000e+00	4.742916e-05	
54	-2.70000e+00	4.552165e-05	

Index   v-sweep         rds             
--------------------------------------------------------------------------------
55	-2.75000e+00	4.362905e-05	
56	-2.80000e+00	4.175114e-05	
57	-2.85000e+00	3.988765e-05	
58	-2.90000e+00	3.803815e-05	
59	-2.95000e+00	3.620233e-05	
60	-3.00000e+00	3.438042e-05	
61	-3.05000e+00	3.257428e-05	
62	-3.10000e+00	3.078920e-05	
63	-3.15000e+00	2.903580e-05	
64	-3.20000e+00	2.733089e-05	
65	-3.25000e+00	2.569568e-05	
66	-3.30000e+00	2.415135e-05	
67	-3.35000e+00	2.271430e-05	
68	-3.40000e+00	2.139339e-05	
69	-3.45000e+00	2.018993e-05	
70	-3.50000e+00	1.909947e-05	
71	-3.55000e+00	1.811401e-05	
72	-3.60000e+00	1.722395e-05	
73	-3.65000e+00	1.641931e-05	
74	-3.70000e+00	1.569053e-05	
75	-3.75000e+00	1.502884e-05	
76	-3.80000e+00	1.442639e-05	
77	-3.85000e+00	1.387627e-05	
78	-3.90000e+00	1.337243e-05	
79	-3.95000e+00	1.290963e-05	
80	-4.00000e+00	1.248330e-05	
81	-4.05000e+00	1.208950e-05	
82	-4.10000e+00	1.172477e-05	
83	-4.15000e+00	1.138613e-05	
84	-4.20000e+00	1.107095e-05	
85	-4.25000e+00	1.077694e-05	
86	-4.30000e+00	1.050210e-05	
87	-4.35000e+00	1.024465e-05	
88	-4.40000e+00	1.000302e-05	
89	-4.45000e+00	9.775838e-06	
90	-4.50000e+00	9.561857e-06	
91	-4.55000e+00	9.359982e-06	
92	-4.60000e+00	9.169232e-06	
93	-4.65000e+00	8.988726e-06	
94	-4.70000e+00	8.817673e-06	
95	-4.75000e+00	8.655360e-06	
96	-4.80000e+00	8.501144e-06	
97	-4.85000e+00	8.354442e-06	
98	-4.90000e+00	8.214725e-06	
99	-4.95000e+00	8.081513e-06	
100	-5.00000e+00	7.954367e-06	
101	-5.05000e+00	7.832890e-06	
102	-5.10000e+00	7.716713e-06	
103	-5.15000e+00	7.605503e-06	
104	-5.20000e+00	7.498952e-06	
105	-5.25000e+00	7.396777e-06	
106	-5.30000e+00	7.298717e-06	
107	-5.35000e+00	7.204533e-06	
108	-5.40000e+00	7.114001e-06	
109	-5.45000e+00	7.026916e-06	
110	-5.50000e+00	6.943088e-06	
111	-5.55000e+00	6.862340e-06	
112	-5.60000e+00	6.784507e-06	

Index   v-sweep         rds             
--------------------------------------------------------------------------------
113	-5.65000e+00	6.709438e-06	
114	-5.70000e+00	6.636989e-06	
115	-5.75000e+00	6.567028e-06	
116	-5.80000e+00	6.499430e-06	
117	-5.85000e+00	6.434081e-06	
118	-5.90000e+00	6.370872e-06	
119	-5.95000e+00	6.309700e-06	
120	-6.00000e+00	6.250472e-06	
121	-6.05000e+00	6.193098e-06	
122	-6.10000e+00	6.137494e-06	
123	-6.15000e+00	6.083581e-06	
124	-6.20000e+00	6.031285e-06	
125	-6.25000e+00	5.980537e-06	
126	-6.30000e+00	5.931271e-06	
127	-6.35000e+00	5.883424e-06	
128	-6.40000e+00	5.836940e-06	
129	-6.45000e+00	5.791761e-06	
130	-6.50000e+00	5.747838e-06	
131	-6.55000e+00	5.705119e-06	
132	-6.60000e+00	5.663559e-06	
Reset re-loads circuit ***************************

Circuit: ***************************

Note: No ".plot", ".print", or ".fourier" lines; no simulations run
