
Note: Compatibility modes selected: hs

Warning: m=xx on .subckt line will override multiplier m hierarchy!


Circuit: ***************************

Doing analysis at TEMP = -40.000000 and TNOM = -40.000000


No. of Data Rows : 133
                          ***************************
                          DC transfer characteristic  Mon Jan  9 13:58:52  2023
--------------------------------------------------------------------------------
Index   v-sweep         rds             
--------------------------------------------------------------------------------
0	0.000000e+00	9.397126e-07	
1	-5.00000e-02	4.202775e-07	
2	-1.00000e-01	9.835345e-08	
3	-1.50000e-01	2.376387e-08	
4	-2.00000e-01	1.124639e-08	
5	-2.50000e-01	7.881497e-09	
6	-3.00000e-01	6.465738e-09	
7	-3.50000e-01	5.663426e-09	
8	-4.00000e-01	5.119429e-09	
9	-4.50000e-01	4.709953e-09	
10	-5.00000e-01	4.382035e-09	
11	-5.50000e-01	4.109112e-09	
12	-6.00000e-01	3.876106e-09	
13	-6.50000e-01	3.673596e-09	
14	-7.00000e-01	3.495251e-09	
15	-7.50000e-01	3.336572e-09	
16	-8.00000e-01	3.194224e-09	
17	-8.50000e-01	3.065651e-09	
18	-9.00000e-01	2.948844e-09	
19	-9.50000e-01	2.842194e-09	
20	-1.00000e+00	2.744386e-09	
21	-1.05000e+00	2.654335e-09	
22	-1.10000e+00	2.571133e-09	
23	-1.15000e+00	2.494013e-09	
24	-1.20000e+00	2.422320e-09	
25	-1.25000e+00	2.355496e-09	
26	-1.30000e+00	2.293055e-09	
27	-1.35000e+00	2.234576e-09	
28	-1.40000e+00	2.179691e-09	
29	-1.45000e+00	2.128078e-09	
30	-1.50000e+00	2.079450e-09	
31	-1.55000e+00	2.033557e-09	
32	-1.60000e+00	1.990172e-09	
33	-1.65000e+00	1.949096e-09	
34	-1.70000e+00	1.910149e-09	
35	-1.75000e+00	1.873170e-09	
36	-1.80000e+00	1.838014e-09	
37	-1.85000e+00	1.804550e-09	
38	-1.90000e+00	1.772657e-09	
39	-1.95000e+00	1.742230e-09	
40	-2.00000e+00	1.713169e-09	
41	-2.05000e+00	1.685384e-09	
42	-2.10000e+00	1.658795e-09	
43	-2.15000e+00	1.633325e-09	
44	-2.20000e+00	1.608906e-09	
45	-2.25000e+00	1.585475e-09	
46	-2.30000e+00	1.562973e-09	
47	-2.35000e+00	1.541346e-09	
48	-2.40000e+00	1.520545e-09	
49	-2.45000e+00	1.500523e-09	
50	-2.50000e+00	1.481239e-09	
51	-2.55000e+00	1.462651e-09	
52	-2.60000e+00	1.444725e-09	
53	-2.65000e+00	1.427424e-09	
54	-2.70000e+00	1.410718e-09	

Index   v-sweep         rds             
--------------------------------------------------------------------------------
55	-2.75000e+00	1.394576e-09	
56	-2.80000e+00	1.378971e-09	
57	-2.85000e+00	1.363877e-09	
58	-2.90000e+00	1.349269e-09	
59	-2.95000e+00	1.335124e-09	
60	-3.00000e+00	1.321422e-09	
61	-3.05000e+00	1.308141e-09	
62	-3.10000e+00	1.295263e-09	
63	-3.15000e+00	1.282771e-09	
64	-3.20000e+00	1.270647e-09	
65	-3.25000e+00	1.258876e-09	
66	-3.30000e+00	1.247442e-09	
67	-3.35000e+00	1.236332e-09	
68	-3.40000e+00	1.225533e-09	
69	-3.45000e+00	1.215032e-09	
70	-3.50000e+00	1.204817e-09	
71	-3.55000e+00	1.194877e-09	
72	-3.60000e+00	1.185201e-09	
73	-3.65000e+00	1.175779e-09	
74	-3.70000e+00	1.166602e-09	
75	-3.75000e+00	1.157660e-09	
76	-3.80000e+00	1.148945e-09	
77	-3.85000e+00	1.140449e-09	
78	-3.90000e+00	1.132164e-09	
79	-3.95000e+00	1.124083e-09	
80	-4.00000e+00	1.116198e-09	
81	-4.05000e+00	1.108503e-09	
82	-4.10000e+00	1.100992e-09	
83	-4.15000e+00	1.093658e-09	
84	-4.20000e+00	1.086496e-09	
85	-4.25000e+00	1.079500e-09	
86	-4.30000e+00	1.072664e-09	
87	-4.35000e+00	1.065985e-09	
88	-4.40000e+00	1.059456e-09	
89	-4.45000e+00	1.053074e-09	
90	-4.50000e+00	1.046834e-09	
91	-4.55000e+00	1.040732e-09	
92	-4.60000e+00	1.034763e-09	
93	-4.65000e+00	1.028925e-09	
94	-4.70000e+00	1.023213e-09	
95	-4.75000e+00	1.017624e-09	
96	-4.80000e+00	1.012154e-09	
97	-4.85000e+00	1.006800e-09	
98	-4.90000e+00	1.001559e-09	
99	-4.95000e+00	9.964288e-10	
100	-5.00000e+00	9.914055e-10	
101	-5.05000e+00	9.864867e-10	
102	-5.10000e+00	9.816697e-10	
103	-5.15000e+00	9.769521e-10	
104	-5.20000e+00	9.723314e-10	
105	-5.25000e+00	9.678053e-10	
106	-5.30000e+00	9.633714e-10	
107	-5.35000e+00	9.590277e-10	
108	-5.40000e+00	9.547721e-10	
109	-5.45000e+00	9.506024e-10	
110	-5.50000e+00	9.465169e-10	
111	-5.55000e+00	9.425137e-10	
112	-5.60000e+00	9.385909e-10	

Index   v-sweep         rds             
--------------------------------------------------------------------------------
113	-5.65000e+00	9.347468e-10	
114	-5.70000e+00	9.309797e-10	
115	-5.75000e+00	9.272880e-10	
116	-5.80000e+00	9.236701e-10	
117	-5.85000e+00	9.201246e-10	
118	-5.90000e+00	9.166499e-10	
119	-5.95000e+00	9.132447e-10	
120	-6.00000e+00	9.099076e-10	
121	-6.05000e+00	9.066372e-10	
122	-6.10000e+00	9.034323e-10	
123	-6.15000e+00	9.002916e-10	
124	-6.20000e+00	8.972139e-10	
125	-6.25000e+00	8.941981e-10	
126	-6.30000e+00	8.912430e-10	
127	-6.35000e+00	8.883475e-10	
128	-6.40000e+00	8.855106e-10	
129	-6.45000e+00	8.827312e-10	
130	-6.50000e+00	8.800082e-10	
131	-6.55000e+00	8.773408e-10	
132	-6.60000e+00	8.747279e-10	
Reset re-loads circuit ***************************

Circuit: ***************************

Doing analysis at TEMP = -40.000000 and TNOM = -40.000000


No. of Data Rows : 133
                          ***************************
                          DC transfer characteristic  Mon Jan  9 13:58:53  2023
--------------------------------------------------------------------------------
Index   v-sweep         rds             
--------------------------------------------------------------------------------
0	0.000000e+00	1.162816e-05	
1	-5.00000e-02	1.086613e-05	
2	-1.00000e-01	1.011109e-05	
3	-1.50000e-01	9.363012e-06	
4	-2.00000e-01	8.621894e-06	
5	-2.50000e-01	7.887771e-06	
6	-3.00000e-01	7.160739e-06	
7	-3.50000e-01	6.441004e-06	
8	-4.00000e-01	5.728971e-06	
9	-4.50000e-01	5.025425e-06	
10	-5.00000e-01	4.331909e-06	
11	-5.50000e-01	3.651550e-06	
12	-6.00000e-01	2.990839e-06	
13	-6.50000e-01	2.363213e-06	
14	-7.00000e-01	1.794301e-06	
15	-7.50000e-01	1.322142e-06	
16	-8.00000e-01	9.772046e-07	
17	-8.50000e-01	7.532552e-07	
18	-9.00000e-01	6.142910e-07	
19	-9.50000e-01	5.250837e-07	
20	-1.00000e+00	4.636482e-07	
21	-1.05000e+00	4.183076e-07	
22	-1.10000e+00	3.829752e-07	
23	-1.15000e+00	3.543304e-07	
24	-1.20000e+00	3.304360e-07	
25	-1.25000e+00	3.100829e-07	
26	-1.30000e+00	2.924691e-07	
27	-1.35000e+00	2.770356e-07	
28	-1.40000e+00	2.633764e-07	
29	-1.45000e+00	2.511868e-07	
30	-1.50000e+00	2.402318e-07	
31	-1.55000e+00	2.303267e-07	
32	-1.60000e+00	2.213232e-07	
33	-1.65000e+00	2.131007e-07	
34	-1.70000e+00	2.055600e-07	
35	-1.75000e+00	1.986182e-07	
36	-1.80000e+00	1.922058e-07	
37	-1.85000e+00	1.862639e-07	
38	-1.90000e+00	1.807419e-07	
39	-1.95000e+00	1.755966e-07	
40	-2.00000e+00	1.707904e-07	
41	-2.05000e+00	1.662907e-07	
42	-2.10000e+00	1.620691e-07	
43	-2.15000e+00	1.581003e-07	
44	-2.20000e+00	1.543623e-07	
45	-2.25000e+00	1.508355e-07	
46	-2.30000e+00	1.475024e-07	
47	-2.35000e+00	1.443476e-07	
48	-2.40000e+00	1.413570e-07	
49	-2.45000e+00	1.385182e-07	
50	-2.50000e+00	1.358199e-07	
51	-2.55000e+00	1.332519e-07	
52	-2.60000e+00	1.308051e-07	
53	-2.65000e+00	1.284710e-07	
54	-2.70000e+00	1.262421e-07	

Index   v-sweep         rds             
--------------------------------------------------------------------------------
55	-2.75000e+00	1.241114e-07	
56	-2.80000e+00	1.220725e-07	
57	-2.85000e+00	1.201198e-07	
58	-2.90000e+00	1.182478e-07	
59	-2.95000e+00	1.164517e-07	
60	-3.00000e+00	1.147270e-07	
61	-3.05000e+00	1.130694e-07	
62	-3.10000e+00	1.114752e-07	
63	-3.15000e+00	1.099408e-07	
64	-3.20000e+00	1.084629e-07	
65	-3.25000e+00	1.070385e-07	
66	-3.30000e+00	1.056648e-07	
67	-3.35000e+00	1.043390e-07	
68	-3.40000e+00	1.030587e-07	
69	-3.45000e+00	1.018217e-07	
70	-3.50000e+00	1.006258e-07	
71	-3.55000e+00	9.946897e-08	
72	-3.60000e+00	9.834937e-08	
73	-3.65000e+00	9.726522e-08	
74	-3.70000e+00	9.621490e-08	
75	-3.75000e+00	9.519685e-08	
76	-3.80000e+00	9.420962e-08	
77	-3.85000e+00	9.325185e-08	
78	-3.90000e+00	9.232225e-08	
79	-3.95000e+00	9.141961e-08	
80	-4.00000e+00	9.054280e-08	
81	-4.05000e+00	8.969072e-08	
82	-4.10000e+00	8.886238e-08	
83	-4.15000e+00	8.805680e-08	
84	-4.20000e+00	8.727309e-08	
85	-4.25000e+00	8.651037e-08	
86	-4.30000e+00	8.576784e-08	
87	-4.35000e+00	8.504473e-08	
88	-4.40000e+00	8.434031e-08	
89	-4.45000e+00	8.365388e-08	
90	-4.50000e+00	8.298479e-08	
91	-4.55000e+00	8.233241e-08	
92	-4.60000e+00	8.169615e-08	
93	-4.65000e+00	8.107545e-08	
94	-4.70000e+00	8.046977e-08	
95	-4.75000e+00	7.987860e-08	
96	-4.80000e+00	7.930146e-08	
97	-4.85000e+00	7.873788e-08	
98	-4.90000e+00	7.818742e-08	
99	-4.95000e+00	7.764967e-08	
100	-5.00000e+00	7.712422e-08	
101	-5.05000e+00	7.661069e-08	
102	-5.10000e+00	7.610872e-08	
103	-5.15000e+00	7.561796e-08	
104	-5.20000e+00	7.513807e-08	
105	-5.25000e+00	7.466875e-08	
106	-5.30000e+00	7.420967e-08	
107	-5.35000e+00	7.376057e-08	
108	-5.40000e+00	7.332114e-08	
109	-5.45000e+00	7.289114e-08	
110	-5.50000e+00	7.247030e-08	
111	-5.55000e+00	7.205839e-08	
112	-5.60000e+00	7.165516e-08	

Index   v-sweep         rds             
--------------------------------------------------------------------------------
113	-5.65000e+00	7.126039e-08	
114	-5.70000e+00	7.087387e-08	
115	-5.75000e+00	7.049539e-08	
116	-5.80000e+00	7.012475e-08	
117	-5.85000e+00	6.976176e-08	
118	-5.90000e+00	6.940624e-08	
119	-5.95000e+00	6.905802e-08	
120	-6.00000e+00	6.871691e-08	
121	-6.05000e+00	6.838277e-08	
122	-6.10000e+00	6.805543e-08	
123	-6.15000e+00	6.773475e-08	
124	-6.20000e+00	6.742057e-08	
125	-6.25000e+00	6.711275e-08	
126	-6.30000e+00	6.681117e-08	
127	-6.35000e+00	6.651570e-08	
128	-6.40000e+00	6.622619e-08	
129	-6.45000e+00	6.594255e-08	
130	-6.50000e+00	6.566463e-08	
131	-6.55000e+00	6.539234e-08	
132	-6.60000e+00	6.512557e-08	
Reset re-loads circuit ***************************

Circuit: ***************************

Doing analysis at TEMP = -40.000000 and TNOM = -40.000000


No. of Data Rows : 133
                          ***************************
                          DC transfer characteristic  Mon Jan  9 13:58:53  2023
--------------------------------------------------------------------------------
Index   v-sweep         rds             
--------------------------------------------------------------------------------
0	0.000000e+00	2.022261e-05	
1	-5.00000e-02	1.949239e-05	
2	-1.00000e-01	1.876766e-05	
3	-1.50000e-01	1.804837e-05	
4	-2.00000e-01	1.733447e-05	
5	-2.50000e-01	1.662594e-05	
6	-3.00000e-01	1.592272e-05	
7	-3.50000e-01	1.522480e-05	
8	-4.00000e-01	1.453212e-05	
9	-4.50000e-01	1.384466e-05	
10	-5.00000e-01	1.316240e-05	
11	-5.50000e-01	1.248531e-05	
12	-6.00000e-01	1.181337e-05	
13	-6.50000e-01	1.114659e-05	
14	-7.00000e-01	1.048497e-05	
15	-7.50000e-01	9.828541e-06	
16	-8.00000e-01	9.177370e-06	
17	-8.50000e-01	8.531567e-06	
18	-9.00000e-01	7.891323e-06	
19	-9.50000e-01	7.256951e-06	
20	-1.00000e+00	6.628973e-06	
21	-1.05000e+00	6.008261e-06	
22	-1.10000e+00	5.396302e-06	
23	-1.15000e+00	4.795659e-06	
24	-1.20000e+00	4.210761e-06	
25	-1.25000e+00	3.649117e-06	
26	-1.30000e+00	3.122618e-06	
27	-1.35000e+00	2.647482e-06	
28	-1.40000e+00	2.240236e-06	
29	-1.45000e+00	1.909751e-06	
30	-1.50000e+00	1.652125e-06	
31	-1.55000e+00	1.454137e-06	
32	-1.60000e+00	1.300656e-06	
33	-1.65000e+00	1.179197e-06	
34	-1.70000e+00	1.080808e-06	
35	-1.75000e+00	9.993753e-07	
36	-1.80000e+00	9.307347e-07	
37	-1.85000e+00	8.719912e-07	
38	-1.90000e+00	8.210804e-07	
39	-1.95000e+00	7.764893e-07	
40	-2.00000e+00	7.370815e-07	
41	-2.05000e+00	7.019844e-07	
42	-2.10000e+00	6.705156e-07	
43	-2.15000e+00	6.421324e-07	
44	-2.20000e+00	6.163970e-07	
45	-2.25000e+00	5.929520e-07	
46	-2.30000e+00	5.715025e-07	
47	-2.35000e+00	5.518025e-07	
48	-2.40000e+00	5.336454e-07	
49	-2.45000e+00	5.168561e-07	
50	-2.50000e+00	5.012852e-07	
51	-2.55000e+00	4.868044e-07	
52	-2.60000e+00	4.733030e-07	
53	-2.65000e+00	4.606848e-07	
54	-2.70000e+00	4.488658e-07	

Index   v-sweep         rds             
--------------------------------------------------------------------------------
55	-2.75000e+00	4.377725e-07	
56	-2.80000e+00	4.273400e-07	
57	-2.85000e+00	4.175110e-07	
58	-2.90000e+00	4.082347e-07	
59	-2.95000e+00	3.994658e-07	
60	-3.00000e+00	3.911638e-07	
61	-3.05000e+00	3.832925e-07	
62	-3.10000e+00	3.758194e-07	
63	-3.15000e+00	3.687149e-07	
64	-3.20000e+00	3.619525e-07	
65	-3.25000e+00	3.555082e-07	
66	-3.30000e+00	3.493602e-07	
67	-3.35000e+00	3.434884e-07	
68	-3.40000e+00	3.378748e-07	
69	-3.45000e+00	3.325027e-07	
70	-3.50000e+00	3.273569e-07	
71	-3.55000e+00	3.224235e-07	
72	-3.60000e+00	3.176897e-07	
73	-3.65000e+00	3.131436e-07	
74	-3.70000e+00	3.087743e-07	
75	-3.75000e+00	3.045717e-07	
76	-3.80000e+00	3.005266e-07	
77	-3.85000e+00	2.966302e-07	
78	-3.90000e+00	2.928746e-07	
79	-3.95000e+00	2.892523e-07	
80	-4.00000e+00	2.857564e-07	
81	-4.05000e+00	2.823803e-07	
82	-4.10000e+00	2.791182e-07	
83	-4.15000e+00	2.759642e-07	
84	-4.20000e+00	2.729133e-07	
85	-4.25000e+00	2.699604e-07	
86	-4.30000e+00	2.671009e-07	
87	-4.35000e+00	2.643306e-07	
88	-4.40000e+00	2.616453e-07	
89	-4.45000e+00	2.590412e-07	
90	-4.50000e+00	2.565148e-07	
91	-4.55000e+00	2.540626e-07	
92	-4.60000e+00	2.516815e-07	
93	-4.65000e+00	2.493684e-07	
94	-4.70000e+00	2.471206e-07	
95	-4.75000e+00	2.449354e-07	
96	-4.80000e+00	2.428102e-07	
97	-4.85000e+00	2.407427e-07	
98	-4.90000e+00	2.387305e-07	
99	-4.95000e+00	2.367717e-07	
100	-5.00000e+00	2.348640e-07	
101	-5.05000e+00	2.330057e-07	
102	-5.10000e+00	2.311949e-07	
103	-5.15000e+00	2.294299e-07	
104	-5.20000e+00	2.277090e-07	
105	-5.25000e+00	2.260306e-07	
106	-5.30000e+00	2.243934e-07	
107	-5.35000e+00	2.227959e-07	
108	-5.40000e+00	2.212367e-07	
109	-5.45000e+00	2.197146e-07	
110	-5.50000e+00	2.182284e-07	
111	-5.55000e+00	2.167769e-07	
112	-5.60000e+00	2.153590e-07	

Index   v-sweep         rds             
--------------------------------------------------------------------------------
113	-5.65000e+00	2.139737e-07	
114	-5.70000e+00	2.126200e-07	
115	-5.75000e+00	2.112968e-07	
116	-5.80000e+00	2.100034e-07	
117	-5.85000e+00	2.087389e-07	
118	-5.90000e+00	2.075023e-07	
119	-5.95000e+00	2.062930e-07	
120	-6.00000e+00	2.051101e-07	
121	-6.05000e+00	2.039530e-07	
122	-6.10000e+00	2.028209e-07	
123	-6.15000e+00	2.017131e-07	
124	-6.20000e+00	2.006291e-07	
125	-6.25000e+00	1.995683e-07	
126	-6.30000e+00	1.985300e-07	
127	-6.35000e+00	1.975137e-07	
128	-6.40000e+00	1.965188e-07	
129	-6.45000e+00	1.955448e-07	
130	-6.50000e+00	1.945913e-07	
131	-6.55000e+00	1.936578e-07	
132	-6.60000e+00	1.927438e-07	
Reset re-loads circuit ***************************

Circuit: ***************************

Doing analysis at TEMP = -40.000000 and TNOM = -40.000000


No. of Data Rows : 133
                          ***************************
                          DC transfer characteristic  Mon Jan  9 13:58:53  2023
--------------------------------------------------------------------------------
Index   v-sweep         rds             
--------------------------------------------------------------------------------
0	0.000000e+00	2.707937e-05	
1	-5.00000e-02	2.639079e-05	
2	-1.00000e-01	2.570663e-05	
3	-1.50000e-01	2.502685e-05	
4	-2.00000e-01	2.435144e-05	
5	-2.50000e-01	2.368035e-05	
6	-3.00000e-01	2.301355e-05	
7	-3.50000e-01	2.235103e-05	
8	-4.00000e-01	2.169275e-05	
9	-4.50000e-01	2.103869e-05	
10	-5.00000e-01	2.038881e-05	
11	-5.50000e-01	1.974309e-05	
12	-6.00000e-01	1.910150e-05	
13	-6.50000e-01	1.846402e-05	
14	-7.00000e-01	1.783063e-05	
15	-7.50000e-01	1.720129e-05	
16	-8.00000e-01	1.657599e-05	
17	-8.50000e-01	1.595471e-05	
18	-9.00000e-01	1.533742e-05	
19	-9.50000e-01	1.472411e-05	
20	-1.00000e+00	1.411477e-05	
21	-1.05000e+00	1.350938e-05	
22	-1.10000e+00	1.290794e-05	
23	-1.15000e+00	1.231045e-05	
24	-1.20000e+00	1.171692e-05	
25	-1.25000e+00	1.112738e-05	
26	-1.30000e+00	1.054185e-05	
27	-1.35000e+00	9.960423e-06	
28	-1.40000e+00	9.383184e-06	
29	-1.45000e+00	8.810297e-06	
30	-1.50000e+00	8.242005e-06	
31	-1.55000e+00	7.678679e-06	
32	-1.60000e+00	7.120901e-06	
33	-1.65000e+00	6.569577e-06	
34	-1.70000e+00	6.026148e-06	
35	-1.75000e+00	5.492898e-06	
36	-1.80000e+00	4.973421e-06	
37	-1.85000e+00	4.473160e-06	
38	-1.90000e+00	3.999754e-06	
39	-1.95000e+00	3.562533e-06	
40	-2.00000e+00	3.170510e-06	
41	-2.05000e+00	2.829357e-06	
42	-2.10000e+00	2.539414e-06	
43	-2.15000e+00	2.296256e-06	
44	-2.20000e+00	2.092988e-06	
45	-2.25000e+00	1.922396e-06	
46	-2.30000e+00	1.778104e-06	
47	-2.35000e+00	1.654915e-06	
48	-2.40000e+00	1.548739e-06	
49	-2.45000e+00	1.456395e-06	
50	-2.50000e+00	1.375407e-06	
51	-2.55000e+00	1.303838e-06	
52	-2.60000e+00	1.240157e-06	
53	-2.65000e+00	1.183141e-06	
54	-2.70000e+00	1.131804e-06	

Index   v-sweep         rds             
--------------------------------------------------------------------------------
55	-2.75000e+00	1.085345e-06	
56	-2.80000e+00	1.043105e-06	
57	-2.85000e+00	1.004537e-06	
58	-2.90000e+00	9.691842e-07	
59	-2.95000e+00	9.366635e-07	
60	-3.00000e+00	9.066490e-07	
61	-3.05000e+00	8.788631e-07	
62	-3.10000e+00	8.530674e-07	
63	-3.15000e+00	8.290565e-07	
64	-3.20000e+00	8.066522e-07	
65	-3.25000e+00	7.856989e-07	
66	-3.30000e+00	7.660609e-07	
67	-3.35000e+00	7.476184e-07	
68	-3.40000e+00	7.302661e-07	
69	-3.45000e+00	7.139103e-07	
70	-3.50000e+00	6.984681e-07	
71	-3.55000e+00	6.838651e-07	
72	-3.60000e+00	6.700352e-07	
73	-3.65000e+00	6.569188e-07	
74	-3.70000e+00	6.444622e-07	
75	-3.75000e+00	6.326172e-07	
76	-3.80000e+00	6.213398e-07	
77	-3.85000e+00	6.105906e-07	
78	-3.90000e+00	6.003333e-07	
79	-3.95000e+00	5.905351e-07	
80	-4.00000e+00	5.811660e-07	
81	-4.05000e+00	5.721986e-07	
82	-4.10000e+00	5.636076e-07	
83	-4.15000e+00	5.553700e-07	
84	-4.20000e+00	5.474645e-07	
85	-4.25000e+00	5.398715e-07	
86	-4.30000e+00	5.325729e-07	
87	-4.35000e+00	5.255521e-07	
88	-4.40000e+00	5.187935e-07	
89	-4.45000e+00	5.122828e-07	
90	-4.50000e+00	5.060067e-07	
91	-4.55000e+00	4.999528e-07	
92	-4.60000e+00	4.941096e-07	
93	-4.65000e+00	4.884663e-07	
94	-4.70000e+00	4.830129e-07	
95	-4.75000e+00	4.777400e-07	
96	-4.80000e+00	4.726390e-07	
97	-4.85000e+00	4.677016e-07	
98	-4.90000e+00	4.629201e-07	
99	-4.95000e+00	4.582873e-07	
100	-5.00000e+00	4.537965e-07	
101	-5.05000e+00	4.494412e-07	
102	-5.10000e+00	4.452156e-07	
103	-5.15000e+00	4.411140e-07	
104	-5.20000e+00	4.371311e-07	
105	-5.25000e+00	4.332619e-07	
106	-5.30000e+00	4.295018e-07	
107	-5.35000e+00	4.258461e-07	
108	-5.40000e+00	4.222908e-07	
109	-5.45000e+00	4.188318e-07	
110	-5.50000e+00	4.154655e-07	
111	-5.55000e+00	4.121882e-07	
112	-5.60000e+00	4.089966e-07	

Index   v-sweep         rds             
--------------------------------------------------------------------------------
113	-5.65000e+00	4.058874e-07	
114	-5.70000e+00	4.028577e-07	
115	-5.75000e+00	3.999046e-07	
116	-5.80000e+00	3.970254e-07	
117	-5.85000e+00	3.942174e-07	
118	-5.90000e+00	3.914783e-07	
119	-5.95000e+00	3.888056e-07	
120	-6.00000e+00	3.861971e-07	
121	-6.05000e+00	3.836508e-07	
122	-6.10000e+00	3.811646e-07	
123	-6.15000e+00	3.787367e-07	
124	-6.20000e+00	3.763651e-07	
125	-6.25000e+00	3.740481e-07	
126	-6.30000e+00	3.717841e-07	
127	-6.35000e+00	3.695716e-07	
128	-6.40000e+00	3.674089e-07	
129	-6.45000e+00	3.652947e-07	
130	-6.50000e+00	3.632275e-07	
131	-6.55000e+00	3.612062e-07	
132	-6.60000e+00	3.592293e-07	
Reset re-loads circuit ***************************

Circuit: ***************************

Doing analysis at TEMP = -40.000000 and TNOM = -40.000000


No. of Data Rows : 133
                          ***************************
                          DC transfer characteristic  Mon Jan  9 13:58:53  2023
--------------------------------------------------------------------------------
Index   v-sweep         rds             
--------------------------------------------------------------------------------
0	0.000000e+00	3.326982e-05	
1	-5.00000e-02	3.261859e-05	
2	-1.00000e-01	3.197101e-05	
3	-1.50000e-01	3.132705e-05	
4	-2.00000e-01	3.068670e-05	
5	-2.50000e-01	3.004993e-05	
6	-3.00000e-01	2.941671e-05	
7	-3.50000e-01	2.878703e-05	
8	-4.00000e-01	2.816088e-05	
9	-4.50000e-01	2.753821e-05	
10	-5.00000e-01	2.691903e-05	
11	-5.50000e-01	2.630329e-05	
12	-6.00000e-01	2.569100e-05	
13	-6.50000e-01	2.508212e-05	
14	-7.00000e-01	2.447663e-05	
15	-7.50000e-01	2.387452e-05	
16	-8.00000e-01	2.327577e-05	
17	-8.50000e-01	2.268035e-05	
18	-9.00000e-01	2.208826e-05	
19	-9.50000e-01	2.149946e-05	
20	-1.00000e+00	2.091394e-05	
21	-1.05000e+00	2.033169e-05	
22	-1.10000e+00	1.975268e-05	
23	-1.15000e+00	1.917691e-05	
24	-1.20000e+00	1.860435e-05	
25	-1.25000e+00	1.803498e-05	
26	-1.30000e+00	1.746880e-05	
27	-1.35000e+00	1.690579e-05	
28	-1.40000e+00	1.634594e-05	
29	-1.45000e+00	1.578923e-05	
30	-1.50000e+00	1.523566e-05	
31	-1.55000e+00	1.468521e-05	
32	-1.60000e+00	1.413790e-05	
33	-1.65000e+00	1.359370e-05	
34	-1.70000e+00	1.305264e-05	
35	-1.75000e+00	1.251472e-05	
36	-1.80000e+00	1.197995e-05	
37	-1.85000e+00	1.144837e-05	
38	-1.90000e+00	1.092002e-05	
39	-1.95000e+00	1.039496e-05	
40	-2.00000e+00	9.873301e-06	
41	-2.05000e+00	9.355165e-06	
42	-2.10000e+00	8.840757e-06	
43	-2.15000e+00	8.330367e-06	
44	-2.20000e+00	7.824429e-06	
45	-2.25000e+00	7.323590e-06	
46	-2.30000e+00	6.828827e-06	
47	-2.35000e+00	6.341630e-06	
48	-2.40000e+00	5.864242e-06	
49	-2.45000e+00	5.399959e-06	
50	-2.50000e+00	4.953354e-06	
51	-2.55000e+00	4.530175e-06	
52	-2.60000e+00	4.136608e-06	
53	-2.65000e+00	3.777928e-06	
54	-2.70000e+00	3.457139e-06	

Index   v-sweep         rds             
--------------------------------------------------------------------------------
55	-2.75000e+00	3.174398e-06	
56	-2.80000e+00	2.927455e-06	
57	-2.85000e+00	2.712624e-06	
58	-2.90000e+00	2.525712e-06	
59	-2.95000e+00	2.362641e-06	
60	-3.00000e+00	2.219751e-06	
61	-3.05000e+00	2.093898e-06	
62	-3.10000e+00	1.982449e-06	
63	-3.15000e+00	1.883215e-06	
64	-3.20000e+00	1.794394e-06	
65	-3.25000e+00	1.714494e-06	
66	-3.30000e+00	1.642280e-06	
67	-3.35000e+00	1.576725e-06	
68	-3.40000e+00	1.516972e-06	
69	-3.45000e+00	1.462297e-06	
70	-3.50000e+00	1.412093e-06	
71	-3.55000e+00	1.365841e-06	
72	-3.60000e+00	1.323099e-06	
73	-3.65000e+00	1.283488e-06	
74	-3.70000e+00	1.246678e-06	
75	-3.75000e+00	1.212388e-06	
76	-3.80000e+00	1.180368e-06	
77	-3.85000e+00	1.150404e-06	
78	-3.90000e+00	1.122304e-06	
79	-3.95000e+00	1.095903e-06	
80	-4.00000e+00	1.071050e-06	
81	-4.05000e+00	1.047616e-06	
82	-4.10000e+00	1.025483e-06	
83	-4.15000e+00	1.004546e-06	
84	-4.20000e+00	9.847112e-07	
85	-4.25000e+00	9.658949e-07	
86	-4.30000e+00	9.480209e-07	
87	-4.35000e+00	9.310206e-07	
88	-4.40000e+00	9.148319e-07	
89	-4.45000e+00	8.993983e-07	
90	-4.50000e+00	8.846686e-07	
91	-4.55000e+00	8.705960e-07	
92	-4.60000e+00	8.571377e-07	
93	-4.65000e+00	8.442546e-07	
94	-4.70000e+00	8.319108e-07	
95	-4.75000e+00	8.200733e-07	
96	-4.80000e+00	8.087119e-07	
97	-4.85000e+00	7.977984e-07	
98	-4.90000e+00	7.873072e-07	
99	-4.95000e+00	7.772143e-07	
100	-5.00000e+00	7.674976e-07	
101	-5.05000e+00	7.581365e-07	
102	-5.10000e+00	7.491121e-07	
103	-5.15000e+00	7.404066e-07	
104	-5.20000e+00	7.320035e-07	
105	-5.25000e+00	7.238874e-07	
106	-5.30000e+00	7.160440e-07	
107	-5.35000e+00	7.084599e-07	
108	-5.40000e+00	7.011225e-07	
109	-5.45000e+00	6.940201e-07	
110	-5.50000e+00	6.871417e-07	
111	-5.55000e+00	6.804769e-07	
112	-5.60000e+00	6.740162e-07	

Index   v-sweep         rds             
--------------------------------------------------------------------------------
113	-5.65000e+00	6.677503e-07	
114	-5.70000e+00	6.616706e-07	
115	-5.75000e+00	6.557692e-07	
116	-5.80000e+00	6.500385e-07	
117	-5.85000e+00	6.444712e-07	
118	-5.90000e+00	6.390606e-07	
119	-5.95000e+00	6.338003e-07	
120	-6.00000e+00	6.286843e-07	
121	-6.05000e+00	6.237069e-07	
122	-6.10000e+00	6.188628e-07	
123	-6.15000e+00	6.141467e-07	
124	-6.20000e+00	6.095539e-07	
125	-6.25000e+00	6.050799e-07	
126	-6.30000e+00	6.007201e-07	
127	-6.35000e+00	5.964707e-07	
128	-6.40000e+00	5.923275e-07	
129	-6.45000e+00	5.882870e-07	
130	-6.50000e+00	5.843456e-07	
131	-6.55000e+00	5.805000e-07	
132	-6.60000e+00	5.767470e-07	
Reset re-loads circuit ***************************

Circuit: ***************************

Doing analysis at TEMP = -40.000000 and TNOM = -40.000000


No. of Data Rows : 133
                          ***************************
                          DC transfer characteristic  Mon Jan  9 13:58:53  2023
--------------------------------------------------------------------------------
Index   v-sweep         rds             
--------------------------------------------------------------------------------
0	0.000000e+00	3.831533e-05	
1	-5.00000e-02	3.770125e-05	
2	-1.00000e-01	3.709021e-05	
3	-1.50000e-01	3.648221e-05	
4	-2.00000e-01	3.587722e-05	
5	-2.50000e-01	3.527522e-05	
6	-3.00000e-01	3.467621e-05	
7	-3.50000e-01	3.408016e-05	
8	-4.00000e-01	3.348707e-05	
9	-4.50000e-01	3.289691e-05	
10	-5.00000e-01	3.230966e-05	
11	-5.50000e-01	3.172532e-05	
12	-6.00000e-01	3.114387e-05	
13	-6.50000e-01	3.056530e-05	
14	-7.00000e-01	2.998958e-05	
15	-7.50000e-01	2.941670e-05	
16	-8.00000e-01	2.884665e-05	
17	-8.50000e-01	2.827942e-05	
18	-9.00000e-01	2.771498e-05	
19	-9.50000e-01	2.715333e-05	
20	-1.00000e+00	2.659445e-05	
21	-1.05000e+00	2.603833e-05	
22	-1.10000e+00	2.548495e-05	
23	-1.15000e+00	2.493429e-05	
24	-1.20000e+00	2.438635e-05	
25	-1.25000e+00	2.384111e-05	
26	-1.30000e+00	2.329856e-05	
27	-1.35000e+00	2.275868e-05	
28	-1.40000e+00	2.222146e-05	
29	-1.45000e+00	2.168689e-05	
30	-1.50000e+00	2.115495e-05	
31	-1.55000e+00	2.062564e-05	
32	-1.60000e+00	2.009894e-05	
33	-1.65000e+00	1.957484e-05	
34	-1.70000e+00	1.905333e-05	
35	-1.75000e+00	1.853439e-05	
36	-1.80000e+00	1.801803e-05	
37	-1.85000e+00	1.750422e-05	
38	-1.90000e+00	1.699297e-05	
39	-1.95000e+00	1.648425e-05	
40	-2.00000e+00	1.597808e-05	
41	-2.05000e+00	1.547444e-05	
42	-2.10000e+00	1.497332e-05	
43	-2.15000e+00	1.447474e-05	
44	-2.20000e+00	1.397868e-05	
45	-2.25000e+00	1.348516e-05	
46	-2.30000e+00	1.299417e-05	
47	-2.35000e+00	1.250574e-05	
48	-2.40000e+00	1.201988e-05	
49	-2.45000e+00	1.153662e-05	
50	-2.50000e+00	1.105600e-05	
51	-2.55000e+00	1.057807e-05	
52	-2.60000e+00	1.010289e-05	
53	-2.65000e+00	9.630563e-06	
54	-2.70000e+00	9.161226e-06	

Index   v-sweep         rds             
--------------------------------------------------------------------------------
55	-2.75000e+00	8.695062e-06	
56	-2.80000e+00	8.232346e-06	
57	-2.85000e+00	7.773479e-06	
58	-2.90000e+00	7.319080e-06	
59	-2.95000e+00	6.870115e-06	
60	-3.00000e+00	6.428104e-06	
61	-3.05000e+00	5.995384e-06	
62	-3.10000e+00	5.575352e-06	
63	-3.15000e+00	5.172463e-06	
64	-3.20000e+00	4.791763e-06	
65	-3.25000e+00	4.437944e-06	
66	-3.30000e+00	4.114307e-06	
67	-3.35000e+00	3.822178e-06	
68	-3.40000e+00	3.560970e-06	
69	-3.45000e+00	3.328704e-06	
70	-3.50000e+00	3.122634e-06	
71	-3.55000e+00	2.939762e-06	
72	-3.60000e+00	2.777158e-06	
73	-3.65000e+00	2.632141e-06	
74	-3.70000e+00	2.502340e-06	
75	-3.75000e+00	2.385704e-06	
76	-3.80000e+00	2.280480e-06	
77	-3.85000e+00	2.185174e-06	
78	-3.90000e+00	2.098521e-06	
79	-3.95000e+00	2.019445e-06	
80	-4.00000e+00	1.947032e-06	
81	-4.05000e+00	1.880501e-06	
82	-4.10000e+00	1.819183e-06	
83	-4.15000e+00	1.762506e-06	
84	-4.20000e+00	1.709972e-06	
85	-4.25000e+00	1.661152e-06	
86	-4.30000e+00	1.615674e-06	
87	-4.35000e+00	1.573211e-06	
88	-4.40000e+00	1.533478e-06	
89	-4.45000e+00	1.496223e-06	
90	-4.50000e+00	1.461225e-06	
91	-4.55000e+00	1.428286e-06	
92	-4.60000e+00	1.397233e-06	
93	-4.65000e+00	1.367910e-06	
94	-4.70000e+00	1.340177e-06	
95	-4.75000e+00	1.313910e-06	
96	-4.80000e+00	1.288997e-06	
97	-4.85000e+00	1.265337e-06	
98	-4.90000e+00	1.242838e-06	
99	-4.95000e+00	1.221418e-06	
100	-5.00000e+00	1.201001e-06	
101	-5.05000e+00	1.181519e-06	
102	-5.10000e+00	1.162910e-06	
103	-5.15000e+00	1.145117e-06	
104	-5.20000e+00	1.128088e-06	
105	-5.25000e+00	1.111775e-06	
106	-5.30000e+00	1.096134e-06	
107	-5.35000e+00	1.081124e-06	
108	-5.40000e+00	1.066710e-06	
109	-5.45000e+00	1.052855e-06	
110	-5.50000e+00	1.039528e-06	
111	-5.55000e+00	1.026701e-06	
112	-5.60000e+00	1.014345e-06	

Index   v-sweep         rds             
--------------------------------------------------------------------------------
113	-5.65000e+00	1.002435e-06	
114	-5.70000e+00	9.909480e-07	
115	-5.75000e+00	9.798616e-07	
116	-5.80000e+00	9.691555e-07	
117	-5.85000e+00	9.588107e-07	
118	-5.90000e+00	9.488092e-07	
119	-5.95000e+00	9.391344e-07	
120	-6.00000e+00	9.297708e-07	
121	-6.05000e+00	9.207036e-07	
122	-6.10000e+00	9.119192e-07	
123	-6.15000e+00	9.034047e-07	
124	-6.20000e+00	8.951481e-07	
125	-6.25000e+00	8.871379e-07	
126	-6.30000e+00	8.793634e-07	
127	-6.35000e+00	8.718145e-07	
128	-6.40000e+00	8.644818e-07	
129	-6.45000e+00	8.573563e-07	
130	-6.50000e+00	8.504295e-07	
131	-6.55000e+00	8.436934e-07	
132	-6.60000e+00	8.371405e-07	
Reset re-loads circuit ***************************

Circuit: ***************************

Note: No ".plot", ".print", or ".fourier" lines; no simulations run
