
Note: Compatibility modes selected: hs

Warning: m=xx on .subckt line will override multiplier m hierarchy!


Circuit: ***************************

Doing analysis at TEMP = -40.000000 and TNOM = -40.000000


No. of Data Rows : 133
                          ***************************
                          DC transfer characteristic  Mon Jan  9 13:58:52  2023
--------------------------------------------------------------------------------
Index   v-sweep         rds             
--------------------------------------------------------------------------------
0	0.000000e+00	5.380757e-05	
1	-5.00000e-02	2.291077e-05	
2	-1.00000e-01	5.395886e-06	
3	-1.50000e-01	1.798638e-06	
4	-2.00000e-01	1.169863e-06	
5	-2.50000e-01	9.772300e-07	
6	-3.00000e-01	8.851322e-07	
7	-3.50000e-01	8.283728e-07	
8	-4.00000e-01	7.883193e-07	
9	-4.50000e-01	7.578694e-07	
10	-5.00000e-01	7.336791e-07	
11	-5.50000e-01	7.139135e-07	
12	-6.00000e-01	6.974494e-07	
13	-6.50000e-01	6.835429e-07	
14	-7.00000e-01	6.716730e-07	
15	-7.50000e-01	6.614592e-07	
16	-8.00000e-01	6.526142e-07	
17	-8.50000e-01	6.449163e-07	
18	-9.00000e-01	6.381904e-07	
19	-9.50000e-01	6.322962e-07	
20	-1.00000e+00	6.271196e-07	
21	-1.05000e+00	6.225669e-07	
22	-1.10000e+00	6.185601e-07	
23	-1.15000e+00	6.150338e-07	
24	-1.20000e+00	6.119328e-07	
25	-1.25000e+00	6.092099e-07	
26	-1.30000e+00	6.068249e-07	
27	-1.35000e+00	6.047430e-07	
28	-1.40000e+00	6.029340e-07	
29	-1.45000e+00	6.013716e-07	
30	-1.50000e+00	6.000329e-07	
31	-1.55000e+00	5.988977e-07	
32	-1.60000e+00	5.979480e-07	
33	-1.65000e+00	5.971681e-07	
34	-1.70000e+00	5.965439e-07	
35	-1.75000e+00	5.960628e-07	
36	-1.80000e+00	5.957137e-07	
37	-1.85000e+00	5.954864e-07	
38	-1.90000e+00	5.953719e-07	
39	-1.95000e+00	5.953619e-07	
40	-2.00000e+00	5.954491e-07	
41	-2.05000e+00	5.956267e-07	
42	-2.10000e+00	5.958886e-07	
43	-2.15000e+00	5.962293e-07	
44	-2.20000e+00	5.966437e-07	
45	-2.25000e+00	5.971271e-07	
46	-2.30000e+00	5.976752e-07	
47	-2.35000e+00	5.982842e-07	
48	-2.40000e+00	5.989504e-07	
49	-2.45000e+00	5.996706e-07	
50	-2.50000e+00	6.004417e-07	
51	-2.55000e+00	6.012608e-07	
52	-2.60000e+00	6.021253e-07	
53	-2.65000e+00	6.030329e-07	
54	-2.70000e+00	6.039813e-07	

Index   v-sweep         rds             
--------------------------------------------------------------------------------
55	-2.75000e+00	6.049683e-07	
56	-2.80000e+00	6.059921e-07	
57	-2.85000e+00	6.070508e-07	
58	-2.90000e+00	6.081428e-07	
59	-2.95000e+00	6.092664e-07	
60	-3.00000e+00	6.104203e-07	
61	-3.05000e+00	6.116030e-07	
62	-3.10000e+00	6.128132e-07	
63	-3.15000e+00	6.140498e-07	
64	-3.20000e+00	6.153116e-07	
65	-3.25000e+00	6.165975e-07	
66	-3.30000e+00	6.179066e-07	
67	-3.35000e+00	6.192379e-07	
68	-3.40000e+00	6.205906e-07	
69	-3.45000e+00	6.219638e-07	
70	-3.50000e+00	6.233567e-07	
71	-3.55000e+00	6.247686e-07	
72	-3.60000e+00	6.261988e-07	
73	-3.65000e+00	6.276467e-07	
74	-3.70000e+00	6.291117e-07	
75	-3.75000e+00	6.305931e-07	
76	-3.80000e+00	6.320904e-07	
77	-3.85000e+00	6.336032e-07	
78	-3.90000e+00	6.351309e-07	
79	-3.95000e+00	6.366730e-07	
80	-4.00000e+00	6.382292e-07	
81	-4.05000e+00	6.397990e-07	
82	-4.10000e+00	6.413820e-07	
83	-4.15000e+00	6.429779e-07	
84	-4.20000e+00	6.445863e-07	
85	-4.25000e+00	6.462070e-07	
86	-4.30000e+00	6.478395e-07	
87	-4.35000e+00	6.494836e-07	
88	-4.40000e+00	6.511391e-07	
89	-4.45000e+00	6.528056e-07	
90	-4.50000e+00	6.544829e-07	
91	-4.55000e+00	6.561709e-07	
92	-4.60000e+00	6.578692e-07	
93	-4.65000e+00	6.595777e-07	
94	-4.70000e+00	6.612962e-07	
95	-4.75000e+00	6.630245e-07	
96	-4.80000e+00	6.647625e-07	
97	-4.85000e+00	6.665099e-07	
98	-4.90000e+00	6.682666e-07	
99	-4.95000e+00	6.700325e-07	
100	-5.00000e+00	6.718074e-07	
101	-5.05000e+00	6.735913e-07	
102	-5.10000e+00	6.753840e-07	
103	-5.15000e+00	6.771854e-07	
104	-5.20000e+00	6.789953e-07	
105	-5.25000e+00	6.808138e-07	
106	-5.30000e+00	6.826407e-07	
107	-5.35000e+00	6.844759e-07	
108	-5.40000e+00	6.863193e-07	
109	-5.45000e+00	6.881710e-07	
110	-5.50000e+00	6.900307e-07	
111	-5.55000e+00	6.918985e-07	
112	-5.60000e+00	6.937742e-07	

Index   v-sweep         rds             
--------------------------------------------------------------------------------
113	-5.65000e+00	6.956579e-07	
114	-5.70000e+00	6.975495e-07	
115	-5.75000e+00	6.994489e-07	
116	-5.80000e+00	7.013561e-07	
117	-5.85000e+00	7.032711e-07	
118	-5.90000e+00	7.051938e-07	
119	-5.95000e+00	7.071243e-07	
120	-6.00000e+00	7.090623e-07	
121	-6.05000e+00	7.110081e-07	
122	-6.10000e+00	7.129614e-07	
123	-6.15000e+00	7.149224e-07	
124	-6.20000e+00	7.168909e-07	
125	-6.25000e+00	7.188670e-07	
126	-6.30000e+00	7.208507e-07	
127	-6.35000e+00	7.228419e-07	
128	-6.40000e+00	7.248407e-07	
129	-6.45000e+00	7.268470e-07	
130	-6.50000e+00	7.288608e-07	
131	-6.55000e+00	7.308821e-07	
132	-6.60000e+00	7.329110e-07	
Reset re-loads circuit ***************************

Circuit: ***************************

Doing analysis at TEMP = -40.000000 and TNOM = -40.000000


No. of Data Rows : 133
                          ***************************
                          DC transfer characteristic  Mon Jan  9 13:58:52  2023
--------------------------------------------------------------------------------
Index   v-sweep         rds             
--------------------------------------------------------------------------------
0	0.000000e+00	7.362938e-04	
1	-5.00000e-02	6.858975e-04	
2	-1.00000e-01	6.364768e-04	
3	-1.50000e-01	5.880127e-04	
4	-2.00000e-01	5.404878e-04	
5	-2.50000e-01	4.938874e-04	
6	-3.00000e-01	4.482006e-04	
7	-3.50000e-01	4.034231e-04	
8	-4.00000e-01	3.595622e-04	
9	-4.50000e-01	3.166470e-04	
10	-5.00000e-01	2.747503e-04	
11	-5.50000e-01	2.340355e-04	
12	-6.00000e-01	1.948602e-04	
13	-6.50000e-01	1.579765e-04	
14	-7.00000e-01	1.247923e-04	
15	-7.50000e-01	9.724769e-05	
16	-8.00000e-01	7.661896e-05	
17	-8.50000e-01	6.230235e-05	
18	-9.00000e-01	5.250590e-05	
19	-9.50000e-01	4.558872e-05	
20	-1.00000e+00	4.048284e-05	
21	-1.05000e+00	3.655866e-05	
22	-1.10000e+00	3.344291e-05	
23	-1.15000e+00	3.090489e-05	
24	-1.20000e+00	2.879500e-05	
25	-1.25000e+00	2.701191e-05	
26	-1.30000e+00	2.548437e-05	
27	-1.35000e+00	2.416069e-05	
28	-1.40000e+00	2.300240e-05	
29	-1.45000e+00	2.198024e-05	
30	-1.50000e+00	2.107150e-05	
31	-1.55000e+00	2.025830e-05	
32	-1.60000e+00	1.952636e-05	
33	-1.65000e+00	1.886410e-05	
34	-1.70000e+00	1.826207e-05	
35	-1.75000e+00	1.771245e-05	
36	-1.80000e+00	1.720871e-05	
37	-1.85000e+00	1.674540e-05	
38	-1.90000e+00	1.631785e-05	
39	-1.95000e+00	1.592213e-05	
40	-2.00000e+00	1.555484e-05	
41	-2.05000e+00	1.521305e-05	
42	-2.10000e+00	1.489422e-05	
43	-2.15000e+00	1.459615e-05	
44	-2.20000e+00	1.431689e-05	
45	-2.25000e+00	1.405475e-05	
46	-2.30000e+00	1.380822e-05	
47	-2.35000e+00	1.357597e-05	
48	-2.40000e+00	1.335680e-05	
49	-2.45000e+00	1.314968e-05	
50	-2.50000e+00	1.295363e-05	
51	-2.55000e+00	1.276783e-05	
52	-2.60000e+00	1.259150e-05	
53	-2.65000e+00	1.242394e-05	
54	-2.70000e+00	1.226454e-05	

Index   v-sweep         rds             
--------------------------------------------------------------------------------
55	-2.75000e+00	1.211273e-05	
56	-2.80000e+00	1.196798e-05	
57	-2.85000e+00	1.182984e-05	
58	-2.90000e+00	1.169786e-05	
59	-2.95000e+00	1.157166e-05	
60	-3.00000e+00	1.145088e-05	
61	-3.05000e+00	1.133518e-05	
62	-3.10000e+00	1.122426e-05	
63	-3.15000e+00	1.111784e-05	
64	-3.20000e+00	1.101566e-05	
65	-3.25000e+00	1.091748e-05	
66	-3.30000e+00	1.082307e-05	
67	-3.35000e+00	1.073224e-05	
68	-3.40000e+00	1.064478e-05	
69	-3.45000e+00	1.056053e-05	
70	-3.50000e+00	1.047931e-05	
71	-3.55000e+00	1.040098e-05	
72	-3.60000e+00	1.032538e-05	
73	-3.65000e+00	1.025239e-05	
74	-3.70000e+00	1.018187e-05	
75	-3.75000e+00	1.011372e-05	
76	-3.80000e+00	1.004781e-05	
77	-3.85000e+00	9.984054e-06	
78	-3.90000e+00	9.922344e-06	
79	-3.95000e+00	9.862593e-06	
80	-4.00000e+00	9.804714e-06	
81	-4.05000e+00	9.748627e-06	
82	-4.10000e+00	9.694256e-06	
83	-4.15000e+00	9.641529e-06	
84	-4.20000e+00	9.590379e-06	
85	-4.25000e+00	9.540742e-06	
86	-4.30000e+00	9.492558e-06	
87	-4.35000e+00	9.445771e-06	
88	-4.40000e+00	9.400326e-06	
89	-4.45000e+00	9.356174e-06	
90	-4.50000e+00	9.313265e-06	
91	-4.55000e+00	9.271556e-06	
92	-4.60000e+00	9.231002e-06	
93	-4.65000e+00	9.191563e-06	
94	-4.70000e+00	9.153200e-06	
95	-4.75000e+00	9.115878e-06	
96	-4.80000e+00	9.079560e-06	
97	-4.85000e+00	9.044215e-06	
98	-4.90000e+00	9.009811e-06	
99	-4.95000e+00	8.976318e-06	
100	-5.00000e+00	8.943708e-06	
101	-5.05000e+00	8.911955e-06	
102	-5.10000e+00	8.881033e-06	
103	-5.15000e+00	8.850917e-06	
104	-5.20000e+00	8.821585e-06	
105	-5.25000e+00	8.793014e-06	
106	-5.30000e+00	8.765185e-06	
107	-5.35000e+00	8.738076e-06	
108	-5.40000e+00	8.711670e-06	
109	-5.45000e+00	8.685948e-06	
110	-5.50000e+00	8.660892e-06	
111	-5.55000e+00	8.636487e-06	
112	-5.60000e+00	8.612717e-06	

Index   v-sweep         rds             
--------------------------------------------------------------------------------
113	-5.65000e+00	8.589567e-06	
114	-5.70000e+00	8.567022e-06	
115	-5.75000e+00	8.545070e-06	
116	-5.80000e+00	8.523696e-06	
117	-5.85000e+00	8.502889e-06	
118	-5.90000e+00	8.482637e-06	
119	-5.95000e+00	8.462928e-06	
120	-6.00000e+00	8.443751e-06	
121	-6.05000e+00	8.425097e-06	
122	-6.10000e+00	8.406954e-06	
123	-6.15000e+00	8.389314e-06	
124	-6.20000e+00	8.372166e-06	
125	-6.25000e+00	8.355504e-06	
126	-6.30000e+00	8.339316e-06	
127	-6.35000e+00	8.323597e-06	
128	-6.40000e+00	8.308337e-06	
129	-6.45000e+00	8.293529e-06	
130	-6.50000e+00	8.279167e-06	
131	-6.55000e+00	8.265242e-06	
132	-6.60000e+00	8.251748e-06	
Reset re-loads circuit ***************************

Circuit: ***************************

Doing analysis at TEMP = -40.000000 and TNOM = -40.000000


No. of Data Rows : 133
                          ***************************
                          DC transfer characteristic  Mon Jan  9 13:58:52  2023
--------------------------------------------------------------------------------
Index   v-sweep         rds             
--------------------------------------------------------------------------------
0	0.000000e+00	1.216766e-03	
1	-5.00000e-02	1.168523e-03	
2	-1.00000e-01	1.121043e-03	
3	-1.50000e-01	1.074314e-03	
4	-2.00000e-01	1.028321e-03	
5	-2.50000e-01	9.830512e-04	
6	-3.00000e-01	9.384929e-04	
7	-3.50000e-01	8.946330e-04	
8	-4.00000e-01	8.514596e-04	
9	-4.50000e-01	8.089607e-04	
10	-5.00000e-01	7.671250e-04	
11	-5.50000e-01	7.259415e-04	
12	-6.00000e-01	6.853996e-04	
13	-6.50000e-01	6.454895e-04	
14	-7.00000e-01	6.062020e-04	
15	-7.50000e-01	5.675288e-04	
16	-8.00000e-01	5.294632e-04	
17	-8.50000e-01	4.920002e-04	
18	-9.00000e-01	4.551380e-04	
19	-9.50000e-01	4.188798e-04	
20	-1.00000e+00	3.832372e-04	
21	-1.05000e+00	3.482374e-04	
22	-1.10000e+00	3.139365e-04	
23	-1.15000e+00	2.804478e-04	
24	-1.20000e+00	2.479936e-04	
25	-1.25000e+00	2.169874e-04	
26	-1.30000e+00	1.881046e-04	
27	-1.35000e+00	1.622016e-04	
28	-1.40000e+00	1.399820e-04	
29	-1.45000e+00	1.216397e-04	
30	-1.50000e+00	1.068381e-04	
31	-1.55000e+00	9.497144e-05	
32	-1.60000e+00	8.541343e-05	
33	-1.65000e+00	7.763401e-05	
34	-1.70000e+00	7.122156e-05	
35	-1.75000e+00	6.586721e-05	
36	-1.80000e+00	6.134122e-05	
37	-1.85000e+00	5.747213e-05	
38	-1.90000e+00	5.413076e-05	
39	-1.95000e+00	5.121861e-05	
40	-2.00000e+00	4.865964e-05	
41	-2.05000e+00	4.639439e-05	
42	-2.10000e+00	4.437582e-05	
43	-2.15000e+00	4.256627e-05	
44	-2.20000e+00	4.093528e-05	
45	-2.25000e+00	3.945797e-05	
46	-2.30000e+00	3.811384e-05	
47	-2.35000e+00	3.688585e-05	
48	-2.40000e+00	3.575971e-05	
49	-2.45000e+00	3.472340e-05	
50	-2.50000e+00	3.376668e-05	
51	-2.55000e+00	3.288080e-05	
52	-2.60000e+00	3.205827e-05	
53	-2.65000e+00	3.129258e-05	
54	-2.70000e+00	3.057809e-05	

Index   v-sweep         rds             
--------------------------------------------------------------------------------
55	-2.75000e+00	2.990990e-05	
56	-2.80000e+00	2.928368e-05	
57	-2.85000e+00	2.869565e-05	
58	-2.90000e+00	2.814244e-05	
59	-2.95000e+00	2.762110e-05	
60	-3.00000e+00	2.712897e-05	
61	-3.05000e+00	2.666369e-05	
62	-3.10000e+00	2.622316e-05	
63	-3.15000e+00	2.580547e-05	
64	-3.20000e+00	2.540891e-05	
65	-3.25000e+00	2.503194e-05	
66	-3.30000e+00	2.467316e-05	
67	-3.35000e+00	2.433131e-05	
68	-3.40000e+00	2.400523e-05	
69	-3.45000e+00	2.369387e-05	
70	-3.50000e+00	2.339627e-05	
71	-3.55000e+00	2.311156e-05	
72	-3.60000e+00	2.283892e-05	
73	-3.65000e+00	2.257762e-05	
74	-3.70000e+00	2.232697e-05	
75	-3.75000e+00	2.208636e-05	
76	-3.80000e+00	2.185520e-05	
77	-3.85000e+00	2.163295e-05	
78	-3.90000e+00	2.141912e-05	
79	-3.95000e+00	2.121326e-05	
80	-4.00000e+00	2.101492e-05	
81	-4.05000e+00	2.082373e-05	
82	-4.10000e+00	2.063930e-05	
83	-4.15000e+00	2.046129e-05	
84	-4.20000e+00	2.028939e-05	
85	-4.25000e+00	2.012329e-05	
86	-4.30000e+00	1.996271e-05	
87	-4.35000e+00	1.980740e-05	
88	-4.40000e+00	1.965710e-05	
89	-4.45000e+00	1.951158e-05	
90	-4.50000e+00	1.937063e-05	
91	-4.55000e+00	1.923405e-05	
92	-4.60000e+00	1.910165e-05	
93	-4.65000e+00	1.897324e-05	
94	-4.70000e+00	1.884865e-05	
95	-4.75000e+00	1.872774e-05	
96	-4.80000e+00	1.861034e-05	
97	-4.85000e+00	1.849632e-05	
98	-4.90000e+00	1.838555e-05	
99	-4.95000e+00	1.827789e-05	
100	-5.00000e+00	1.817323e-05	
101	-5.05000e+00	1.807146e-05	
102	-5.10000e+00	1.797247e-05	
103	-5.15000e+00	1.787617e-05	
104	-5.20000e+00	1.778244e-05	
105	-5.25000e+00	1.769122e-05	
106	-5.30000e+00	1.760241e-05	
107	-5.35000e+00	1.751592e-05	
108	-5.40000e+00	1.743170e-05	
109	-5.45000e+00	1.734965e-05	
110	-5.50000e+00	1.726972e-05	
111	-5.55000e+00	1.719183e-05	
112	-5.60000e+00	1.711594e-05	

Index   v-sweep         rds             
--------------------------------------------------------------------------------
113	-5.65000e+00	1.704197e-05	
114	-5.70000e+00	1.696987e-05	
115	-5.75000e+00	1.689959e-05	
116	-5.80000e+00	1.683108e-05	
117	-5.85000e+00	1.676430e-05	
118	-5.90000e+00	1.669919e-05	
119	-5.95000e+00	1.663571e-05	
120	-6.00000e+00	1.657382e-05	
121	-6.05000e+00	1.651349e-05	
122	-6.10000e+00	1.645467e-05	
123	-6.15000e+00	1.639733e-05	
124	-6.20000e+00	1.634144e-05	
125	-6.25000e+00	1.628696e-05	
126	-6.30000e+00	1.623387e-05	
127	-6.35000e+00	1.618212e-05	
128	-6.40000e+00	1.613171e-05	
129	-6.45000e+00	1.608259e-05	
130	-6.50000e+00	1.603474e-05	
131	-6.55000e+00	1.598815e-05	
132	-6.60000e+00	1.594278e-05	
Reset re-loads circuit ***************************

Circuit: ***************************

Doing analysis at TEMP = -40.000000 and TNOM = -40.000000


No. of Data Rows : 133
                          ***************************
                          DC transfer characteristic  Mon Jan  9 13:58:52  2023
--------------------------------------------------------------------------------
Index   v-sweep         rds             
--------------------------------------------------------------------------------
0	0.000000e+00	1.570756e-03	
1	-5.00000e-02	1.525573e-03	
2	-1.00000e-01	1.481001e-03	
3	-1.50000e-01	1.437031e-03	
4	-2.00000e-01	1.393654e-03	
5	-2.50000e-01	1.350861e-03	
6	-3.00000e-01	1.308644e-03	
7	-3.50000e-01	1.266993e-03	
8	-4.00000e-01	1.225899e-03	
9	-4.50000e-01	1.185355e-03	
10	-5.00000e-01	1.145352e-03	
11	-5.50000e-01	1.105881e-03	
12	-6.00000e-01	1.066936e-03	
13	-6.50000e-01	1.028507e-03	
14	-7.00000e-01	9.905864e-04	
15	-7.50000e-01	9.531675e-04	
16	-8.00000e-01	9.162421e-04	
17	-8.50000e-01	8.798029e-04	
18	-9.00000e-01	8.438424e-04	
19	-9.50000e-01	8.083535e-04	
20	-1.00000e+00	7.733288e-04	
21	-1.05000e+00	7.387612e-04	
22	-1.10000e+00	7.046435e-04	
23	-1.15000e+00	6.709681e-04	
24	-1.20000e+00	6.377274e-04	
25	-1.25000e+00	6.049132e-04	
26	-1.30000e+00	5.725161e-04	
27	-1.35000e+00	5.405254e-04	
28	-1.40000e+00	5.089282e-04	
29	-1.45000e+00	4.777073e-04	
30	-1.50000e+00	4.468402e-04	
31	-1.55000e+00	4.162964e-04	
32	-1.60000e+00	3.860360e-04	
33	-1.65000e+00	3.560142e-04	
34	-1.70000e+00	3.262008e-04	
35	-1.75000e+00	2.966356e-04	
36	-1.80000e+00	2.675329e-04	
37	-1.85000e+00	2.393923e-04	
38	-1.90000e+00	2.129815e-04	
39	-1.95000e+00	1.890926e-04	
40	-2.00000e+00	1.682249e-04	
41	-2.05000e+00	1.504542e-04	
42	-2.10000e+00	1.355310e-04	
43	-2.15000e+00	1.230543e-04	
44	-2.20000e+00	1.126017e-04	
45	-2.25000e+00	1.037941e-04	
46	-2.30000e+00	9.631600e-05	
47	-2.35000e+00	8.991378e-05	
48	-2.40000e+00	8.438688e-05	
49	-2.45000e+00	7.957730e-05	
50	-2.50000e+00	7.536035e-05	
51	-2.55000e+00	7.163711e-05	
52	-2.60000e+00	6.832855e-05	
53	-2.65000e+00	6.537105e-05	
54	-2.70000e+00	6.271297e-05	

Index   v-sweep         rds             
--------------------------------------------------------------------------------
55	-2.75000e+00	6.031207e-05	
56	-2.80000e+00	5.813350e-05	
57	-2.85000e+00	5.614833e-05	
58	-2.90000e+00	5.433234e-05	
59	-2.95000e+00	5.266513e-05	
60	-3.00000e+00	5.112941e-05	
61	-3.05000e+00	4.971044e-05	
62	-3.10000e+00	4.839557e-05	
63	-3.15000e+00	4.717390e-05	
64	-3.20000e+00	4.603599e-05	
65	-3.25000e+00	4.497361e-05	
66	-3.30000e+00	4.397957e-05	
67	-3.35000e+00	4.304757e-05	
68	-3.40000e+00	4.217203e-05	
69	-3.45000e+00	4.134805e-05	
70	-3.50000e+00	4.057124e-05	
71	-3.55000e+00	3.983772e-05	
72	-3.60000e+00	3.914400e-05	
73	-3.65000e+00	3.848698e-05	
74	-3.70000e+00	3.786385e-05	
75	-3.75000e+00	3.727208e-05	
76	-3.80000e+00	3.670939e-05	
77	-3.85000e+00	3.617372e-05	
78	-3.90000e+00	3.566319e-05	
79	-3.95000e+00	3.517610e-05	
80	-4.00000e+00	3.471088e-05	
81	-4.05000e+00	3.426612e-05	
82	-4.10000e+00	3.384052e-05	
83	-4.15000e+00	3.343287e-05	
84	-4.20000e+00	3.304209e-05	
85	-4.25000e+00	3.266715e-05	
86	-4.30000e+00	3.230714e-05	
87	-4.35000e+00	3.196119e-05	
88	-4.40000e+00	3.162851e-05	
89	-4.45000e+00	3.130836e-05	
90	-4.50000e+00	3.100006e-05	
91	-4.55000e+00	3.070298e-05	
92	-4.60000e+00	3.041652e-05	
93	-4.65000e+00	3.014014e-05	
94	-4.70000e+00	2.987332e-05	
95	-4.75000e+00	2.961559e-05	
96	-4.80000e+00	2.936651e-05	
97	-4.85000e+00	2.912565e-05	
98	-4.90000e+00	2.889263e-05	
99	-4.95000e+00	2.866709e-05	
100	-5.00000e+00	2.844867e-05	
101	-5.05000e+00	2.823707e-05	
102	-5.10000e+00	2.803198e-05	
103	-5.15000e+00	2.783311e-05	
104	-5.20000e+00	2.764020e-05	
105	-5.25000e+00	2.745300e-05	
106	-5.30000e+00	2.727127e-05	
107	-5.35000e+00	2.709480e-05	
108	-5.40000e+00	2.692337e-05	
109	-5.45000e+00	2.675678e-05	
110	-5.50000e+00	2.659485e-05	
111	-5.55000e+00	2.643741e-05	
112	-5.60000e+00	2.628428e-05	

Index   v-sweep         rds             
--------------------------------------------------------------------------------
113	-5.65000e+00	2.613531e-05	
114	-5.70000e+00	2.599036e-05	
115	-5.75000e+00	2.584928e-05	
116	-5.80000e+00	2.571194e-05	
117	-5.85000e+00	2.557821e-05	
118	-5.90000e+00	2.544798e-05	
119	-5.95000e+00	2.532113e-05	
120	-6.00000e+00	2.519756e-05	
121	-6.05000e+00	2.507717e-05	
122	-6.10000e+00	2.495985e-05	
123	-6.15000e+00	2.484553e-05	
124	-6.20000e+00	2.473411e-05	
125	-6.25000e+00	2.462552e-05	
126	-6.30000e+00	2.451967e-05	
127	-6.35000e+00	2.441650e-05	
128	-6.40000e+00	2.431592e-05	
129	-6.45000e+00	2.421789e-05	
130	-6.50000e+00	2.412232e-05	
131	-6.55000e+00	2.402918e-05	
132	-6.60000e+00	2.393838e-05	
Reset re-loads circuit ***************************

Circuit: ***************************

Doing analysis at TEMP = -40.000000 and TNOM = -40.000000


No. of Data Rows : 133
                          ***************************
                          DC transfer characteristic  Mon Jan  9 13:58:52  2023
--------------------------------------------------------------------------------
Index   v-sweep         rds             
--------------------------------------------------------------------------------
0	0.000000e+00	1.834908e-03	
1	-5.00000e-02	1.792855e-03	
2	-1.00000e-01	1.751301e-03	
3	-1.50000e-01	1.710239e-03	
4	-2.00000e-01	1.669664e-03	
5	-2.50000e-01	1.629568e-03	
6	-3.00000e-01	1.589945e-03	
7	-3.50000e-01	1.550790e-03	
8	-4.00000e-01	1.512095e-03	
9	-4.50000e-01	1.473855e-03	
10	-5.00000e-01	1.436063e-03	
11	-5.50000e-01	1.398713e-03	
12	-6.00000e-01	1.361800e-03	
13	-6.50000e-01	1.325318e-03	
14	-7.00000e-01	1.289261e-03	
15	-7.50000e-01	1.253623e-03	
16	-8.00000e-01	1.218399e-03	
17	-8.50000e-01	1.183583e-03	
18	-9.00000e-01	1.149170e-03	
19	-9.50000e-01	1.115153e-03	
20	-1.00000e+00	1.081529e-03	
21	-1.05000e+00	1.048292e-03	
22	-1.10000e+00	1.015435e-03	
23	-1.15000e+00	9.829554e-04	
24	-1.20000e+00	9.508465e-04	
25	-1.25000e+00	9.191035e-04	
26	-1.30000e+00	8.877213e-04	
27	-1.35000e+00	8.566946e-04	
28	-1.40000e+00	8.260180e-04	
29	-1.45000e+00	7.956860e-04	
30	-1.50000e+00	7.656926e-04	
31	-1.55000e+00	7.360316e-04	
32	-1.60000e+00	7.066959e-04	
33	-1.65000e+00	6.776774e-04	
34	-1.70000e+00	6.489664e-04	
35	-1.75000e+00	6.205510e-04	
36	-1.80000e+00	5.924157e-04	
37	-1.85000e+00	5.645399e-04	
38	-1.90000e+00	5.368955e-04	
39	-1.95000e+00	5.094430e-04	
40	-2.00000e+00	4.821269e-04	
41	-2.05000e+00	4.548696e-04	
42	-2.10000e+00	4.275674e-04	
43	-2.15000e+00	4.000929e-04	
44	-2.20000e+00	3.723195e-04	
45	-2.25000e+00	3.441862e-04	
46	-2.30000e+00	3.158121e-04	
47	-2.35000e+00	2.876151e-04	
48	-2.40000e+00	2.603188e-04	
49	-2.45000e+00	2.347664e-04	
50	-2.50000e+00	2.116371e-04	
51	-2.55000e+00	1.912654e-04	
52	-2.60000e+00	1.736479e-04	
53	-2.65000e+00	1.585590e-04	
54	-2.70000e+00	1.456753e-04	

Index   v-sweep         rds             
--------------------------------------------------------------------------------
55	-2.75000e+00	1.346589e-04	
56	-2.80000e+00	1.252004e-04	
57	-2.85000e+00	1.170338e-04	
58	-2.90000e+00	1.099383e-04	
59	-2.95000e+00	1.037334e-04	
60	-3.00000e+00	9.827272e-05	
61	-3.05000e+00	9.343758e-05	
62	-3.10000e+00	8.913153e-05	
63	-3.15000e+00	8.527590e-05	
64	-3.20000e+00	8.180611e-05	
65	-3.25000e+00	7.866892e-05	
66	-3.30000e+00	7.582006e-05	
67	-3.35000e+00	7.322260e-05	
68	-3.40000e+00	7.084545e-05	
69	-3.45000e+00	6.866235e-05	
70	-3.50000e+00	6.665095e-05	
71	-3.55000e+00	6.479214e-05	
72	-3.60000e+00	6.306951e-05	
73	-3.65000e+00	6.146887e-05	
74	-3.70000e+00	5.997791e-05	
75	-3.75000e+00	5.858591e-05	
76	-3.80000e+00	5.728348e-05	
77	-3.85000e+00	5.606236e-05	
78	-3.90000e+00	5.491528e-05	
79	-3.95000e+00	5.383578e-05	
80	-4.00000e+00	5.281815e-05	
81	-4.05000e+00	5.185729e-05	
82	-4.10000e+00	5.094863e-05	
83	-4.15000e+00	5.008810e-05	
84	-4.20000e+00	4.927200e-05	
85	-4.25000e+00	4.849703e-05	
86	-4.30000e+00	4.776020e-05	
87	-4.35000e+00	4.705879e-05	
88	-4.40000e+00	4.639034e-05	
89	-4.45000e+00	4.575262e-05	
90	-4.50000e+00	4.514357e-05	
91	-4.55000e+00	4.456134e-05	
92	-4.60000e+00	4.400420e-05	
93	-4.65000e+00	4.347060e-05	
94	-4.70000e+00	4.295910e-05	
95	-4.75000e+00	4.246836e-05	
96	-4.80000e+00	4.199717e-05	
97	-4.85000e+00	4.154440e-05	
98	-4.90000e+00	4.110901e-05	
99	-4.95000e+00	4.069003e-05	
100	-5.00000e+00	4.028656e-05	
101	-5.05000e+00	3.989778e-05	
102	-5.10000e+00	3.952291e-05	
103	-5.15000e+00	3.916123e-05	
104	-5.20000e+00	3.881206e-05	
105	-5.25000e+00	3.847480e-05	
106	-5.30000e+00	3.814885e-05	
107	-5.35000e+00	3.783366e-05	
108	-5.40000e+00	3.752873e-05	
109	-5.45000e+00	3.723358e-05	
110	-5.50000e+00	3.694776e-05	
111	-5.55000e+00	3.667085e-05	
112	-5.60000e+00	3.640245e-05	

Index   v-sweep         rds             
--------------------------------------------------------------------------------
113	-5.65000e+00	3.614220e-05	
114	-5.70000e+00	3.588975e-05	
115	-5.75000e+00	3.564476e-05	
116	-5.80000e+00	3.540694e-05	
117	-5.85000e+00	3.517599e-05	
118	-5.90000e+00	3.495164e-05	
119	-5.95000e+00	3.473363e-05	
120	-6.00000e+00	3.452171e-05	
121	-6.05000e+00	3.431567e-05	
122	-6.10000e+00	3.411527e-05	
123	-6.15000e+00	3.392033e-05	
124	-6.20000e+00	3.373064e-05	
125	-6.25000e+00	3.354602e-05	
126	-6.30000e+00	3.336631e-05	
127	-6.35000e+00	3.319133e-05	
128	-6.40000e+00	3.302094e-05	
129	-6.45000e+00	3.285498e-05	
130	-6.50000e+00	3.269333e-05	
131	-6.55000e+00	3.253584e-05	
132	-6.60000e+00	3.238241e-05	
Reset re-loads circuit ***************************

Circuit: ***************************

Doing analysis at TEMP = -40.000000 and TNOM = -40.000000


No. of Data Rows : 133
                          ***************************
                          DC transfer characteristic  Mon Jan  9 13:58:52  2023
--------------------------------------------------------------------------------
Index   v-sweep         rds             
--------------------------------------------------------------------------------
0	0.000000e+00	2.047664e-03	
1	-5.00000e-02	2.008455e-03	
2	-1.00000e-01	1.969662e-03	
3	-1.50000e-01	1.931279e-03	
4	-2.00000e-01	1.893303e-03	
5	-2.50000e-01	1.855727e-03	
6	-3.00000e-01	1.818548e-03	
7	-3.50000e-01	1.781761e-03	
8	-4.00000e-01	1.745361e-03	
9	-4.50000e-01	1.709343e-03	
10	-5.00000e-01	1.673703e-03	
11	-5.50000e-01	1.638437e-03	
12	-6.00000e-01	1.603539e-03	
13	-6.50000e-01	1.569006e-03	
14	-7.00000e-01	1.534833e-03	
15	-7.50000e-01	1.501016e-03	
16	-8.00000e-01	1.467551e-03	
17	-8.50000e-01	1.434433e-03	
18	-9.00000e-01	1.401658e-03	
19	-9.50000e-01	1.369222e-03	
20	-1.00000e+00	1.337122e-03	
21	-1.05000e+00	1.305352e-03	
22	-1.10000e+00	1.273909e-03	
23	-1.15000e+00	1.242790e-03	
24	-1.20000e+00	1.211990e-03	
25	-1.25000e+00	1.181505e-03	
26	-1.30000e+00	1.151332e-03	
27	-1.35000e+00	1.121466e-03	
28	-1.40000e+00	1.091905e-03	
29	-1.45000e+00	1.062644e-03	
30	-1.50000e+00	1.033680e-03	
31	-1.55000e+00	1.005009e-03	
32	-1.60000e+00	9.766265e-04	
33	-1.65000e+00	9.485298e-04	
34	-1.70000e+00	9.207146e-04	
35	-1.75000e+00	8.931768e-04	
36	-1.80000e+00	8.659124e-04	
37	-1.85000e+00	8.389168e-04	
38	-1.90000e+00	8.121851e-04	
39	-1.95000e+00	7.857120e-04	
40	-2.00000e+00	7.594913e-04	
41	-2.05000e+00	7.335158e-04	
42	-2.10000e+00	7.077769e-04	
43	-2.15000e+00	6.822635e-04	
44	-2.20000e+00	6.569620e-04	
45	-2.25000e+00	6.318539e-04	
46	-2.30000e+00	6.069147e-04	
47	-2.35000e+00	5.821110e-04	
48	-2.40000e+00	5.573962e-04	
49	-2.45000e+00	5.327060e-04	
50	-2.50000e+00	5.079517e-04	
51	-2.55000e+00	4.830142e-04	
52	-2.60000e+00	4.577411e-04	
53	-2.65000e+00	4.319577e-04	
54	-2.70000e+00	4.055027e-04	

Index   v-sweep         rds             
--------------------------------------------------------------------------------
55	-2.75000e+00	3.783071e-04	
56	-2.80000e+00	3.505070e-04	
57	-2.85000e+00	3.225365e-04	
58	-2.90000e+00	2.951083e-04	
59	-2.95000e+00	2.690408e-04	
60	-3.00000e+00	2.450227e-04	
61	-3.05000e+00	2.234574e-04	
62	-3.10000e+00	2.044482e-04	
63	-3.15000e+00	1.878780e-04	
64	-3.20000e+00	1.735088e-04	
65	-3.25000e+00	1.610595e-04	
66	-3.30000e+00	1.502523e-04	
67	-3.35000e+00	1.408358e-04	
68	-3.40000e+00	1.325925e-04	
69	-3.45000e+00	1.253388e-04	
70	-3.50000e+00	1.189221e-04	
71	-3.55000e+00	1.132158e-04	
72	-3.60000e+00	1.081156e-04	
73	-3.65000e+00	1.035349e-04	
74	-3.70000e+00	9.940185e-05	
75	-3.75000e+00	9.565671e-05	
76	-3.80000e+00	9.224930e-05	
77	-3.85000e+00	8.913744e-05	
78	-3.90000e+00	8.628543e-05	
79	-3.95000e+00	8.366293e-05	
80	-4.00000e+00	8.124402e-05	
81	-4.05000e+00	7.900644e-05	
82	-4.10000e+00	7.693098e-05	
83	-4.15000e+00	7.500099e-05	
84	-4.20000e+00	7.320201e-05	
85	-4.25000e+00	7.152138e-05	
86	-4.30000e+00	6.994799e-05	
87	-4.35000e+00	6.847208e-05	
88	-4.40000e+00	6.708499e-05	
89	-4.45000e+00	6.577908e-05	
90	-4.50000e+00	6.454752e-05	
91	-4.55000e+00	6.338424e-05	
92	-4.60000e+00	6.228379e-05	
93	-4.65000e+00	6.124129e-05	
94	-4.70000e+00	6.025235e-05	
95	-4.75000e+00	5.931299e-05	
96	-4.80000e+00	5.841962e-05	
97	-4.85000e+00	5.756900e-05	
98	-4.90000e+00	5.675818e-05	
99	-4.95000e+00	5.598445e-05	
100	-5.00000e+00	5.524537e-05	
101	-5.05000e+00	5.453868e-05	
102	-5.10000e+00	5.386235e-05	
103	-5.15000e+00	5.321446e-05	
104	-5.20000e+00	5.259330e-05	
105	-5.25000e+00	5.199727e-05	
106	-5.30000e+00	5.142489e-05	
107	-5.35000e+00	5.087480e-05	
108	-5.40000e+00	5.034575e-05	
109	-5.45000e+00	4.983657e-05	
110	-5.50000e+00	4.934618e-05	
111	-5.55000e+00	4.887357e-05	
112	-5.60000e+00	4.841782e-05	

Index   v-sweep         rds             
--------------------------------------------------------------------------------
113	-5.65000e+00	4.797805e-05	
114	-5.70000e+00	4.755345e-05	
115	-5.75000e+00	4.714328e-05	
116	-5.80000e+00	4.674681e-05	
117	-5.85000e+00	4.636340e-05	
118	-5.90000e+00	4.599243e-05	
119	-5.95000e+00	4.563332e-05	
120	-6.00000e+00	4.528553e-05	
121	-6.05000e+00	4.494854e-05	
122	-6.10000e+00	4.462189e-05	
123	-6.15000e+00	4.430513e-05	
124	-6.20000e+00	4.399783e-05	
125	-6.25000e+00	4.369961e-05	
126	-6.30000e+00	4.341008e-05	
127	-6.35000e+00	4.312889e-05	
128	-6.40000e+00	4.285573e-05	
129	-6.45000e+00	4.259027e-05	
130	-6.50000e+00	4.233223e-05	
131	-6.55000e+00	4.208132e-05	
132	-6.60000e+00	4.183729e-05	
Reset re-loads circuit ***************************

Circuit: ***************************

Note: No ".plot", ".print", or ".fourier" lines; no simulations run
