
Note: Compatibility modes selected: hs

Warning: m=xx on .subckt line will override multiplier m hierarchy!


Circuit: ***************************

Doing analysis at TEMP = -40.000000 and TNOM = -40.000000


No. of Data Rows : 133
                          ***************************
                          DC transfer characteristic  Mon Jan  9 13:58:52  2023
--------------------------------------------------------------------------------
Index   v-sweep         rds             
--------------------------------------------------------------------------------
0	0.000000e+00	1.872094e-05	
1	-5.00000e-02	5.670031e-06	
2	-1.00000e-01	8.545596e-07	
3	-1.50000e-01	2.375611e-07	
4	-2.00000e-01	1.288205e-07	
5	-2.50000e-01	9.414420e-08	
6	-3.00000e-01	7.772922e-08	
7	-3.50000e-01	6.785381e-08	
8	-4.00000e-01	6.100822e-08	
9	-4.50000e-01	5.584262e-08	
10	-5.00000e-01	5.173258e-08	
11	-5.50000e-01	4.834603e-08	
12	-6.00000e-01	4.548666e-08	
13	-6.50000e-01	4.302871e-08	
14	-7.00000e-01	4.088651e-08	
15	-7.50000e-01	3.899891e-08	
16	-8.00000e-01	3.732061e-08	
17	-8.50000e-01	3.581707e-08	
18	-9.00000e-01	3.446136e-08	
19	-9.50000e-01	3.323203e-08	
20	-1.00000e+00	3.211176e-08	
21	-1.05000e+00	3.108634e-08	
22	-1.10000e+00	3.014403e-08	
23	-1.15000e+00	2.927497e-08	
24	-1.20000e+00	2.847084e-08	
25	-1.25000e+00	2.772457e-08	
26	-1.30000e+00	2.703008e-08	
27	-1.35000e+00	2.638213e-08	
28	-1.40000e+00	2.577619e-08	
29	-1.45000e+00	2.520828e-08	
30	-1.50000e+00	2.467493e-08	
31	-1.55000e+00	2.417308e-08	
32	-1.60000e+00	2.370002e-08	
33	-1.65000e+00	2.325334e-08	
34	-1.70000e+00	2.283091e-08	
35	-1.75000e+00	2.243081e-08	
36	-1.80000e+00	2.205133e-08	
37	-1.85000e+00	2.169091e-08	
38	-1.90000e+00	2.134817e-08	
39	-1.95000e+00	2.102184e-08	
40	-2.00000e+00	2.071078e-08	
41	-2.05000e+00	2.041396e-08	
42	-2.10000e+00	2.013042e-08	
43	-2.15000e+00	1.985930e-08	
44	-2.20000e+00	1.959981e-08	
45	-2.25000e+00	1.935123e-08	
46	-2.30000e+00	1.911289e-08	
47	-2.35000e+00	1.888418e-08	
48	-2.40000e+00	1.866453e-08	
49	-2.45000e+00	1.845342e-08	
50	-2.50000e+00	1.825037e-08	
51	-2.55000e+00	1.805493e-08	
52	-2.60000e+00	1.786669e-08	
53	-2.65000e+00	1.768527e-08	
54	-2.70000e+00	1.751030e-08	

Index   v-sweep         rds             
--------------------------------------------------------------------------------
55	-2.75000e+00	1.734146e-08	
56	-2.80000e+00	1.717844e-08	
57	-2.85000e+00	1.702094e-08	
58	-2.90000e+00	1.686869e-08	
59	-2.95000e+00	1.672144e-08	
60	-3.00000e+00	1.657896e-08	
61	-3.05000e+00	1.644102e-08	
62	-3.10000e+00	1.630741e-08	
63	-3.15000e+00	1.617794e-08	
64	-3.20000e+00	1.605242e-08	
65	-3.25000e+00	1.593069e-08	
66	-3.30000e+00	1.581257e-08	
67	-3.35000e+00	1.569792e-08	
68	-3.40000e+00	1.558658e-08	
69	-3.45000e+00	1.547843e-08	
70	-3.50000e+00	1.537333e-08	
71	-3.55000e+00	1.527116e-08	
72	-3.60000e+00	1.517181e-08	
73	-3.65000e+00	1.507517e-08	
74	-3.70000e+00	1.498113e-08	
75	-3.75000e+00	1.488959e-08	
76	-3.80000e+00	1.480047e-08	
77	-3.85000e+00	1.471368e-08	
78	-3.90000e+00	1.462913e-08	
79	-3.95000e+00	1.454673e-08	
80	-4.00000e+00	1.446643e-08	
81	-4.05000e+00	1.438814e-08	
82	-4.10000e+00	1.431180e-08	
83	-4.15000e+00	1.423734e-08	
84	-4.20000e+00	1.416471e-08	
85	-4.25000e+00	1.409383e-08	
86	-4.30000e+00	1.402467e-08	
87	-4.35000e+00	1.395715e-08	
88	-4.40000e+00	1.389124e-08	
89	-4.45000e+00	1.382689e-08	
90	-4.50000e+00	1.376404e-08	
91	-4.55000e+00	1.370266e-08	
92	-4.60000e+00	1.364270e-08	
93	-4.65000e+00	1.358412e-08	
94	-4.70000e+00	1.352688e-08	
95	-4.75000e+00	1.347095e-08	
96	-4.80000e+00	1.341629e-08	
97	-4.85000e+00	1.336287e-08	
98	-4.90000e+00	1.331066e-08	
99	-4.95000e+00	1.325962e-08	
100	-5.00000e+00	1.320973e-08	
101	-5.05000e+00	1.316095e-08	
102	-5.10000e+00	1.311326e-08	
103	-5.15000e+00	1.306664e-08	
104	-5.20000e+00	1.302106e-08	
105	-5.25000e+00	1.297649e-08	
106	-5.30000e+00	1.293291e-08	
107	-5.35000e+00	1.289030e-08	
108	-5.40000e+00	1.284864e-08	
109	-5.45000e+00	1.280790e-08	
110	-5.50000e+00	1.276808e-08	
111	-5.55000e+00	1.272914e-08	
112	-5.60000e+00	1.269108e-08	

Index   v-sweep         rds             
--------------------------------------------------------------------------------
113	-5.65000e+00	1.265386e-08	
114	-5.70000e+00	1.261748e-08	
115	-5.75000e+00	1.258193e-08	
116	-5.80000e+00	1.254717e-08	
117	-5.85000e+00	1.251320e-08	
118	-5.90000e+00	1.248001e-08	
119	-5.95000e+00	1.244758e-08	
120	-6.00000e+00	1.241589e-08	
121	-6.05000e+00	1.238493e-08	
122	-6.10000e+00	1.235469e-08	
123	-6.15000e+00	1.232516e-08	
124	-6.20000e+00	1.229632e-08	
125	-6.25000e+00	1.226816e-08	
126	-6.30000e+00	1.224067e-08	
127	-6.35000e+00	1.221385e-08	
128	-6.40000e+00	1.218767e-08	
129	-6.45000e+00	1.216213e-08	
130	-6.50000e+00	1.213722e-08	
131	-6.55000e+00	1.211293e-08	
132	-6.60000e+00	1.208924e-08	
Reset re-loads circuit ***************************

Circuit: ***************************

Doing analysis at TEMP = -40.000000 and TNOM = -40.000000


No. of Data Rows : 133
                          ***************************
                          DC transfer characteristic  Mon Jan  9 13:58:52  2023
--------------------------------------------------------------------------------
Index   v-sweep         rds             
--------------------------------------------------------------------------------
0	0.000000e+00	3.668606e-04	
1	-5.00000e-02	3.418250e-04	
2	-1.00000e-01	3.170398e-04	
3	-1.50000e-01	2.925037e-04	
4	-2.00000e-01	2.682164e-04	
5	-2.50000e-01	2.441788e-04	
6	-3.00000e-01	2.203947e-04	
7	-3.50000e-01	1.968720e-04	
8	-4.00000e-01	1.736268e-04	
9	-4.50000e-01	1.506915e-04	
10	-5.00000e-01	1.281315e-04	
11	-5.50000e-01	1.060829e-04	
12	-6.00000e-01	8.483390e-05	
13	-6.50000e-01	6.497708e-05	
14	-7.00000e-01	4.756996e-05	
15	-7.50000e-01	3.390647e-05	
16	-8.00000e-01	2.454145e-05	
17	-8.50000e-01	1.870594e-05	
18	-9.00000e-01	1.511132e-05	
19	-9.50000e-01	1.278287e-05	
20	-1.00000e+00	1.116793e-05	
21	-1.05000e+00	9.977053e-06	
22	-1.10000e+00	9.055794e-06	
23	-1.15000e+00	8.317028e-06	
24	-1.20000e+00	7.708361e-06	
25	-1.25000e+00	7.196360e-06	
26	-1.30000e+00	6.758579e-06	
27	-1.35000e+00	6.379286e-06	
28	-1.40000e+00	6.047071e-06	
29	-1.45000e+00	5.753410e-06	
30	-1.50000e+00	5.491785e-06	
31	-1.55000e+00	5.257109e-06	
32	-1.60000e+00	5.045344e-06	
33	-1.65000e+00	4.853238e-06	
34	-1.70000e+00	4.678138e-06	
35	-1.75000e+00	4.517856e-06	
36	-1.80000e+00	4.370569e-06	
37	-1.85000e+00	4.234745e-06	
38	-1.90000e+00	4.109087e-06	
39	-1.95000e+00	3.992488e-06	
40	-2.00000e+00	3.883997e-06	
41	-2.05000e+00	3.782795e-06	
42	-2.10000e+00	3.688167e-06	
43	-2.15000e+00	3.599493e-06	
44	-2.20000e+00	3.516225e-06	
45	-2.25000e+00	3.437884e-06	
46	-2.30000e+00	3.364043e-06	
47	-2.35000e+00	3.294327e-06	
48	-2.40000e+00	3.228399e-06	
49	-2.45000e+00	3.165958e-06	
50	-2.50000e+00	3.106735e-06	
51	-2.55000e+00	3.050487e-06	
52	-2.60000e+00	2.996997e-06	
53	-2.65000e+00	2.946066e-06	
54	-2.70000e+00	2.897516e-06	

Index   v-sweep         rds             
--------------------------------------------------------------------------------
55	-2.75000e+00	2.851183e-06	
56	-2.80000e+00	2.806920e-06	
57	-2.85000e+00	2.764591e-06	
58	-2.90000e+00	2.724073e-06	
59	-2.95000e+00	2.685251e-06	
60	-3.00000e+00	2.648023e-06	
61	-3.05000e+00	2.612292e-06	
62	-3.10000e+00	2.577970e-06	
63	-3.15000e+00	2.544975e-06	
64	-3.20000e+00	2.513233e-06	
65	-3.25000e+00	2.482673e-06	
66	-3.30000e+00	2.453232e-06	
67	-3.35000e+00	2.424849e-06	
68	-3.40000e+00	2.397468e-06	
69	-3.45000e+00	2.371038e-06	
70	-3.50000e+00	2.345510e-06	
71	-3.55000e+00	2.320839e-06	
72	-3.60000e+00	2.296984e-06	
73	-3.65000e+00	2.273903e-06	
74	-3.70000e+00	2.251562e-06	
75	-3.75000e+00	2.229925e-06	
76	-3.80000e+00	2.208959e-06	
77	-3.85000e+00	2.188635e-06	
78	-3.90000e+00	2.168923e-06	
79	-3.95000e+00	2.149798e-06	
80	-4.00000e+00	2.131233e-06	
81	-4.05000e+00	2.113204e-06	
82	-4.10000e+00	2.095690e-06	
83	-4.15000e+00	2.078669e-06	
84	-4.20000e+00	2.062121e-06	
85	-4.25000e+00	2.046027e-06	
86	-4.30000e+00	2.030370e-06	
87	-4.35000e+00	2.015132e-06	
88	-4.40000e+00	2.000297e-06	
89	-4.45000e+00	1.985851e-06	
90	-4.50000e+00	1.971778e-06	
91	-4.55000e+00	1.958066e-06	
92	-4.60000e+00	1.944702e-06	
93	-4.65000e+00	1.931673e-06	
94	-4.70000e+00	1.918967e-06	
95	-4.75000e+00	1.906574e-06	
96	-4.80000e+00	1.894483e-06	
97	-4.85000e+00	1.882685e-06	
98	-4.90000e+00	1.871169e-06	
99	-4.95000e+00	1.859927e-06	
100	-5.00000e+00	1.848950e-06	
101	-5.05000e+00	1.838229e-06	
102	-5.10000e+00	1.827758e-06	
103	-5.15000e+00	1.817529e-06	
104	-5.20000e+00	1.807535e-06	
105	-5.25000e+00	1.797768e-06	
106	-5.30000e+00	1.788223e-06	
107	-5.35000e+00	1.778893e-06	
108	-5.40000e+00	1.769772e-06	
109	-5.45000e+00	1.760855e-06	
110	-5.50000e+00	1.752137e-06	
111	-5.55000e+00	1.743612e-06	
112	-5.60000e+00	1.735276e-06	

Index   v-sweep         rds             
--------------------------------------------------------------------------------
113	-5.65000e+00	1.727123e-06	
114	-5.70000e+00	1.719149e-06	
115	-5.75000e+00	1.711350e-06	
116	-5.80000e+00	1.703722e-06	
117	-5.85000e+00	1.696261e-06	
118	-5.90000e+00	1.688963e-06	
119	-5.95000e+00	1.681824e-06	
120	-6.00000e+00	1.674840e-06	
121	-6.05000e+00	1.668010e-06	
122	-6.10000e+00	1.661328e-06	
123	-6.15000e+00	1.654793e-06	
124	-6.20000e+00	1.648400e-06	
125	-6.25000e+00	1.642148e-06	
126	-6.30000e+00	1.636034e-06	
127	-6.35000e+00	1.630054e-06	
128	-6.40000e+00	1.624206e-06	
129	-6.45000e+00	1.618488e-06	
130	-6.50000e+00	1.612897e-06	
131	-6.55000e+00	1.607431e-06	
132	-6.60000e+00	1.602087e-06	
Reset re-loads circuit ***************************

Circuit: ***************************

Doing analysis at TEMP = -40.000000 and TNOM = -40.000000


No. of Data Rows : 133
                          ***************************
                          DC transfer characteristic  Mon Jan  9 13:58:52  2023
--------------------------------------------------------------------------------
Index   v-sweep         rds             
--------------------------------------------------------------------------------
0	0.000000e+00	6.359786e-04	
1	-5.00000e-02	6.123061e-04	
2	-1.00000e-01	5.888358e-04	
3	-1.50000e-01	5.655658e-04	
4	-2.00000e-01	5.424943e-04	
5	-2.50000e-01	5.196194e-04	
6	-3.00000e-01	4.969393e-04	
7	-3.50000e-01	4.744525e-04	
8	-4.00000e-01	4.521572e-04	
9	-4.50000e-01	4.300520e-04	
10	-5.00000e-01	4.081355e-04	
11	-5.50000e-01	3.864065e-04	
12	-6.00000e-01	3.648640e-04	
13	-6.50000e-01	3.435074e-04	
14	-7.00000e-01	3.223365e-04	
15	-7.50000e-01	3.013518e-04	
16	-8.00000e-01	2.805549e-04	
17	-8.50000e-01	2.599489e-04	
18	-9.00000e-01	2.395395e-04	
19	-9.50000e-01	2.193365e-04	
20	-1.00000e+00	1.993567e-04	
21	-1.05000e+00	1.796287e-04	
22	-1.10000e+00	1.602022e-04	
23	-1.15000e+00	1.411644e-04	
24	-1.20000e+00	1.226676e-04	
25	-1.25000e+00	1.049712e-04	
26	-1.30000e+00	8.848269e-05	
27	-1.35000e+00	7.374002e-05	
28	-1.40000e+00	6.125375e-05	
29	-1.45000e+00	5.124627e-05	
30	-1.50000e+00	4.353272e-05	
31	-1.55000e+00	3.766972e-05	
32	-1.60000e+00	3.318180e-05	
33	-1.65000e+00	2.968311e-05	
34	-1.70000e+00	2.689601e-05	
35	-1.75000e+00	2.462902e-05	
36	-1.80000e+00	2.275055e-05	
37	-1.85000e+00	2.116886e-05	
38	-1.90000e+00	1.981867e-05	
39	-1.95000e+00	1.865242e-05	
40	-2.00000e+00	1.763476e-05	
41	-2.05000e+00	1.673888e-05	
42	-2.10000e+00	1.594406e-05	
43	-2.15000e+00	1.523406e-05	
44	-2.20000e+00	1.459594e-05	
45	-2.25000e+00	1.401928e-05	
46	-2.30000e+00	1.349560e-05	
47	-2.35000e+00	1.301790e-05	
48	-2.40000e+00	1.258038e-05	
49	-2.45000e+00	1.217816e-05	
50	-2.50000e+00	1.180715e-05	
51	-2.55000e+00	1.146384e-05	
52	-2.60000e+00	1.114524e-05	
53	-2.65000e+00	1.084878e-05	
54	-2.70000e+00	1.057223e-05	

Index   v-sweep         rds             
--------------------------------------------------------------------------------
55	-2.75000e+00	1.031365e-05	
56	-2.80000e+00	1.007136e-05	
57	-2.85000e+00	9.843847e-06	
58	-2.90000e+00	9.629816e-06	
59	-2.95000e+00	9.428102e-06	
60	-3.00000e+00	9.237674e-06	
61	-3.05000e+00	9.057612e-06	
62	-3.10000e+00	8.887095e-06	
63	-3.15000e+00	8.725385e-06	
64	-3.20000e+00	8.571818e-06	
65	-3.25000e+00	8.425797e-06	
66	-3.30000e+00	8.286780e-06	
67	-3.35000e+00	8.154277e-06	
68	-3.40000e+00	8.027842e-06	
69	-3.45000e+00	7.907069e-06	
70	-3.50000e+00	7.791586e-06	
71	-3.55000e+00	7.681056e-06	
72	-3.60000e+00	7.575168e-06	
73	-3.65000e+00	7.473635e-06	
74	-3.70000e+00	7.376197e-06	
75	-3.75000e+00	7.282611e-06	
76	-3.80000e+00	7.192655e-06	
77	-3.85000e+00	7.106121e-06	
78	-3.90000e+00	7.022820e-06	
79	-3.95000e+00	6.942575e-06	
80	-4.00000e+00	6.865221e-06	
81	-4.05000e+00	6.790606e-06	
82	-4.10000e+00	6.718588e-06	
83	-4.15000e+00	6.649034e-06	
84	-4.20000e+00	6.581821e-06	
85	-4.25000e+00	6.516834e-06	
86	-4.30000e+00	6.453965e-06	
87	-4.35000e+00	6.393113e-06	
88	-4.40000e+00	6.334184e-06	
89	-4.45000e+00	6.277088e-06	
90	-4.50000e+00	6.221743e-06	
91	-4.55000e+00	6.168071e-06	
92	-4.60000e+00	6.115999e-06	
93	-4.65000e+00	6.065456e-06	
94	-4.70000e+00	6.016378e-06	
95	-4.75000e+00	5.968704e-06	
96	-4.80000e+00	5.922376e-06	
97	-4.85000e+00	5.877339e-06	
98	-4.90000e+00	5.833542e-06	
99	-4.95000e+00	5.790936e-06	
100	-5.00000e+00	5.749474e-06	
101	-5.05000e+00	5.709115e-06	
102	-5.10000e+00	5.669815e-06	
103	-5.15000e+00	5.631537e-06	
104	-5.20000e+00	5.594243e-06	
105	-5.25000e+00	5.557898e-06	
106	-5.30000e+00	5.522469e-06	
107	-5.35000e+00	5.487924e-06	
108	-5.40000e+00	5.454234e-06	
109	-5.45000e+00	5.421370e-06	
110	-5.50000e+00	5.389305e-06	
111	-5.55000e+00	5.358013e-06	
112	-5.60000e+00	5.327470e-06	

Index   v-sweep         rds             
--------------------------------------------------------------------------------
113	-5.65000e+00	5.297653e-06	
114	-5.70000e+00	5.268539e-06	
115	-5.75000e+00	5.240108e-06	
116	-5.80000e+00	5.212340e-06	
117	-5.85000e+00	5.185214e-06	
118	-5.90000e+00	5.158714e-06	
119	-5.95000e+00	5.132822e-06	
120	-6.00000e+00	5.107521e-06	
121	-6.05000e+00	5.082795e-06	
122	-6.10000e+00	5.058629e-06	
123	-6.15000e+00	5.035009e-06	
124	-6.20000e+00	5.011922e-06	
125	-6.25000e+00	4.989353e-06	
126	-6.30000e+00	4.967290e-06	
127	-6.35000e+00	4.945722e-06	
128	-6.40000e+00	4.924636e-06	
129	-6.45000e+00	4.904022e-06	
130	-6.50000e+00	4.883868e-06	
131	-6.55000e+00	4.864166e-06	
132	-6.60000e+00	4.844904e-06	
Reset re-loads circuit ***************************

Circuit: ***************************

Doing analysis at TEMP = -40.000000 and TNOM = -40.000000


No. of Data Rows : 133
                          ***************************
                          DC transfer characteristic  Mon Jan  9 13:58:52  2023
--------------------------------------------------------------------------------
Index   v-sweep         rds             
--------------------------------------------------------------------------------
0	0.000000e+00	8.436022e-04	
1	-5.00000e-02	8.215493e-04	
2	-1.00000e-01	7.996634e-04	
3	-1.50000e-01	7.779429e-04	
4	-2.00000e-01	7.563864e-04	
5	-2.50000e-01	7.349926e-04	
6	-3.00000e-01	7.137601e-04	
7	-3.50000e-01	6.926873e-04	
8	-4.00000e-01	6.717731e-04	
9	-4.50000e-01	6.510161e-04	
10	-5.00000e-01	6.304149e-04	
11	-5.50000e-01	6.099683e-04	
12	-6.00000e-01	5.896749e-04	
13	-6.50000e-01	5.695336e-04	
14	-7.00000e-01	5.495431e-04	
15	-7.50000e-01	5.297022e-04	
16	-8.00000e-01	5.100098e-04	
17	-8.50000e-01	4.904647e-04	
18	-9.00000e-01	4.710659e-04	
19	-9.50000e-01	4.518124e-04	
20	-1.00000e+00	4.327033e-04	
21	-1.05000e+00	4.137378e-04	
22	-1.10000e+00	3.949151e-04	
23	-1.15000e+00	3.762348e-04	
24	-1.20000e+00	3.576965e-04	
25	-1.25000e+00	3.393001e-04	
26	-1.30000e+00	3.210462e-04	
27	-1.35000e+00	3.029358e-04	
28	-1.40000e+00	2.849706e-04	
29	-1.45000e+00	2.671540e-04	
30	-1.50000e+00	2.494910e-04	
31	-1.55000e+00	2.319899e-04	
32	-1.60000e+00	2.146640e-04	
33	-1.65000e+00	1.975342e-04	
34	-1.70000e+00	1.806351e-04	
35	-1.75000e+00	1.640226e-04	
36	-1.80000e+00	1.477880e-04	
37	-1.85000e+00	1.320760e-04	
38	-1.90000e+00	1.171021e-04	
39	-1.95000e+00	1.031519e-04	
40	-2.00000e+00	9.053492e-05	
41	-2.05000e+00	7.949194e-05	
42	-2.10000e+00	7.010651e-05	
43	-2.15000e+00	6.229045e-05	
44	-2.20000e+00	5.584280e-05	
45	-2.25000e+00	5.052614e-05	
46	-2.30000e+00	4.611774e-05	
47	-2.35000e+00	4.243059e-05	
48	-2.40000e+00	3.931598e-05	
49	-2.45000e+00	3.665843e-05	
50	-2.50000e+00	3.436895e-05	
51	-2.55000e+00	3.237881e-05	
52	-2.60000e+00	3.063461e-05	
53	-2.65000e+00	2.909448e-05	
54	-2.70000e+00	2.772529e-05	

Index   v-sweep         rds             
--------------------------------------------------------------------------------
55	-2.75000e+00	2.650054e-05	
56	-2.80000e+00	2.539884e-05	
57	-2.85000e+00	2.440275e-05	
58	-2.90000e+00	2.349795e-05	
59	-2.95000e+00	2.267256e-05	
60	-3.00000e+00	2.191665e-05	
61	-3.05000e+00	2.122187e-05	
62	-3.10000e+00	2.058115e-05	
63	-3.15000e+00	1.998845e-05	
64	-3.20000e+00	1.943862e-05	
65	-3.25000e+00	1.892719e-05	
66	-3.30000e+00	1.845029e-05	
67	-3.35000e+00	1.800456e-05	
68	-3.40000e+00	1.758706e-05	
69	-3.45000e+00	1.719520e-05	
70	-3.50000e+00	1.682671e-05	
71	-3.55000e+00	1.647956e-05	
72	-3.60000e+00	1.615196e-05	
73	-3.65000e+00	1.584232e-05	
74	-3.70000e+00	1.554920e-05	
75	-3.75000e+00	1.527131e-05	
76	-3.80000e+00	1.500752e-05	
77	-3.85000e+00	1.475678e-05	
78	-3.90000e+00	1.451815e-05	
79	-3.95000e+00	1.429077e-05	
80	-4.00000e+00	1.407387e-05	
81	-4.05000e+00	1.386675e-05	
82	-4.10000e+00	1.366877e-05	
83	-4.15000e+00	1.347933e-05	
84	-4.20000e+00	1.329790e-05	
85	-4.25000e+00	1.312398e-05	
86	-4.30000e+00	1.295712e-05	
87	-4.35000e+00	1.279689e-05	
88	-4.40000e+00	1.264292e-05	
89	-4.45000e+00	1.249485e-05	
90	-4.50000e+00	1.235234e-05	
91	-4.55000e+00	1.221509e-05	
92	-4.60000e+00	1.208281e-05	
93	-4.65000e+00	1.195525e-05	
94	-4.70000e+00	1.183215e-05	
95	-4.75000e+00	1.171329e-05	
96	-4.80000e+00	1.159845e-05	
97	-4.85000e+00	1.148744e-05	
98	-4.90000e+00	1.138006e-05	
99	-4.95000e+00	1.127615e-05	
100	-5.00000e+00	1.117554e-05	
101	-5.05000e+00	1.107808e-05	
102	-5.10000e+00	1.098362e-05	
103	-5.15000e+00	1.089204e-05	
104	-5.20000e+00	1.080320e-05	
105	-5.25000e+00	1.071698e-05	
106	-5.30000e+00	1.063327e-05	
107	-5.35000e+00	1.055198e-05	
108	-5.40000e+00	1.047298e-05	
109	-5.45000e+00	1.039621e-05	
110	-5.50000e+00	1.032156e-05	
111	-5.55000e+00	1.024894e-05	
112	-5.60000e+00	1.017830e-05	

Index   v-sweep         rds             
--------------------------------------------------------------------------------
113	-5.65000e+00	1.010953e-05	
114	-5.70000e+00	1.004259e-05	
115	-5.75000e+00	9.977396e-06	
116	-5.80000e+00	9.913887e-06	
117	-5.85000e+00	9.852005e-06	
118	-5.90000e+00	9.791692e-06	
119	-5.95000e+00	9.732894e-06	
120	-6.00000e+00	9.675561e-06	
121	-6.05000e+00	9.619643e-06	
122	-6.10000e+00	9.565094e-06	
123	-6.15000e+00	9.511870e-06	
124	-6.20000e+00	9.459930e-06	
125	-6.25000e+00	9.409235e-06	
126	-6.30000e+00	9.359745e-06	
127	-6.35000e+00	9.311427e-06	
128	-6.40000e+00	9.264244e-06	
129	-6.45000e+00	9.218166e-06	
130	-6.50000e+00	9.173160e-06	
131	-6.55000e+00	9.129198e-06	
132	-6.60000e+00	9.086251e-06	
Reset re-loads circuit ***************************

Circuit: ***************************

Doing analysis at TEMP = -40.000000 and TNOM = -40.000000


No. of Data Rows : 133
                          ***************************
                          DC transfer characteristic  Mon Jan  9 13:58:52  2023
--------------------------------------------------------------------------------
Index   v-sweep         rds             
--------------------------------------------------------------------------------
0	0.000000e+00	1.005984e-03	
1	-5.00000e-02	9.855077e-04	
2	-1.00000e-01	9.651708e-04	
3	-1.50000e-01	9.449722e-04	
4	-2.00000e-01	9.249110e-04	
5	-2.50000e-01	9.049861e-04	
6	-3.00000e-01	8.851963e-04	
7	-3.50000e-01	8.655407e-04	
8	-4.00000e-01	8.460181e-04	
9	-4.50000e-01	8.266276e-04	
10	-5.00000e-01	8.073681e-04	
11	-5.50000e-01	7.882386e-04	
12	-6.00000e-01	7.692381e-04	
13	-6.50000e-01	7.503657e-04	
14	-7.00000e-01	7.316202e-04	
15	-7.50000e-01	7.130008e-04	
16	-8.00000e-01	6.945066e-04	
17	-8.50000e-01	6.761364e-04	
18	-9.00000e-01	6.578895e-04	
19	-9.50000e-01	6.397648e-04	
20	-1.00000e+00	6.217615e-04	
21	-1.05000e+00	6.038787e-04	
22	-1.10000e+00	5.861155e-04	
23	-1.15000e+00	5.684709e-04	
24	-1.20000e+00	5.509443e-04	
25	-1.25000e+00	5.335347e-04	
26	-1.30000e+00	5.162414e-04	
27	-1.35000e+00	4.990635e-04	
28	-1.40000e+00	4.820003e-04	
29	-1.45000e+00	4.650511e-04	
30	-1.50000e+00	4.482152e-04	
31	-1.55000e+00	4.314920e-04	
32	-1.60000e+00	4.148809e-04	
33	-1.65000e+00	3.983814e-04	
34	-1.70000e+00	3.819931e-04	
35	-1.75000e+00	3.657157e-04	
36	-1.80000e+00	3.495490e-04	
37	-1.85000e+00	3.334931e-04	
38	-1.90000e+00	3.175483e-04	
39	-1.95000e+00	3.017154e-04	
40	-2.00000e+00	2.859953e-04	
41	-2.05000e+00	2.703902e-04	
42	-2.10000e+00	2.549031e-04	
43	-2.15000e+00	2.395387e-04	
44	-2.20000e+00	2.243046e-04	
45	-2.25000e+00	2.092130e-04	
46	-2.30000e+00	1.942836e-04	
47	-2.35000e+00	1.795488e-04	
48	-2.40000e+00	1.650625e-04	
49	-2.45000e+00	1.509120e-04	
50	-2.50000e+00	1.372310e-04	
51	-2.55000e+00	1.242051e-04	
52	-2.60000e+00	1.120538e-04	
53	-2.65000e+00	1.009841e-04	
54	-2.70000e+00	9.113244e-05	

Index   v-sweep         rds             
--------------------------------------------------------------------------------
55	-2.75000e+00	8.253212e-05	
56	-2.80000e+00	7.512081e-05	
57	-2.85000e+00	6.877554e-05	
58	-2.90000e+00	6.334969e-05	
59	-2.95000e+00	5.869871e-05	
60	-3.00000e+00	5.469318e-05	
61	-3.05000e+00	5.122313e-05	
62	-3.10000e+00	4.819764e-05	
63	-3.15000e+00	4.554259e-05	
64	-3.20000e+00	4.319785e-05	
65	-3.25000e+00	4.111466e-05	
66	-3.30000e+00	3.925332e-05	
67	-3.35000e+00	3.758141e-05	
68	-3.40000e+00	3.607226e-05	
69	-3.45000e+00	3.470382e-05	
70	-3.50000e+00	3.345772e-05	
71	-3.55000e+00	3.231858e-05	
72	-3.60000e+00	3.127345e-05	
73	-3.65000e+00	3.031134e-05	
74	-3.70000e+00	2.942287e-05	
75	-3.75000e+00	2.860001e-05	
76	-3.80000e+00	2.783585e-05	
77	-3.85000e+00	2.712439e-05	
78	-3.90000e+00	2.646042e-05	
79	-3.95000e+00	2.583938e-05	
80	-4.00000e+00	2.525729e-05	
81	-4.05000e+00	2.471062e-05	
82	-4.10000e+00	2.419626e-05	
83	-4.15000e+00	2.371145e-05	
84	-4.20000e+00	2.325374e-05	
85	-4.25000e+00	2.282093e-05	
86	-4.30000e+00	2.241106e-05	
87	-4.35000e+00	2.202237e-05	
88	-4.40000e+00	2.165327e-05	
89	-4.45000e+00	2.130232e-05	
90	-4.50000e+00	2.096823e-05	
91	-4.55000e+00	2.064982e-05	
92	-4.60000e+00	2.034601e-05	
93	-4.65000e+00	2.005583e-05	
94	-4.70000e+00	1.977840e-05	
95	-4.75000e+00	1.951288e-05	
96	-4.80000e+00	1.925855e-05	
97	-4.85000e+00	1.901470e-05	
98	-4.90000e+00	1.878071e-05	
99	-4.95000e+00	1.855599e-05	
100	-5.00000e+00	1.834002e-05	
101	-5.05000e+00	1.813228e-05	
102	-5.10000e+00	1.793233e-05	
103	-5.15000e+00	1.773974e-05	
104	-5.20000e+00	1.755410e-05	
105	-5.25000e+00	1.737506e-05	
106	-5.30000e+00	1.720227e-05	
107	-5.35000e+00	1.703541e-05	
108	-5.40000e+00	1.687418e-05	
109	-5.45000e+00	1.671831e-05	
110	-5.50000e+00	1.656754e-05	
111	-5.55000e+00	1.642162e-05	
112	-5.60000e+00	1.628032e-05	

Index   v-sweep         rds             
--------------------------------------------------------------------------------
113	-5.65000e+00	1.614344e-05	
114	-5.70000e+00	1.601077e-05	
115	-5.75000e+00	1.588212e-05	
116	-5.80000e+00	1.575732e-05	
117	-5.85000e+00	1.563620e-05	
118	-5.90000e+00	1.551861e-05	
119	-5.95000e+00	1.540439e-05	
120	-6.00000e+00	1.529341e-05	
121	-6.05000e+00	1.518553e-05	
122	-6.10000e+00	1.508064e-05	
123	-6.15000e+00	1.497862e-05	
124	-6.20000e+00	1.487935e-05	
125	-6.25000e+00	1.478273e-05	
126	-6.30000e+00	1.468866e-05	
127	-6.35000e+00	1.459705e-05	
128	-6.40000e+00	1.450781e-05	
129	-6.45000e+00	1.442086e-05	
130	-6.50000e+00	1.433612e-05	
131	-6.55000e+00	1.425350e-05	
132	-6.60000e+00	1.417295e-05	
Reset re-loads circuit ***************************

Circuit: ***************************

Doing analysis at TEMP = -40.000000 and TNOM = -40.000000


No. of Data Rows : 133
                          ***************************
                          DC transfer characteristic  Mon Jan  9 13:58:52  2023
--------------------------------------------------------------------------------
Index   v-sweep         rds             
--------------------------------------------------------------------------------
0	0.000000e+00	1.132560e-03	
1	-5.00000e-02	1.113567e-03	
2	-1.00000e-01	1.094692e-03	
3	-1.50000e-01	1.075934e-03	
4	-2.00000e-01	1.057291e-03	
5	-2.50000e-01	1.038764e-03	
6	-3.00000e-01	1.020351e-03	
7	-3.50000e-01	1.002052e-03	
8	-4.00000e-01	9.838654e-04	
9	-4.50000e-01	9.657908e-04	
10	-5.00000e-01	9.478274e-04	
11	-5.50000e-01	9.299742e-04	
12	-6.00000e-01	9.122307e-04	
13	-6.50000e-01	8.945959e-04	
14	-7.00000e-01	8.770692e-04	
15	-7.50000e-01	8.596497e-04	
16	-8.00000e-01	8.423367e-04	
17	-8.50000e-01	8.251294e-04	
18	-9.00000e-01	8.080272e-04	
19	-9.50000e-01	7.910292e-04	
20	-1.00000e+00	7.741347e-04	
21	-1.05000e+00	7.573430e-04	
22	-1.10000e+00	7.406535e-04	
23	-1.15000e+00	7.240653e-04	
24	-1.20000e+00	7.075778e-04	
25	-1.25000e+00	6.911903e-04	
26	-1.30000e+00	6.749020e-04	
27	-1.35000e+00	6.587124e-04	
28	-1.40000e+00	6.426208e-04	
29	-1.45000e+00	6.266264e-04	
30	-1.50000e+00	6.107287e-04	
31	-1.55000e+00	5.949269e-04	
32	-1.60000e+00	5.792205e-04	
33	-1.65000e+00	5.636089e-04	
34	-1.70000e+00	5.480913e-04	
35	-1.75000e+00	5.326673e-04	
36	-1.80000e+00	5.173362e-04	
37	-1.85000e+00	5.020975e-04	
38	-1.90000e+00	4.869506e-04	
39	-1.95000e+00	4.718949e-04	
40	-2.00000e+00	4.569299e-04	
41	-2.05000e+00	4.420552e-04	
42	-2.10000e+00	4.272702e-04	
43	-2.15000e+00	4.125745e-04	
44	-2.20000e+00	3.979675e-04	
45	-2.25000e+00	3.834490e-04	
46	-2.30000e+00	3.690185e-04	
47	-2.35000e+00	3.546756e-04	
48	-2.40000e+00	3.404200e-04	
49	-2.45000e+00	3.262514e-04	
50	-2.50000e+00	3.121694e-04	
51	-2.55000e+00	2.981738e-04	
52	-2.60000e+00	2.842642e-04	
53	-2.65000e+00	2.704405e-04	
54	-2.70000e+00	2.567024e-04	

Index   v-sweep         rds             
--------------------------------------------------------------------------------
55	-2.75000e+00	2.430501e-04	
56	-2.80000e+00	2.294844e-04	
57	-2.85000e+00	2.160081e-04	
58	-2.90000e+00	2.026280e-04	
59	-2.95000e+00	1.893594e-04	
60	-3.00000e+00	1.762345e-04	
61	-3.05000e+00	1.633133e-04	
62	-3.10000e+00	1.506975e-04	
63	-3.15000e+00	1.385354e-04	
64	-3.20000e+00	1.270103e-04	
65	-3.25000e+00	1.163047e-04	
66	-3.30000e+00	1.065574e-04	
67	-3.35000e+00	9.783420e-05	
68	-3.40000e+00	9.012614e-05	
69	-3.45000e+00	8.336810e-05	
70	-3.50000e+00	7.746374e-05	
71	-3.55000e+00	7.230636e-05	
72	-3.60000e+00	6.779215e-05	
73	-3.65000e+00	6.382704e-05	
74	-3.70000e+00	6.032912e-05	
75	-3.75000e+00	5.722873e-05	
76	-3.80000e+00	5.446730e-05	
77	-3.85000e+00	5.199593e-05	
78	-3.90000e+00	4.977382e-05	
79	-3.95000e+00	4.776691e-05	
80	-4.00000e+00	4.594672e-05	
81	-4.05000e+00	4.428931e-05	
82	-4.10000e+00	4.277447e-05	
83	-4.15000e+00	4.138511e-05	
84	-4.20000e+00	4.010664e-05	
85	-4.25000e+00	3.892661e-05	
86	-4.30000e+00	3.783431e-05	
87	-4.35000e+00	3.682049e-05	
88	-4.40000e+00	3.587713e-05	
89	-4.45000e+00	3.499726e-05	
90	-4.50000e+00	3.417477e-05	
91	-4.55000e+00	3.340431e-05	
92	-4.60000e+00	3.268114e-05	
93	-4.65000e+00	3.200111e-05	
94	-4.70000e+00	3.136051e-05	
95	-4.75000e+00	3.075603e-05	
96	-4.80000e+00	3.018476e-05	
97	-4.85000e+00	2.964404e-05	
98	-4.90000e+00	2.913152e-05	
99	-4.95000e+00	2.864506e-05	
100	-5.00000e+00	2.818275e-05	
101	-5.05000e+00	2.774284e-05	
102	-5.10000e+00	2.732377e-05	
103	-5.15000e+00	2.692409e-05	
104	-5.20000e+00	2.654251e-05	
105	-5.25000e+00	2.617783e-05	
106	-5.30000e+00	2.582895e-05	
107	-5.35000e+00	2.549489e-05	
108	-5.40000e+00	2.517473e-05	
109	-5.45000e+00	2.486762e-05	
110	-5.50000e+00	2.457278e-05	
111	-5.55000e+00	2.428951e-05	
112	-5.60000e+00	2.401714e-05	

Index   v-sweep         rds             
--------------------------------------------------------------------------------
113	-5.65000e+00	2.375505e-05	
114	-5.70000e+00	2.350268e-05	
115	-5.75000e+00	2.325951e-05	
116	-5.80000e+00	2.302504e-05	
117	-5.85000e+00	2.279882e-05	
118	-5.90000e+00	2.258042e-05	
119	-5.95000e+00	2.236945e-05	
120	-6.00000e+00	2.216555e-05	
121	-6.05000e+00	2.196836e-05	
122	-6.10000e+00	2.177756e-05	
123	-6.15000e+00	2.159286e-05	
124	-6.20000e+00	2.141396e-05	
125	-6.25000e+00	2.124061e-05	
126	-6.30000e+00	2.107255e-05	
127	-6.35000e+00	2.090956e-05	
128	-6.40000e+00	2.075140e-05	
129	-6.45000e+00	2.059787e-05	
130	-6.50000e+00	2.044878e-05	
131	-6.55000e+00	2.030395e-05	
132	-6.60000e+00	2.016319e-05	
Reset re-loads circuit ***************************

Circuit: ***************************

Note: No ".plot", ".print", or ".fourier" lines; no simulations run
