
Note: Compatibility modes selected: hs

Warning: m=xx on .subckt line will override multiplier m hierarchy!


Circuit: ***************************

Doing analysis at TEMP = 125.000000 and TNOM = 125.000000


No. of Data Rows : 133
                          ***************************
                          DC transfer characteristic  Mon Jan  9 13:58:53  2023
--------------------------------------------------------------------------------
Index   v-sweep         rds             
--------------------------------------------------------------------------------
0	0.000000e+00	8.110090e-07	
1	-5.00000e-02	6.185869e-07	
2	-1.00000e-01	4.293086e-07	
3	-1.50000e-01	2.509080e-07	
4	-2.00000e-01	1.090889e-07	
5	-2.50000e-01	3.632547e-08	
6	-3.00000e-01	1.293091e-08	
7	-3.50000e-01	5.993569e-09	
8	-4.00000e-01	3.562391e-09	
9	-4.50000e-01	2.529496e-09	
10	-5.00000e-01	2.013927e-09	
11	-5.50000e-01	1.721270e-09	
12	-6.00000e-01	1.537247e-09	
13	-6.50000e-01	1.411711e-09	
14	-7.00000e-01	1.320350e-09	
15	-7.50000e-01	1.250372e-09	
16	-8.00000e-01	1.194568e-09	
17	-8.50000e-01	1.148631e-09	
18	-9.00000e-01	1.109856e-09	
19	-9.50000e-01	1.076466e-09	
20	-1.00000e+00	1.047251e-09	
21	-1.05000e+00	1.021356e-09	
22	-1.10000e+00	9.981599e-10	
23	-1.15000e+00	9.771984e-10	
24	-1.20000e+00	9.581170e-10	
25	-1.25000e+00	9.406391e-10	
26	-1.30000e+00	9.245448e-10	
27	-1.35000e+00	9.096563e-10	
28	-1.40000e+00	8.958281e-10	
29	-1.45000e+00	8.829392e-10	
30	-1.50000e+00	8.708880e-10	
31	-1.55000e+00	8.595886e-10	
32	-1.60000e+00	8.489671e-10	
33	-1.65000e+00	8.389599e-10	
34	-1.70000e+00	8.295118e-10	
35	-1.75000e+00	8.205743e-10	
36	-1.80000e+00	8.121050e-10	
37	-1.85000e+00	8.040660e-10	
38	-1.90000e+00	7.964240e-10	
39	-1.95000e+00	7.891490e-10	
40	-2.00000e+00	7.822141e-10	
41	-2.05000e+00	7.755953e-10	
42	-2.10000e+00	7.692707e-10	
43	-2.15000e+00	7.632206e-10	
44	-2.20000e+00	7.574269e-10	
45	-2.25000e+00	7.518733e-10	
46	-2.30000e+00	7.465449e-10	
47	-2.35000e+00	7.414280e-10	
48	-2.40000e+00	7.365099e-10	
49	-2.45000e+00	7.317791e-10	
50	-2.50000e+00	7.272249e-10	
51	-2.55000e+00	7.228375e-10	
52	-2.60000e+00	7.186078e-10	
53	-2.65000e+00	7.145272e-10	
54	-2.70000e+00	7.105881e-10	

Index   v-sweep         rds             
--------------------------------------------------------------------------------
55	-2.75000e+00	7.067830e-10	
56	-2.80000e+00	7.031052e-10	
57	-2.85000e+00	6.995484e-10	
58	-2.90000e+00	6.961067e-10	
59	-2.95000e+00	6.927744e-10	
60	-3.00000e+00	6.895466e-10	
61	-3.05000e+00	6.864182e-10	
62	-3.10000e+00	6.833849e-10	
63	-3.15000e+00	6.804423e-10	
64	-3.20000e+00	6.775863e-10	
65	-3.25000e+00	6.748134e-10	
66	-3.30000e+00	6.721198e-10	
67	-3.35000e+00	6.695022e-10	
68	-3.40000e+00	6.669576e-10	
69	-3.45000e+00	6.644829e-10	
70	-3.50000e+00	6.620753e-10	
71	-3.55000e+00	6.597321e-10	
72	-3.60000e+00	6.574509e-10	
73	-3.65000e+00	6.552292e-10	
74	-3.70000e+00	6.530648e-10	
75	-3.75000e+00	6.509556e-10	
76	-3.80000e+00	6.488995e-10	
77	-3.85000e+00	6.468946e-10	
78	-3.90000e+00	6.449391e-10	
79	-3.95000e+00	6.430313e-10	
80	-4.00000e+00	6.411694e-10	
81	-4.05000e+00	6.393520e-10	
82	-4.10000e+00	6.375775e-10	
83	-4.15000e+00	6.358445e-10	
84	-4.20000e+00	6.341517e-10	
85	-4.25000e+00	6.324978e-10	
86	-4.30000e+00	6.308815e-10	
87	-4.35000e+00	6.293017e-10	
88	-4.40000e+00	6.277573e-10	
89	-4.45000e+00	6.262471e-10	
90	-4.50000e+00	6.247702e-10	
91	-4.55000e+00	6.233256e-10	
92	-4.60000e+00	6.219124e-10	
93	-4.65000e+00	6.205297e-10	
94	-4.70000e+00	6.191766e-10	
95	-4.75000e+00	6.178523e-10	
96	-4.80000e+00	6.165560e-10	
97	-4.85000e+00	6.152871e-10	
98	-4.90000e+00	6.140447e-10	
99	-4.95000e+00	6.128282e-10	
100	-5.00000e+00	6.116370e-10	
101	-5.05000e+00	6.104704e-10	
102	-5.10000e+00	6.093277e-10	
103	-5.15000e+00	6.082085e-10	
104	-5.20000e+00	6.071122e-10	
105	-5.25000e+00	6.060382e-10	
106	-5.30000e+00	6.049860e-10	
107	-5.35000e+00	6.039551e-10	
108	-5.40000e+00	6.029451e-10	
109	-5.45000e+00	6.019555e-10	
110	-5.50000e+00	6.009858e-10	
111	-5.55000e+00	6.000356e-10	
112	-5.60000e+00	5.991045e-10	

Index   v-sweep         rds             
--------------------------------------------------------------------------------
113	-5.65000e+00	5.981922e-10	
114	-5.70000e+00	5.972982e-10	
115	-5.75000e+00	5.964222e-10	
116	-5.80000e+00	5.955637e-10	
117	-5.85000e+00	5.947226e-10	
118	-5.90000e+00	5.938984e-10	
119	-5.95000e+00	5.930908e-10	
120	-6.00000e+00	5.922995e-10	
121	-6.05000e+00	5.915242e-10	
122	-6.10000e+00	5.907646e-10	
123	-6.15000e+00	5.900204e-10	
124	-6.20000e+00	5.892914e-10	
125	-6.25000e+00	5.885773e-10	
126	-6.30000e+00	5.878779e-10	
127	-6.35000e+00	5.871928e-10	
128	-6.40000e+00	5.865218e-10	
129	-6.45000e+00	5.858648e-10	
130	-6.50000e+00	5.852214e-10	
131	-6.55000e+00	5.845915e-10	
132	-6.60000e+00	5.839748e-10	
Reset re-loads circuit ***************************

Circuit: ***************************

Doing analysis at TEMP = 125.000000 and TNOM = 125.000000


No. of Data Rows : 133
                          ***************************
                          DC transfer characteristic  Mon Jan  9 13:58:53  2023
--------------------------------------------------------------------------------
Index   v-sweep         rds             
--------------------------------------------------------------------------------
0	0.000000e+00	3.906076e-06	
1	-5.00000e-02	3.691969e-06	
2	-1.00000e-01	3.477982e-06	
3	-1.50000e-01	3.264123e-06	
4	-2.00000e-01	3.050402e-06	
5	-2.50000e-01	2.836833e-06	
6	-3.00000e-01	2.623438e-06	
7	-3.50000e-01	2.410249e-06	
8	-4.00000e-01	2.197317e-06	
9	-4.50000e-01	1.984724e-06	
10	-5.00000e-01	1.772604e-06	
11	-5.50000e-01	1.561187e-06	
12	-6.00000e-01	1.350886e-06	
13	-6.50000e-01	1.142464e-06	
14	-7.00000e-01	9.373938e-07	
15	-7.50000e-01	7.385454e-07	
16	-8.00000e-01	5.513872e-07	
17	-8.50000e-01	3.851898e-07	
18	-9.00000e-01	2.516927e-07	
19	-9.50000e-01	1.582227e-07	
20	-1.00000e+00	1.010133e-07	
21	-1.05000e+00	6.878958e-08	
22	-1.10000e+00	5.094391e-08	
23	-1.15000e+00	4.074747e-08	
24	-1.20000e+00	3.459080e-08	
25	-1.25000e+00	3.063349e-08	
26	-1.30000e+00	2.793040e-08	
27	-1.35000e+00	2.597992e-08	
28	-1.40000e+00	2.450430e-08	
29	-1.45000e+00	2.334275e-08	
30	-1.50000e+00	2.239807e-08	
31	-1.55000e+00	2.160906e-08	
32	-1.60000e+00	2.093567e-08	
33	-1.65000e+00	2.035081e-08	
34	-1.70000e+00	1.983555e-08	
35	-1.75000e+00	1.937624e-08	
36	-1.80000e+00	1.896285e-08	
37	-1.85000e+00	1.858776e-08	
38	-1.90000e+00	1.824509e-08	
39	-1.95000e+00	1.793024e-08	
40	-2.00000e+00	1.763949e-08	
41	-2.05000e+00	1.736985e-08	
42	-2.10000e+00	1.711882e-08	
43	-2.15000e+00	1.688436e-08	
44	-2.20000e+00	1.666470e-08	
45	-2.25000e+00	1.645837e-08	
46	-2.30000e+00	1.626410e-08	
47	-2.35000e+00	1.608077e-08	
48	-2.40000e+00	1.590743e-08	
49	-2.45000e+00	1.574323e-08	
50	-2.50000e+00	1.558742e-08	
51	-2.55000e+00	1.543935e-08	
52	-2.60000e+00	1.529843e-08	
53	-2.65000e+00	1.516412e-08	
54	-2.70000e+00	1.503596e-08	

Index   v-sweep         rds             
--------------------------------------------------------------------------------
55	-2.75000e+00	1.491352e-08	
56	-2.80000e+00	1.479641e-08	
57	-2.85000e+00	1.468427e-08	
58	-2.90000e+00	1.457680e-08	
59	-2.95000e+00	1.447370e-08	
60	-3.00000e+00	1.437469e-08	
61	-3.05000e+00	1.427955e-08	
62	-3.10000e+00	1.418803e-08	
63	-3.15000e+00	1.409994e-08	
64	-3.20000e+00	1.401507e-08	
65	-3.25000e+00	1.393327e-08	
66	-3.30000e+00	1.385435e-08	
67	-3.35000e+00	1.377817e-08	
68	-3.40000e+00	1.370458e-08	
69	-3.45000e+00	1.363346e-08	
70	-3.50000e+00	1.356469e-08	
71	-3.55000e+00	1.349813e-08	
72	-3.60000e+00	1.343370e-08	
73	-3.65000e+00	1.337129e-08	
74	-3.70000e+00	1.331081e-08	
75	-3.75000e+00	1.325216e-08	
76	-3.80000e+00	1.319526e-08	
77	-3.85000e+00	1.314005e-08	
78	-3.90000e+00	1.308643e-08	
79	-3.95000e+00	1.303436e-08	
80	-4.00000e+00	1.298375e-08	
81	-4.05000e+00	1.293456e-08	
82	-4.10000e+00	1.288671e-08	
83	-4.15000e+00	1.284016e-08	
84	-4.20000e+00	1.279486e-08	
85	-4.25000e+00	1.275076e-08	
86	-4.30000e+00	1.270781e-08	
87	-4.35000e+00	1.266596e-08	
88	-4.40000e+00	1.262518e-08	
89	-4.45000e+00	1.258543e-08	
90	-4.50000e+00	1.254666e-08	
91	-4.55000e+00	1.250885e-08	
92	-4.60000e+00	1.247197e-08	
93	-4.65000e+00	1.243596e-08	
94	-4.70000e+00	1.240082e-08	
95	-4.75000e+00	1.236651e-08	
96	-4.80000e+00	1.233300e-08	
97	-4.85000e+00	1.230026e-08	
98	-4.90000e+00	1.226828e-08	
99	-4.95000e+00	1.223702e-08	
100	-5.00000e+00	1.220646e-08	
101	-5.05000e+00	1.217659e-08	
102	-5.10000e+00	1.214738e-08	
103	-5.15000e+00	1.211882e-08	
104	-5.20000e+00	1.209087e-08	
105	-5.25000e+00	1.206354e-08	
106	-5.30000e+00	1.203679e-08	
107	-5.35000e+00	1.201061e-08	
108	-5.40000e+00	1.198498e-08	
109	-5.45000e+00	1.195990e-08	
110	-5.50000e+00	1.193535e-08	
111	-5.55000e+00	1.191131e-08	
112	-5.60000e+00	1.188777e-08	

Index   v-sweep         rds             
--------------------------------------------------------------------------------
113	-5.65000e+00	1.186471e-08	
114	-5.70000e+00	1.184213e-08	
115	-5.75000e+00	1.182001e-08	
116	-5.80000e+00	1.179835e-08	
117	-5.85000e+00	1.177712e-08	
118	-5.90000e+00	1.175633e-08	
119	-5.95000e+00	1.173596e-08	
120	-6.00000e+00	1.171600e-08	
121	-6.05000e+00	1.169644e-08	
122	-6.10000e+00	1.167728e-08	
123	-6.15000e+00	1.165849e-08	
124	-6.20000e+00	1.164009e-08	
125	-6.25000e+00	1.162206e-08	
126	-6.30000e+00	1.160438e-08	
127	-6.35000e+00	1.158706e-08	
128	-6.40000e+00	1.157009e-08	
129	-6.45000e+00	1.155346e-08	
130	-6.50000e+00	1.153716e-08	
131	-6.55000e+00	1.152119e-08	
132	-6.60000e+00	1.150553e-08	
Reset re-loads circuit ***************************

Circuit: ***************************

Doing analysis at TEMP = 125.000000 and TNOM = 125.000000


No. of Data Rows : 133
                          ***************************
                          DC transfer characteristic  Mon Jan  9 13:58:53  2023
--------------------------------------------------------------------------------
Index   v-sweep         rds             
--------------------------------------------------------------------------------
0	0.000000e+00	6.614583e-06	
1	-5.00000e-02	6.412433e-06	
2	-1.00000e-01	6.210373e-06	
3	-1.50000e-01	6.008404e-06	
4	-2.00000e-01	5.806526e-06	
5	-2.50000e-01	5.604740e-06	
6	-3.00000e-01	5.403046e-06	
7	-3.50000e-01	5.201448e-06	
8	-4.00000e-01	4.999945e-06	
9	-4.50000e-01	4.798540e-06	
10	-5.00000e-01	4.597236e-06	
11	-5.50000e-01	4.396036e-06	
12	-6.00000e-01	4.194944e-06	
13	-6.50000e-01	3.993966e-06	
14	-7.00000e-01	3.793109e-06	
15	-7.50000e-01	3.592382e-06	
16	-8.00000e-01	3.391798e-06	
17	-8.50000e-01	3.191374e-06	
18	-9.00000e-01	2.991134e-06	
19	-9.50000e-01	2.791110e-06	
20	-1.00000e+00	2.591351e-06	
21	-1.05000e+00	2.391924e-06	
22	-1.10000e+00	2.192930e-06	
23	-1.15000e+00	1.994521e-06	
24	-1.20000e+00	1.796934e-06	
25	-1.25000e+00	1.600539e-06	
26	-1.30000e+00	1.405935e-06	
27	-1.35000e+00	1.214105e-06	
28	-1.40000e+00	1.026661e-06	
29	-1.45000e+00	8.462257e-07	
30	-1.50000e+00	6.768479e-07	
31	-1.55000e+00	5.241412e-07	
32	-1.60000e+00	3.943963e-07	
33	-1.65000e+00	2.922062e-07	
34	-1.70000e+00	2.178835e-07	
35	-1.75000e+00	1.672325e-07	
36	-1.80000e+00	1.339584e-07	
37	-1.85000e+00	1.122353e-07	
38	-1.90000e+00	9.780092e-08	
39	-1.95000e+00	8.789581e-08	
40	-2.00000e+00	8.083026e-08	
41	-2.05000e+00	7.558607e-08	
42	-2.10000e+00	7.154573e-08	
43	-2.15000e+00	6.832761e-08	
44	-2.20000e+00	6.568992e-08	
45	-2.25000e+00	6.347518e-08	
46	-2.30000e+00	6.157789e-08	
47	-2.35000e+00	5.992534e-08	
48	-2.40000e+00	5.846613e-08	
49	-2.45000e+00	5.716293e-08	
50	-2.50000e+00	5.598804e-08	
51	-2.55000e+00	5.492039e-08	
52	-2.60000e+00	5.394371e-08	
53	-2.65000e+00	5.304513e-08	
54	-2.70000e+00	5.221434e-08	

Index   v-sweep         rds             
--------------------------------------------------------------------------------
55	-2.75000e+00	5.144297e-08	
56	-2.80000e+00	5.072410e-08	
57	-2.85000e+00	5.005194e-08	
58	-2.90000e+00	4.942163e-08	
59	-2.95000e+00	4.882901e-08	
60	-3.00000e+00	4.827051e-08	
61	-3.05000e+00	4.774305e-08	
62	-3.10000e+00	4.724392e-08	
63	-3.15000e+00	4.677075e-08	
64	-3.20000e+00	4.632145e-08	
65	-3.25000e+00	4.589416e-08	
66	-3.30000e+00	4.548723e-08	
67	-3.35000e+00	4.509916e-08	
68	-3.40000e+00	4.472863e-08	
69	-3.45000e+00	4.437444e-08	
70	-3.50000e+00	4.403547e-08	
71	-3.55000e+00	4.371075e-08	
72	-3.60000e+00	4.339937e-08	
73	-3.65000e+00	4.310051e-08	
74	-3.70000e+00	4.281340e-08	
75	-3.75000e+00	4.253735e-08	
76	-3.80000e+00	4.227173e-08	
77	-3.85000e+00	4.201593e-08	
78	-3.90000e+00	4.176943e-08	
79	-3.95000e+00	4.153170e-08	
80	-4.00000e+00	4.130230e-08	
81	-4.05000e+00	4.108077e-08	
82	-4.10000e+00	4.086673e-08	
83	-4.15000e+00	4.065978e-08	
84	-4.20000e+00	4.045959e-08	
85	-4.25000e+00	4.026582e-08	
86	-4.30000e+00	4.007817e-08	
87	-4.35000e+00	3.989636e-08	
88	-4.40000e+00	3.972010e-08	
89	-4.45000e+00	3.954916e-08	
90	-4.50000e+00	3.938328e-08	
91	-4.55000e+00	3.922226e-08	
92	-4.60000e+00	3.906588e-08	
93	-4.65000e+00	3.891395e-08	
94	-4.70000e+00	3.876627e-08	
95	-4.75000e+00	3.862268e-08	
96	-4.80000e+00	3.848300e-08	
97	-4.85000e+00	3.834708e-08	
98	-4.90000e+00	3.821478e-08	
99	-4.95000e+00	3.808594e-08	
100	-5.00000e+00	3.796045e-08	
101	-5.05000e+00	3.783816e-08	
102	-5.10000e+00	3.771897e-08	
103	-5.15000e+00	3.760277e-08	
104	-5.20000e+00	3.748943e-08	
105	-5.25000e+00	3.737887e-08	
106	-5.30000e+00	3.727098e-08	
107	-5.35000e+00	3.716567e-08	
108	-5.40000e+00	3.706286e-08	
109	-5.45000e+00	3.696246e-08	
110	-5.50000e+00	3.686439e-08	
111	-5.55000e+00	3.676858e-08	
112	-5.60000e+00	3.667495e-08	

Index   v-sweep         rds             
--------------------------------------------------------------------------------
113	-5.65000e+00	3.658344e-08	
114	-5.70000e+00	3.649398e-08	
115	-5.75000e+00	3.640650e-08	
116	-5.80000e+00	3.632095e-08	
117	-5.85000e+00	3.623728e-08	
118	-5.90000e+00	3.615542e-08	
119	-5.95000e+00	3.607532e-08	
120	-6.00000e+00	3.599694e-08	
121	-6.05000e+00	3.592023e-08	
122	-6.10000e+00	3.584514e-08	
123	-6.15000e+00	3.577162e-08	
124	-6.20000e+00	3.569965e-08	
125	-6.25000e+00	3.562917e-08	
126	-6.30000e+00	3.556015e-08	
127	-6.35000e+00	3.549255e-08	
128	-6.40000e+00	3.542633e-08	
129	-6.45000e+00	3.536147e-08	
130	-6.50000e+00	3.529793e-08	
131	-6.55000e+00	3.523568e-08	
132	-6.60000e+00	3.517469e-08	
Reset re-loads circuit ***************************

Circuit: ***************************

Doing analysis at TEMP = 125.000000 and TNOM = 125.000000


No. of Data Rows : 133
                          ***************************
                          DC transfer characteristic  Mon Jan  9 13:58:53  2023
--------------------------------------------------------------------------------
Index   v-sweep         rds             
--------------------------------------------------------------------------------
0	0.000000e+00	8.985633e-06	
1	-5.00000e-02	8.795674e-06	
2	-1.00000e-01	8.605794e-06	
3	-1.50000e-01	8.415993e-06	
4	-2.00000e-01	8.226272e-06	
5	-2.50000e-01	8.036630e-06	
6	-3.00000e-01	7.847067e-06	
7	-3.50000e-01	7.657584e-06	
8	-4.00000e-01	7.468182e-06	
9	-4.50000e-01	7.278859e-06	
10	-5.00000e-01	7.089618e-06	
11	-5.50000e-01	6.900457e-06	
12	-6.00000e-01	6.711378e-06	
13	-6.50000e-01	6.522380e-06	
14	-7.00000e-01	6.333466e-06	
15	-7.50000e-01	6.144635e-06	
16	-8.00000e-01	5.955888e-06	
17	-8.50000e-01	5.767227e-06	
18	-9.00000e-01	5.578653e-06	
19	-9.50000e-01	5.390167e-06	
20	-1.00000e+00	5.201772e-06	
21	-1.05000e+00	5.013470e-06	
22	-1.10000e+00	4.825264e-06	
23	-1.15000e+00	4.637157e-06	
24	-1.20000e+00	4.449154e-06	
25	-1.25000e+00	4.261261e-06	
26	-1.30000e+00	4.073485e-06	
27	-1.35000e+00	3.885835e-06	
28	-1.40000e+00	3.698323e-06	
29	-1.45000e+00	3.510963e-06	
30	-1.50000e+00	3.323777e-06	
31	-1.55000e+00	3.136790e-06	
32	-1.60000e+00	2.950037e-06	
33	-1.65000e+00	2.763568e-06	
34	-1.70000e+00	2.577447e-06	
35	-1.75000e+00	2.391769e-06	
36	-1.80000e+00	2.206666e-06	
37	-1.85000e+00	2.022327e-06	
38	-1.90000e+00	1.839031e-06	
39	-1.95000e+00	1.657193e-06	
40	-2.00000e+00	1.477434e-06	
41	-2.05000e+00	1.300688e-06	
42	-2.10000e+00	1.128361e-06	
43	-2.15000e+00	9.625157e-07	
44	-2.20000e+00	8.060425e-07	
45	-2.25000e+00	6.626493e-07	
46	-2.30000e+00	5.364080e-07	
47	-2.35000e+00	4.307024e-07	
48	-2.40000e+00	3.469265e-07	
49	-2.45000e+00	2.838248e-07	
50	-2.50000e+00	2.380529e-07	
51	-2.55000e+00	2.054827e-07	
52	-2.60000e+00	1.823230e-07	
53	-2.65000e+00	1.656230e-07	
54	-2.70000e+00	1.532945e-07	

Index   v-sweep         rds             
--------------------------------------------------------------------------------
55	-2.75000e+00	1.439328e-07	
56	-2.80000e+00	1.366128e-07	
57	-2.85000e+00	1.307273e-07	
58	-2.90000e+00	1.258743e-07	
59	-2.95000e+00	1.217833e-07	
60	-3.00000e+00	1.182693e-07	
61	-3.05000e+00	1.152024e-07	
62	-3.10000e+00	1.124900e-07	
63	-3.15000e+00	1.100643e-07	
64	-3.20000e+00	1.078747e-07	
65	-3.25000e+00	1.058827e-07	
66	-3.30000e+00	1.040584e-07	
67	-3.35000e+00	1.023782e-07	
68	-3.40000e+00	1.008232e-07	
69	-3.45000e+00	9.937798e-08	
70	-3.50000e+00	9.802982e-08	
71	-3.55000e+00	9.676813e-08	
72	-3.60000e+00	9.558396e-08	
73	-3.65000e+00	9.446967e-08	
74	-3.70000e+00	9.341870e-08	
75	-3.75000e+00	9.242537e-08	
76	-3.80000e+00	9.148471e-08	
77	-3.85000e+00	9.059236e-08	
78	-3.90000e+00	8.974447e-08	
79	-3.95000e+00	8.893761e-08	
80	-4.00000e+00	8.816873e-08	
81	-4.05000e+00	8.743509e-08	
82	-4.10000e+00	8.673421e-08	
83	-4.15000e+00	8.606387e-08	
84	-4.20000e+00	8.542206e-08	
85	-4.25000e+00	8.480692e-08	
86	-4.30000e+00	8.421679e-08	
87	-4.35000e+00	8.365013e-08	
88	-4.40000e+00	8.310554e-08	
89	-4.45000e+00	8.258172e-08	
90	-4.50000e+00	8.207749e-08	
91	-4.55000e+00	8.159175e-08	
92	-4.60000e+00	8.112348e-08	
93	-4.65000e+00	8.067175e-08	
94	-4.70000e+00	8.023569e-08	
95	-4.75000e+00	7.981448e-08	
96	-4.80000e+00	7.940736e-08	
97	-4.85000e+00	7.901365e-08	
98	-4.90000e+00	7.863268e-08	
99	-4.95000e+00	7.826384e-08	
100	-5.00000e+00	7.790655e-08	
101	-5.05000e+00	7.756028e-08	
102	-5.10000e+00	7.722453e-08	
103	-5.15000e+00	7.689882e-08	
104	-5.20000e+00	7.658271e-08	
105	-5.25000e+00	7.627578e-08	
106	-5.30000e+00	7.597763e-08	
107	-5.35000e+00	7.568790e-08	
108	-5.40000e+00	7.540623e-08	
109	-5.45000e+00	7.513231e-08	
110	-5.50000e+00	7.486580e-08	
111	-5.55000e+00	7.460642e-08	
112	-5.60000e+00	7.435390e-08	

Index   v-sweep         rds             
--------------------------------------------------------------------------------
113	-5.65000e+00	7.410795e-08	
114	-5.70000e+00	7.386835e-08	
115	-5.75000e+00	7.363484e-08	
116	-5.80000e+00	7.340720e-08	
117	-5.85000e+00	7.318523e-08	
118	-5.90000e+00	7.296871e-08	
119	-5.95000e+00	7.275746e-08	
120	-6.00000e+00	7.255129e-08	
121	-6.05000e+00	7.235002e-08	
122	-6.10000e+00	7.215350e-08	
123	-6.15000e+00	7.196156e-08	
124	-6.20000e+00	7.177406e-08	
125	-6.25000e+00	7.159085e-08	
126	-6.30000e+00	7.141180e-08	
127	-6.35000e+00	7.123677e-08	
128	-6.40000e+00	7.106564e-08	
129	-6.45000e+00	7.089829e-08	
130	-6.50000e+00	7.073462e-08	
131	-6.55000e+00	7.057450e-08	
132	-6.60000e+00	7.041785e-08	
Reset re-loads circuit ***************************

Circuit: ***************************

Doing analysis at TEMP = 125.000000 and TNOM = 125.000000


No. of Data Rows : 133
                          ***************************
                          DC transfer characteristic  Mon Jan  9 13:58:53  2023
--------------------------------------------------------------------------------
Index   v-sweep         rds             
--------------------------------------------------------------------------------
0	0.000000e+00	1.115896e-05	
1	-5.00000e-02	1.097956e-05	
2	-1.00000e-01	1.080023e-05	
3	-1.50000e-01	1.062098e-05	
4	-2.00000e-01	1.044180e-05	
5	-2.50000e-01	1.026269e-05	
6	-3.00000e-01	1.008365e-05	
7	-3.50000e-01	9.904686e-06	
8	-4.00000e-01	9.725794e-06	
9	-4.50000e-01	9.546973e-06	
10	-5.00000e-01	9.368226e-06	
11	-5.50000e-01	9.189551e-06	
12	-6.00000e-01	9.010948e-06	
13	-6.50000e-01	8.832418e-06	
14	-7.00000e-01	8.653961e-06	
15	-7.50000e-01	8.475577e-06	
16	-8.00000e-01	8.297266e-06	
17	-8.50000e-01	8.119028e-06	
18	-9.00000e-01	7.940864e-06	
19	-9.50000e-01	7.762774e-06	
20	-1.00000e+00	7.584757e-06	
21	-1.05000e+00	7.406816e-06	
22	-1.10000e+00	7.228949e-06	
23	-1.15000e+00	7.051157e-06	
24	-1.20000e+00	6.873441e-06	
25	-1.25000e+00	6.695802e-06	
26	-1.30000e+00	6.518240e-06	
27	-1.35000e+00	6.340756e-06	
28	-1.40000e+00	6.163351e-06	
29	-1.45000e+00	5.986027e-06	
30	-1.50000e+00	5.808784e-06	
31	-1.55000e+00	5.631625e-06	
32	-1.60000e+00	5.454551e-06	
33	-1.65000e+00	5.277565e-06	
34	-1.70000e+00	5.100670e-06	
35	-1.75000e+00	4.923869e-06	
36	-1.80000e+00	4.747166e-06	
37	-1.85000e+00	4.570566e-06	
38	-1.90000e+00	4.394076e-06	
39	-1.95000e+00	4.217703e-06	
40	-2.00000e+00	4.041456e-06	
41	-2.05000e+00	3.865347e-06	
42	-2.10000e+00	3.689392e-06	
43	-2.15000e+00	3.513609e-06	
44	-2.20000e+00	3.338022e-06	
45	-2.25000e+00	3.162664e-06	
46	-2.30000e+00	2.987574e-06	
47	-2.35000e+00	2.812809e-06	
48	-2.40000e+00	2.638441e-06	
49	-2.45000e+00	2.464568e-06	
50	-2.50000e+00	2.291327e-06	
51	-2.55000e+00	2.118904e-06	
52	-2.60000e+00	1.947563e-06	
53	-2.65000e+00	1.777674e-06	
54	-2.70000e+00	1.609763e-06	

Index   v-sweep         rds             
--------------------------------------------------------------------------------
55	-2.75000e+00	1.444579e-06	
56	-2.80000e+00	1.283185e-06	
57	-2.85000e+00	1.127054e-06	
58	-2.90000e+00	9.781681e-07	
59	-2.95000e+00	8.390250e-07	
60	-3.00000e+00	7.124731e-07	
61	-3.05000e+00	6.012562e-07	
62	-3.10000e+00	5.073186e-07	
63	-3.15000e+00	4.311554e-07	
64	-3.20000e+00	3.716112e-07	
65	-3.25000e+00	3.262811e-07	
66	-3.30000e+00	2.922418e-07	
67	-3.35000e+00	2.666993e-07	
68	-3.40000e+00	2.473385e-07	
69	-3.45000e+00	2.324038e-07	
70	-3.50000e+00	2.206313e-07	
71	-3.55000e+00	2.111358e-07	
72	-3.60000e+00	2.033036e-07	
73	-3.65000e+00	1.967090e-07	
74	-3.70000e+00	1.910542e-07	
75	-3.75000e+00	1.861280e-07	
76	-3.80000e+00	1.817784e-07	
77	-3.85000e+00	1.778937e-07	
78	-3.90000e+00	1.743909e-07	
79	-3.95000e+00	1.712066e-07	
80	-4.00000e+00	1.682919e-07	
81	-4.05000e+00	1.656084e-07	
82	-4.10000e+00	1.631252e-07	
83	-4.15000e+00	1.608174e-07	
84	-4.20000e+00	1.586645e-07	
85	-4.25000e+00	1.566494e-07	
86	-4.30000e+00	1.547578e-07	
87	-4.35000e+00	1.529775e-07	
88	-4.40000e+00	1.512980e-07	
89	-4.45000e+00	1.497102e-07	
90	-4.50000e+00	1.482062e-07	
91	-4.55000e+00	1.467791e-07	
92	-4.60000e+00	1.454227e-07	
93	-4.65000e+00	1.441317e-07	
94	-4.70000e+00	1.429011e-07	
95	-4.75000e+00	1.417267e-07	
96	-4.80000e+00	1.406045e-07	
97	-4.85000e+00	1.395309e-07	
98	-4.90000e+00	1.385028e-07	
99	-4.95000e+00	1.375172e-07	
100	-5.00000e+00	1.365715e-07	
101	-5.05000e+00	1.356633e-07	
102	-5.10000e+00	1.347902e-07	
103	-5.15000e+00	1.339504e-07	
104	-5.20000e+00	1.331418e-07	
105	-5.25000e+00	1.323628e-07	
106	-5.30000e+00	1.316116e-07	
107	-5.35000e+00	1.308869e-07	
108	-5.40000e+00	1.301873e-07	
109	-5.45000e+00	1.295114e-07	
110	-5.50000e+00	1.288580e-07	
111	-5.55000e+00	1.282261e-07	
112	-5.60000e+00	1.276145e-07	

Index   v-sweep         rds             
--------------------------------------------------------------------------------
113	-5.65000e+00	1.270224e-07	
114	-5.70000e+00	1.264488e-07	
115	-5.75000e+00	1.258928e-07	
116	-5.80000e+00	1.253536e-07	
117	-5.85000e+00	1.248305e-07	
118	-5.90000e+00	1.243228e-07	
119	-5.95000e+00	1.238298e-07	
120	-6.00000e+00	1.233509e-07	
121	-6.05000e+00	1.228855e-07	
122	-6.10000e+00	1.224330e-07	
123	-6.15000e+00	1.219929e-07	
124	-6.20000e+00	1.215646e-07	
125	-6.25000e+00	1.211479e-07	
126	-6.30000e+00	1.207421e-07	
127	-6.35000e+00	1.203468e-07	
128	-6.40000e+00	1.199617e-07	
129	-6.45000e+00	1.195864e-07	
130	-6.50000e+00	1.192205e-07	
131	-6.55000e+00	1.188637e-07	
132	-6.60000e+00	1.185157e-07	
Reset re-loads circuit ***************************

Circuit: ***************************

Doing analysis at TEMP = 125.000000 and TNOM = 125.000000


No. of Data Rows : 133
                          ***************************
                          DC transfer characteristic  Mon Jan  9 13:58:53  2023
--------------------------------------------------------------------------------
Index   v-sweep         rds             
--------------------------------------------------------------------------------
0	0.000000e+00	1.317075e-05	
1	-5.00000e-02	1.300039e-05	
2	-1.00000e-01	1.283010e-05	
3	-1.50000e-01	1.265988e-05	
4	-2.00000e-01	1.248973e-05	
5	-2.50000e-01	1.231964e-05	
6	-3.00000e-01	1.214962e-05	
7	-3.50000e-01	1.197966e-05	
8	-4.00000e-01	1.180977e-05	
9	-4.50000e-01	1.163995e-05	
10	-5.00000e-01	1.147020e-05	
11	-5.50000e-01	1.130051e-05	
12	-6.00000e-01	1.113090e-05	
13	-6.50000e-01	1.096134e-05	
14	-7.00000e-01	1.079186e-05	
15	-7.50000e-01	1.062244e-05	
16	-8.00000e-01	1.045309e-05	
17	-8.50000e-01	1.028380e-05	
18	-9.00000e-01	1.011459e-05	
19	-9.50000e-01	9.945438e-06	
20	-1.00000e+00	9.776355e-06	
21	-1.05000e+00	9.607340e-06	
22	-1.10000e+00	9.438392e-06	
23	-1.15000e+00	9.269512e-06	
24	-1.20000e+00	9.100699e-06	
25	-1.25000e+00	8.931955e-06	
26	-1.30000e+00	8.763278e-06	
27	-1.35000e+00	8.594669e-06	
28	-1.40000e+00	8.426128e-06	
29	-1.45000e+00	8.257656e-06	
30	-1.50000e+00	8.089252e-06	
31	-1.55000e+00	7.920918e-06	
32	-1.60000e+00	7.752653e-06	
33	-1.65000e+00	7.584458e-06	
34	-1.70000e+00	7.416333e-06	
35	-1.75000e+00	7.248279e-06	
36	-1.80000e+00	7.080296e-06	
37	-1.85000e+00	6.912386e-06	
38	-1.90000e+00	6.744548e-06	
39	-1.95000e+00	6.576783e-06	
40	-2.00000e+00	6.409094e-06	
41	-2.05000e+00	6.241480e-06	
42	-2.10000e+00	6.073943e-06	
43	-2.15000e+00	5.906485e-06	
44	-2.20000e+00	5.739108e-06	
45	-2.25000e+00	5.571813e-06	
46	-2.30000e+00	5.404604e-06	
47	-2.35000e+00	5.237483e-06	
48	-2.40000e+00	5.070453e-06	
49	-2.45000e+00	4.903520e-06	
50	-2.50000e+00	4.736688e-06	
51	-2.55000e+00	4.569963e-06	
52	-2.60000e+00	4.403352e-06	
53	-2.65000e+00	4.236864e-06	
54	-2.70000e+00	4.070510e-06	

Index   v-sweep         rds             
--------------------------------------------------------------------------------
55	-2.75000e+00	3.904304e-06	
56	-2.80000e+00	3.738262e-06	
57	-2.85000e+00	3.572404e-06	
58	-2.90000e+00	3.406758e-06	
59	-2.95000e+00	3.241354e-06	
60	-3.00000e+00	3.076237e-06	
61	-3.05000e+00	2.911459e-06	
62	-3.10000e+00	2.747093e-06	
63	-3.15000e+00	2.583232e-06	
64	-3.20000e+00	2.419998e-06	
65	-3.25000e+00	2.257558e-06	
66	-3.30000e+00	2.096135e-06	
67	-3.35000e+00	1.936031e-06	
68	-3.40000e+00	1.777660e-06	
69	-3.45000e+00	1.621588e-06	
70	-3.50000e+00	1.468581e-06	
71	-3.55000e+00	1.319673e-06	
72	-3.60000e+00	1.176217e-06	
73	-3.65000e+00	1.039922e-06	
74	-3.70000e+00	9.128042e-07	
75	-3.75000e+00	7.970161e-07	
76	-3.80000e+00	6.945108e-07	
77	-3.85000e+00	6.066032e-07	
78	-3.90000e+00	5.335949e-07	
79	-3.95000e+00	4.746670e-07	
80	-4.00000e+00	4.281099e-07	
81	-4.05000e+00	3.917621e-07	
82	-4.10000e+00	3.634421e-07	
83	-4.15000e+00	3.412297e-07	
84	-4.20000e+00	3.235785e-07	
85	-4.25000e+00	3.093113e-07	
86	-4.30000e+00	2.975618e-07	
87	-4.35000e+00	2.877034e-07	
88	-4.40000e+00	2.792855e-07	
89	-4.45000e+00	2.719830e-07	
90	-4.50000e+00	2.655598e-07	
91	-4.55000e+00	2.598420e-07	
92	-4.60000e+00	2.547001e-07	
93	-4.65000e+00	2.500360e-07	
94	-4.70000e+00	2.457739e-07	
95	-4.75000e+00	2.418550e-07	
96	-4.80000e+00	2.382323e-07	
97	-4.85000e+00	2.348679e-07	
98	-4.90000e+00	2.317311e-07	
99	-4.95000e+00	2.287963e-07	
100	-5.00000e+00	2.260421e-07	
101	-5.05000e+00	2.234503e-07	
102	-5.10000e+00	2.210056e-07	
103	-5.15000e+00	2.186946e-07	
104	-5.20000e+00	2.165056e-07	
105	-5.25000e+00	2.144285e-07	
106	-5.30000e+00	2.124544e-07	
107	-5.35000e+00	2.105753e-07	
108	-5.40000e+00	2.087842e-07	
109	-5.45000e+00	2.070746e-07	
110	-5.50000e+00	2.054410e-07	
111	-5.55000e+00	2.038782e-07	
112	-5.60000e+00	2.023815e-07	

Index   v-sweep         rds             
--------------------------------------------------------------------------------
113	-5.65000e+00	2.009467e-07	
114	-5.70000e+00	1.995698e-07	
115	-5.75000e+00	1.982475e-07	
116	-5.80000e+00	1.969764e-07	
117	-5.85000e+00	1.957535e-07	
118	-5.90000e+00	1.945762e-07	
119	-5.95000e+00	1.934418e-07	
120	-6.00000e+00	1.923481e-07	
121	-6.05000e+00	1.912928e-07	
122	-6.10000e+00	1.902740e-07	
123	-6.15000e+00	1.892898e-07	
124	-6.20000e+00	1.883384e-07	
125	-6.25000e+00	1.874182e-07	
126	-6.30000e+00	1.865276e-07	
127	-6.35000e+00	1.856654e-07	
128	-6.40000e+00	1.848301e-07	
129	-6.45000e+00	1.840205e-07	
130	-6.50000e+00	1.832354e-07	
131	-6.55000e+00	1.824737e-07	
132	-6.60000e+00	1.817344e-07	
Reset re-loads circuit ***************************

Circuit: ***************************

Note: No ".plot", ".print", or ".fourier" lines; no simulations run
