
Note: Compatibility modes selected: hs

Warning: m=xx on .subckt line will override multiplier m hierarchy!


Circuit: ***************************

Doing analysis at TEMP = 25.000000 and TNOM = 25.000000


No. of Data Rows : 133
                          ***************************
                          DC transfer characteristic  Mon Jan  9 13:58:51  2023
--------------------------------------------------------------------------------
Index   v-sweep         rds             
--------------------------------------------------------------------------------
0	0.000000e+00	5.739644e-06	
1	-5.00000e-02	3.179994e-06	
2	-1.00000e-01	1.104930e-06	
3	-1.50000e-01	2.393506e-07	
4	-2.00000e-01	6.493527e-08	
5	-2.50000e-01	2.720375e-08	
6	-3.00000e-01	1.567790e-08	
7	-3.50000e-01	1.103661e-08	
8	-4.00000e-01	8.754854e-09	
9	-4.50000e-01	7.455567e-09	
10	-5.00000e-01	6.629389e-09	
11	-5.50000e-01	6.058169e-09	
12	-6.00000e-01	5.637220e-09	
13	-6.50000e-01	5.311511e-09	
14	-7.00000e-01	5.049871e-09	
15	-7.50000e-01	4.833504e-09	
16	-8.00000e-01	4.650456e-09	
17	-8.50000e-01	4.492776e-09	
18	-9.00000e-01	4.354960e-09	
19	-9.50000e-01	4.233072e-09	
20	-1.00000e+00	4.124211e-09	
21	-1.05000e+00	4.026184e-09	
22	-1.10000e+00	3.937296e-09	
23	-1.15000e+00	3.856213e-09	
24	-1.20000e+00	3.781866e-09	
25	-1.25000e+00	3.713384e-09	
26	-1.30000e+00	3.650052e-09	
27	-1.35000e+00	3.591273e-09	
28	-1.40000e+00	3.536544e-09	
29	-1.45000e+00	3.485437e-09	
30	-1.50000e+00	3.437588e-09	
31	-1.55000e+00	3.392681e-09	
32	-1.60000e+00	3.350440e-09	
33	-1.65000e+00	3.310627e-09	
34	-1.70000e+00	3.273032e-09	
35	-1.75000e+00	3.237467e-09	
36	-1.80000e+00	3.203769e-09	
37	-1.85000e+00	3.171790e-09	
38	-1.90000e+00	3.141398e-09	
39	-1.95000e+00	3.112477e-09	
40	-2.00000e+00	3.084919e-09	
41	-2.05000e+00	3.058628e-09	
42	-2.10000e+00	3.033518e-09	
43	-2.15000e+00	3.009510e-09	
44	-2.20000e+00	2.986532e-09	
45	-2.25000e+00	2.964518e-09	
46	-2.30000e+00	2.943407e-09	
47	-2.35000e+00	2.923146e-09	
48	-2.40000e+00	2.903682e-09	
49	-2.45000e+00	2.884970e-09	
50	-2.50000e+00	2.866967e-09	
51	-2.55000e+00	2.849632e-09	
52	-2.60000e+00	2.832929e-09	
53	-2.65000e+00	2.816824e-09	
54	-2.70000e+00	2.801285e-09	

Index   v-sweep         rds             
--------------------------------------------------------------------------------
55	-2.75000e+00	2.786283e-09	
56	-2.80000e+00	2.771790e-09	
57	-2.85000e+00	2.757781e-09	
58	-2.90000e+00	2.744232e-09	
59	-2.95000e+00	2.731121e-09	
60	-3.00000e+00	2.718427e-09	
61	-3.05000e+00	2.706130e-09	
62	-3.10000e+00	2.694211e-09	
63	-3.15000e+00	2.682655e-09	
64	-3.20000e+00	2.671444e-09	
65	-3.25000e+00	2.660564e-09	
66	-3.30000e+00	2.650000e-09	
67	-3.35000e+00	2.639739e-09	
68	-3.40000e+00	2.629768e-09	
69	-3.45000e+00	2.620075e-09	
70	-3.50000e+00	2.610649e-09	
71	-3.55000e+00	2.601479e-09	
72	-3.60000e+00	2.592555e-09	
73	-3.65000e+00	2.583868e-09	
74	-3.70000e+00	2.575408e-09	
75	-3.75000e+00	2.567168e-09	
76	-3.80000e+00	2.559138e-09	
77	-3.85000e+00	2.551311e-09	
78	-3.90000e+00	2.543679e-09	
79	-3.95000e+00	2.536237e-09	
80	-4.00000e+00	2.528977e-09	
81	-4.05000e+00	2.521893e-09	
82	-4.10000e+00	2.514979e-09	
83	-4.15000e+00	2.508230e-09	
84	-4.20000e+00	2.501639e-09	
85	-4.25000e+00	2.495203e-09	
86	-4.30000e+00	2.488915e-09	
87	-4.35000e+00	2.482772e-09	
88	-4.40000e+00	2.476768e-09	
89	-4.45000e+00	2.470900e-09	
90	-4.50000e+00	2.465164e-09	
91	-4.55000e+00	2.459555e-09	
92	-4.60000e+00	2.454070e-09	
93	-4.65000e+00	2.448706e-09	
94	-4.70000e+00	2.443458e-09	
95	-4.75000e+00	2.438325e-09	
96	-4.80000e+00	2.433302e-09	
97	-4.85000e+00	2.428387e-09	
98	-4.90000e+00	2.423577e-09	
99	-4.95000e+00	2.418869e-09	
100	-5.00000e+00	2.414260e-09	
101	-5.05000e+00	2.409749e-09	
102	-5.10000e+00	2.405332e-09	
103	-5.15000e+00	2.401008e-09	
104	-5.20000e+00	2.396774e-09	
105	-5.25000e+00	2.392628e-09	
106	-5.30000e+00	2.388568e-09	
107	-5.35000e+00	2.384591e-09	
108	-5.40000e+00	2.380697e-09	
109	-5.45000e+00	2.376884e-09	
110	-5.50000e+00	2.373149e-09	
111	-5.55000e+00	2.369490e-09	
112	-5.60000e+00	2.365907e-09	

Index   v-sweep         rds             
--------------------------------------------------------------------------------
113	-5.65000e+00	2.362398e-09	
114	-5.70000e+00	2.358961e-09	
115	-5.75000e+00	2.355594e-09	
116	-5.80000e+00	2.352297e-09	
117	-5.85000e+00	2.349068e-09	
118	-5.90000e+00	2.345905e-09	
119	-5.95000e+00	2.342808e-09	
120	-6.00000e+00	2.339775e-09	
121	-6.05000e+00	2.336804e-09	
122	-6.10000e+00	2.333895e-09	
123	-6.15000e+00	2.331047e-09	
124	-6.20000e+00	2.328259e-09	
125	-6.25000e+00	2.325529e-09	
126	-6.30000e+00	2.322856e-09	
127	-6.35000e+00	2.320240e-09	
128	-6.40000e+00	2.317679e-09	
129	-6.45000e+00	2.315173e-09	
130	-6.50000e+00	2.312720e-09	
131	-6.55000e+00	2.310320e-09	
132	-6.60000e+00	2.307972e-09	
Reset re-loads circuit ***************************

Circuit: ***************************

Doing analysis at TEMP = 25.000000 and TNOM = 25.000000


No. of Data Rows : 133
                          ***************************
                          DC transfer characteristic  Mon Jan  9 13:58:51  2023
--------------------------------------------------------------------------------
Index   v-sweep         rds             
--------------------------------------------------------------------------------
0	0.000000e+00	5.304938e-05	
1	-5.00000e-02	4.972162e-05	
2	-1.00000e-01	4.639802e-05	
3	-1.50000e-01	4.307876e-05	
4	-2.00000e-01	3.976415e-05	
5	-2.50000e-01	3.645461e-05	
6	-3.00000e-01	3.315085e-05	
7	-3.50000e-01	2.985399e-05	
8	-4.00000e-01	2.656596e-05	
9	-4.50000e-01	2.329013e-05	
10	-5.00000e-01	2.003273e-05	
11	-5.50000e-01	1.680569e-05	
12	-6.00000e-01	1.363295e-05	
13	-6.50000e-01	1.056344e-05	
14	-7.00000e-01	7.694286e-06	
15	-7.50000e-01	5.193122e-06	
16	-8.00000e-01	3.261044e-06	
17	-8.50000e-01	1.986736e-06	
18	-9.00000e-01	1.254256e-06	
19	-9.50000e-01	8.595084e-07	
20	-1.00000e+00	6.447149e-07	
21	-1.05000e+00	5.214306e-07	
22	-1.10000e+00	4.455879e-07	
23	-1.15000e+00	3.955767e-07	
24	-1.20000e+00	3.604780e-07	
25	-1.25000e+00	3.345066e-07	
26	-1.30000e+00	3.144338e-07	
27	-1.35000e+00	2.983639e-07	
28	-1.40000e+00	2.851292e-07	
29	-1.45000e+00	2.739790e-07	
30	-1.50000e+00	2.644109e-07	
31	-1.55000e+00	2.560770e-07	
32	-1.60000e+00	2.487286e-07	
33	-1.65000e+00	2.421828e-07	
34	-1.70000e+00	2.363019e-07	
35	-1.75000e+00	2.309800e-07	
36	-1.80000e+00	2.261339e-07	
37	-1.85000e+00	2.216971e-07	
38	-1.90000e+00	2.176159e-07	
39	-1.95000e+00	2.138462e-07	
40	-2.00000e+00	2.103512e-07	
41	-2.05000e+00	2.071002e-07	
42	-2.10000e+00	2.040671e-07	
43	-2.15000e+00	2.012295e-07	
44	-2.20000e+00	1.985683e-07	
45	-2.25000e+00	1.960668e-07	
46	-2.30000e+00	1.937105e-07	
47	-2.35000e+00	1.914866e-07	
48	-2.40000e+00	1.893840e-07	
49	-2.45000e+00	1.873928e-07	
50	-2.50000e+00	1.855039e-07	
51	-2.55000e+00	1.837096e-07	
52	-2.60000e+00	1.820027e-07	
53	-2.65000e+00	1.803770e-07	
54	-2.70000e+00	1.788265e-07	

Index   v-sweep         rds             
--------------------------------------------------------------------------------
55	-2.75000e+00	1.773462e-07	
56	-2.80000e+00	1.759312e-07	
57	-2.85000e+00	1.745773e-07	
58	-2.90000e+00	1.732806e-07	
59	-2.95000e+00	1.720375e-07	
60	-3.00000e+00	1.708446e-07	
61	-3.05000e+00	1.696990e-07	
62	-3.10000e+00	1.685979e-07	
63	-3.15000e+00	1.675386e-07	
64	-3.20000e+00	1.665190e-07	
65	-3.25000e+00	1.655367e-07	
66	-3.30000e+00	1.645897e-07	
67	-3.35000e+00	1.636762e-07	
68	-3.40000e+00	1.627943e-07	
69	-3.45000e+00	1.619426e-07	
70	-3.50000e+00	1.611194e-07	
71	-3.55000e+00	1.603233e-07	
72	-3.60000e+00	1.595530e-07	
73	-3.65000e+00	1.588074e-07	
74	-3.70000e+00	1.580851e-07	
75	-3.75000e+00	1.573852e-07	
76	-3.80000e+00	1.567066e-07	
77	-3.85000e+00	1.560484e-07	
78	-3.90000e+00	1.554097e-07	
79	-3.95000e+00	1.547895e-07	
80	-4.00000e+00	1.541872e-07	
81	-4.05000e+00	1.536020e-07	
82	-4.10000e+00	1.530331e-07	
83	-4.15000e+00	1.524799e-07	
84	-4.20000e+00	1.519418e-07	
85	-4.25000e+00	1.514182e-07	
86	-4.30000e+00	1.509085e-07	
87	-4.35000e+00	1.504121e-07	
88	-4.40000e+00	1.499286e-07	
89	-4.45000e+00	1.494575e-07	
90	-4.50000e+00	1.489983e-07	
91	-4.55000e+00	1.485506e-07	
92	-4.60000e+00	1.481141e-07	
93	-4.65000e+00	1.476882e-07	
94	-4.70000e+00	1.472726e-07	
95	-4.75000e+00	1.468671e-07	
96	-4.80000e+00	1.464711e-07	
97	-4.85000e+00	1.460846e-07	
98	-4.90000e+00	1.457070e-07	
99	-4.95000e+00	1.453382e-07	
100	-5.00000e+00	1.449778e-07	
101	-5.05000e+00	1.446256e-07	
102	-5.10000e+00	1.442814e-07	
103	-5.15000e+00	1.439449e-07	
104	-5.20000e+00	1.436159e-07	
105	-5.25000e+00	1.432941e-07	
106	-5.30000e+00	1.429794e-07	
107	-5.35000e+00	1.426716e-07	
108	-5.40000e+00	1.423704e-07	
109	-5.45000e+00	1.420757e-07	
110	-5.50000e+00	1.417873e-07	
111	-5.55000e+00	1.415051e-07	
112	-5.60000e+00	1.412288e-07	

Index   v-sweep         rds             
--------------------------------------------------------------------------------
113	-5.65000e+00	1.409584e-07	
114	-5.70000e+00	1.406937e-07	
115	-5.75000e+00	1.404345e-07	
116	-5.80000e+00	1.401807e-07	
117	-5.85000e+00	1.399322e-07	
118	-5.90000e+00	1.396889e-07	
119	-5.95000e+00	1.394506e-07	
120	-6.00000e+00	1.392172e-07	
121	-6.05000e+00	1.389886e-07	
122	-6.10000e+00	1.387647e-07	
123	-6.15000e+00	1.385454e-07	
124	-6.20000e+00	1.383307e-07	
125	-6.25000e+00	1.381203e-07	
126	-6.30000e+00	1.379142e-07	
127	-6.35000e+00	1.377124e-07	
128	-6.40000e+00	1.375147e-07	
129	-6.45000e+00	1.373210e-07	
130	-6.50000e+00	1.371314e-07	
131	-6.55000e+00	1.369456e-07	
132	-6.60000e+00	1.367637e-07	
Reset re-loads circuit ***************************

Circuit: ***************************

Doing analysis at TEMP = 25.000000 and TNOM = 25.000000


No. of Data Rows : 133
                          ***************************
                          DC transfer characteristic  Mon Jan  9 13:58:52  2023
--------------------------------------------------------------------------------
Index   v-sweep         rds             
--------------------------------------------------------------------------------
0	0.000000e+00	9.269892e-05	
1	-5.00000e-02	8.961955e-05	
2	-1.00000e-01	8.654337e-05	
3	-1.50000e-01	8.347038e-05	
4	-2.00000e-01	8.040061e-05	
5	-2.50000e-01	7.733406e-05	
6	-3.00000e-01	7.427076e-05	
7	-3.50000e-01	7.121073e-05	
8	-4.00000e-01	6.815400e-05	
9	-4.50000e-01	6.510062e-05	
10	-5.00000e-01	6.205064e-05	
11	-5.50000e-01	5.900415e-05	
12	-6.00000e-01	5.596123e-05	
13	-6.50000e-01	5.292203e-05	
14	-7.00000e-01	4.988673e-05	
15	-7.50000e-01	4.685558e-05	
16	-8.00000e-01	4.382893e-05	
17	-8.50000e-01	4.080728e-05	
18	-9.00000e-01	3.779135e-05	
19	-9.50000e-01	3.478219e-05	
20	-1.00000e+00	3.178140e-05	
21	-1.05000e+00	2.879142e-05	
22	-1.10000e+00	2.581611e-05	
23	-1.15000e+00	2.286170e-05	
24	-1.20000e+00	1.993844e-05	
25	-1.25000e+00	1.706353e-05	
26	-1.30000e+00	1.426582e-05	
27	-1.35000e+00	1.159268e-05	
28	-1.40000e+00	9.116814e-06	
29	-1.45000e+00	6.934524e-06	
30	-1.50000e+00	5.141523e-06	
31	-1.55000e+00	3.786340e-06	
32	-1.60000e+00	2.838884e-06	
33	-1.65000e+00	2.210290e-06	
34	-1.70000e+00	1.800691e-06	
35	-1.75000e+00	1.530620e-06	
36	-1.80000e+00	1.346976e-06	
37	-1.85000e+00	1.217081e-06	
38	-1.90000e+00	1.121379e-06	
39	-1.95000e+00	1.048139e-06	
40	-2.00000e+00	9.901828e-07	
41	-2.05000e+00	9.429991e-07	
42	-2.10000e+00	9.036637e-07	
43	-2.15000e+00	8.702214e-07	
44	-2.20000e+00	8.413251e-07	
45	-2.25000e+00	8.160193e-07	
46	-2.30000e+00	7.936088e-07	
47	-2.35000e+00	7.735749e-07	
48	-2.40000e+00	7.555226e-07	
49	-2.45000e+00	7.391449e-07	
50	-2.50000e+00	7.241987e-07	
51	-2.55000e+00	7.104892e-07	
52	-2.60000e+00	6.978573e-07	
53	-2.65000e+00	6.861719e-07	
54	-2.70000e+00	6.753236e-07	

Index   v-sweep         rds             
--------------------------------------------------------------------------------
55	-2.75000e+00	6.652204e-07	
56	-2.80000e+00	6.557838e-07	
57	-2.85000e+00	6.469468e-07	
58	-2.90000e+00	6.386513e-07	
59	-2.95000e+00	6.308471e-07	
60	-3.00000e+00	6.234900e-07	
61	-3.05000e+00	6.165415e-07	
62	-3.10000e+00	6.099673e-07	
63	-3.15000e+00	6.037371e-07	
64	-3.20000e+00	5.978239e-07	
65	-3.25000e+00	5.922035e-07	
66	-3.30000e+00	5.868542e-07	
67	-3.35000e+00	5.817565e-07	
68	-3.40000e+00	5.768927e-07	
69	-3.45000e+00	5.722468e-07	
70	-3.50000e+00	5.678042e-07	
71	-3.55000e+00	5.635517e-07	
72	-3.60000e+00	5.594772e-07	
73	-3.65000e+00	5.555696e-07	
74	-3.70000e+00	5.518188e-07	
75	-3.75000e+00	5.482153e-07	
76	-3.80000e+00	5.447508e-07	
77	-3.85000e+00	5.414171e-07	
78	-3.90000e+00	5.382069e-07	
79	-3.95000e+00	5.351135e-07	
80	-4.00000e+00	5.321306e-07	
81	-4.05000e+00	5.292524e-07	
82	-4.10000e+00	5.264733e-07	
83	-4.15000e+00	5.237884e-07	
84	-4.20000e+00	5.211929e-07	
85	-4.25000e+00	5.186824e-07	
86	-4.30000e+00	5.162529e-07	
87	-4.35000e+00	5.139004e-07	
88	-4.40000e+00	5.116214e-07	
89	-4.45000e+00	5.094125e-07	
90	-4.50000e+00	5.072704e-07	
91	-4.55000e+00	5.051923e-07	
92	-4.60000e+00	5.031753e-07	
93	-4.65000e+00	5.012168e-07	
94	-4.70000e+00	4.993142e-07	
95	-4.75000e+00	4.974654e-07	
96	-4.80000e+00	4.956679e-07	
97	-4.85000e+00	4.939198e-07	
98	-4.90000e+00	4.922191e-07	
99	-4.95000e+00	4.905639e-07	
100	-5.00000e+00	4.889525e-07	
101	-5.05000e+00	4.873831e-07	
102	-5.10000e+00	4.858542e-07	
103	-5.15000e+00	4.843643e-07	
104	-5.20000e+00	4.829120e-07	
105	-5.25000e+00	4.814959e-07	
106	-5.30000e+00	4.801147e-07	
107	-5.35000e+00	4.787672e-07	
108	-5.40000e+00	4.774524e-07	
109	-5.45000e+00	4.761689e-07	
110	-5.50000e+00	4.749159e-07	
111	-5.55000e+00	4.736923e-07	
112	-5.60000e+00	4.724971e-07	

Index   v-sweep         rds             
--------------------------------------------------------------------------------
113	-5.65000e+00	4.713296e-07	
114	-5.70000e+00	4.701887e-07	
115	-5.75000e+00	4.690736e-07	
116	-5.80000e+00	4.679837e-07	
117	-5.85000e+00	4.669181e-07	
118	-5.90000e+00	4.658762e-07	
119	-5.95000e+00	4.648571e-07	
120	-6.00000e+00	4.638604e-07	
121	-6.05000e+00	4.628854e-07	
122	-6.10000e+00	4.619314e-07	
123	-6.15000e+00	4.609979e-07	
124	-6.20000e+00	4.600843e-07	
125	-6.25000e+00	4.591902e-07	
126	-6.30000e+00	4.583151e-07	
127	-6.35000e+00	4.574583e-07	
128	-6.40000e+00	4.566196e-07	
129	-6.45000e+00	4.557984e-07	
130	-6.50000e+00	4.549943e-07	
131	-6.55000e+00	4.542069e-07	
132	-6.60000e+00	4.534359e-07	
Reset re-loads circuit ***************************

Circuit: ***************************

Doing analysis at TEMP = 25.000000 and TNOM = 25.000000


No. of Data Rows : 133
                          ***************************
                          DC transfer characteristic  Mon Jan  9 13:58:52  2023
--------------------------------------------------------------------------------
Index   v-sweep         rds             
--------------------------------------------------------------------------------
0	0.000000e+00	1.254438e-04	
1	-5.00000e-02	1.226186e-04	
2	-1.00000e-01	1.197962e-04	
3	-1.50000e-01	1.169764e-04	
4	-2.00000e-01	1.141594e-04	
5	-2.50000e-01	1.113450e-04	
6	-3.00000e-01	1.085334e-04	
7	-3.50000e-01	1.057245e-04	
8	-4.00000e-01	1.029183e-04	
9	-4.50000e-01	1.001148e-04	
10	-5.00000e-01	9.731403e-05	
11	-5.50000e-01	9.451600e-05	
12	-6.00000e-01	9.172069e-05	
13	-6.50000e-01	8.892813e-05	
14	-7.00000e-01	8.613832e-05	
15	-7.50000e-01	8.335127e-05	
16	-8.00000e-01	8.056701e-05	
17	-8.50000e-01	7.778554e-05	
18	-9.00000e-01	7.500691e-05	
19	-9.50000e-01	7.223113e-05	
20	-1.00000e+00	6.945826e-05	
21	-1.05000e+00	6.668833e-05	
22	-1.10000e+00	6.392142e-05	
23	-1.15000e+00	6.115759e-05	
24	-1.20000e+00	5.839697e-05	
25	-1.25000e+00	5.563967e-05	
26	-1.30000e+00	5.288587e-05	
27	-1.35000e+00	5.013578e-05	
28	-1.40000e+00	4.738972e-05	
29	-1.45000e+00	4.464807e-05	
30	-1.50000e+00	4.191138e-05	
31	-1.55000e+00	3.918039e-05	
32	-1.60000e+00	3.645614e-05	
33	-1.65000e+00	3.374010e-05	
34	-1.70000e+00	3.103439e-05	
35	-1.75000e+00	2.834212e-05	
36	-1.80000e+00	2.566793e-05	
37	-1.85000e+00	2.301877e-05	
38	-1.90000e+00	2.040527e-05	
39	-1.95000e+00	1.784365e-05	
40	-2.00000e+00	1.535842e-05	
41	-2.05000e+00	1.298545e-05	
42	-2.10000e+00	1.077398e-05	
43	-2.15000e+00	8.783883e-06	
44	-2.20000e+00	7.074097e-06	
45	-2.25000e+00	5.682738e-06	
46	-2.30000e+00	4.609938e-06	
47	-2.35000e+00	3.817707e-06	
48	-2.40000e+00	3.247026e-06	
49	-2.45000e+00	2.837959e-06	
50	-2.50000e+00	2.541363e-06	
51	-2.55000e+00	2.321529e-06	
52	-2.60000e+00	2.154122e-06	
53	-2.65000e+00	2.023018e-06	
54	-2.70000e+00	1.917592e-06	

Index   v-sweep         rds             
--------------------------------------------------------------------------------
55	-2.75000e+00	1.830783e-06	
56	-2.80000e+00	1.757819e-06	
57	-2.85000e+00	1.695410e-06	
58	-2.90000e+00	1.641235e-06	
59	-2.95000e+00	1.593618e-06	
60	-3.00000e+00	1.551326e-06	
61	-3.05000e+00	1.513425e-06	
62	-3.10000e+00	1.479203e-06	
63	-3.15000e+00	1.448100e-06	
64	-3.20000e+00	1.419670e-06	
65	-3.25000e+00	1.393557e-06	
66	-3.30000e+00	1.369466e-06	
67	-3.35000e+00	1.347155e-06	
68	-3.40000e+00	1.326421e-06	
69	-3.45000e+00	1.307093e-06	
70	-3.50000e+00	1.289025e-06	
71	-3.55000e+00	1.272091e-06	
72	-3.60000e+00	1.256184e-06	
73	-3.65000e+00	1.241208e-06	
74	-3.70000e+00	1.227081e-06	
75	-3.75000e+00	1.213731e-06	
76	-3.80000e+00	1.201094e-06	
77	-3.85000e+00	1.189111e-06	
78	-3.90000e+00	1.177733e-06	
79	-3.95000e+00	1.166913e-06	
80	-4.00000e+00	1.156611e-06	
81	-4.05000e+00	1.146789e-06	
82	-4.10000e+00	1.137415e-06	
83	-4.15000e+00	1.128457e-06	
84	-4.20000e+00	1.119888e-06	
85	-4.25000e+00	1.111683e-06	
86	-4.30000e+00	1.103820e-06	
87	-4.35000e+00	1.096276e-06	
88	-4.40000e+00	1.089033e-06	
89	-4.45000e+00	1.082073e-06	
90	-4.50000e+00	1.075379e-06	
91	-4.55000e+00	1.068937e-06	
92	-4.60000e+00	1.062732e-06	
93	-4.65000e+00	1.056752e-06	
94	-4.70000e+00	1.050983e-06	
95	-4.75000e+00	1.045416e-06	
96	-4.80000e+00	1.040040e-06	
97	-4.85000e+00	1.034846e-06	
98	-4.90000e+00	1.029823e-06	
99	-4.95000e+00	1.024964e-06	
100	-5.00000e+00	1.020261e-06	
101	-5.05000e+00	1.015706e-06	
102	-5.10000e+00	1.011293e-06	
103	-5.15000e+00	1.007015e-06	
104	-5.20000e+00	1.002866e-06	
105	-5.25000e+00	9.988400e-07	
106	-5.30000e+00	9.949321e-07	
107	-5.35000e+00	9.911370e-07	
108	-5.40000e+00	9.874500e-07	
109	-5.45000e+00	9.838665e-07	
110	-5.50000e+00	9.803824e-07	
111	-5.55000e+00	9.769935e-07	
112	-5.60000e+00	9.736961e-07	

Index   v-sweep         rds             
--------------------------------------------------------------------------------
113	-5.65000e+00	9.704866e-07	
114	-5.70000e+00	9.673617e-07	
115	-5.75000e+00	9.643180e-07	
116	-5.80000e+00	9.613526e-07	
117	-5.85000e+00	9.584625e-07	
118	-5.90000e+00	9.556451e-07	
119	-5.95000e+00	9.528977e-07	
120	-6.00000e+00	9.502178e-07	
121	-6.05000e+00	9.476032e-07	
122	-6.10000e+00	9.450515e-07	
123	-6.15000e+00	9.425607e-07	
124	-6.20000e+00	9.401287e-07	
125	-6.25000e+00	9.377536e-07	
126	-6.30000e+00	9.354336e-07	
127	-6.35000e+00	9.331670e-07	
128	-6.40000e+00	9.309520e-07	
129	-6.45000e+00	9.287872e-07	
130	-6.50000e+00	9.266709e-07	
131	-6.55000e+00	9.246017e-07	
132	-6.60000e+00	9.225783e-07	
Reset re-loads circuit ***************************

Circuit: ***************************

Doing analysis at TEMP = 25.000000 and TNOM = 25.000000


No. of Data Rows : 133
                          ***************************
                          DC transfer characteristic  Mon Jan  9 13:58:52  2023
--------------------------------------------------------------------------------
Index   v-sweep         rds             
--------------------------------------------------------------------------------
0	0.000000e+00	1.526841e-04	
1	-5.00000e-02	1.500898e-04	
2	-1.00000e-01	1.474979e-04	
3	-1.50000e-01	1.449083e-04	
4	-2.00000e-01	1.423210e-04	
5	-2.50000e-01	1.397361e-04	
6	-3.00000e-01	1.371535e-04	
7	-3.50000e-01	1.345733e-04	
8	-4.00000e-01	1.319954e-04	
9	-4.50000e-01	1.294198e-04	
10	-5.00000e-01	1.268466e-04	
11	-5.50000e-01	1.242757e-04	
12	-6.00000e-01	1.217071e-04	
13	-6.50000e-01	1.191408e-04	
14	-7.00000e-01	1.165769e-04	
15	-7.50000e-01	1.140153e-04	
16	-8.00000e-01	1.114561e-04	
17	-8.50000e-01	1.088992e-04	
18	-9.00000e-01	1.063446e-04	
19	-9.50000e-01	1.037924e-04	
20	-1.00000e+00	1.012425e-04	
21	-1.05000e+00	9.869494e-05	
22	-1.10000e+00	9.614975e-05	
23	-1.15000e+00	9.360693e-05	
24	-1.20000e+00	9.106647e-05	
25	-1.25000e+00	8.852839e-05	
26	-1.30000e+00	8.599271e-05	
27	-1.35000e+00	8.345943e-05	
28	-1.40000e+00	8.092858e-05	
29	-1.45000e+00	7.840018e-05	
30	-1.50000e+00	7.587425e-05	
31	-1.55000e+00	7.335082e-05	
32	-1.60000e+00	7.082994e-05	
33	-1.65000e+00	6.831165e-05	
34	-1.70000e+00	6.579601e-05	
35	-1.75000e+00	6.328309e-05	
36	-1.80000e+00	6.077299e-05	
37	-1.85000e+00	5.826580e-05	
38	-1.90000e+00	5.576167e-05	
39	-1.95000e+00	5.326077e-05	
40	-2.00000e+00	5.076333e-05	
41	-2.05000e+00	4.826963e-05	
42	-2.10000e+00	4.578005e-05	
43	-2.15000e+00	4.329507e-05	
44	-2.20000e+00	4.081533e-05	
45	-2.25000e+00	3.834169e-05	
46	-2.30000e+00	3.587534e-05	
47	-2.35000e+00	3.341787e-05	
48	-2.40000e+00	3.097150e-05	
49	-2.45000e+00	2.853937e-05	
50	-2.50000e+00	2.612591e-05	
51	-2.55000e+00	2.373747e-05	
52	-2.60000e+00	2.138316e-05	
53	-2.65000e+00	1.907607e-05	
54	-2.70000e+00	1.683471e-05	

Index   v-sweep         rds             
--------------------------------------------------------------------------------
55	-2.75000e+00	1.468458e-05	
56	-2.80000e+00	1.265894e-05	
57	-2.85000e+00	1.079750e-05	
58	-2.90000e+00	9.141157e-06	
59	-2.95000e+00	7.722522e-06	
60	-3.00000e+00	6.555439e-06	
61	-3.05000e+00	5.629761e-06	
62	-3.10000e+00	4.915159e-06	
63	-3.15000e+00	4.371241e-06	
64	-3.20000e+00	3.957671e-06	
65	-3.25000e+00	3.640188e-06	
66	-3.30000e+00	3.392397e-06	
67	-3.35000e+00	3.195082e-06	
68	-3.40000e+00	3.034648e-06	
69	-3.45000e+00	2.901569e-06	
70	-3.50000e+00	2.789162e-06	
71	-3.55000e+00	2.692686e-06	
72	-3.60000e+00	2.608729e-06	
73	-3.65000e+00	2.534798e-06	
74	-3.70000e+00	2.469032e-06	
75	-3.75000e+00	2.410022e-06	
76	-3.80000e+00	2.356680e-06	
77	-3.85000e+00	2.308151e-06	
78	-3.90000e+00	2.263756e-06	
79	-3.95000e+00	2.222943e-06	
80	-4.00000e+00	2.185263e-06	
81	-4.05000e+00	2.150342e-06	
82	-4.10000e+00	2.117869e-06	
83	-4.15000e+00	2.087579e-06	
84	-4.20000e+00	2.059247e-06	
85	-4.25000e+00	2.032681e-06	
86	-4.30000e+00	2.007712e-06	
87	-4.35000e+00	1.984194e-06	
88	-4.40000e+00	1.962001e-06	
89	-4.45000e+00	1.941019e-06	
90	-4.50000e+00	1.921150e-06	
91	-4.55000e+00	1.902303e-06	
92	-4.60000e+00	1.884401e-06	
93	-4.65000e+00	1.867372e-06	
94	-4.70000e+00	1.851153e-06	
95	-4.75000e+00	1.835687e-06	
96	-4.80000e+00	1.820920e-06	
97	-4.85000e+00	1.806807e-06	
98	-4.90000e+00	1.793304e-06	
99	-4.95000e+00	1.780371e-06	
100	-5.00000e+00	1.767974e-06	
101	-5.05000e+00	1.756078e-06	
102	-5.10000e+00	1.744655e-06	
103	-5.15000e+00	1.733675e-06	
104	-5.20000e+00	1.723115e-06	
105	-5.25000e+00	1.712949e-06	
106	-5.30000e+00	1.703156e-06	
107	-5.35000e+00	1.693717e-06	
108	-5.40000e+00	1.684611e-06	
109	-5.45000e+00	1.675822e-06	
110	-5.50000e+00	1.667333e-06	
111	-5.55000e+00	1.659129e-06	
112	-5.60000e+00	1.651196e-06	

Index   v-sweep         rds             
--------------------------------------------------------------------------------
113	-5.65000e+00	1.643521e-06	
114	-5.70000e+00	1.636091e-06	
115	-5.75000e+00	1.628895e-06	
116	-5.80000e+00	1.621922e-06	
117	-5.85000e+00	1.615162e-06	
118	-5.90000e+00	1.608606e-06	
119	-5.95000e+00	1.602243e-06	
120	-6.00000e+00	1.596066e-06	
121	-6.05000e+00	1.590068e-06	
122	-6.10000e+00	1.584239e-06	
123	-6.15000e+00	1.578574e-06	
124	-6.20000e+00	1.573065e-06	
125	-6.25000e+00	1.567707e-06	
126	-6.30000e+00	1.562493e-06	
127	-6.35000e+00	1.557418e-06	
128	-6.40000e+00	1.552475e-06	
129	-6.45000e+00	1.547662e-06	
130	-6.50000e+00	1.542971e-06	
131	-6.55000e+00	1.538400e-06	
132	-6.60000e+00	1.533943e-06	
Reset re-loads circuit ***************************

Circuit: ***************************

Doing analysis at TEMP = 25.000000 and TNOM = 25.000000


No. of Data Rows : 133
                          ***************************
                          DC transfer characteristic  Mon Jan  9 13:58:52  2023
--------------------------------------------------------------------------------
Index   v-sweep         rds             
--------------------------------------------------------------------------------
0	0.000000e+00	1.756023e-04	
1	-5.00000e-02	1.732137e-04	
2	-1.00000e-01	1.708272e-04	
3	-1.50000e-01	1.684427e-04	
4	-2.00000e-01	1.660603e-04	
5	-2.50000e-01	1.636799e-04	
6	-3.00000e-01	1.613015e-04	
7	-3.50000e-01	1.589252e-04	
8	-4.00000e-01	1.565509e-04	
9	-4.50000e-01	1.541787e-04	
10	-5.00000e-01	1.518084e-04	
11	-5.50000e-01	1.494402e-04	
12	-6.00000e-01	1.470741e-04	
13	-6.50000e-01	1.447099e-04	
14	-7.00000e-01	1.423478e-04	
15	-7.50000e-01	1.399877e-04	
16	-8.00000e-01	1.376297e-04	
17	-8.50000e-01	1.352736e-04	
18	-9.00000e-01	1.329196e-04	
19	-9.50000e-01	1.305676e-04	
20	-1.00000e+00	1.282176e-04	
21	-1.05000e+00	1.258696e-04	
22	-1.10000e+00	1.235237e-04	
23	-1.15000e+00	1.211798e-04	
24	-1.20000e+00	1.188379e-04	
25	-1.25000e+00	1.164980e-04	
26	-1.30000e+00	1.141601e-04	
27	-1.35000e+00	1.118243e-04	
28	-1.40000e+00	1.094905e-04	
29	-1.45000e+00	1.071587e-04	
30	-1.50000e+00	1.048290e-04	
31	-1.55000e+00	1.025012e-04	
32	-1.60000e+00	1.001756e-04	
33	-1.65000e+00	9.785194e-05	
34	-1.70000e+00	9.553037e-05	
35	-1.75000e+00	9.321086e-05	
36	-1.80000e+00	9.089341e-05	
37	-1.85000e+00	8.857804e-05	
38	-1.90000e+00	8.626477e-05	
39	-1.95000e+00	8.395360e-05	
40	-2.00000e+00	8.164455e-05	
41	-2.05000e+00	7.933765e-05	
42	-2.10000e+00	7.703292e-05	
43	-2.15000e+00	7.473038e-05	
44	-2.20000e+00	7.243007e-05	
45	-2.25000e+00	7.013204e-05	
46	-2.30000e+00	6.783633e-05	
47	-2.35000e+00	6.554299e-05	
48	-2.40000e+00	6.325211e-05	
49	-2.45000e+00	6.096376e-05	
50	-2.50000e+00	5.867806e-05	
51	-2.55000e+00	5.639512e-05	
52	-2.60000e+00	5.411511e-05	
53	-2.65000e+00	5.183823e-05	
54	-2.70000e+00	4.956471e-05	

Index   v-sweep         rds             
--------------------------------------------------------------------------------
55	-2.75000e+00	4.729488e-05	
56	-2.80000e+00	4.502913e-05	
57	-2.85000e+00	4.276796e-05	
58	-2.90000e+00	4.051202e-05	
59	-2.95000e+00	3.826218e-05	
60	-3.00000e+00	3.601956e-05	
61	-3.05000e+00	3.378565e-05	
62	-3.10000e+00	3.156247e-05	
63	-3.15000e+00	2.935274e-05	
64	-3.20000e+00	2.716017e-05	
65	-3.25000e+00	2.498987e-05	
66	-3.30000e+00	2.284884e-05	
67	-3.35000e+00	2.074673e-05	
68	-3.40000e+00	1.869662e-05	
69	-3.45000e+00	1.671592e-05	
70	-3.50000e+00	1.482694e-05	
71	-3.55000e+00	1.305655e-05	
72	-3.60000e+00	1.143418e-05	
73	-3.65000e+00	9.987429e-06	
74	-3.70000e+00	8.736085e-06	
75	-3.75000e+00	7.686538e-06	
76	-3.80000e+00	6.829771e-06	
77	-3.85000e+00	6.144089e-06	
78	-3.90000e+00	5.601014e-06	
79	-3.95000e+00	5.171291e-06	
80	-4.00000e+00	4.828892e-06	
81	-4.05000e+00	4.552668e-06	
82	-4.10000e+00	4.326373e-06	
83	-4.15000e+00	4.137924e-06	
84	-4.20000e+00	3.978465e-06	
85	-4.25000e+00	3.841528e-06	
86	-4.30000e+00	3.722368e-06	
87	-4.35000e+00	3.617466e-06	
88	-4.40000e+00	3.524184e-06	
89	-4.45000e+00	3.440510e-06	
90	-4.50000e+00	3.364890e-06	
91	-4.55000e+00	3.296104e-06	
92	-4.60000e+00	3.233182e-06	
93	-4.65000e+00	3.175338e-06	
94	-4.70000e+00	3.121933e-06	
95	-4.75000e+00	3.072435e-06	
96	-4.80000e+00	3.026401e-06	
97	-4.85000e+00	2.983457e-06	
98	-4.90000e+00	2.943285e-06	
99	-4.95000e+00	2.905610e-06	
100	-5.00000e+00	2.870196e-06	
101	-5.05000e+00	2.836836e-06	
102	-5.10000e+00	2.805351e-06	
103	-5.15000e+00	2.775580e-06	
104	-5.20000e+00	2.747384e-06	
105	-5.25000e+00	2.720637e-06	
106	-5.30000e+00	2.695227e-06	
107	-5.35000e+00	2.671055e-06	
108	-5.40000e+00	2.648030e-06	
109	-5.45000e+00	2.626071e-06	
110	-5.50000e+00	2.605104e-06	
111	-5.55000e+00	2.585064e-06	
112	-5.60000e+00	2.565888e-06	

Index   v-sweep         rds             
--------------------------------------------------------------------------------
113	-5.65000e+00	2.547522e-06	
114	-5.70000e+00	2.529915e-06	
115	-5.75000e+00	2.513019e-06	
116	-5.80000e+00	2.496794e-06	
117	-5.85000e+00	2.481199e-06	
118	-5.90000e+00	2.466197e-06	
119	-5.95000e+00	2.451757e-06	
120	-6.00000e+00	2.437846e-06	
121	-6.05000e+00	2.424436e-06	
122	-6.10000e+00	2.411500e-06	
123	-6.15000e+00	2.399013e-06	
124	-6.20000e+00	2.386953e-06	
125	-6.25000e+00	2.375297e-06	
126	-6.30000e+00	2.364027e-06	
127	-6.35000e+00	2.353122e-06	
128	-6.40000e+00	2.342567e-06	
129	-6.45000e+00	2.332343e-06	
130	-6.50000e+00	2.322436e-06	
131	-6.55000e+00	2.312831e-06	
132	-6.60000e+00	2.303515e-06	
Reset re-loads circuit ***************************

Circuit: ***************************

Note: No ".plot", ".print", or ".fourier" lines; no simulations run
