
Note: Compatibility modes selected: hs

Warning: m=xx on .subckt line will override multiplier m hierarchy!


Circuit: ***************************

Doing analysis at TEMP = 125.000000 and TNOM = 125.000000


No. of Data Rows : 133
                          ***************************
                          DC transfer characteristic  Mon Jan  9 13:58:53  2023
--------------------------------------------------------------------------------
Index   v-sweep         rds             
--------------------------------------------------------------------------------
0	0.000000e+00	4.060912e-06	
1	-5.00000e-02	3.043443e-06	
2	-1.00000e-01	2.046102e-06	
3	-1.50000e-01	1.123040e-06	
4	-2.00000e-01	4.413265e-07	
5	-2.50000e-01	1.379142e-07	
6	-3.00000e-01	4.890976e-08	
7	-3.50000e-01	2.258507e-08	
8	-4.00000e-01	1.316693e-08	
9	-4.50000e-01	9.113106e-09	
10	-5.00000e-01	7.091473e-09	
11	-5.50000e-01	5.960318e-09	
12	-6.00000e-01	5.266887e-09	
13	-6.50000e-01	4.809280e-09	
14	-7.00000e-01	4.488560e-09	
15	-7.50000e-01	4.252374e-09	
16	-8.00000e-01	4.071188e-09	
17	-8.50000e-01	3.927424e-09	
18	-9.00000e-01	3.810119e-09	
19	-9.50000e-01	3.712162e-09	
20	-1.00000e+00	3.628770e-09	
21	-1.05000e+00	3.556626e-09	
22	-1.10000e+00	3.493368e-09	
23	-1.15000e+00	3.437267e-09	
24	-1.20000e+00	3.387032e-09	
25	-1.25000e+00	3.341678e-09	
26	-1.30000e+00	3.300439e-09	
27	-1.35000e+00	3.262714e-09	
28	-1.40000e+00	3.228017e-09	
29	-1.45000e+00	3.195957e-09	
30	-1.50000e+00	3.166210e-09	
31	-1.55000e+00	3.138509e-09	
32	-1.60000e+00	3.112627e-09	
33	-1.65000e+00	3.088375e-09	
34	-1.70000e+00	3.065589e-09	
35	-1.75000e+00	3.044128e-09	
36	-1.80000e+00	3.023872e-09	
37	-1.85000e+00	3.004714e-09	
38	-1.90000e+00	2.986560e-09	
39	-1.95000e+00	2.969328e-09	
40	-2.00000e+00	2.952947e-09	
41	-2.05000e+00	2.937349e-09	
42	-2.10000e+00	2.922479e-09	
43	-2.15000e+00	2.908282e-09	
44	-2.20000e+00	2.894713e-09	
45	-2.25000e+00	2.881729e-09	
46	-2.30000e+00	2.869291e-09	
47	-2.35000e+00	2.857364e-09	
48	-2.40000e+00	2.845917e-09	
49	-2.45000e+00	2.834919e-09	
50	-2.50000e+00	2.824345e-09	
51	-2.55000e+00	2.814168e-09	
52	-2.60000e+00	2.804368e-09	
53	-2.65000e+00	2.794922e-09	
54	-2.70000e+00	2.785812e-09	

Index   v-sweep         rds             
--------------------------------------------------------------------------------
55	-2.75000e+00	2.777019e-09	
56	-2.80000e+00	2.768527e-09	
57	-2.85000e+00	2.760321e-09	
58	-2.90000e+00	2.752385e-09	
59	-2.95000e+00	2.744707e-09	
60	-3.00000e+00	2.737274e-09	
61	-3.05000e+00	2.730075e-09	
62	-3.10000e+00	2.723098e-09	
63	-3.15000e+00	2.716333e-09	
64	-3.20000e+00	2.709771e-09	
65	-3.25000e+00	2.703403e-09	
66	-3.30000e+00	2.697219e-09	
67	-3.35000e+00	2.691213e-09	
68	-3.40000e+00	2.685377e-09	
69	-3.45000e+00	2.679703e-09	
70	-3.50000e+00	2.674185e-09	
71	-3.55000e+00	2.668816e-09	
72	-3.60000e+00	2.663592e-09	
73	-3.65000e+00	2.658505e-09	
74	-3.70000e+00	2.653551e-09	
75	-3.75000e+00	2.648725e-09	
76	-3.80000e+00	2.644022e-09	
77	-3.85000e+00	2.639438e-09	
78	-3.90000e+00	2.634967e-09	
79	-3.95000e+00	2.630607e-09	
80	-4.00000e+00	2.626353e-09	
81	-4.05000e+00	2.622201e-09	
82	-4.10000e+00	2.618149e-09	
83	-4.15000e+00	2.614192e-09	
84	-4.20000e+00	2.610328e-09	
85	-4.25000e+00	2.606554e-09	
86	-4.30000e+00	2.602866e-09	
87	-4.35000e+00	2.599262e-09	
88	-4.40000e+00	2.595740e-09	
89	-4.45000e+00	2.592297e-09	
90	-4.50000e+00	2.588930e-09	
91	-4.55000e+00	2.585638e-09	
92	-4.60000e+00	2.582417e-09	
93	-4.65000e+00	2.579267e-09	
94	-4.70000e+00	2.576185e-09	
95	-4.75000e+00	2.573169e-09	
96	-4.80000e+00	2.570218e-09	
97	-4.85000e+00	2.567330e-09	
98	-4.90000e+00	2.564502e-09	
99	-4.95000e+00	2.561734e-09	
100	-5.00000e+00	2.559024e-09	
101	-5.05000e+00	2.556370e-09	
102	-5.10000e+00	2.553772e-09	
103	-5.15000e+00	2.551227e-09	
104	-5.20000e+00	2.548735e-09	
105	-5.25000e+00	2.546294e-09	
106	-5.30000e+00	2.543903e-09	
107	-5.35000e+00	2.541561e-09	
108	-5.40000e+00	2.539267e-09	
109	-5.45000e+00	2.537020e-09	
110	-5.50000e+00	2.534818e-09	
111	-5.55000e+00	2.532661e-09	
112	-5.60000e+00	2.530548e-09	

Index   v-sweep         rds             
--------------------------------------------------------------------------------
113	-5.65000e+00	2.528478e-09	
114	-5.70000e+00	2.526450e-09	
115	-5.75000e+00	2.524463e-09	
116	-5.80000e+00	2.522517e-09	
117	-5.85000e+00	2.520610e-09	
118	-5.90000e+00	2.518742e-09	
119	-5.95000e+00	2.516912e-09	
120	-6.00000e+00	2.515120e-09	
121	-6.05000e+00	2.513364e-09	
122	-6.10000e+00	2.511644e-09	
123	-6.15000e+00	2.509960e-09	
124	-6.20000e+00	2.508310e-09	
125	-6.25000e+00	2.506695e-09	
126	-6.30000e+00	2.505113e-09	
127	-6.35000e+00	2.503564e-09	
128	-6.40000e+00	2.502048e-09	
129	-6.45000e+00	2.500563e-09	
130	-6.50000e+00	2.499110e-09	
131	-6.55000e+00	2.497687e-09	
132	-6.60000e+00	2.496295e-09	
Reset re-loads circuit ***************************

Circuit: ***************************

Doing analysis at TEMP = 125.000000 and TNOM = 125.000000


No. of Data Rows : 133
                          ***************************
                          DC transfer characteristic  Mon Jan  9 13:58:53  2023
--------------------------------------------------------------------------------
Index   v-sweep         rds             
--------------------------------------------------------------------------------
0	0.000000e+00	2.043665e-05	
1	-5.00000e-02	1.930372e-05	
2	-1.00000e-01	1.817122e-05	
3	-1.50000e-01	1.703918e-05	
4	-2.00000e-01	1.590767e-05	
5	-2.50000e-01	1.477675e-05	
6	-3.00000e-01	1.364657e-05	
7	-3.50000e-01	1.251729e-05	
8	-4.00000e-01	1.138921e-05	
9	-4.50000e-01	1.026279e-05	
10	-5.00000e-01	9.138810e-06	
11	-5.50000e-01	8.018607e-06	
12	-6.00000e-01	6.904596e-06	
13	-6.50000e-01	5.801298e-06	
14	-7.00000e-01	4.717468e-06	
15	-7.50000e-01	3.670255e-06	
16	-8.00000e-01	2.692062e-06	
17	-8.50000e-01	1.836160e-06	
18	-9.00000e-01	1.165011e-06	
19	-9.50000e-01	7.089907e-07	
20	-1.00000e+00	4.374813e-07	
21	-1.05000e+00	2.876234e-07	
22	-1.10000e+00	2.059144e-07	
23	-1.15000e+00	1.599910e-07	
24	-1.20000e+00	1.328517e-07	
25	-1.25000e+00	1.158910e-07	
26	-1.30000e+00	1.046961e-07	
27	-1.35000e+00	9.692526e-08	
28	-1.40000e+00	9.128309e-08	
29	-1.45000e+00	8.702193e-08	
30	-1.50000e+00	8.369238e-08	
31	-1.55000e+00	8.101392e-08	
32	-1.60000e+00	7.880526e-08	
33	-1.65000e+00	7.694548e-08	
34	-1.70000e+00	7.535152e-08	
35	-1.75000e+00	7.396483e-08	
36	-1.80000e+00	7.274309e-08	
37	-1.85000e+00	7.165505e-08	
38	-1.90000e+00	7.067718e-08	
39	-1.95000e+00	6.979138e-08	
40	-2.00000e+00	6.898354e-08	
41	-2.05000e+00	6.824246e-08	
42	-2.10000e+00	6.755913e-08	
43	-2.15000e+00	6.692622e-08	
44	-2.20000e+00	6.633767e-08	
45	-2.25000e+00	6.578843e-08	
46	-2.30000e+00	6.527428e-08	
47	-2.35000e+00	6.479159e-08	
48	-2.40000e+00	6.433728e-08	
49	-2.45000e+00	6.390869e-08	
50	-2.50000e+00	6.350351e-08	
51	-2.55000e+00	6.311971e-08	
52	-2.60000e+00	6.275552e-08	
53	-2.65000e+00	6.240936e-08	
54	-2.70000e+00	6.207984e-08	

Index   v-sweep         rds             
--------------------------------------------------------------------------------
55	-2.75000e+00	6.176571e-08	
56	-2.80000e+00	6.146585e-08	
57	-2.85000e+00	6.117927e-08	
58	-2.90000e+00	6.090505e-08	
59	-2.95000e+00	6.064237e-08	
60	-3.00000e+00	6.039049e-08	
61	-3.05000e+00	6.014872e-08	
62	-3.10000e+00	5.991646e-08	
63	-3.15000e+00	5.969312e-08	
64	-3.20000e+00	5.947819e-08	
65	-3.25000e+00	5.927118e-08	
66	-3.30000e+00	5.907165e-08	
67	-3.35000e+00	5.887920e-08	
68	-3.40000e+00	5.869344e-08	
69	-3.45000e+00	5.851402e-08	
70	-3.50000e+00	5.834062e-08	
71	-3.55000e+00	5.817293e-08	
72	-3.60000e+00	5.801067e-08	
73	-3.65000e+00	5.785358e-08	
74	-3.70000e+00	5.770141e-08	
75	-3.75000e+00	5.755392e-08	
76	-3.80000e+00	5.741091e-08	
77	-3.85000e+00	5.727217e-08	
78	-3.90000e+00	5.713751e-08	
79	-3.95000e+00	5.700676e-08	
80	-4.00000e+00	5.687973e-08	
81	-4.05000e+00	5.675628e-08	
82	-4.10000e+00	5.663626e-08	
83	-4.15000e+00	5.651953e-08	
84	-4.20000e+00	5.640595e-08	
85	-4.25000e+00	5.629540e-08	
86	-4.30000e+00	5.618775e-08	
87	-4.35000e+00	5.608291e-08	
88	-4.40000e+00	5.598076e-08	
89	-4.45000e+00	5.588120e-08	
90	-4.50000e+00	5.578413e-08	
91	-4.55000e+00	5.568948e-08	
92	-4.60000e+00	5.559714e-08	
93	-4.65000e+00	5.550704e-08	
94	-4.70000e+00	5.541911e-08	
95	-4.75000e+00	5.533326e-08	
96	-4.80000e+00	5.524943e-08	
97	-4.85000e+00	5.516755e-08	
98	-4.90000e+00	5.508756e-08	
99	-4.95000e+00	5.500940e-08	
100	-5.00000e+00	5.493301e-08	
101	-5.05000e+00	5.485833e-08	
102	-5.10000e+00	5.478532e-08	
103	-5.15000e+00	5.471392e-08	
104	-5.20000e+00	5.464409e-08	
105	-5.25000e+00	5.457578e-08	
106	-5.30000e+00	5.450894e-08	
107	-5.35000e+00	5.444354e-08	
108	-5.40000e+00	5.437954e-08	
109	-5.45000e+00	5.431689e-08	
110	-5.50000e+00	5.425557e-08	
111	-5.55000e+00	5.419553e-08	
112	-5.60000e+00	5.413675e-08	

Index   v-sweep         rds             
--------------------------------------------------------------------------------
113	-5.65000e+00	5.407919e-08	
114	-5.70000e+00	5.402281e-08	
115	-5.75000e+00	5.396760e-08	
116	-5.80000e+00	5.391353e-08	
117	-5.85000e+00	5.386056e-08	
118	-5.90000e+00	5.380867e-08	
119	-5.95000e+00	5.375783e-08	
120	-6.00000e+00	5.370803e-08	
121	-6.05000e+00	5.365923e-08	
122	-6.10000e+00	5.361142e-08	
123	-6.15000e+00	5.356458e-08	
124	-6.20000e+00	5.351868e-08	
125	-6.25000e+00	5.347370e-08	
126	-6.30000e+00	5.342963e-08	
127	-6.35000e+00	5.338645e-08	
128	-6.40000e+00	5.334413e-08	
129	-6.45000e+00	5.330267e-08	
130	-6.50000e+00	5.326204e-08	
131	-6.55000e+00	5.322223e-08	
132	-6.60000e+00	5.318322e-08	
Reset re-loads circuit ***************************

Circuit: ***************************

Doing analysis at TEMP = 125.000000 and TNOM = 125.000000


No. of Data Rows : 133
                          ***************************
                          DC transfer characteristic  Mon Jan  9 13:58:53  2023
--------------------------------------------------------------------------------
Index   v-sweep         rds             
--------------------------------------------------------------------------------
0	0.000000e+00	3.416131e-05	
1	-5.00000e-02	3.310707e-05	
2	-1.00000e-01	3.205312e-05	
3	-1.50000e-01	3.099947e-05	
4	-2.00000e-01	2.994610e-05	
5	-2.50000e-01	2.889303e-05	
6	-3.00000e-01	2.784027e-05	
7	-3.50000e-01	2.678782e-05	
8	-4.00000e-01	2.573569e-05	
9	-4.50000e-01	2.468390e-05	
10	-5.00000e-01	2.363245e-05	
11	-5.50000e-01	2.258136e-05	
12	-6.00000e-01	2.153067e-05	
13	-6.50000e-01	2.048040e-05	
14	-7.00000e-01	1.943058e-05	
15	-7.50000e-01	1.838128e-05	
16	-8.00000e-01	1.733257e-05	
17	-8.50000e-01	1.628453e-05	
18	-9.00000e-01	1.523731e-05	
19	-9.50000e-01	1.419109e-05	
20	-1.00000e+00	1.314615e-05	
21	-1.05000e+00	1.210286e-05	
22	-1.10000e+00	1.106183e-05	
23	-1.15000e+00	1.002392e-05	
24	-1.20000e+00	8.990520e-06	
25	-1.25000e+00	7.963815e-06	
26	-1.30000e+00	6.947351e-06	
27	-1.35000e+00	5.946955e-06	
28	-1.40000e+00	4.972234e-06	
29	-1.45000e+00	4.038689e-06	
30	-1.50000e+00	3.169884e-06	
31	-1.55000e+00	2.397294e-06	
32	-1.60000e+00	1.753699e-06	
33	-1.65000e+00	1.259080e-06	
34	-1.70000e+00	9.086419e-07	
35	-1.75000e+00	6.756753e-07	
36	-1.80000e+00	5.261053e-07	
37	-1.85000e+00	4.306736e-07	
38	-1.90000e+00	3.688567e-07	
39	-1.95000e+00	3.276763e-07	
40	-2.00000e+00	2.992869e-07	
41	-2.05000e+00	2.789965e-07	
42	-2.10000e+00	2.639747e-07	
43	-2.15000e+00	2.524822e-07	
44	-2.20000e+00	2.434245e-07	
45	-2.25000e+00	2.360952e-07	
46	-2.30000e+00	2.300267e-07	
47	-2.35000e+00	2.249012e-07	
48	-2.40000e+00	2.204979e-07	
49	-2.45000e+00	2.166595e-07	
50	-2.50000e+00	2.132717e-07	
51	-2.55000e+00	2.102498e-07	
52	-2.60000e+00	2.075295e-07	
53	-2.65000e+00	2.050617e-07	
54	-2.70000e+00	2.028077e-07	

Index   v-sweep         rds             
--------------------------------------------------------------------------------
55	-2.75000e+00	2.007370e-07	
56	-2.80000e+00	1.988249e-07	
57	-2.85000e+00	1.970515e-07	
58	-2.90000e+00	1.954001e-07	
59	-2.95000e+00	1.938571e-07	
60	-3.00000e+00	1.924107e-07	
61	-3.05000e+00	1.910512e-07	
62	-3.10000e+00	1.897701e-07	
63	-3.15000e+00	1.885601e-07	
64	-3.20000e+00	1.874150e-07	
65	-3.25000e+00	1.863291e-07	
66	-3.30000e+00	1.852976e-07	
67	-3.35000e+00	1.843163e-07	
68	-3.40000e+00	1.833812e-07	
69	-3.45000e+00	1.824890e-07	
70	-3.50000e+00	1.816365e-07	
71	-3.55000e+00	1.808211e-07	
72	-3.60000e+00	1.800403e-07	
73	-3.65000e+00	1.792917e-07	
74	-3.70000e+00	1.785734e-07	
75	-3.75000e+00	1.778834e-07	
76	-3.80000e+00	1.772200e-07	
77	-3.85000e+00	1.765818e-07	
78	-3.90000e+00	1.759671e-07	
79	-3.95000e+00	1.753747e-07	
80	-4.00000e+00	1.748035e-07	
81	-4.05000e+00	1.742521e-07	
82	-4.10000e+00	1.737196e-07	
83	-4.15000e+00	1.732050e-07	
84	-4.20000e+00	1.727074e-07	
85	-4.25000e+00	1.722260e-07	
86	-4.30000e+00	1.717599e-07	
87	-4.35000e+00	1.713085e-07	
88	-4.40000e+00	1.708710e-07	
89	-4.45000e+00	1.704467e-07	
90	-4.50000e+00	1.700352e-07	
91	-4.55000e+00	1.696358e-07	
92	-4.60000e+00	1.692480e-07	
93	-4.65000e+00	1.688712e-07	
94	-4.70000e+00	1.685051e-07	
95	-4.75000e+00	1.681492e-07	
96	-4.80000e+00	1.678030e-07	
97	-4.85000e+00	1.674662e-07	
98	-4.90000e+00	1.671384e-07	
99	-4.95000e+00	1.668192e-07	
100	-5.00000e+00	1.665083e-07	
101	-5.05000e+00	1.662054e-07	
102	-5.10000e+00	1.659102e-07	
103	-5.15000e+00	1.656223e-07	
104	-5.20000e+00	1.653417e-07	
105	-5.25000e+00	1.650679e-07	
106	-5.30000e+00	1.648007e-07	
107	-5.35000e+00	1.645400e-07	
108	-5.40000e+00	1.642854e-07	
109	-5.45000e+00	1.640368e-07	
110	-5.50000e+00	1.637940e-07	
111	-5.55000e+00	1.635568e-07	
112	-5.60000e+00	1.633251e-07	

Index   v-sweep         rds             
--------------------------------------------------------------------------------
113	-5.65000e+00	1.630985e-07	
114	-5.70000e+00	1.628771e-07	
115	-5.75000e+00	1.626605e-07	
116	-5.80000e+00	1.624488e-07	
117	-5.85000e+00	1.622417e-07	
118	-5.90000e+00	1.620390e-07	
119	-5.95000e+00	1.618408e-07	
120	-6.00000e+00	1.616468e-07	
121	-6.05000e+00	1.614569e-07	
122	-6.10000e+00	1.612711e-07	
123	-6.15000e+00	1.610892e-07	
124	-6.20000e+00	1.609110e-07	
125	-6.25000e+00	1.607366e-07	
126	-6.30000e+00	1.605658e-07	
127	-6.35000e+00	1.603985e-07	
128	-6.40000e+00	1.602347e-07	
129	-6.45000e+00	1.600742e-07	
130	-6.50000e+00	1.599169e-07	
131	-6.55000e+00	1.597629e-07	
132	-6.60000e+00	1.596120e-07	
Reset re-loads circuit ***************************

Circuit: ***************************

Doing analysis at TEMP = 125.000000 and TNOM = 125.000000


No. of Data Rows : 133
                          ***************************
                          DC transfer characteristic  Mon Jan  9 13:58:53  2023
--------------------------------------------------------------------------------
Index   v-sweep         rds             
--------------------------------------------------------------------------------
0	0.000000e+00	4.611966e-05	
1	-5.00000e-02	4.514189e-05	
2	-1.00000e-01	4.416437e-05	
3	-1.50000e-01	4.318709e-05	
4	-2.00000e-01	4.221006e-05	
5	-2.50000e-01	4.123328e-05	
6	-3.00000e-01	4.025675e-05	
7	-3.50000e-01	3.928047e-05	
8	-4.00000e-01	3.830444e-05	
9	-4.50000e-01	3.732867e-05	
10	-5.00000e-01	3.635315e-05	
11	-5.50000e-01	3.537789e-05	
12	-6.00000e-01	3.440289e-05	
13	-6.50000e-01	3.342816e-05	
14	-7.00000e-01	3.245369e-05	
15	-7.50000e-01	3.147949e-05	
16	-8.00000e-01	3.050558e-05	
17	-8.50000e-01	2.953194e-05	
18	-9.00000e-01	2.855860e-05	
19	-9.50000e-01	2.758555e-05	
20	-1.00000e+00	2.661281e-05	
21	-1.05000e+00	2.564040e-05	
22	-1.10000e+00	2.466832e-05	
23	-1.15000e+00	2.369661e-05	
24	-1.20000e+00	2.272527e-05	
25	-1.25000e+00	2.175435e-05	
26	-1.30000e+00	2.078387e-05	
27	-1.35000e+00	1.981389e-05	
28	-1.40000e+00	1.884447e-05	
29	-1.45000e+00	1.787569e-05	
30	-1.50000e+00	1.690766e-05	
31	-1.55000e+00	1.594050e-05	
32	-1.60000e+00	1.497442e-05	
33	-1.65000e+00	1.400966e-05	
34	-1.70000e+00	1.304657e-05	
35	-1.75000e+00	1.208565e-05	
36	-1.80000e+00	1.112758e-05	
37	-1.85000e+00	1.017337e-05	
38	-1.90000e+00	9.224488e-06	
39	-1.95000e+00	8.283120e-06	
40	-2.00000e+00	7.352534e-06	
41	-2.05000e+00	6.437664e-06	
42	-2.10000e+00	5.545910e-06	
43	-2.15000e+00	4.688147e-06	
44	-2.20000e+00	3.879611e-06	
45	-2.25000e+00	3.139839e-06	
46	-2.30000e+00	2.490279e-06	
47	-2.35000e+00	1.948739e-06	
48	-2.40000e+00	1.522501e-06	
49	-2.45000e+00	1.204835e-06	
50	-2.50000e+00	9.779581e-07	
51	-2.55000e+00	8.199550e-07	
52	-2.60000e+00	7.107240e-07	
53	-2.65000e+00	6.346512e-07	
54	-2.70000e+00	5.807246e-07	

Index   v-sweep         rds             
--------------------------------------------------------------------------------
55	-2.75000e+00	5.415725e-07	
56	-2.80000e+00	5.123740e-07	
57	-2.85000e+00	4.899930e-07	
58	-2.90000e+00	4.723771e-07	
59	-2.95000e+00	4.581659e-07	
60	-3.00000e+00	4.464428e-07	
61	-3.05000e+00	4.365790e-07	
62	-3.10000e+00	4.281347e-07	
63	-3.15000e+00	4.207962e-07	
64	-3.20000e+00	4.143355e-07	
65	-3.25000e+00	4.085842e-07	
66	-3.30000e+00	4.034151e-07	
67	-3.35000e+00	3.987309e-07	
68	-3.40000e+00	3.944561e-07	
69	-3.45000e+00	3.905309e-07	
70	-3.50000e+00	3.869074e-07	
71	-3.55000e+00	3.835468e-07	
72	-3.60000e+00	3.804174e-07	
73	-3.65000e+00	3.774926e-07	
74	-3.70000e+00	3.747504e-07	
75	-3.75000e+00	3.721720e-07	
76	-3.80000e+00	3.697413e-07	
77	-3.85000e+00	3.674446e-07	
78	-3.90000e+00	3.652699e-07	
79	-3.95000e+00	3.632068e-07	
80	-4.00000e+00	3.612461e-07	
81	-4.05000e+00	3.593798e-07	
82	-4.10000e+00	3.576006e-07	
83	-4.15000e+00	3.559021e-07	
84	-4.20000e+00	3.542786e-07	
85	-4.25000e+00	3.527250e-07	
86	-4.30000e+00	3.512364e-07	
87	-4.35000e+00	3.498088e-07	
88	-4.40000e+00	3.484382e-07	
89	-4.45000e+00	3.471212e-07	
90	-4.50000e+00	3.458545e-07	
91	-4.55000e+00	3.446352e-07	
92	-4.60000e+00	3.434606e-07	
93	-4.65000e+00	3.423281e-07	
94	-4.70000e+00	3.412355e-07	
95	-4.75000e+00	3.401807e-07	
96	-4.80000e+00	3.391616e-07	
97	-4.85000e+00	3.381765e-07	
98	-4.90000e+00	3.372236e-07	
99	-4.95000e+00	3.363014e-07	
100	-5.00000e+00	3.354083e-07	
101	-5.05000e+00	3.345430e-07	
102	-5.10000e+00	3.337042e-07	
103	-5.15000e+00	3.328906e-07	
104	-5.20000e+00	3.321012e-07	
105	-5.25000e+00	3.313348e-07	
106	-5.30000e+00	3.305905e-07	
107	-5.35000e+00	3.298673e-07	
108	-5.40000e+00	3.291643e-07	
109	-5.45000e+00	3.284807e-07	
110	-5.50000e+00	3.278157e-07	
111	-5.55000e+00	3.271685e-07	
112	-5.60000e+00	3.265385e-07	

Index   v-sweep         rds             
--------------------------------------------------------------------------------
113	-5.65000e+00	3.259249e-07	
114	-5.70000e+00	3.253272e-07	
115	-5.75000e+00	3.247447e-07	
116	-5.80000e+00	3.241770e-07	
117	-5.85000e+00	3.236233e-07	
118	-5.90000e+00	3.230833e-07	
119	-5.95000e+00	3.225564e-07	
120	-6.00000e+00	3.220422e-07	
121	-6.05000e+00	3.215403e-07	
122	-6.10000e+00	3.210502e-07	
123	-6.15000e+00	3.205715e-07	
124	-6.20000e+00	3.201039e-07	
125	-6.25000e+00	3.196470e-07	
126	-6.30000e+00	3.192004e-07	
127	-6.35000e+00	3.187639e-07	
128	-6.40000e+00	3.183372e-07	
129	-6.45000e+00	3.179198e-07	
130	-6.50000e+00	3.175116e-07	
131	-6.55000e+00	3.171123e-07	
132	-6.60000e+00	3.167216e-07	
Reset re-loads circuit ***************************

Circuit: ***************************

Doing analysis at TEMP = 125.000000 and TNOM = 125.000000


No. of Data Rows : 133
                          ***************************
                          DC transfer characteristic  Mon Jan  9 13:58:53  2023
--------------------------------------------------------------------------------
Index   v-sweep         rds             
--------------------------------------------------------------------------------
0	0.000000e+00	5.671924e-05	
1	-5.00000e-02	5.580806e-05	
2	-1.00000e-01	5.489711e-05	
3	-1.50000e-01	5.398637e-05	
4	-2.00000e-01	5.307586e-05	
5	-2.50000e-01	5.216558e-05	
6	-3.00000e-01	5.125551e-05	
7	-3.50000e-01	5.034567e-05	
8	-4.00000e-01	4.943606e-05	
9	-4.50000e-01	4.852666e-05	
10	-5.00000e-01	4.761750e-05	
11	-5.50000e-01	4.670855e-05	
12	-6.00000e-01	4.579984e-05	
13	-6.50000e-01	4.489135e-05	
14	-7.00000e-01	4.398308e-05	
15	-7.50000e-01	4.307505e-05	
16	-8.00000e-01	4.216724e-05	
17	-8.50000e-01	4.125966e-05	
18	-9.00000e-01	4.035232e-05	
19	-9.50000e-01	3.944521e-05	
20	-1.00000e+00	3.853833e-05	
21	-1.05000e+00	3.763169e-05	
22	-1.10000e+00	3.672529e-05	
23	-1.15000e+00	3.581913e-05	
24	-1.20000e+00	3.491321e-05	
25	-1.25000e+00	3.400754e-05	
26	-1.30000e+00	3.310213e-05	
27	-1.35000e+00	3.219697e-05	
28	-1.40000e+00	3.129207e-05	
29	-1.45000e+00	3.038744e-05	
30	-1.50000e+00	2.948309e-05	
31	-1.55000e+00	2.857902e-05	
32	-1.60000e+00	2.767524e-05	
33	-1.65000e+00	2.677177e-05	
34	-1.70000e+00	2.586862e-05	
35	-1.75000e+00	2.496581e-05	
36	-1.80000e+00	2.406335e-05	
37	-1.85000e+00	2.316128e-05	
38	-1.90000e+00	2.225963e-05	
39	-1.95000e+00	2.135842e-05	
40	-2.00000e+00	2.045772e-05	
41	-2.05000e+00	1.955758e-05	
42	-2.10000e+00	1.865807e-05	
43	-2.15000e+00	1.775929e-05	
44	-2.20000e+00	1.686135e-05	
45	-2.25000e+00	1.596442e-05	
46	-2.30000e+00	1.506869e-05	
47	-2.35000e+00	1.417444e-05	
48	-2.40000e+00	1.328202e-05	
49	-2.45000e+00	1.239191e-05	
50	-2.50000e+00	1.150478e-05	
51	-2.55000e+00	1.062153e-05	
52	-2.60000e+00	9.743430e-06	
53	-2.65000e+00	8.872274e-06	
54	-2.70000e+00	8.010599e-06	

Index   v-sweep         rds             
--------------------------------------------------------------------------------
55	-2.75000e+00	7.162016e-06	
56	-2.80000e+00	6.331645e-06	
57	-2.85000e+00	5.526639e-06	
58	-2.90000e+00	4.756697e-06	
59	-2.95000e+00	4.034272e-06	
60	-3.00000e+00	3.373967e-06	
61	-3.05000e+00	2.790556e-06	
62	-3.10000e+00	2.295564e-06	
63	-3.15000e+00	1.893607e-06	
64	-3.20000e+00	1.580587e-06	
65	-3.25000e+00	1.345061e-06	
66	-3.30000e+00	1.171862e-06	
67	-3.35000e+00	1.045797e-06	
68	-3.40000e+00	9.539156e-07	
69	-3.45000e+00	8.862407e-07	
70	-3.50000e+00	8.355472e-07	
71	-3.55000e+00	7.967818e-07	
72	-3.60000e+00	7.664680e-07	
73	-3.65000e+00	7.422245e-07	
74	-3.70000e+00	7.224136e-07	
75	-3.75000e+00	7.058985e-07	
76	-3.80000e+00	6.918805e-07	
77	-3.85000e+00	6.797901e-07	
78	-3.90000e+00	6.692152e-07	
79	-3.95000e+00	6.598525e-07	
80	-4.00000e+00	6.514754e-07	
81	-4.05000e+00	6.439120e-07	
82	-4.10000e+00	6.370296e-07	
83	-4.15000e+00	6.307246e-07	
84	-4.20000e+00	6.249148e-07	
85	-4.25000e+00	6.195341e-07	
86	-4.30000e+00	6.145286e-07	
87	-4.35000e+00	6.098542e-07	
88	-4.40000e+00	6.054739e-07	
89	-4.45000e+00	6.013567e-07	
90	-4.50000e+00	5.974764e-07	
91	-4.55000e+00	5.938105e-07	
92	-4.60000e+00	5.903395e-07	
93	-4.65000e+00	5.870464e-07	
94	-4.70000e+00	5.839166e-07	
95	-4.75000e+00	5.809371e-07	
96	-4.80000e+00	5.780962e-07	
97	-4.85000e+00	5.753838e-07	
98	-4.90000e+00	5.727906e-07	
99	-4.95000e+00	5.703084e-07	
100	-5.00000e+00	5.679298e-07	
101	-5.05000e+00	5.656481e-07	
102	-5.10000e+00	5.634570e-07	
103	-5.15000e+00	5.613511e-07	
104	-5.20000e+00	5.593253e-07	
105	-5.25000e+00	5.573748e-07	
106	-5.30000e+00	5.554954e-07	
107	-5.35000e+00	5.536832e-07	
108	-5.40000e+00	5.519344e-07	
109	-5.45000e+00	5.502457e-07	
110	-5.50000e+00	5.486139e-07	
111	-5.55000e+00	5.470363e-07	
112	-5.60000e+00	5.455100e-07	

Index   v-sweep         rds             
--------------------------------------------------------------------------------
113	-5.65000e+00	5.440325e-07	
114	-5.70000e+00	5.426015e-07	
115	-5.75000e+00	5.412148e-07	
116	-5.80000e+00	5.398703e-07	
117	-5.85000e+00	5.385661e-07	
118	-5.90000e+00	5.373004e-07	
119	-5.95000e+00	5.360716e-07	
120	-6.00000e+00	5.348779e-07	
121	-6.05000e+00	5.337179e-07	
122	-6.10000e+00	5.325903e-07	
123	-6.15000e+00	5.314936e-07	
124	-6.20000e+00	5.304265e-07	
125	-6.25000e+00	5.293880e-07	
126	-6.30000e+00	5.283769e-07	
127	-6.35000e+00	5.273922e-07	
128	-6.40000e+00	5.264327e-07	
129	-6.45000e+00	5.254976e-07	
130	-6.50000e+00	5.245860e-07	
131	-6.55000e+00	5.236970e-07	
132	-6.60000e+00	5.228298e-07	
Reset re-loads circuit ***************************

Circuit: ***************************

Doing analysis at TEMP = 125.000000 and TNOM = 125.000000


No. of Data Rows : 133
                          ***************************
                          DC transfer characteristic  Mon Jan  9 13:58:53  2023
--------------------------------------------------------------------------------
Index   v-sweep         rds             
--------------------------------------------------------------------------------
0	0.000000e+00	6.634742e-05	
1	-5.00000e-02	6.549327e-05	
2	-1.00000e-01	6.463931e-05	
3	-1.50000e-01	6.378557e-05	
4	-2.00000e-01	6.293202e-05	
5	-2.50000e-01	6.207868e-05	
6	-3.00000e-01	6.122555e-05	
7	-3.50000e-01	6.037261e-05	
8	-4.00000e-01	5.951989e-05	
9	-4.50000e-01	5.866737e-05	
10	-5.00000e-01	5.781505e-05	
11	-5.50000e-01	5.696294e-05	
12	-6.00000e-01	5.611103e-05	
13	-6.50000e-01	5.525933e-05	
14	-7.00000e-01	5.440783e-05	
15	-7.50000e-01	5.355654e-05	
16	-8.00000e-01	5.270546e-05	
17	-8.50000e-01	5.185458e-05	
18	-9.00000e-01	5.100391e-05	
19	-9.50000e-01	5.015345e-05	
20	-1.00000e+00	4.930319e-05	
21	-1.05000e+00	4.845314e-05	
22	-1.10000e+00	4.760330e-05	
23	-1.15000e+00	4.675367e-05	
24	-1.20000e+00	4.590425e-05	
25	-1.25000e+00	4.505505e-05	
26	-1.30000e+00	4.420605e-05	
27	-1.35000e+00	4.335727e-05	
28	-1.40000e+00	4.250870e-05	
29	-1.45000e+00	4.166034e-05	
30	-1.50000e+00	4.081221e-05	
31	-1.55000e+00	3.996429e-05	
32	-1.60000e+00	3.911659e-05	
33	-1.65000e+00	3.826911e-05	
34	-1.70000e+00	3.742186e-05	
35	-1.75000e+00	3.657483e-05	
36	-1.80000e+00	3.572804e-05	
37	-1.85000e+00	3.488148e-05	
38	-1.90000e+00	3.403515e-05	
39	-1.95000e+00	3.318907e-05	
40	-2.00000e+00	3.234323e-05	
41	-2.05000e+00	3.149765e-05	
42	-2.10000e+00	3.065232e-05	
43	-2.15000e+00	2.980726e-05	
44	-2.20000e+00	2.896248e-05	
45	-2.25000e+00	2.811798e-05	
46	-2.30000e+00	2.727378e-05	
47	-2.35000e+00	2.642990e-05	
48	-2.40000e+00	2.558634e-05	
49	-2.45000e+00	2.474313e-05	
50	-2.50000e+00	2.390029e-05	
51	-2.55000e+00	2.305786e-05	
52	-2.60000e+00	2.221586e-05	
53	-2.65000e+00	2.137433e-05	
54	-2.70000e+00	2.053334e-05	

Index   v-sweep         rds             
--------------------------------------------------------------------------------
55	-2.75000e+00	1.969293e-05	
56	-2.80000e+00	1.885318e-05	
57	-2.85000e+00	1.801420e-05	
58	-2.90000e+00	1.717609e-05	
59	-2.95000e+00	1.633901e-05	
60	-3.00000e+00	1.550314e-05	
61	-3.05000e+00	1.466874e-05	
62	-3.10000e+00	1.383611e-05	
63	-3.15000e+00	1.300567e-05	
64	-3.20000e+00	1.217796e-05	
65	-3.25000e+00	1.135370e-05	
66	-3.30000e+00	1.053388e-05	
67	-3.35000e+00	9.719787e-06	
68	-3.40000e+00	8.913218e-06	
69	-3.45000e+00	8.116602e-06	
70	-3.50000e+00	7.333258e-06	
71	-3.55000e+00	6.567674e-06	
72	-3.60000e+00	5.825834e-06	
73	-3.65000e+00	5.115475e-06	
74	-3.70000e+00	4.446139e-06	
75	-3.75000e+00	3.828716e-06	
76	-3.80000e+00	3.274238e-06	
77	-3.85000e+00	2.791870e-06	
78	-3.90000e+00	2.386629e-06	
79	-3.95000e+00	2.057831e-06	
80	-4.00000e+00	1.799176e-06	
81	-4.05000e+00	1.600462e-06	
82	-4.10000e+00	1.449990e-06	
83	-4.15000e+00	1.336610e-06	
84	-4.20000e+00	1.250869e-06	
85	-4.25000e+00	1.185353e-06	
86	-4.30000e+00	1.134526e-06	
87	-4.35000e+00	1.094378e-06	
88	-4.40000e+00	1.062047e-06	
89	-4.45000e+00	1.035501e-06	
90	-4.50000e+00	1.013298e-06	
91	-4.55000e+00	9.944045e-07	
92	-4.60000e+00	9.780758e-07	
93	-4.65000e+00	9.637677e-07	
94	-4.70000e+00	9.510776e-07	
95	-4.75000e+00	9.397038e-07	
96	-4.80000e+00	9.294165e-07	
97	-4.85000e+00	9.200388e-07	
98	-4.90000e+00	9.114323e-07	
99	-4.95000e+00	9.034872e-07	
100	-5.00000e+00	8.961157e-07	
101	-5.05000e+00	8.892460e-07	
102	-5.10000e+00	8.828194e-07	
103	-5.15000e+00	8.767870e-07	
104	-5.20000e+00	8.711076e-07	
105	-5.25000e+00	8.657464e-07	
106	-5.30000e+00	8.606736e-07	
107	-5.35000e+00	8.558635e-07	
108	-5.40000e+00	8.512936e-07	
109	-5.45000e+00	8.469444e-07	
110	-5.50000e+00	8.427986e-07	
111	-5.55000e+00	8.388409e-07	
112	-5.60000e+00	8.350577e-07	

Index   v-sweep         rds             
--------------------------------------------------------------------------------
113	-5.65000e+00	8.314367e-07	
114	-5.70000e+00	8.279671e-07	
115	-5.75000e+00	8.246389e-07	
116	-5.80000e+00	8.214430e-07	
117	-5.85000e+00	8.183714e-07	
118	-5.90000e+00	8.154165e-07	
119	-5.95000e+00	8.125716e-07	
120	-6.00000e+00	8.098302e-07	
121	-6.05000e+00	8.071868e-07	
122	-6.10000e+00	8.046358e-07	
123	-6.15000e+00	8.021725e-07	
124	-6.20000e+00	7.997922e-07	
125	-6.25000e+00	7.974907e-07	
126	-6.30000e+00	7.952641e-07	
127	-6.35000e+00	7.931087e-07	
128	-6.40000e+00	7.910210e-07	
129	-6.45000e+00	7.889979e-07	
130	-6.50000e+00	7.870364e-07	
131	-6.55000e+00	7.851336e-07	
132	-6.60000e+00	7.832870e-07	
Reset re-loads circuit ***************************

Circuit: ***************************

Note: No ".plot", ".print", or ".fourier" lines; no simulations run
