
Note: Compatibility modes selected: hs

Warning: m=xx on .subckt line will override multiplier m hierarchy!


Circuit: ***************************

Doing analysis at TEMP = 25.000000 and TNOM = 25.000000


No. of Data Rows : 133
                          ***************************
                          DC transfer characteristic  Mon Jan  9 13:58:52  2023
--------------------------------------------------------------------------------
Index   v-sweep         rds             
--------------------------------------------------------------------------------
0	0.000000e+00	3.808990e-06	
1	-5.00000e-02	2.462058e-06	
2	-1.00000e-01	1.228909e-06	
3	-1.50000e-01	4.008755e-07	
4	-2.00000e-01	1.214495e-07	
5	-2.50000e-01	5.658862e-08	
6	-3.00000e-01	3.778603e-08	
7	-3.50000e-01	3.013691e-08	
8	-4.00000e-01	2.605925e-08	
9	-4.50000e-01	2.344053e-08	
10	-5.00000e-01	2.154449e-08	
11	-5.50000e-01	2.006394e-08	
12	-6.00000e-01	1.885075e-08	
13	-6.50000e-01	1.782451e-08	
14	-7.00000e-01	1.693717e-08	
15	-7.50000e-01	1.615772e-08	
16	-8.00000e-01	1.546487e-08	
17	-8.50000e-01	1.484325e-08	
18	-9.00000e-01	1.428136e-08	
19	-9.50000e-01	1.377029e-08	
20	-1.00000e+00	1.330299e-08	
21	-1.05000e+00	1.287376e-08	
22	-1.10000e+00	1.247791e-08	
23	-1.15000e+00	1.211156e-08	
24	-1.20000e+00	1.177143e-08	
25	-1.25000e+00	1.145471e-08	
26	-1.30000e+00	1.115902e-08	
27	-1.35000e+00	1.088229e-08	
28	-1.40000e+00	1.062274e-08	
29	-1.45000e+00	1.037878e-08	
30	-1.50000e+00	1.014904e-08	
31	-1.55000e+00	9.932296e-09	
32	-1.60000e+00	9.727474e-09	
33	-1.65000e+00	9.533608e-09	
34	-1.70000e+00	9.349840e-09	
35	-1.75000e+00	9.175396e-09	
36	-1.80000e+00	9.009584e-09	
37	-1.85000e+00	8.851778e-09	
38	-1.90000e+00	8.701412e-09	
39	-1.95000e+00	8.557971e-09	
40	-2.00000e+00	8.420988e-09	
41	-2.05000e+00	8.290039e-09	
42	-2.10000e+00	8.164733e-09	
43	-2.15000e+00	8.044715e-09	
44	-2.20000e+00	7.929658e-09	
45	-2.25000e+00	7.819263e-09	
46	-2.30000e+00	7.713252e-09	
47	-2.35000e+00	7.611371e-09	
48	-2.40000e+00	7.513384e-09	
49	-2.45000e+00	7.419075e-09	
50	-2.50000e+00	7.328240e-09	
51	-2.55000e+00	7.240693e-09	
52	-2.60000e+00	7.156260e-09	
53	-2.65000e+00	7.074779e-09	
54	-2.70000e+00	6.996098e-09	

Index   v-sweep         rds             
--------------------------------------------------------------------------------
55	-2.75000e+00	6.920078e-09	
56	-2.80000e+00	6.846587e-09	
57	-2.85000e+00	6.775502e-09	
58	-2.90000e+00	6.706709e-09	
59	-2.95000e+00	6.640098e-09	
60	-3.00000e+00	6.575570e-09	
61	-3.05000e+00	6.513029e-09	
62	-3.10000e+00	6.452386e-09	
63	-3.15000e+00	6.393558e-09	
64	-3.20000e+00	6.336465e-09	
65	-3.25000e+00	6.281034e-09	
66	-3.30000e+00	6.227193e-09	
67	-3.35000e+00	6.174877e-09	
68	-3.40000e+00	6.124024e-09	
69	-3.45000e+00	6.074574e-09	
70	-3.50000e+00	6.026471e-09	
71	-3.55000e+00	5.979664e-09	
72	-3.60000e+00	5.934101e-09	
73	-3.65000e+00	5.889735e-09	
74	-3.70000e+00	5.846521e-09	
75	-3.75000e+00	5.804417e-09	
76	-3.80000e+00	5.763383e-09	
77	-3.85000e+00	5.723380e-09	
78	-3.90000e+00	5.684371e-09	
79	-3.95000e+00	5.646321e-09	
80	-4.00000e+00	5.609199e-09	
81	-4.05000e+00	5.572972e-09	
82	-4.10000e+00	5.537610e-09	
83	-4.15000e+00	5.503086e-09	
84	-4.20000e+00	5.469371e-09	
85	-4.25000e+00	5.436441e-09	
86	-4.30000e+00	5.404270e-09	
87	-4.35000e+00	5.372836e-09	
88	-4.40000e+00	5.342115e-09	
89	-4.45000e+00	5.312086e-09	
90	-4.50000e+00	5.282729e-09	
91	-4.55000e+00	5.254024e-09	
92	-4.60000e+00	5.225953e-09	
93	-4.65000e+00	5.198497e-09	
94	-4.70000e+00	5.171640e-09	
95	-4.75000e+00	5.145365e-09	
96	-4.80000e+00	5.119657e-09	
97	-4.85000e+00	5.094500e-09	
98	-4.90000e+00	5.069881e-09	
99	-4.95000e+00	5.045784e-09	
100	-5.00000e+00	5.022199e-09	
101	-5.05000e+00	4.999110e-09	
102	-5.10000e+00	4.976507e-09	
103	-5.15000e+00	4.954378e-09	
104	-5.20000e+00	4.932711e-09	
105	-5.25000e+00	4.911496e-09	
106	-5.30000e+00	4.890722e-09	
107	-5.35000e+00	4.870379e-09	
108	-5.40000e+00	4.850459e-09	
109	-5.45000e+00	4.830950e-09	
110	-5.50000e+00	4.811846e-09	
111	-5.55000e+00	4.793136e-09	
112	-5.60000e+00	4.774813e-09	

Index   v-sweep         rds             
--------------------------------------------------------------------------------
113	-5.65000e+00	4.756869e-09	
114	-5.70000e+00	4.739296e-09	
115	-5.75000e+00	4.722087e-09	
116	-5.80000e+00	4.705234e-09	
117	-5.85000e+00	4.688731e-09	
118	-5.90000e+00	4.672571e-09	
119	-5.95000e+00	4.656747e-09	
120	-6.00000e+00	4.641253e-09	
121	-6.05000e+00	4.626084e-09	
122	-6.10000e+00	4.611232e-09	
123	-6.15000e+00	4.596694e-09	
124	-6.20000e+00	4.582462e-09	
125	-6.25000e+00	4.568532e-09	
126	-6.30000e+00	4.554898e-09	
127	-6.35000e+00	4.541556e-09	
128	-6.40000e+00	4.528501e-09	
129	-6.45000e+00	4.515727e-09	
130	-6.50000e+00	4.503230e-09	
131	-6.55000e+00	4.491006e-09	
132	-6.60000e+00	4.479051e-09	
Reset re-loads circuit ***************************

Circuit: ***************************

Doing analysis at TEMP = 25.000000 and TNOM = 25.000000


No. of Data Rows : 133
                          ***************************
                          DC transfer characteristic  Mon Jan  9 13:58:52  2023
--------------------------------------------------------------------------------
Index   v-sweep         rds             
--------------------------------------------------------------------------------
0	0.000000e+00	2.752034e-05	
1	-5.00000e-02	2.587378e-05	
2	-1.00000e-01	2.423687e-05	
3	-1.50000e-01	2.260963e-05	
4	-2.00000e-01	2.099210e-05	
5	-2.50000e-01	1.938436e-05	
6	-3.00000e-01	1.778659e-05	
7	-3.50000e-01	1.619909e-05	
8	-4.00000e-01	1.462239e-05	
9	-4.50000e-01	1.305745e-05	
10	-5.00000e-01	1.150596e-05	
11	-5.50000e-01	9.971102e-06	
12	-6.00000e-01	8.459024e-06	
13	-6.50000e-01	6.981969e-06	
14	-7.00000e-01	5.564545e-06	
15	-7.50000e-01	4.253806e-06	
16	-8.00000e-01	3.125309e-06	
17	-8.50000e-01	2.258459e-06	
18	-9.00000e-01	1.674222e-06	
19	-9.50000e-01	1.313665e-06	
20	-1.00000e+00	1.093049e-06	
21	-1.05000e+00	9.507130e-07	
22	-1.10000e+00	8.517814e-07	
23	-1.15000e+00	7.781177e-07	
24	-1.20000e+00	7.202244e-07	
25	-1.25000e+00	6.728835e-07	
26	-1.30000e+00	6.330433e-07	
27	-1.35000e+00	5.988025e-07	
28	-1.40000e+00	5.689060e-07	
29	-1.45000e+00	5.424826e-07	
30	-1.50000e+00	5.189013e-07	
31	-1.55000e+00	4.976894e-07	
32	-1.60000e+00	4.784823e-07	
33	-1.65000e+00	4.609924e-07	
34	-1.70000e+00	4.449881e-07	
35	-1.75000e+00	4.302803e-07	
36	-1.80000e+00	4.167123e-07	
37	-1.85000e+00	4.041528e-07	
38	-1.90000e+00	3.924906e-07	
39	-1.95000e+00	3.816311e-07	
40	-2.00000e+00	3.714927e-07	
41	-2.05000e+00	3.620048e-07	
42	-2.10000e+00	3.531059e-07	
43	-2.15000e+00	3.447424e-07	
44	-2.20000e+00	3.368669e-07	
45	-2.25000e+00	3.294376e-07	
46	-2.30000e+00	3.224173e-07	
47	-2.35000e+00	3.157730e-07	
48	-2.40000e+00	3.094752e-07	
49	-2.45000e+00	3.034974e-07	
50	-2.50000e+00	2.978156e-07	
51	-2.55000e+00	2.924085e-07	
52	-2.60000e+00	2.872565e-07	
53	-2.65000e+00	2.823420e-07	
54	-2.70000e+00	2.776490e-07	

Index   v-sweep         rds             
--------------------------------------------------------------------------------
55	-2.75000e+00	2.731627e-07	
56	-2.80000e+00	2.688698e-07	
57	-2.85000e+00	2.647581e-07	
58	-2.90000e+00	2.608164e-07	
59	-2.95000e+00	2.570344e-07	
60	-3.00000e+00	2.534025e-07	
61	-3.05000e+00	2.499120e-07	
62	-3.10000e+00	2.465549e-07	
63	-3.15000e+00	2.433236e-07	
64	-3.20000e+00	2.402113e-07	
65	-3.25000e+00	2.372115e-07	
66	-3.30000e+00	2.343182e-07	
67	-3.35000e+00	2.315260e-07	
68	-3.40000e+00	2.288295e-07	
69	-3.45000e+00	2.262240e-07	
70	-3.50000e+00	2.237050e-07	
71	-3.55000e+00	2.212683e-07	
72	-3.60000e+00	2.189099e-07	
73	-3.65000e+00	2.166262e-07	
74	-3.70000e+00	2.144136e-07	
75	-3.75000e+00	2.122689e-07	
76	-3.80000e+00	2.101891e-07	
77	-3.85000e+00	2.081714e-07	
78	-3.90000e+00	2.062129e-07	
79	-3.95000e+00	2.043112e-07	
80	-4.00000e+00	2.024638e-07	
81	-4.05000e+00	2.006685e-07	
82	-4.10000e+00	1.989232e-07	
83	-4.15000e+00	1.972259e-07	
84	-4.20000e+00	1.955745e-07	
85	-4.25000e+00	1.939674e-07	
86	-4.30000e+00	1.924028e-07	
87	-4.35000e+00	1.908791e-07	
88	-4.40000e+00	1.893947e-07	
89	-4.45000e+00	1.879483e-07	
90	-4.50000e+00	1.865383e-07	
91	-4.55000e+00	1.851636e-07	
92	-4.60000e+00	1.838229e-07	
93	-4.65000e+00	1.825150e-07	
94	-4.70000e+00	1.812387e-07	
95	-4.75000e+00	1.799930e-07	
96	-4.80000e+00	1.787769e-07	
97	-4.85000e+00	1.775895e-07	
98	-4.90000e+00	1.764297e-07	
99	-4.95000e+00	1.752967e-07	
100	-5.00000e+00	1.741897e-07	
101	-5.05000e+00	1.731079e-07	
102	-5.10000e+00	1.720505e-07	
103	-5.15000e+00	1.710168e-07	
104	-5.20000e+00	1.700060e-07	
105	-5.25000e+00	1.690176e-07	
106	-5.30000e+00	1.680509e-07	
107	-5.35000e+00	1.671053e-07	
108	-5.40000e+00	1.661802e-07	
109	-5.45000e+00	1.652751e-07	
110	-5.50000e+00	1.643894e-07	
111	-5.55000e+00	1.635226e-07	
112	-5.60000e+00	1.626743e-07	

Index   v-sweep         rds             
--------------------------------------------------------------------------------
113	-5.65000e+00	1.618439e-07	
114	-5.70000e+00	1.610311e-07	
115	-5.75000e+00	1.602353e-07	
116	-5.80000e+00	1.594563e-07	
117	-5.85000e+00	1.586935e-07	
118	-5.90000e+00	1.579466e-07	
119	-5.95000e+00	1.572153e-07	
120	-6.00000e+00	1.564992e-07	
121	-6.05000e+00	1.557980e-07	
122	-6.10000e+00	1.551113e-07	
123	-6.15000e+00	1.544388e-07	
124	-6.20000e+00	1.537803e-07	
125	-6.25000e+00	1.531354e-07	
126	-6.30000e+00	1.525039e-07	
127	-6.35000e+00	1.518855e-07	
128	-6.40000e+00	1.512799e-07	
129	-6.45000e+00	1.506869e-07	
130	-6.50000e+00	1.501062e-07	
131	-6.55000e+00	1.495377e-07	
132	-6.60000e+00	1.489810e-07	
Reset re-loads circuit ***************************

Circuit: ***************************

Doing analysis at TEMP = 25.000000 and TNOM = 25.000000


No. of Data Rows : 133
                          ***************************
                          DC transfer characteristic  Mon Jan  9 13:58:52  2023
--------------------------------------------------------------------------------
Index   v-sweep         rds             
--------------------------------------------------------------------------------
0	0.000000e+00	4.688349e-05	
1	-5.00000e-02	4.532399e-05	
2	-1.00000e-01	4.377235e-05	
3	-1.50000e-01	4.222854e-05	
4	-2.00000e-01	4.069250e-05	
5	-2.50000e-01	3.916421e-05	
6	-3.00000e-01	3.764364e-05	
7	-3.50000e-01	3.613075e-05	
8	-4.00000e-01	3.462552e-05	
9	-4.50000e-01	3.312791e-05	
10	-5.00000e-01	3.163792e-05	
11	-5.50000e-01	3.015554e-05	
12	-6.00000e-01	2.868075e-05	
13	-6.50000e-01	2.721358e-05	
14	-7.00000e-01	2.575406e-05	
15	-7.50000e-01	2.430223e-05	
16	-8.00000e-01	2.285821e-05	
17	-8.50000e-01	2.142213e-05	
18	-9.00000e-01	1.999424e-05	
19	-9.50000e-01	1.857488e-05	
20	-1.00000e+00	1.716461e-05	
21	-1.05000e+00	1.576430e-05	
22	-1.10000e+00	1.437532e-05	
23	-1.15000e+00	1.299989e-05	
24	-1.20000e+00	1.164170e-05	
25	-1.25000e+00	1.030689e-05	
26	-1.30000e+00	9.005824e-06	
27	-1.35000e+00	7.755593e-06	
28	-1.40000e+00	6.582821e-06	
29	-1.45000e+00	5.523873e-06	
30	-1.50000e+00	4.617222e-06	
31	-1.55000e+00	3.886563e-06	
32	-1.60000e+00	3.326892e-06	
33	-1.65000e+00	2.908729e-06	
34	-1.70000e+00	2.595035e-06	
35	-1.75000e+00	2.354176e-06	
36	-1.80000e+00	2.163577e-06	
37	-1.85000e+00	2.008304e-06	
38	-1.90000e+00	1.878649e-06	
39	-1.95000e+00	1.768202e-06	
40	-2.00000e+00	1.672610e-06	
41	-2.05000e+00	1.588815e-06	
42	-2.10000e+00	1.514598e-06	
43	-2.15000e+00	1.448300e-06	
44	-2.20000e+00	1.388648e-06	
45	-2.25000e+00	1.334644e-06	
46	-2.30000e+00	1.285491e-06	
47	-2.35000e+00	1.240542e-06	
48	-2.40000e+00	1.199266e-06	
49	-2.45000e+00	1.161220e-06	
50	-2.50000e+00	1.126031e-06	
51	-2.55000e+00	1.093386e-06	
52	-2.60000e+00	1.063012e-06	
53	-2.65000e+00	1.034680e-06	
54	-2.70000e+00	1.008187e-06	

Index   v-sweep         rds             
--------------------------------------------------------------------------------
55	-2.75000e+00	9.833599e-07	
56	-2.80000e+00	9.600440e-07	
57	-2.85000e+00	9.381052e-07	
58	-2.90000e+00	9.174243e-07	
59	-2.95000e+00	8.978959e-07	
60	-3.00000e+00	8.794260e-07	
61	-3.05000e+00	8.619306e-07	
62	-3.10000e+00	8.453344e-07	
63	-3.15000e+00	8.295699e-07	
64	-3.20000e+00	8.145760e-07	
65	-3.25000e+00	8.002975e-07	
66	-3.30000e+00	7.866846e-07	
67	-3.35000e+00	7.736916e-07	
68	-3.40000e+00	7.612774e-07	
69	-3.45000e+00	7.494040e-07	
70	-3.50000e+00	7.380371e-07	
71	-3.55000e+00	7.271449e-07	
72	-3.60000e+00	7.166983e-07	
73	-3.65000e+00	7.066707e-07	
74	-3.70000e+00	6.970373e-07	
75	-3.75000e+00	6.877755e-07	
76	-3.80000e+00	6.788643e-07	
77	-3.85000e+00	6.702841e-07	
78	-3.90000e+00	6.620170e-07	
79	-3.95000e+00	6.540462e-07	
80	-4.00000e+00	6.463560e-07	
81	-4.05000e+00	6.389321e-07	
82	-4.10000e+00	6.317608e-07	
83	-4.15000e+00	6.248296e-07	
84	-4.20000e+00	6.181266e-07	
85	-4.25000e+00	6.116409e-07	
86	-4.30000e+00	6.053621e-07	
87	-4.35000e+00	5.992806e-07	
88	-4.40000e+00	5.933873e-07	
89	-4.45000e+00	5.876736e-07	
90	-4.50000e+00	5.821315e-07	
91	-4.55000e+00	5.767535e-07	
92	-4.60000e+00	5.715326e-07	
93	-4.65000e+00	5.664620e-07	
94	-4.70000e+00	5.615353e-07	
95	-4.75000e+00	5.567468e-07	
96	-4.80000e+00	5.520907e-07	
97	-4.85000e+00	5.475617e-07	
98	-4.90000e+00	5.431549e-07	
99	-4.95000e+00	5.388655e-07	
100	-5.00000e+00	5.346889e-07	
101	-5.05000e+00	5.306209e-07	
102	-5.10000e+00	5.266575e-07	
103	-5.15000e+00	5.227949e-07	
104	-5.20000e+00	5.190294e-07	
105	-5.25000e+00	5.153576e-07	
106	-5.30000e+00	5.117762e-07	
107	-5.35000e+00	5.082820e-07	
108	-5.40000e+00	5.048722e-07	
109	-5.45000e+00	5.015440e-07	
110	-5.50000e+00	4.982945e-07	
111	-5.55000e+00	4.951214e-07	
112	-5.60000e+00	4.920222e-07	

Index   v-sweep         rds             
--------------------------------------------------------------------------------
113	-5.65000e+00	4.889945e-07	
114	-5.70000e+00	4.860362e-07	
115	-5.75000e+00	4.831451e-07	
116	-5.80000e+00	4.803194e-07	
117	-5.85000e+00	4.775569e-07	
118	-5.90000e+00	4.748560e-07	
119	-5.95000e+00	4.722149e-07	
120	-6.00000e+00	4.696320e-07	
121	-6.05000e+00	4.671055e-07	
122	-6.10000e+00	4.646341e-07	
123	-6.15000e+00	4.622163e-07	
124	-6.20000e+00	4.598506e-07	
125	-6.25000e+00	4.575358e-07	
126	-6.30000e+00	4.552706e-07	
127	-6.35000e+00	4.530537e-07	
128	-6.40000e+00	4.508840e-07	
129	-6.45000e+00	4.487604e-07	
130	-6.50000e+00	4.466817e-07	
131	-6.55000e+00	4.446470e-07	
132	-6.60000e+00	4.426553e-07	
Reset re-loads circuit ***************************

Circuit: ***************************

Doing analysis at TEMP = 25.000000 and TNOM = 25.000000


No. of Data Rows : 133
                          ***************************
                          DC transfer characteristic  Mon Jan  9 13:58:52  2023
--------------------------------------------------------------------------------
Index   v-sweep         rds             
--------------------------------------------------------------------------------
0	0.000000e+00	6.257855e-05	
1	-5.00000e-02	6.111552e-05	
2	-1.00000e-01	5.965910e-05	
3	-1.50000e-01	5.820925e-05	
4	-2.00000e-01	5.676593e-05	
5	-2.50000e-01	5.532913e-05	
6	-3.00000e-01	5.389880e-05	
7	-3.50000e-01	5.247491e-05	
8	-4.00000e-01	5.105744e-05	
9	-4.50000e-01	4.964636e-05	
10	-5.00000e-01	4.824163e-05	
11	-5.50000e-01	4.684324e-05	
12	-6.00000e-01	4.545114e-05	
13	-6.50000e-01	4.406531e-05	
14	-7.00000e-01	4.268574e-05	
15	-7.50000e-01	4.131239e-05	
16	-8.00000e-01	3.994525e-05	
17	-8.50000e-01	3.858428e-05	
18	-9.00000e-01	3.722949e-05	
19	-9.50000e-01	3.588084e-05	
20	-1.00000e+00	3.453833e-05	
21	-1.05000e+00	3.320196e-05	
22	-1.10000e+00	3.187172e-05	
23	-1.15000e+00	3.054763e-05	
24	-1.20000e+00	2.922970e-05	
25	-1.25000e+00	2.791797e-05	
26	-1.30000e+00	2.661249e-05	
27	-1.35000e+00	2.531334e-05	
28	-1.40000e+00	2.402063e-05	
29	-1.45000e+00	2.273455e-05	
30	-1.50000e+00	2.145531e-05	
31	-1.55000e+00	2.018329e-05	
32	-1.60000e+00	1.891897e-05	
33	-1.65000e+00	1.766311e-05	
34	-1.70000e+00	1.641680e-05	
35	-1.75000e+00	1.518171e-05	
36	-1.80000e+00	1.396035e-05	
37	-1.85000e+00	1.275662e-05	
38	-1.90000e+00	1.157648e-05	
39	-1.95000e+00	1.042905e-05	
40	-2.00000e+00	9.327658e-06	
41	-2.05000e+00	8.290563e-06	
42	-2.10000e+00	7.339655e-06	
43	-2.15000e+00	6.495930e-06	
44	-2.20000e+00	5.772439e-06	
45	-2.25000e+00	5.169154e-06	
46	-2.30000e+00	4.673938e-06	
47	-2.35000e+00	4.268384e-06	
48	-2.40000e+00	3.933735e-06	
49	-2.45000e+00	3.654077e-06	
50	-2.50000e+00	3.417071e-06	
51	-2.55000e+00	3.213508e-06	
52	-2.60000e+00	3.036575e-06	
53	-2.65000e+00	2.881191e-06	
54	-2.70000e+00	2.743513e-06	

Index   v-sweep         rds             
--------------------------------------------------------------------------------
55	-2.75000e+00	2.620586e-06	
56	-2.80000e+00	2.510094e-06	
57	-2.85000e+00	2.410198e-06	
58	-2.90000e+00	2.319414e-06	
59	-2.95000e+00	2.236529e-06	
60	-3.00000e+00	2.160541e-06	
61	-3.05000e+00	2.090615e-06	
62	-3.10000e+00	2.026046e-06	
63	-3.15000e+00	1.966237e-06	
64	-3.20000e+00	1.910678e-06	
65	-3.25000e+00	1.858929e-06	
66	-3.30000e+00	1.810609e-06	
67	-3.35000e+00	1.765389e-06	
68	-3.40000e+00	1.722978e-06	
69	-3.45000e+00	1.683122e-06	
70	-3.50000e+00	1.645597e-06	
71	-3.55000e+00	1.610205e-06	
72	-3.60000e+00	1.576768e-06	
73	-3.65000e+00	1.545129e-06	
74	-3.70000e+00	1.515147e-06	
75	-3.75000e+00	1.486695e-06	
76	-3.80000e+00	1.459660e-06	
77	-3.85000e+00	1.433938e-06	
78	-3.90000e+00	1.409436e-06	
79	-3.95000e+00	1.386070e-06	
80	-4.00000e+00	1.363762e-06	
81	-4.05000e+00	1.342442e-06	
82	-4.10000e+00	1.322047e-06	
83	-4.15000e+00	1.302518e-06	
84	-4.20000e+00	1.283801e-06	
85	-4.25000e+00	1.265846e-06	
86	-4.30000e+00	1.248608e-06	
87	-4.35000e+00	1.232045e-06	
88	-4.40000e+00	1.216118e-06	
89	-4.45000e+00	1.200793e-06	
90	-4.50000e+00	1.186034e-06	
91	-4.55000e+00	1.171812e-06	
92	-4.60000e+00	1.158098e-06	
93	-4.65000e+00	1.144865e-06	
94	-4.70000e+00	1.132089e-06	
95	-4.75000e+00	1.119746e-06	
96	-4.80000e+00	1.107815e-06	
97	-4.85000e+00	1.096276e-06	
98	-4.90000e+00	1.085110e-06	
99	-4.95000e+00	1.074299e-06	
100	-5.00000e+00	1.063827e-06	
101	-5.05000e+00	1.053678e-06	
102	-5.10000e+00	1.043838e-06	
103	-5.15000e+00	1.034292e-06	
104	-5.20000e+00	1.025028e-06	
105	-5.25000e+00	1.016035e-06	
106	-5.30000e+00	1.007299e-06	
107	-5.35000e+00	9.988115e-07	
108	-5.40000e+00	9.905611e-07	
109	-5.45000e+00	9.825384e-07	
110	-5.50000e+00	9.747344e-07	
111	-5.55000e+00	9.671405e-07	
112	-5.60000e+00	9.597484e-07	

Index   v-sweep         rds             
--------------------------------------------------------------------------------
113	-5.65000e+00	9.525506e-07	
114	-5.70000e+00	9.455398e-07	
115	-5.75000e+00	9.387089e-07	
116	-5.80000e+00	9.320516e-07	
117	-5.85000e+00	9.255614e-07	
118	-5.90000e+00	9.192326e-07	
119	-5.95000e+00	9.130595e-07	
120	-6.00000e+00	9.070369e-07	
121	-6.05000e+00	9.011595e-07	
122	-6.10000e+00	8.954227e-07	
123	-6.15000e+00	8.898219e-07	
124	-6.20000e+00	8.843527e-07	
125	-6.25000e+00	8.790109e-07	
126	-6.30000e+00	8.737926e-07	
127	-6.35000e+00	8.686940e-07	
128	-6.40000e+00	8.637116e-07	
129	-6.45000e+00	8.588419e-07	
130	-6.50000e+00	8.540817e-07	
131	-6.55000e+00	8.494278e-07	
132	-6.60000e+00	8.448774e-07	
Reset re-loads circuit ***************************

Circuit: ***************************

Doing analysis at TEMP = 25.000000 and TNOM = 25.000000


No. of Data Rows : 133
                          ***************************
                          DC transfer characteristic  Mon Jan  9 13:58:52  2023
--------------------------------------------------------------------------------
Index   v-sweep         rds             
--------------------------------------------------------------------------------
0	0.000000e+00	7.577814e-05	
1	-5.00000e-02	7.440412e-05	
2	-1.00000e-01	7.303575e-05	
3	-1.50000e-01	7.167300e-05	
4	-2.00000e-01	7.031584e-05	
5	-2.50000e-01	6.896425e-05	
6	-3.00000e-01	6.761821e-05	
7	-3.50000e-01	6.627768e-05	
8	-4.00000e-01	6.494265e-05	
9	-4.50000e-01	6.361309e-05	
10	-5.00000e-01	6.228897e-05	
11	-5.50000e-01	6.097027e-05	
12	-6.00000e-01	5.965696e-05	
13	-6.50000e-01	5.834904e-05	
14	-7.00000e-01	5.704645e-05	
15	-7.50000e-01	5.574920e-05	
16	-8.00000e-01	5.445725e-05	
17	-8.50000e-01	5.317058e-05	
18	-9.00000e-01	5.188917e-05	
19	-9.50000e-01	5.061300e-05	
20	-1.00000e+00	4.934205e-05	
21	-1.05000e+00	4.807629e-05	
22	-1.10000e+00	4.681571e-05	
23	-1.15000e+00	4.556029e-05	
24	-1.20000e+00	4.431000e-05	
25	-1.25000e+00	4.306485e-05	
26	-1.30000e+00	4.182480e-05	
27	-1.35000e+00	4.058984e-05	
28	-1.40000e+00	3.935997e-05	
29	-1.45000e+00	3.813517e-05	
30	-1.50000e+00	3.691544e-05	
31	-1.55000e+00	3.570077e-05	
32	-1.60000e+00	3.449116e-05	
33	-1.65000e+00	3.328662e-05	
34	-1.70000e+00	3.208715e-05	
35	-1.75000e+00	3.089279e-05	
36	-1.80000e+00	2.970356e-05	
37	-1.85000e+00	2.851950e-05	
38	-1.90000e+00	2.734069e-05	
39	-1.95000e+00	2.616720e-05	
40	-2.00000e+00	2.499916e-05	
41	-2.05000e+00	2.383674e-05	
42	-2.10000e+00	2.268016e-05	
43	-2.15000e+00	2.152974e-05	
44	-2.20000e+00	2.038591e-05	
45	-2.25000e+00	1.924929e-05	
46	-2.30000e+00	1.812075e-05	
47	-2.35000e+00	1.700153e-05	
48	-2.40000e+00	1.589343e-05	
49	-2.45000e+00	1.479904e-05	
50	-2.50000e+00	1.372216e-05	
51	-2.55000e+00	1.266822e-05	
52	-2.60000e+00	1.164490e-05	
53	-2.65000e+00	1.066246e-05	
54	-2.70000e+00	9.733604e-06	

Index   v-sweep         rds             
--------------------------------------------------------------------------------
55	-2.75000e+00	8.872140e-06	
56	-2.80000e+00	8.090273e-06	
57	-2.85000e+00	7.395401e-06	
58	-2.90000e+00	6.788188e-06	
59	-2.95000e+00	6.263082e-06	
60	-3.00000e+00	5.810681e-06	
61	-3.05000e+00	5.420328e-06	
62	-3.10000e+00	5.081890e-06	
63	-3.15000e+00	4.786569e-06	
64	-3.20000e+00	4.527072e-06	
65	-3.25000e+00	4.297480e-06	
66	-3.30000e+00	4.093025e-06	
67	-3.35000e+00	3.909856e-06	
68	-3.40000e+00	3.744851e-06	
69	-3.45000e+00	3.595461e-06	
70	-3.50000e+00	3.459583e-06	
71	-3.55000e+00	3.335475e-06	
72	-3.60000e+00	3.221681e-06	
73	-3.65000e+00	3.116972e-06	
74	-3.70000e+00	3.020307e-06	
75	-3.75000e+00	2.930799e-06	
76	-3.80000e+00	2.847684e-06	
77	-3.85000e+00	2.770305e-06	
78	-3.90000e+00	2.698089e-06	
79	-3.95000e+00	2.630540e-06	
80	-4.00000e+00	2.567221e-06	
81	-4.05000e+00	2.507749e-06	
82	-4.10000e+00	2.451784e-06	
83	-4.15000e+00	2.399028e-06	
84	-4.20000e+00	2.349212e-06	
85	-4.25000e+00	2.302099e-06	
86	-4.30000e+00	2.257477e-06	
87	-4.35000e+00	2.215152e-06	
88	-4.40000e+00	2.174953e-06	
89	-4.45000e+00	2.136725e-06	
90	-4.50000e+00	2.100327e-06	
91	-4.55000e+00	2.065630e-06	
92	-4.60000e+00	2.032520e-06	
93	-4.65000e+00	2.000890e-06	
94	-4.70000e+00	1.970643e-06	
95	-4.75000e+00	1.941691e-06	
96	-4.80000e+00	1.913954e-06	
97	-4.85000e+00	1.887356e-06	
98	-4.90000e+00	1.861830e-06	
99	-4.95000e+00	1.837311e-06	
100	-5.00000e+00	1.813743e-06	
101	-5.05000e+00	1.791070e-06	
102	-5.10000e+00	1.769244e-06	
103	-5.15000e+00	1.748217e-06	
104	-5.20000e+00	1.727948e-06	
105	-5.25000e+00	1.708395e-06	
106	-5.30000e+00	1.689523e-06	
107	-5.35000e+00	1.671295e-06	
108	-5.40000e+00	1.653681e-06	
109	-5.45000e+00	1.636649e-06	
110	-5.50000e+00	1.620172e-06	
111	-5.55000e+00	1.604223e-06	
112	-5.60000e+00	1.588777e-06	

Index   v-sweep         rds             
--------------------------------------------------------------------------------
113	-5.65000e+00	1.573811e-06	
114	-5.70000e+00	1.559304e-06	
115	-5.75000e+00	1.545234e-06	
116	-5.80000e+00	1.531583e-06	
117	-5.85000e+00	1.518332e-06	
118	-5.90000e+00	1.505464e-06	
119	-5.95000e+00	1.492964e-06	
120	-6.00000e+00	1.480815e-06	
121	-6.05000e+00	1.469003e-06	
122	-6.10000e+00	1.457516e-06	
123	-6.15000e+00	1.446340e-06	
124	-6.20000e+00	1.435463e-06	
125	-6.25000e+00	1.424873e-06	
126	-6.30000e+00	1.414560e-06	
127	-6.35000e+00	1.404514e-06	
128	-6.40000e+00	1.394724e-06	
129	-6.45000e+00	1.385181e-06	
130	-6.50000e+00	1.375877e-06	
131	-6.55000e+00	1.366804e-06	
132	-6.60000e+00	1.357952e-06	
Reset re-loads circuit ***************************

Circuit: ***************************

Doing analysis at TEMP = 25.000000 and TNOM = 25.000000


No. of Data Rows : 133
                          ***************************
                          DC transfer characteristic  Mon Jan  9 13:58:52  2023
--------------------------------------------------------------------------------
Index   v-sweep         rds             
--------------------------------------------------------------------------------
0	0.000000e+00	8.659108e-05	
1	-5.00000e-02	8.529985e-05	
2	-1.00000e-01	8.401350e-05	
3	-1.50000e-01	8.273200e-05	
4	-2.00000e-01	8.145534e-05	
5	-2.50000e-01	8.018350e-05	
6	-3.00000e-01	7.891645e-05	
7	-3.50000e-01	7.765418e-05	
8	-4.00000e-01	7.639667e-05	
9	-4.50000e-01	7.514389e-05	
10	-5.00000e-01	7.389582e-05	
11	-5.50000e-01	7.265246e-05	
12	-6.00000e-01	7.141376e-05	
13	-6.50000e-01	7.017973e-05	
14	-7.00000e-01	6.895033e-05	
15	-7.50000e-01	6.772555e-05	
16	-8.00000e-01	6.650537e-05	
17	-8.50000e-01	6.528976e-05	
18	-9.00000e-01	6.407872e-05	
19	-9.50000e-01	6.287222e-05	
20	-1.00000e+00	6.167025e-05	
21	-1.05000e+00	6.047278e-05	
22	-1.10000e+00	5.927980e-05	
23	-1.15000e+00	5.809129e-05	
24	-1.20000e+00	5.690724e-05	
25	-1.25000e+00	5.572761e-05	
26	-1.30000e+00	5.455241e-05	
27	-1.35000e+00	5.338161e-05	
28	-1.40000e+00	5.221520e-05	
29	-1.45000e+00	5.105315e-05	
30	-1.50000e+00	4.989546e-05	
31	-1.55000e+00	4.874211e-05	
32	-1.60000e+00	4.759309e-05	
33	-1.65000e+00	4.644837e-05	
34	-1.70000e+00	4.530796e-05	
35	-1.75000e+00	4.417184e-05	
36	-1.80000e+00	4.303999e-05	
37	-1.85000e+00	4.191241e-05	
38	-1.90000e+00	4.078909e-05	
39	-1.95000e+00	3.967002e-05	
40	-2.00000e+00	3.855519e-05	
41	-2.05000e+00	3.744462e-05	
42	-2.10000e+00	3.633829e-05	
43	-2.15000e+00	3.523621e-05	
44	-2.20000e+00	3.413839e-05	
45	-2.25000e+00	3.304485e-05	
46	-2.30000e+00	3.195560e-05	
47	-2.35000e+00	3.087068e-05	
48	-2.40000e+00	2.979012e-05	
49	-2.45000e+00	2.871398e-05	
50	-2.50000e+00	2.764234e-05	
51	-2.55000e+00	2.657528e-05	
52	-2.60000e+00	2.551293e-05	
53	-2.65000e+00	2.445547e-05	
54	-2.70000e+00	2.340311e-05	

Index   v-sweep         rds             
--------------------------------------------------------------------------------
55	-2.75000e+00	2.235614e-05	
56	-2.80000e+00	2.131497e-05	
57	-2.85000e+00	2.028014e-05	
58	-2.90000e+00	1.925237e-05	
59	-2.95000e+00	1.823270e-05	
60	-3.00000e+00	1.722251e-05	
61	-3.05000e+00	1.622377e-05	
62	-3.10000e+00	1.523918e-05	
63	-3.15000e+00	1.427249e-05	
64	-3.20000e+00	1.332875e-05	
65	-3.25000e+00	1.241454e-05	
66	-3.30000e+00	1.153791e-05	
67	-3.35000e+00	1.070789e-05	
68	-3.40000e+00	9.933316e-06	
69	-3.45000e+00	9.221228e-06	
70	-3.50000e+00	8.575476e-06	
71	-3.55000e+00	7.996163e-06	
72	-3.60000e+00	7.480122e-06	
73	-3.65000e+00	7.022028e-06	
74	-3.70000e+00	6.615578e-06	
75	-3.75000e+00	6.254369e-06	
76	-3.80000e+00	5.932422e-06	
77	-3.85000e+00	5.644411e-06	
78	-3.90000e+00	5.385716e-06	
79	-3.95000e+00	5.152390e-06	
80	-4.00000e+00	4.941084e-06	
81	-4.05000e+00	4.748965e-06	
82	-4.10000e+00	4.573631e-06	
83	-4.15000e+00	4.413045e-06	
84	-4.20000e+00	4.265472e-06	
85	-4.25000e+00	4.129430e-06	
86	-4.30000e+00	4.003646e-06	
87	-4.35000e+00	3.887024e-06	
88	-4.40000e+00	3.778614e-06	
89	-4.45000e+00	3.677592e-06	
90	-4.50000e+00	3.583237e-06	
91	-4.55000e+00	3.494920e-06	
92	-4.60000e+00	3.412084e-06	
93	-4.65000e+00	3.334242e-06	
94	-4.70000e+00	3.260958e-06	
95	-4.75000e+00	3.191849e-06	
96	-4.80000e+00	3.126570e-06	
97	-4.85000e+00	3.064814e-06	
98	-4.90000e+00	3.006306e-06	
99	-4.95000e+00	2.950799e-06	
100	-5.00000e+00	2.898068e-06	
101	-5.05000e+00	2.847913e-06	
102	-5.10000e+00	2.800151e-06	
103	-5.15000e+00	2.754615e-06	
104	-5.20000e+00	2.711155e-06	
105	-5.25000e+00	2.669632e-06	
106	-5.30000e+00	2.629922e-06	
107	-5.35000e+00	2.591908e-06	
108	-5.40000e+00	2.555485e-06	
109	-5.45000e+00	2.520555e-06	
110	-5.50000e+00	2.487030e-06	
111	-5.55000e+00	2.454827e-06	
112	-5.60000e+00	2.423869e-06	

Index   v-sweep         rds             
--------------------------------------------------------------------------------
113	-5.65000e+00	2.394086e-06	
114	-5.70000e+00	2.365414e-06	
115	-5.75000e+00	2.337791e-06	
116	-5.80000e+00	2.311161e-06	
117	-5.85000e+00	2.285473e-06	
118	-5.90000e+00	2.260676e-06	
119	-5.95000e+00	2.236727e-06	
120	-6.00000e+00	2.213582e-06	
121	-6.05000e+00	2.191203e-06	
122	-6.10000e+00	2.169551e-06	
123	-6.15000e+00	2.148593e-06	
124	-6.20000e+00	2.128296e-06	
125	-6.25000e+00	2.108629e-06	
126	-6.30000e+00	2.089564e-06	
127	-6.35000e+00	2.071074e-06	
128	-6.40000e+00	2.053133e-06	
129	-6.45000e+00	2.035719e-06	
130	-6.50000e+00	2.018808e-06	
131	-6.55000e+00	2.002379e-06	
132	-6.60000e+00	1.986412e-06	
Reset re-loads circuit ***************************

Circuit: ***************************

Note: No ".plot", ".print", or ".fourier" lines; no simulations run
