
Note: Compatibility modes selected: hs

Warning: m=xx on .subckt line will override multiplier m hierarchy!


Circuit: ***************************

Doing analysis at TEMP = -40.000000 and TNOM = -40.000000


No. of Data Rows : 133
                          ***************************
                          DC transfer characteristic  Mon Jan  9 13:58:53  2023
--------------------------------------------------------------------------------
Index   v-sweep         rds             
--------------------------------------------------------------------------------
0	0.000000e+00	2.332721e-06	
1	-5.00000e-02	1.304647e-06	
2	-1.00000e-01	4.854638e-07	
3	-1.50000e-01	1.423798e-07	
4	-2.00000e-01	7.074016e-08	
5	-2.50000e-01	5.331446e-08	
6	-3.00000e-01	4.654317e-08	
7	-3.50000e-01	4.277554e-08	
8	-4.00000e-01	4.018568e-08	
9	-4.50000e-01	3.819128e-08	
10	-5.00000e-01	3.655811e-08	
11	-5.50000e-01	3.517275e-08	
12	-6.00000e-01	3.397161e-08	
13	-6.50000e-01	3.291476e-08	
14	-7.00000e-01	3.197500e-08	
15	-7.50000e-01	3.113258e-08	
16	-8.00000e-01	3.037254e-08	
17	-8.50000e-01	2.968317e-08	
18	-9.00000e-01	2.905505e-08	
19	-9.50000e-01	2.848050e-08	
20	-1.00000e+00	2.795313e-08	
21	-1.05000e+00	2.746756e-08	
22	-1.10000e+00	2.701925e-08	
23	-1.15000e+00	2.660429e-08	
24	-1.20000e+00	2.621932e-08	
25	-1.25000e+00	2.586143e-08	
26	-1.30000e+00	2.552808e-08	
27	-1.35000e+00	2.521702e-08	
28	-1.40000e+00	2.492628e-08	
29	-1.45000e+00	2.465414e-08	
30	-1.50000e+00	2.439903e-08	
31	-1.55000e+00	2.415959e-08	
32	-1.60000e+00	2.393457e-08	
33	-1.65000e+00	2.372287e-08	
34	-1.70000e+00	2.352348e-08	
35	-1.75000e+00	2.333551e-08	
36	-1.80000e+00	2.315815e-08	
37	-1.85000e+00	2.299065e-08	
38	-1.90000e+00	2.283234e-08	
39	-1.95000e+00	2.268261e-08	
40	-2.00000e+00	2.254090e-08	
41	-2.05000e+00	2.240669e-08	
42	-2.10000e+00	2.227952e-08	
43	-2.15000e+00	2.215895e-08	
44	-2.20000e+00	2.204459e-08	
45	-2.25000e+00	2.193607e-08	
46	-2.30000e+00	2.183305e-08	
47	-2.35000e+00	2.173522e-08	
48	-2.40000e+00	2.164229e-08	
49	-2.45000e+00	2.155399e-08	
50	-2.50000e+00	2.147007e-08	
51	-2.55000e+00	2.139030e-08	
52	-2.60000e+00	2.131447e-08	
53	-2.65000e+00	2.124237e-08	
54	-2.70000e+00	2.117382e-08	

Index   v-sweep         rds             
--------------------------------------------------------------------------------
55	-2.75000e+00	2.110863e-08	
56	-2.80000e+00	2.104665e-08	
57	-2.85000e+00	2.098772e-08	
58	-2.90000e+00	2.093170e-08	
59	-2.95000e+00	2.087845e-08	
60	-3.00000e+00	2.082785e-08	
61	-3.05000e+00	2.077977e-08	
62	-3.10000e+00	2.073410e-08	
63	-3.15000e+00	2.069075e-08	
64	-3.20000e+00	2.064960e-08	
65	-3.25000e+00	2.061057e-08	
66	-3.30000e+00	2.057356e-08	
67	-3.35000e+00	2.053850e-08	
68	-3.40000e+00	2.050530e-08	
69	-3.45000e+00	2.047389e-08	
70	-3.50000e+00	2.044420e-08	
71	-3.55000e+00	2.041616e-08	
72	-3.60000e+00	2.038971e-08	
73	-3.65000e+00	2.036478e-08	
74	-3.70000e+00	2.034133e-08	
75	-3.75000e+00	2.031929e-08	
76	-3.80000e+00	2.029862e-08	
77	-3.85000e+00	2.027927e-08	
78	-3.90000e+00	2.026119e-08	
79	-3.95000e+00	2.024433e-08	
80	-4.00000e+00	2.022866e-08	
81	-4.05000e+00	2.021414e-08	
82	-4.10000e+00	2.020072e-08	
83	-4.15000e+00	2.018838e-08	
84	-4.20000e+00	2.017707e-08	
85	-4.25000e+00	2.016677e-08	
86	-4.30000e+00	2.015744e-08	
87	-4.35000e+00	2.014905e-08	
88	-4.40000e+00	2.014158e-08	
89	-4.45000e+00	2.013500e-08	
90	-4.50000e+00	2.012929e-08	
91	-4.55000e+00	2.012441e-08	
92	-4.60000e+00	2.012035e-08	
93	-4.65000e+00	2.011708e-08	
94	-4.70000e+00	2.011458e-08	
95	-4.75000e+00	2.011283e-08	
96	-4.80000e+00	2.011182e-08	
97	-4.85000e+00	2.011151e-08	
98	-4.90000e+00	2.011191e-08	
99	-4.95000e+00	2.011298e-08	
100	-5.00000e+00	2.011471e-08	
101	-5.05000e+00	2.011709e-08	
102	-5.10000e+00	2.012011e-08	
103	-5.15000e+00	2.012374e-08	
104	-5.20000e+00	2.012797e-08	
105	-5.25000e+00	2.013279e-08	
106	-5.30000e+00	2.013820e-08	
107	-5.35000e+00	2.014417e-08	
108	-5.40000e+00	2.015069e-08	
109	-5.45000e+00	2.015776e-08	
110	-5.50000e+00	2.016536e-08	
111	-5.55000e+00	2.017348e-08	
112	-5.60000e+00	2.018212e-08	

Index   v-sweep         rds             
--------------------------------------------------------------------------------
113	-5.65000e+00	2.019126e-08	
114	-5.70000e+00	2.020090e-08	
115	-5.75000e+00	2.021102e-08	
116	-5.80000e+00	2.022162e-08	
117	-5.85000e+00	2.023270e-08	
118	-5.90000e+00	2.024423e-08	
119	-5.95000e+00	2.025622e-08	
120	-6.00000e+00	2.026866e-08	
121	-6.05000e+00	2.028154e-08	
122	-6.10000e+00	2.029486e-08	
123	-6.15000e+00	2.030860e-08	
124	-6.20000e+00	2.032277e-08	
125	-6.25000e+00	2.033736e-08	
126	-6.30000e+00	2.035235e-08	
127	-6.35000e+00	2.036776e-08	
128	-6.40000e+00	2.038356e-08	
129	-6.45000e+00	2.039976e-08	
130	-6.50000e+00	2.041635e-08	
131	-6.55000e+00	2.043333e-08	
132	-6.60000e+00	2.045069e-08	
Reset re-loads circuit ***************************

Circuit: ***************************

Doing analysis at TEMP = -40.000000 and TNOM = -40.000000


No. of Data Rows : 133
                          ***************************
                          DC transfer characteristic  Mon Jan  9 13:58:53  2023
--------------------------------------------------------------------------------
Index   v-sweep         rds             
--------------------------------------------------------------------------------
0	0.000000e+00	2.141429e-05	
1	-5.00000e-02	1.997523e-05	
2	-1.00000e-01	1.856478e-05	
3	-1.50000e-01	1.718236e-05	
4	-2.00000e-01	1.582745e-05	
5	-2.50000e-01	1.449960e-05	
6	-3.00000e-01	1.319846e-05	
7	-3.50000e-01	1.192384e-05	
8	-4.00000e-01	1.067586e-05	
9	-4.50000e-01	9.455203e-06	
10	-5.00000e-01	8.263599e-06	
11	-5.50000e-01	7.104978e-06	
12	-6.00000e-01	5.987857e-06	
13	-6.50000e-01	4.930178e-06	
14	-7.00000e-01	3.966736e-06	
15	-7.50000e-01	3.151132e-06	
16	-8.00000e-01	2.530727e-06	
17	-8.50000e-01	2.102638e-06	
18	-9.00000e-01	1.816082e-06	
19	-9.50000e-01	1.616665e-06	
20	-1.00000e+00	1.468732e-06	
21	-1.05000e+00	1.352629e-06	
22	-1.10000e+00	1.257699e-06	
23	-1.15000e+00	1.177843e-06	
24	-1.20000e+00	1.109308e-06	
25	-1.25000e+00	1.049614e-06	
26	-1.30000e+00	9.970271e-07	
27	-1.35000e+00	9.502787e-07	
28	-1.40000e+00	9.084063e-07	
29	-1.45000e+00	8.706607e-07	
30	-1.50000e+00	8.364461e-07	
31	-1.55000e+00	8.052806e-07	
32	-1.60000e+00	7.767686e-07	
33	-1.65000e+00	7.505821e-07	
34	-1.70000e+00	7.264458e-07	
35	-1.75000e+00	7.041272e-07	
36	-1.80000e+00	6.834279e-07	
37	-1.85000e+00	6.641778e-07	
38	-1.90000e+00	6.462299e-07	
39	-1.95000e+00	6.294567e-07	
40	-2.00000e+00	6.137469e-07	
41	-2.05000e+00	5.990029e-07	
42	-2.10000e+00	5.851386e-07	
43	-2.15000e+00	5.720781e-07	
44	-2.20000e+00	5.597538e-07	
45	-2.25000e+00	5.481056e-07	
46	-2.30000e+00	5.370798e-07	
47	-2.35000e+00	5.266282e-07	
48	-2.40000e+00	5.167074e-07	
49	-2.45000e+00	5.072783e-07	
50	-2.50000e+00	4.983058e-07	
51	-2.55000e+00	4.897576e-07	
52	-2.60000e+00	4.816047e-07	
53	-2.65000e+00	4.738206e-07	
54	-2.70000e+00	4.663812e-07	

Index   v-sweep         rds             
--------------------------------------------------------------------------------
55	-2.75000e+00	4.592642e-07	
56	-2.80000e+00	4.524495e-07	
57	-2.85000e+00	4.459184e-07	
58	-2.90000e+00	4.396539e-07	
59	-2.95000e+00	4.336401e-07	
60	-3.00000e+00	4.278626e-07	
61	-3.05000e+00	4.223078e-07	
62	-3.10000e+00	4.169634e-07	
63	-3.15000e+00	4.118177e-07	
64	-3.20000e+00	4.068602e-07	
65	-3.25000e+00	4.020808e-07	
66	-3.30000e+00	3.974703e-07	
67	-3.35000e+00	3.930201e-07	
68	-3.40000e+00	3.887221e-07	
69	-3.45000e+00	3.845687e-07	
70	-3.50000e+00	3.805530e-07	
71	-3.55000e+00	3.766683e-07	
72	-3.60000e+00	3.729086e-07	
73	-3.65000e+00	3.692679e-07	
74	-3.70000e+00	3.657409e-07	
75	-3.75000e+00	3.623225e-07	
76	-3.80000e+00	3.590078e-07	
77	-3.85000e+00	3.557923e-07	
78	-3.90000e+00	3.526719e-07	
79	-3.95000e+00	3.496423e-07	
80	-4.00000e+00	3.467000e-07	
81	-4.05000e+00	3.438413e-07	
82	-4.10000e+00	3.410627e-07	
83	-4.15000e+00	3.383612e-07	
84	-4.20000e+00	3.357336e-07	
85	-4.25000e+00	3.331772e-07	
86	-4.30000e+00	3.306892e-07	
87	-4.35000e+00	3.282670e-07	
88	-4.40000e+00	3.259082e-07	
89	-4.45000e+00	3.236105e-07	
90	-4.50000e+00	3.213716e-07	
91	-4.55000e+00	3.191896e-07	
92	-4.60000e+00	3.170624e-07	
93	-4.65000e+00	3.149881e-07	
94	-4.70000e+00	3.129649e-07	
95	-4.75000e+00	3.109911e-07	
96	-4.80000e+00	3.090652e-07	
97	-4.85000e+00	3.071854e-07	
98	-4.90000e+00	3.053505e-07	
99	-4.95000e+00	3.035589e-07	
100	-5.00000e+00	3.018093e-07	
101	-5.05000e+00	3.001005e-07	
102	-5.10000e+00	2.984311e-07	
103	-5.15000e+00	2.968001e-07	
104	-5.20000e+00	2.952064e-07	
105	-5.25000e+00	2.936488e-07	
106	-5.30000e+00	2.921264e-07	
107	-5.35000e+00	2.906381e-07	
108	-5.40000e+00	2.891831e-07	
109	-5.45000e+00	2.877605e-07	
110	-5.50000e+00	2.863693e-07	
111	-5.55000e+00	2.850088e-07	
112	-5.60000e+00	2.836782e-07	

Index   v-sweep         rds             
--------------------------------------------------------------------------------
113	-5.65000e+00	2.823768e-07	
114	-5.70000e+00	2.811038e-07	
115	-5.75000e+00	2.798585e-07	
116	-5.80000e+00	2.786403e-07	
117	-5.85000e+00	2.774486e-07	
118	-5.90000e+00	2.762826e-07	
119	-5.95000e+00	2.751419e-07	
120	-6.00000e+00	2.740259e-07	
121	-6.05000e+00	2.729340e-07	
122	-6.10000e+00	2.718657e-07	
123	-6.15000e+00	2.708206e-07	
124	-6.20000e+00	2.697980e-07	
125	-6.25000e+00	2.687976e-07	
126	-6.30000e+00	2.678189e-07	
127	-6.35000e+00	2.668615e-07	
128	-6.40000e+00	2.659250e-07	
129	-6.45000e+00	2.650089e-07	
130	-6.50000e+00	2.641128e-07	
131	-6.55000e+00	2.632365e-07	
132	-6.60000e+00	2.623794e-07	
Reset re-loads circuit ***************************

Circuit: ***************************

Doing analysis at TEMP = -40.000000 and TNOM = -40.000000


No. of Data Rows : 133
                          ***************************
                          DC transfer characteristic  Mon Jan  9 13:58:53  2023
--------------------------------------------------------------------------------
Index   v-sweep         rds             
--------------------------------------------------------------------------------
0	0.000000e+00	3.595151e-05	
1	-5.00000e-02	3.452916e-05	
2	-1.00000e-01	3.312940e-05	
3	-1.50000e-01	3.175183e-05	
4	-2.00000e-01	3.039607e-05	
5	-2.50000e-01	2.906177e-05	
6	-3.00000e-01	2.774854e-05	
7	-3.50000e-01	2.645604e-05	
8	-4.00000e-01	2.518392e-05	
9	-4.50000e-01	2.393184e-05	
10	-5.00000e-01	2.269949e-05	
11	-5.50000e-01	2.148656e-05	
12	-6.00000e-01	2.029276e-05	
13	-6.50000e-01	1.911784e-05	
14	-7.00000e-01	1.796157e-05	
15	-7.50000e-01	1.682378e-05	
16	-8.00000e-01	1.570436e-05	
17	-8.50000e-01	1.460331e-05	
18	-9.00000e-01	1.352082e-05	
19	-9.50000e-01	1.245736e-05	
20	-1.00000e+00	1.141387e-05	
21	-1.05000e+00	1.039214e-05	
22	-1.10000e+00	9.395415e-06	
23	-1.15000e+00	8.429494e-06	
24	-1.20000e+00	7.504375e-06	
25	-1.25000e+00	6.635968e-06	
26	-1.30000e+00	5.845768e-06	
27	-1.35000e+00	5.155042e-06	
28	-1.40000e+00	4.574439e-06	
29	-1.45000e+00	4.098447e-06	
30	-1.50000e+00	3.710547e-06	
31	-1.55000e+00	3.392003e-06	
32	-1.60000e+00	3.126871e-06	
33	-1.65000e+00	2.903021e-06	
34	-1.70000e+00	2.711533e-06	
35	-1.75000e+00	2.545841e-06	
36	-1.80000e+00	2.401038e-06	
37	-1.85000e+00	2.273395e-06	
38	-1.90000e+00	2.160027e-06	
39	-1.95000e+00	2.058663e-06	
40	-2.00000e+00	1.967494e-06	
41	-2.05000e+00	1.885056e-06	
42	-2.10000e+00	1.810156e-06	
43	-2.15000e+00	1.741807e-06	
44	-2.20000e+00	1.679188e-06	
45	-2.25000e+00	1.621611e-06	
46	-2.30000e+00	1.568492e-06	
47	-2.35000e+00	1.519335e-06	
48	-2.40000e+00	1.473714e-06	
49	-2.45000e+00	1.431264e-06	
50	-2.50000e+00	1.391666e-06	
51	-2.55000e+00	1.354644e-06	
52	-2.60000e+00	1.319955e-06	
53	-2.65000e+00	1.287387e-06	
54	-2.70000e+00	1.256753e-06	

Index   v-sweep         rds             
--------------------------------------------------------------------------------
55	-2.75000e+00	1.227885e-06	
56	-2.80000e+00	1.200638e-06	
57	-2.85000e+00	1.174878e-06	
58	-2.90000e+00	1.150488e-06	
59	-2.95000e+00	1.127362e-06	
60	-3.00000e+00	1.105406e-06	
61	-3.05000e+00	1.084533e-06	
62	-3.10000e+00	1.064666e-06	
63	-3.15000e+00	1.045734e-06	
64	-3.20000e+00	1.027673e-06	
65	-3.25000e+00	1.010425e-06	
66	-3.30000e+00	9.939370e-07	
67	-3.35000e+00	9.781601e-07	
68	-3.40000e+00	9.630497e-07	
69	-3.45000e+00	9.485648e-07	
70	-3.50000e+00	9.346677e-07	
71	-3.55000e+00	9.213237e-07	
72	-3.60000e+00	9.085008e-07	
73	-3.65000e+00	8.961693e-07	
74	-3.70000e+00	8.843018e-07	
75	-3.75000e+00	8.728729e-07	
76	-3.80000e+00	8.618590e-07	
77	-3.85000e+00	8.512382e-07	
78	-3.90000e+00	8.409901e-07	
79	-3.95000e+00	8.310955e-07	
80	-4.00000e+00	8.215369e-07	
81	-4.05000e+00	8.122975e-07	
82	-4.10000e+00	8.033619e-07	
83	-4.15000e+00	7.947155e-07	
84	-4.20000e+00	7.863448e-07	
85	-4.25000e+00	7.782370e-07	
86	-4.30000e+00	7.703802e-07	
87	-4.35000e+00	7.627630e-07	
88	-4.40000e+00	7.553749e-07	
89	-4.45000e+00	7.482059e-07	
90	-4.50000e+00	7.412466e-07	
91	-4.55000e+00	7.344883e-07	
92	-4.60000e+00	7.279225e-07	
93	-4.65000e+00	7.215413e-07	
94	-4.70000e+00	7.153374e-07	
95	-4.75000e+00	7.093036e-07	
96	-4.80000e+00	7.034333e-07	
97	-4.85000e+00	6.977203e-07	
98	-4.90000e+00	6.921585e-07	
99	-4.95000e+00	6.867423e-07	
100	-5.00000e+00	6.814663e-07	
101	-5.05000e+00	6.763255e-07	
102	-5.10000e+00	6.713150e-07	
103	-5.15000e+00	6.664302e-07	
104	-5.20000e+00	6.616669e-07	
105	-5.25000e+00	6.570207e-07	
106	-5.30000e+00	6.524879e-07	
107	-5.35000e+00	6.480646e-07	
108	-5.40000e+00	6.437473e-07	
109	-5.45000e+00	6.395327e-07	
110	-5.50000e+00	6.354174e-07	
111	-5.55000e+00	6.313985e-07	
112	-5.60000e+00	6.274729e-07	

Index   v-sweep         rds             
--------------------------------------------------------------------------------
113	-5.65000e+00	6.236380e-07	
114	-5.70000e+00	6.198909e-07	
115	-5.75000e+00	6.162292e-07	
116	-5.80000e+00	6.126505e-07	
117	-5.85000e+00	6.091523e-07	
118	-5.90000e+00	6.057326e-07	
119	-5.95000e+00	6.023892e-07	
120	-6.00000e+00	5.991200e-07	
121	-6.05000e+00	5.959232e-07	
122	-6.10000e+00	5.927969e-07	
123	-6.15000e+00	5.897392e-07	
124	-6.20000e+00	5.867486e-07	
125	-6.25000e+00	5.838233e-07	
126	-6.30000e+00	5.809619e-07	
127	-6.35000e+00	5.781628e-07	
128	-6.40000e+00	5.754246e-07	
129	-6.45000e+00	5.727459e-07	
130	-6.50000e+00	5.701254e-07	
131	-6.55000e+00	5.675618e-07	
132	-6.60000e+00	5.650540e-07	
Reset re-loads circuit ***************************

Circuit: ***************************

Doing analysis at TEMP = -40.000000 and TNOM = -40.000000


No. of Data Rows : 133
                          ***************************
                          DC transfer characteristic  Mon Jan  9 13:58:53  2023
--------------------------------------------------------------------------------
Index   v-sweep         rds             
--------------------------------------------------------------------------------
0	0.000000e+00	4.774425e-05	
1	-5.00000e-02	4.637466e-05	
2	-1.00000e-01	4.502320e-05	
3	-1.50000e-01	4.368959e-05	
4	-2.00000e-01	4.237358e-05	
5	-2.50000e-01	4.107494e-05	
6	-3.00000e-01	3.979341e-05	
7	-3.50000e-01	3.852875e-05	
8	-4.00000e-01	3.728072e-05	
9	-4.50000e-01	3.604909e-05	
10	-5.00000e-01	3.483364e-05	
11	-5.50000e-01	3.363412e-05	
12	-6.00000e-01	3.245032e-05	
13	-6.50000e-01	3.128202e-05	
14	-7.00000e-01	3.012900e-05	
15	-7.50000e-01	2.899105e-05	
16	-8.00000e-01	2.786798e-05	
17	-8.50000e-01	2.675957e-05	
18	-9.00000e-01	2.566563e-05	
19	-9.50000e-01	2.458598e-05	
20	-1.00000e+00	2.352045e-05	
21	-1.05000e+00	2.246886e-05	
22	-1.10000e+00	2.143106e-05	
23	-1.15000e+00	2.040691e-05	
24	-1.20000e+00	1.939630e-05	
25	-1.25000e+00	1.839915e-05	
26	-1.30000e+00	1.741539e-05	
27	-1.35000e+00	1.644506e-05	
28	-1.40000e+00	1.548825e-05	
29	-1.45000e+00	1.454519e-05	
30	-1.50000e+00	1.361633e-05	
31	-1.55000e+00	1.270243e-05	
32	-1.60000e+00	1.180480e-05	
33	-1.65000e+00	1.092564e-05	
34	-1.70000e+00	1.006857e-05	
35	-1.75000e+00	9.239390e-06	
36	-1.80000e+00	8.446789e-06	
37	-1.85000e+00	7.702200e-06	
38	-1.90000e+00	7.017800e-06	
39	-1.95000e+00	6.402842e-06	
40	-2.00000e+00	5.860658e-06	
41	-2.05000e+00	5.388461e-06	
42	-2.10000e+00	4.979428e-06	
43	-2.15000e+00	4.625156e-06	
44	-2.20000e+00	4.317331e-06	
45	-2.25000e+00	4.048522e-06	
46	-2.30000e+00	3.812420e-06	
47	-2.35000e+00	3.603796e-06	
48	-2.40000e+00	3.418361e-06	
49	-2.45000e+00	3.252609e-06	
50	-2.50000e+00	3.103664e-06	
51	-2.55000e+00	2.969162e-06	
52	-2.60000e+00	2.847146e-06	
53	-2.65000e+00	2.735990e-06	
54	-2.70000e+00	2.634328e-06	

Index   v-sweep         rds             
--------------------------------------------------------------------------------
55	-2.75000e+00	2.541014e-06	
56	-2.80000e+00	2.455072e-06	
57	-2.85000e+00	2.375673e-06	
58	-2.90000e+00	2.302107e-06	
59	-2.95000e+00	2.233759e-06	
60	-3.00000e+00	2.170099e-06	
61	-3.05000e+00	2.110666e-06	
62	-3.10000e+00	2.055055e-06	
63	-3.15000e+00	2.002913e-06	
64	-3.20000e+00	1.953928e-06	
65	-3.25000e+00	1.907823e-06	
66	-3.30000e+00	1.864355e-06	
67	-3.35000e+00	1.823305e-06	
68	-3.40000e+00	1.784479e-06	
69	-3.45000e+00	1.747701e-06	
70	-3.50000e+00	1.712816e-06	
71	-3.55000e+00	1.679682e-06	
72	-3.60000e+00	1.648171e-06	
73	-3.65000e+00	1.618169e-06	
74	-3.70000e+00	1.589569e-06	
75	-3.75000e+00	1.562278e-06	
76	-3.80000e+00	1.536207e-06	
77	-3.85000e+00	1.511278e-06	
78	-3.90000e+00	1.487417e-06	
79	-3.95000e+00	1.464559e-06	
80	-4.00000e+00	1.442641e-06	
81	-4.05000e+00	1.421608e-06	
82	-4.10000e+00	1.401407e-06	
83	-4.15000e+00	1.381990e-06	
84	-4.20000e+00	1.363314e-06	
85	-4.25000e+00	1.345336e-06	
86	-4.30000e+00	1.328019e-06	
87	-4.35000e+00	1.311328e-06	
88	-4.40000e+00	1.295229e-06	
89	-4.45000e+00	1.279692e-06	
90	-4.50000e+00	1.264689e-06	
91	-4.55000e+00	1.250191e-06	
92	-4.60000e+00	1.236176e-06	
93	-4.65000e+00	1.222619e-06	
94	-4.70000e+00	1.209498e-06	
95	-4.75000e+00	1.196794e-06	
96	-4.80000e+00	1.184487e-06	
97	-4.85000e+00	1.172558e-06	
98	-4.90000e+00	1.160992e-06	
99	-4.95000e+00	1.149771e-06	
100	-5.00000e+00	1.138882e-06	
101	-5.05000e+00	1.128310e-06	
102	-5.10000e+00	1.118041e-06	
103	-5.15000e+00	1.108064e-06	
104	-5.20000e+00	1.098365e-06	
105	-5.25000e+00	1.088935e-06	
106	-5.30000e+00	1.079762e-06	
107	-5.35000e+00	1.070837e-06	
108	-5.40000e+00	1.062150e-06	
109	-5.45000e+00	1.053692e-06	
110	-5.50000e+00	1.045454e-06	
111	-5.55000e+00	1.037429e-06	
112	-5.60000e+00	1.029608e-06	

Index   v-sweep         rds             
--------------------------------------------------------------------------------
113	-5.65000e+00	1.021985e-06	
114	-5.70000e+00	1.014553e-06	
115	-5.75000e+00	1.007305e-06	
116	-5.80000e+00	1.000235e-06	
117	-5.85000e+00	9.933369e-07	
118	-5.90000e+00	9.866053e-07	
119	-5.95000e+00	9.800348e-07	
120	-6.00000e+00	9.736204e-07	
121	-6.05000e+00	9.673571e-07	
122	-6.10000e+00	9.612405e-07	
123	-6.15000e+00	9.552660e-07	
124	-6.20000e+00	9.494296e-07	
125	-6.25000e+00	9.437272e-07	
126	-6.30000e+00	9.381551e-07	
127	-6.35000e+00	9.327096e-07	
128	-6.40000e+00	9.273873e-07	
129	-6.45000e+00	9.221849e-07	
130	-6.50000e+00	9.170991e-07	
131	-6.55000e+00	9.121271e-07	
132	-6.60000e+00	9.072659e-07	
Reset re-loads circuit ***************************

Circuit: ***************************

Doing analysis at TEMP = -40.000000 and TNOM = -40.000000


No. of Data Rows : 133
                          ***************************
                          DC transfer characteristic  Mon Jan  9 13:58:53  2023
--------------------------------------------------------------------------------
Index   v-sweep         rds             
--------------------------------------------------------------------------------
0	0.000000e+00	5.790761e-05	
1	-5.00000e-02	5.659666e-05	
2	-1.00000e-01	5.530052e-05	
3	-1.50000e-01	5.401903e-05	
4	-2.00000e-01	5.275200e-05	
5	-2.50000e-01	5.149926e-05	
6	-3.00000e-01	5.026065e-05	
7	-3.50000e-01	4.903599e-05	
8	-4.00000e-01	4.782513e-05	
9	-4.50000e-01	4.662789e-05	
10	-5.00000e-01	4.544411e-05	
11	-5.50000e-01	4.427364e-05	
12	-6.00000e-01	4.311632e-05	
13	-6.50000e-01	4.197198e-05	
14	-7.00000e-01	4.084047e-05	
15	-7.50000e-01	3.972164e-05	
16	-8.00000e-01	3.861534e-05	
17	-8.50000e-01	3.752141e-05	
18	-9.00000e-01	3.643972e-05	
19	-9.50000e-01	3.537011e-05	
20	-1.00000e+00	3.431244e-05	
21	-1.05000e+00	3.326657e-05	
22	-1.10000e+00	3.223236e-05	
23	-1.15000e+00	3.120968e-05	
24	-1.20000e+00	3.019840e-05	
25	-1.25000e+00	2.919837e-05	
26	-1.30000e+00	2.820948e-05	
27	-1.35000e+00	2.723160e-05	
28	-1.40000e+00	2.626460e-05	
29	-1.45000e+00	2.530837e-05	
30	-1.50000e+00	2.436279e-05	
31	-1.55000e+00	2.342776e-05	
32	-1.60000e+00	2.250316e-05	
33	-1.65000e+00	2.158890e-05	
34	-1.70000e+00	2.068486e-05	
35	-1.75000e+00	1.979097e-05	
36	-1.80000e+00	1.890711e-05	
37	-1.85000e+00	1.803319e-05	
38	-1.90000e+00	1.716912e-05	
39	-1.95000e+00	1.631475e-05	
40	-2.00000e+00	1.546996e-05	
41	-2.05000e+00	1.463455e-05	
42	-2.10000e+00	1.380830e-05	
43	-2.15000e+00	1.299107e-05	
44	-2.20000e+00	1.218301e-05	
45	-2.25000e+00	1.138524e-05	
46	-2.30000e+00	1.060096e-05	
47	-2.35000e+00	9.836829e-06	
48	-2.40000e+00	9.103384e-06	
49	-2.45000e+00	8.413192e-06	
50	-2.50000e+00	7.777248e-06	
51	-2.55000e+00	7.201907e-06	
52	-2.60000e+00	6.688154e-06	
53	-2.65000e+00	6.232845e-06	
54	-2.70000e+00	5.830532e-06	

Index   v-sweep         rds             
--------------------------------------------------------------------------------
55	-2.75000e+00	5.474957e-06	
56	-2.80000e+00	5.159967e-06	
57	-2.85000e+00	4.879951e-06	
58	-2.90000e+00	4.630002e-06	
59	-2.95000e+00	4.405921e-06	
60	-3.00000e+00	4.204148e-06	
61	-3.05000e+00	4.021687e-06	
62	-3.10000e+00	3.856013e-06	
63	-3.15000e+00	3.704997e-06	
64	-3.20000e+00	3.566835e-06	
65	-3.25000e+00	3.440000e-06	
66	-3.30000e+00	3.323185e-06	
67	-3.35000e+00	3.215274e-06	
68	-3.40000e+00	3.115306e-06	
69	-3.45000e+00	3.022450e-06	
70	-3.50000e+00	2.935984e-06	
71	-3.55000e+00	2.855282e-06	
72	-3.60000e+00	2.779792e-06	
73	-3.65000e+00	2.709033e-06	
74	-3.70000e+00	2.642578e-06	
75	-3.75000e+00	2.580052e-06	
76	-3.80000e+00	2.521118e-06	
77	-3.85000e+00	2.465481e-06	
78	-3.90000e+00	2.412873e-06	
79	-3.95000e+00	2.363056e-06	
80	-4.00000e+00	2.315816e-06	
81	-4.05000e+00	2.270960e-06	
82	-4.10000e+00	2.228313e-06	
83	-4.15000e+00	2.187719e-06	
84	-4.20000e+00	2.149033e-06	
85	-4.25000e+00	2.112125e-06	
86	-4.30000e+00	2.076877e-06	
87	-4.35000e+00	2.043180e-06	
88	-4.40000e+00	2.010935e-06	
89	-4.45000e+00	1.980051e-06	
90	-4.50000e+00	1.950444e-06	
91	-4.55000e+00	1.922038e-06	
92	-4.60000e+00	1.894761e-06	
93	-4.65000e+00	1.868549e-06	
94	-4.70000e+00	1.843340e-06	
95	-4.75000e+00	1.819079e-06	
96	-4.80000e+00	1.795713e-06	
97	-4.85000e+00	1.773195e-06	
98	-4.90000e+00	1.751480e-06	
99	-4.95000e+00	1.730526e-06	
100	-5.00000e+00	1.710294e-06	
101	-5.05000e+00	1.690747e-06	
102	-5.10000e+00	1.671853e-06	
103	-5.15000e+00	1.653579e-06	
104	-5.20000e+00	1.635896e-06	
105	-5.25000e+00	1.618776e-06	
106	-5.30000e+00	1.602193e-06	
107	-5.35000e+00	1.586122e-06	
108	-5.40000e+00	1.570540e-06	
109	-5.45000e+00	1.555426e-06	
110	-5.50000e+00	1.540760e-06	
111	-5.55000e+00	1.526522e-06	
112	-5.60000e+00	1.512694e-06	

Index   v-sweep         rds             
--------------------------------------------------------------------------------
113	-5.65000e+00	1.499260e-06	
114	-5.70000e+00	1.486203e-06	
115	-5.75000e+00	1.473508e-06	
116	-5.80000e+00	1.461160e-06	
117	-5.85000e+00	1.449147e-06	
118	-5.90000e+00	1.437455e-06	
119	-5.95000e+00	1.426072e-06	
120	-6.00000e+00	1.414987e-06	
121	-6.05000e+00	1.404189e-06	
122	-6.10000e+00	1.393668e-06	
123	-6.15000e+00	1.383413e-06	
124	-6.20000e+00	1.373415e-06	
125	-6.25000e+00	1.363667e-06	
126	-6.30000e+00	1.354158e-06	
127	-6.35000e+00	1.344882e-06	
128	-6.40000e+00	1.335831e-06	
129	-6.45000e+00	1.326997e-06	
130	-6.50000e+00	1.318374e-06	
131	-6.55000e+00	1.309955e-06	
132	-6.60000e+00	1.301735e-06	
Reset re-loads circuit ***************************

Circuit: ***************************

Doing analysis at TEMP = -40.000000 and TNOM = -40.000000


No. of Data Rows : 133
                          ***************************
                          DC transfer characteristic  Mon Jan  9 13:58:53  2023
--------------------------------------------------------------------------------
Index   v-sweep         rds             
--------------------------------------------------------------------------------
0	0.000000e+00	6.641487e-05	
1	-5.00000e-02	6.516550e-05	
2	-1.00000e-01	6.392844e-05	
3	-1.50000e-01	6.270356e-05	
4	-2.00000e-01	6.149072e-05	
5	-2.50000e-01	6.028983e-05	
6	-3.00000e-01	5.910074e-05	
7	-3.50000e-01	5.792334e-05	
8	-4.00000e-01	5.675752e-05	
9	-4.50000e-01	5.560314e-05	
10	-5.00000e-01	5.446011e-05	
11	-5.50000e-01	5.332829e-05	
12	-6.00000e-01	5.220758e-05	
13	-6.50000e-01	5.109785e-05	
14	-7.00000e-01	4.999901e-05	
15	-7.50000e-01	4.891093e-05	
16	-8.00000e-01	4.783350e-05	
17	-8.50000e-01	4.676661e-05	
18	-9.00000e-01	4.571015e-05	
19	-9.50000e-01	4.466403e-05	
20	-1.00000e+00	4.362811e-05	
21	-1.05000e+00	4.260231e-05	
22	-1.10000e+00	4.158652e-05	
23	-1.15000e+00	4.058063e-05	
24	-1.20000e+00	3.958455e-05	
25	-1.25000e+00	3.859816e-05	
26	-1.30000e+00	3.762138e-05	
27	-1.35000e+00	3.665409e-05	
28	-1.40000e+00	3.569621e-05	
29	-1.45000e+00	3.474764e-05	
30	-1.50000e+00	3.380829e-05	
31	-1.55000e+00	3.287805e-05	
32	-1.60000e+00	3.195684e-05	
33	-1.65000e+00	3.104456e-05	
34	-1.70000e+00	3.014113e-05	
35	-1.75000e+00	2.924646e-05	
36	-1.80000e+00	2.836045e-05	
37	-1.85000e+00	2.748302e-05	
38	-1.90000e+00	2.661408e-05	
39	-1.95000e+00	2.575353e-05	
40	-2.00000e+00	2.490129e-05	
41	-2.05000e+00	2.405725e-05	
42	-2.10000e+00	2.322131e-05	
43	-2.15000e+00	2.239334e-05	
44	-2.20000e+00	2.157322e-05	
45	-2.25000e+00	2.076075e-05	
46	-2.30000e+00	1.995573e-05	
47	-2.35000e+00	1.915785e-05	
48	-2.40000e+00	1.836670e-05	
49	-2.45000e+00	1.758169e-05	
50	-2.50000e+00	1.680200e-05	
51	-2.55000e+00	1.602646e-05	
52	-2.60000e+00	1.525351e-05	
53	-2.65000e+00	1.448126e-05	
54	-2.70000e+00	1.370788e-05	

Index   v-sweep         rds             
--------------------------------------------------------------------------------
55	-2.75000e+00	1.293249e-05	
56	-2.80000e+00	1.215682e-05	
57	-2.85000e+00	1.138693e-05	
58	-2.90000e+00	1.063374e-05	
59	-2.95000e+00	9.911131e-06	
60	-3.00000e+00	9.232333e-06	
61	-3.05000e+00	8.606641e-06	
62	-3.10000e+00	8.038191e-06	
63	-3.15000e+00	7.526641e-06	
64	-3.20000e+00	7.068667e-06	
65	-3.25000e+00	6.659420e-06	
66	-3.30000e+00	6.293555e-06	
67	-3.35000e+00	5.965845e-06	
68	-3.40000e+00	5.671483e-06	
69	-3.45000e+00	5.406202e-06	
70	-3.50000e+00	5.166284e-06	
71	-3.55000e+00	4.948525e-06	
72	-3.60000e+00	4.750175e-06	
73	-3.65000e+00	4.568883e-06	
74	-3.70000e+00	4.402636e-06	
75	-3.75000e+00	4.249705e-06	
76	-3.80000e+00	4.108605e-06	
77	-3.85000e+00	3.978053e-06	
78	-3.90000e+00	3.856941e-06	
79	-3.95000e+00	3.744303e-06	
80	-4.00000e+00	3.639299e-06	
81	-4.05000e+00	3.541194e-06	
82	-4.10000e+00	3.449342e-06	
83	-4.15000e+00	3.363172e-06	
84	-4.20000e+00	3.282182e-06	
85	-4.25000e+00	3.205926e-06	
86	-4.30000e+00	3.134005e-06	
87	-4.35000e+00	3.066065e-06	
88	-4.40000e+00	3.001789e-06	
89	-4.45000e+00	2.940891e-06	
90	-4.50000e+00	2.883115e-06	
91	-4.55000e+00	2.828231e-06	
92	-4.60000e+00	2.776028e-06	
93	-4.65000e+00	2.726316e-06	
94	-4.70000e+00	2.678925e-06	
95	-4.75000e+00	2.633695e-06	
96	-4.80000e+00	2.590486e-06	
97	-4.85000e+00	2.549164e-06	
98	-4.90000e+00	2.509611e-06	
99	-4.95000e+00	2.471717e-06	
100	-5.00000e+00	2.435380e-06	
101	-5.05000e+00	2.400507e-06	
102	-5.10000e+00	2.367013e-06	
103	-5.15000e+00	2.334818e-06	
104	-5.20000e+00	2.303849e-06	
105	-5.25000e+00	2.274037e-06	
106	-5.30000e+00	2.245320e-06	
107	-5.35000e+00	2.217640e-06	
108	-5.40000e+00	2.190940e-06	
109	-5.45000e+00	2.165172e-06	
110	-5.50000e+00	2.140288e-06	
111	-5.55000e+00	2.116243e-06	
112	-5.60000e+00	2.092996e-06	

Index   v-sweep         rds             
--------------------------------------------------------------------------------
113	-5.65000e+00	2.070509e-06	
114	-5.70000e+00	2.048745e-06	
115	-5.75000e+00	2.027671e-06	
116	-5.80000e+00	2.007255e-06	
117	-5.85000e+00	1.987467e-06	
118	-5.90000e+00	1.968279e-06	
119	-5.95000e+00	1.949665e-06	
120	-6.00000e+00	1.931600e-06	
121	-6.05000e+00	1.914060e-06	
122	-6.10000e+00	1.897024e-06	
123	-6.15000e+00	1.880470e-06	
124	-6.20000e+00	1.864380e-06	
125	-6.25000e+00	1.848734e-06	
126	-6.30000e+00	1.833515e-06	
127	-6.35000e+00	1.818707e-06	
128	-6.40000e+00	1.804294e-06	
129	-6.45000e+00	1.790261e-06	
130	-6.50000e+00	1.776594e-06	
131	-6.55000e+00	1.763280e-06	
132	-6.60000e+00	1.750306e-06	
Reset re-loads circuit ***************************

Circuit: ***************************

Note: No ".plot", ".print", or ".fourier" lines; no simulations run
