
Note: Compatibility modes selected: hs

Warning: m=xx on .subckt line will override multiplier m hierarchy!


Circuit: ***************************

Doing analysis at TEMP = -40.000000 and TNOM = -40.000000


No. of Data Rows : 133
                          ***************************
                          DC transfer characteristic  Mon Jan  9 13:58:52  2023
--------------------------------------------------------------------------------
Index   v-sweep         rds             
--------------------------------------------------------------------------------
0	0.000000e+00	6.367906e-06	
1	-5.00000e-02	3.183093e-06	
2	-1.00000e-01	9.537169e-07	
3	-1.50000e-01	2.855871e-07	
4	-2.00000e-01	1.642646e-07	
5	-2.50000e-01	1.313855e-07	
6	-3.00000e-01	1.170001e-07	
7	-3.50000e-01	1.084595e-07	
8	-4.00000e-01	1.024697e-07	
9	-4.50000e-01	9.787654e-08	
10	-5.00000e-01	9.417229e-08	
11	-5.50000e-01	9.109145e-08	
12	-6.00000e-01	8.847632e-08	
13	-6.50000e-01	8.622416e-08	
14	-7.00000e-01	8.426339e-08	
15	-7.50000e-01	8.254170e-08	
16	-8.00000e-01	8.101950e-08	
17	-8.50000e-01	7.966595e-08	
18	-9.00000e-01	7.845655e-08	
19	-9.50000e-01	7.737150e-08	
20	-1.00000e+00	7.639455e-08	
21	-1.05000e+00	7.551224e-08	
22	-1.10000e+00	7.471329e-08	
23	-1.15000e+00	7.398817e-08	
24	-1.20000e+00	7.332877e-08	
25	-1.25000e+00	7.272811e-08	
26	-1.30000e+00	7.218019e-08	
27	-1.35000e+00	7.167979e-08	
28	-1.40000e+00	7.122239e-08	
29	-1.45000e+00	7.080398e-08	
30	-1.50000e+00	7.042106e-08	
31	-1.55000e+00	7.007054e-08	
32	-1.60000e+00	6.974967e-08	
33	-1.65000e+00	6.945599e-08	
34	-1.70000e+00	6.918733e-08	
35	-1.75000e+00	6.894172e-08	
36	-1.80000e+00	6.871740e-08	
37	-1.85000e+00	6.851280e-08	
38	-1.90000e+00	6.832647e-08	
39	-1.95000e+00	6.815712e-08	
40	-2.00000e+00	6.800357e-08	
41	-2.05000e+00	6.786475e-08	
42	-2.10000e+00	6.773967e-08	
43	-2.15000e+00	6.762746e-08	
44	-2.20000e+00	6.752728e-08	
45	-2.25000e+00	6.743840e-08	
46	-2.30000e+00	6.736011e-08	
47	-2.35000e+00	6.729179e-08	
48	-2.40000e+00	6.723286e-08	
49	-2.45000e+00	6.718276e-08	
50	-2.50000e+00	6.714100e-08	
51	-2.55000e+00	6.710712e-08	
52	-2.60000e+00	6.708070e-08	
53	-2.65000e+00	6.706132e-08	
54	-2.70000e+00	6.704863e-08	

Index   v-sweep         rds             
--------------------------------------------------------------------------------
55	-2.75000e+00	6.704227e-08	
56	-2.80000e+00	6.704193e-08	
57	-2.85000e+00	6.704730e-08	
58	-2.90000e+00	6.705811e-08	
59	-2.95000e+00	6.707410e-08	
60	-3.00000e+00	6.709501e-08	
61	-3.05000e+00	6.712062e-08	
62	-3.10000e+00	6.715071e-08	
63	-3.15000e+00	6.718509e-08	
64	-3.20000e+00	6.722356e-08	
65	-3.25000e+00	6.726594e-08	
66	-3.30000e+00	6.731207e-08	
67	-3.35000e+00	6.736179e-08	
68	-3.40000e+00	6.741494e-08	
69	-3.45000e+00	6.747140e-08	
70	-3.50000e+00	6.753102e-08	
71	-3.55000e+00	6.759369e-08	
72	-3.60000e+00	6.765928e-08	
73	-3.65000e+00	6.772768e-08	
74	-3.70000e+00	6.779879e-08	
75	-3.75000e+00	6.787251e-08	
76	-3.80000e+00	6.794874e-08	
77	-3.85000e+00	6.802740e-08	
78	-3.90000e+00	6.810840e-08	
79	-3.95000e+00	6.819166e-08	
80	-4.00000e+00	6.827711e-08	
81	-4.05000e+00	6.836467e-08	
82	-4.10000e+00	6.845428e-08	
83	-4.15000e+00	6.854587e-08	
84	-4.20000e+00	6.863938e-08	
85	-4.25000e+00	6.873475e-08	
86	-4.30000e+00	6.883194e-08	
87	-4.35000e+00	6.893088e-08	
88	-4.40000e+00	6.903152e-08	
89	-4.45000e+00	6.913383e-08	
90	-4.50000e+00	6.923776e-08	
91	-4.55000e+00	6.934325e-08	
92	-4.60000e+00	6.945029e-08	
93	-4.65000e+00	6.955881e-08	
94	-4.70000e+00	6.966880e-08	
95	-4.75000e+00	6.978022e-08	
96	-4.80000e+00	6.989303e-08	
97	-4.85000e+00	7.000720e-08	
98	-4.90000e+00	7.012271e-08	
99	-4.95000e+00	7.023952e-08	
100	-5.00000e+00	7.035761e-08	
101	-5.05000e+00	7.047695e-08	
102	-5.10000e+00	7.059753e-08	
103	-5.15000e+00	7.071932e-08	
104	-5.20000e+00	7.084229e-08	
105	-5.25000e+00	7.096643e-08	
106	-5.30000e+00	7.109172e-08	
107	-5.35000e+00	7.121814e-08	
108	-5.40000e+00	7.134568e-08	
109	-5.45000e+00	7.147431e-08	
110	-5.50000e+00	7.160402e-08	
111	-5.55000e+00	7.173479e-08	
112	-5.60000e+00	7.186662e-08	

Index   v-sweep         rds             
--------------------------------------------------------------------------------
113	-5.65000e+00	7.199949e-08	
114	-5.70000e+00	7.213339e-08	
115	-5.75000e+00	7.226830e-08	
116	-5.80000e+00	7.240421e-08	
117	-5.85000e+00	7.254112e-08	
118	-5.90000e+00	7.267902e-08	
119	-5.95000e+00	7.281788e-08	
120	-6.00000e+00	7.295771e-08	
121	-6.05000e+00	7.309850e-08	
122	-6.10000e+00	7.324024e-08	
123	-6.15000e+00	7.338292e-08	
124	-6.20000e+00	7.352653e-08	
125	-6.25000e+00	7.367107e-08	
126	-6.30000e+00	7.381652e-08	
127	-6.35000e+00	7.396290e-08	
128	-6.40000e+00	7.411018e-08	
129	-6.45000e+00	7.425837e-08	
130	-6.50000e+00	7.440745e-08	
131	-6.55000e+00	7.455743e-08	
132	-6.60000e+00	7.470829e-08	
Reset re-loads circuit ***************************

Circuit: ***************************

Doing analysis at TEMP = -40.000000 and TNOM = -40.000000


No. of Data Rows : 133
                          ***************************
                          DC transfer characteristic  Mon Jan  9 13:58:53  2023
--------------------------------------------------------------------------------
Index   v-sweep         rds             
--------------------------------------------------------------------------------
0	0.000000e+00	6.878088e-05	
1	-5.00000e-02	6.408175e-05	
2	-1.00000e-01	5.947610e-05	
3	-1.50000e-01	5.496203e-05	
4	-2.00000e-01	5.053780e-05	
5	-2.50000e-01	4.620191e-05	
6	-3.00000e-01	4.195327e-05	
7	-3.50000e-01	3.779136e-05	
8	-4.00000e-01	3.371679e-05	
9	-4.50000e-01	2.973220e-05	
10	-5.00000e-01	2.584425e-05	
11	-5.50000e-01	2.206800e-05	
12	-6.00000e-01	1.843620e-05	
13	-6.50000e-01	1.501757e-05	
14	-7.00000e-01	1.194110e-05	
15	-7.50000e-01	9.387416e-06	
16	-8.00000e-01	7.480287e-06	
17	-8.50000e-01	6.165382e-06	
18	-9.00000e-01	5.269913e-06	
19	-9.50000e-01	4.635794e-06	
20	-1.00000e+00	4.162769e-06	
21	-1.05000e+00	3.793768e-06	
22	-1.10000e+00	3.495968e-06	
23	-1.15000e+00	3.249461e-06	
24	-1.20000e+00	3.041435e-06	
25	-1.25000e+00	2.863199e-06	
26	-1.30000e+00	2.708601e-06	
27	-1.35000e+00	2.573127e-06	
28	-1.40000e+00	2.453381e-06	
29	-1.45000e+00	2.346741e-06	
30	-1.50000e+00	2.251150e-06	
31	-1.55000e+00	2.164967e-06	
32	-1.60000e+00	2.086863e-06	
33	-1.65000e+00	2.015752e-06	
34	-1.70000e+00	1.950735e-06	
35	-1.75000e+00	1.891063e-06	
36	-1.80000e+00	1.836105e-06	
37	-1.85000e+00	1.785325e-06	
38	-1.90000e+00	1.738268e-06	
39	-1.95000e+00	1.694540e-06	
40	-2.00000e+00	1.653804e-06	
41	-2.05000e+00	1.615763e-06	
42	-2.10000e+00	1.580163e-06	
43	-2.15000e+00	1.546777e-06	
44	-2.20000e+00	1.515407e-06	
45	-2.25000e+00	1.485878e-06	
46	-2.30000e+00	1.458034e-06	
47	-2.35000e+00	1.431737e-06	
48	-2.40000e+00	1.406863e-06	
49	-2.45000e+00	1.383302e-06	
50	-2.50000e+00	1.360952e-06	
51	-2.55000e+00	1.339726e-06	
52	-2.60000e+00	1.319540e-06	
53	-2.65000e+00	1.300323e-06	
54	-2.70000e+00	1.282007e-06	

Index   v-sweep         rds             
--------------------------------------------------------------------------------
55	-2.75000e+00	1.264531e-06	
56	-2.80000e+00	1.247840e-06	
57	-2.85000e+00	1.231883e-06	
58	-2.90000e+00	1.216614e-06	
59	-2.95000e+00	1.201990e-06	
60	-3.00000e+00	1.187972e-06	
61	-3.05000e+00	1.174524e-06	
62	-3.10000e+00	1.161613e-06	
63	-3.15000e+00	1.149208e-06	
64	-3.20000e+00	1.137280e-06	
65	-3.25000e+00	1.125804e-06	
66	-3.30000e+00	1.114754e-06	
67	-3.35000e+00	1.104109e-06	
68	-3.40000e+00	1.093846e-06	
69	-3.45000e+00	1.083947e-06	
70	-3.50000e+00	1.074393e-06	
71	-3.55000e+00	1.065167e-06	
72	-3.60000e+00	1.056252e-06	
73	-3.65000e+00	1.047634e-06	
74	-3.70000e+00	1.039300e-06	
75	-3.75000e+00	1.031234e-06	
76	-3.80000e+00	1.023426e-06	
77	-3.85000e+00	1.015864e-06	
78	-3.90000e+00	1.008537e-06	
79	-3.95000e+00	1.001434e-06	
80	-4.00000e+00	9.945466e-07	
81	-4.05000e+00	9.878647e-07	
82	-4.10000e+00	9.813800e-07	
83	-4.15000e+00	9.750845e-07	
84	-4.20000e+00	9.689706e-07	
85	-4.25000e+00	9.630309e-07	
86	-4.30000e+00	9.572588e-07	
87	-4.35000e+00	9.516477e-07	
88	-4.40000e+00	9.461916e-07	
89	-4.45000e+00	9.408846e-07	
90	-4.50000e+00	9.357213e-07	
91	-4.55000e+00	9.306965e-07	
92	-4.60000e+00	9.258052e-07	
93	-4.65000e+00	9.210428e-07	
94	-4.70000e+00	9.164049e-07	
95	-4.75000e+00	9.118872e-07	
96	-4.80000e+00	9.074857e-07	
97	-4.85000e+00	9.031967e-07	
98	-4.90000e+00	8.990164e-07	
99	-4.95000e+00	8.949416e-07	
100	-5.00000e+00	8.909688e-07	
101	-5.05000e+00	8.870951e-07	
102	-5.10000e+00	8.833173e-07	
103	-5.15000e+00	8.796327e-07	
104	-5.20000e+00	8.760387e-07	
105	-5.25000e+00	8.725325e-07	
106	-5.30000e+00	8.691118e-07	
107	-5.35000e+00	8.657743e-07	
108	-5.40000e+00	8.625177e-07	
109	-5.45000e+00	8.593398e-07	
110	-5.50000e+00	8.562387e-07	
111	-5.55000e+00	8.532124e-07	
112	-5.60000e+00	8.502591e-07	

Index   v-sweep         rds             
--------------------------------------------------------------------------------
113	-5.65000e+00	8.473769e-07	
114	-5.70000e+00	8.445641e-07	
115	-5.75000e+00	8.418192e-07	
116	-5.80000e+00	8.391406e-07	
117	-5.85000e+00	8.365268e-07	
118	-5.90000e+00	8.339764e-07	
119	-5.95000e+00	8.314879e-07	
120	-6.00000e+00	8.290601e-07	
121	-6.05000e+00	8.266917e-07	
122	-6.10000e+00	8.243815e-07	
123	-6.15000e+00	8.221284e-07	
124	-6.20000e+00	8.199311e-07	
125	-6.25000e+00	8.177888e-07	
126	-6.30000e+00	8.157002e-07	
127	-6.35000e+00	8.136644e-07	
128	-6.40000e+00	8.116805e-07	
129	-6.45000e+00	8.097475e-07	
130	-6.50000e+00	8.078645e-07	
131	-6.55000e+00	8.060307e-07	
132	-6.60000e+00	8.042453e-07	
Reset re-loads circuit ***************************

Circuit: ***************************

Doing analysis at TEMP = -40.000000 and TNOM = -40.000000


No. of Data Rows : 133
                          ***************************
                          DC transfer characteristic  Mon Jan  9 13:58:53  2023
--------------------------------------------------------------------------------
Index   v-sweep         rds             
--------------------------------------------------------------------------------
0	0.000000e+00	1.142488e-04	
1	-5.00000e-02	1.096914e-04	
2	-1.00000e-01	1.052079e-04	
3	-1.50000e-01	1.007968e-04	
4	-2.00000e-01	9.645698e-05	
5	-2.50000e-01	9.218702e-05	
6	-3.00000e-01	8.798570e-05	
7	-3.50000e-01	8.385178e-05	
8	-4.00000e-01	7.978409e-05	
9	-4.50000e-01	7.578145e-05	
10	-5.00000e-01	7.184277e-05	
11	-5.50000e-01	6.796697e-05	
12	-6.00000e-01	6.415305e-05	
13	-6.50000e-01	6.040008e-05	
14	-7.00000e-01	5.670723e-05	
15	-7.50000e-01	5.307381e-05	
16	-8.00000e-01	4.949929e-05	
17	-8.50000e-01	4.598348e-05	
18	-9.00000e-01	4.252659e-05	
19	-9.50000e-01	3.912961e-05	
20	-1.00000e+00	3.579478e-05	
21	-1.05000e+00	3.252655e-05	
22	-1.10000e+00	2.933332e-05	
23	-1.15000e+00	2.623062e-05	
24	-1.20000e+00	2.324621e-05	
25	-1.25000e+00	2.042616e-05	
26	-1.30000e+00	1.783612e-05	
27	-1.35000e+00	1.554654e-05	
28	-1.40000e+00	1.360172e-05	
29	-1.45000e+00	1.199844e-05	
30	-1.50000e+00	1.069502e-05	
31	-1.55000e+00	9.635570e-06	
32	-1.60000e+00	8.767566e-06	
33	-1.65000e+00	8.048222e-06	
34	-1.70000e+00	7.444710e-06	
35	-1.75000e+00	6.932343e-06	
36	-1.80000e+00	6.492575e-06	
37	-1.85000e+00	6.111368e-06	
38	-1.90000e+00	5.777980e-06	
39	-1.95000e+00	5.484086e-06	
40	-2.00000e+00	5.223154e-06	
41	-2.05000e+00	4.989998e-06	
42	-2.10000e+00	4.780453e-06	
43	-2.15000e+00	4.591139e-06	
44	-2.20000e+00	4.419288e-06	
45	-2.25000e+00	4.262610e-06	
46	-2.30000e+00	4.119197e-06	
47	-2.35000e+00	3.987446e-06	
48	-2.40000e+00	3.866001e-06	
49	-2.45000e+00	3.753708e-06	
50	-2.50000e+00	3.649577e-06	
51	-2.55000e+00	3.552757e-06	
52	-2.60000e+00	3.462511e-06	
53	-2.65000e+00	3.378195e-06	
54	-2.70000e+00	3.299248e-06	

Index   v-sweep         rds             
--------------------------------------------------------------------------------
55	-2.75000e+00	3.225178e-06	
56	-2.80000e+00	3.155551e-06	
57	-2.85000e+00	3.089981e-06	
58	-2.90000e+00	3.028127e-06	
59	-2.95000e+00	2.969684e-06	
60	-3.00000e+00	2.914382e-06	
61	-3.05000e+00	2.861975e-06	
62	-3.10000e+00	2.812245e-06	
63	-3.15000e+00	2.764993e-06	
64	-3.20000e+00	2.720041e-06	
65	-3.25000e+00	2.677226e-06	
66	-3.30000e+00	2.636402e-06	
67	-3.35000e+00	2.597435e-06	
68	-3.40000e+00	2.560201e-06	
69	-3.45000e+00	2.524589e-06	
70	-3.50000e+00	2.490498e-06	
71	-3.55000e+00	2.457832e-06	
72	-3.60000e+00	2.426506e-06	
73	-3.65000e+00	2.396439e-06	
74	-3.70000e+00	2.367559e-06	
75	-3.75000e+00	2.339797e-06	
76	-3.80000e+00	2.313092e-06	
77	-3.85000e+00	2.287384e-06	
78	-3.90000e+00	2.262619e-06	
79	-3.95000e+00	2.238749e-06	
80	-4.00000e+00	2.215725e-06	
81	-4.05000e+00	2.193505e-06	
82	-4.10000e+00	2.172047e-06	
83	-4.15000e+00	2.151315e-06	
84	-4.20000e+00	2.131273e-06	
85	-4.25000e+00	2.111888e-06	
86	-4.30000e+00	2.093128e-06	
87	-4.35000e+00	2.074965e-06	
88	-4.40000e+00	2.057371e-06	
89	-4.45000e+00	2.040322e-06	
90	-4.50000e+00	2.023792e-06	
91	-4.55000e+00	2.007760e-06	
92	-4.60000e+00	1.992203e-06	
93	-4.65000e+00	1.977102e-06	
94	-4.70000e+00	1.962439e-06	
95	-4.75000e+00	1.948195e-06	
96	-4.80000e+00	1.934352e-06	
97	-4.85000e+00	1.920897e-06	
98	-4.90000e+00	1.907813e-06	
99	-4.95000e+00	1.895086e-06	
100	-5.00000e+00	1.882703e-06	
101	-5.05000e+00	1.870651e-06	
102	-5.10000e+00	1.858918e-06	
103	-5.15000e+00	1.847493e-06	
104	-5.20000e+00	1.836364e-06	
105	-5.25000e+00	1.825523e-06	
106	-5.30000e+00	1.814958e-06	
107	-5.35000e+00	1.804661e-06	
108	-5.40000e+00	1.794622e-06	
109	-5.45000e+00	1.784835e-06	
110	-5.50000e+00	1.775290e-06	
111	-5.55000e+00	1.765980e-06	
112	-5.60000e+00	1.756898e-06	

Index   v-sweep         rds             
--------------------------------------------------------------------------------
113	-5.65000e+00	1.748037e-06	
114	-5.70000e+00	1.739391e-06	
115	-5.75000e+00	1.730954e-06	
116	-5.80000e+00	1.722720e-06	
117	-5.85000e+00	1.714682e-06	
118	-5.90000e+00	1.706837e-06	
119	-5.95000e+00	1.699178e-06	
120	-6.00000e+00	1.691702e-06	
121	-6.05000e+00	1.684402e-06	
122	-6.10000e+00	1.677276e-06	
123	-6.15000e+00	1.670318e-06	
124	-6.20000e+00	1.663525e-06	
125	-6.25000e+00	1.656893e-06	
126	-6.30000e+00	1.650418e-06	
127	-6.35000e+00	1.644097e-06	
128	-6.40000e+00	1.637926e-06	
129	-6.45000e+00	1.631902e-06	
130	-6.50000e+00	1.626023e-06	
131	-6.55000e+00	1.620284e-06	
132	-6.60000e+00	1.614684e-06	
Reset re-loads circuit ***************************

Circuit: ***************************

Doing analysis at TEMP = -40.000000 and TNOM = -40.000000


No. of Data Rows : 133
                          ***************************
                          DC transfer characteristic  Mon Jan  9 13:58:53  2023
--------------------------------------------------------------------------------
Index   v-sweep         rds             
--------------------------------------------------------------------------------
0	0.000000e+00	1.497925e-04	
1	-5.00000e-02	1.454664e-04	
2	-1.00000e-01	1.411999e-04	
3	-1.50000e-01	1.369920e-04	
4	-2.00000e-01	1.328419e-04	
5	-2.50000e-01	1.287486e-04	
6	-3.00000e-01	1.247113e-04	
7	-3.50000e-01	1.207291e-04	
8	-4.00000e-01	1.168012e-04	
9	-4.50000e-01	1.129267e-04	
10	-5.00000e-01	1.091048e-04	
11	-5.50000e-01	1.053348e-04	
12	-6.00000e-01	1.016157e-04	
13	-6.50000e-01	9.794686e-05	
14	-7.00000e-01	9.432749e-05	
15	-7.50000e-01	9.075684e-05	
16	-8.00000e-01	8.723417e-05	
17	-8.50000e-01	8.375877e-05	
18	-9.00000e-01	8.032994e-05	
19	-9.50000e-01	7.694699e-05	
20	-1.00000e+00	7.360926e-05	
21	-1.05000e+00	7.031609e-05	
22	-1.10000e+00	6.706687e-05	
23	-1.15000e+00	6.386097e-05	
24	-1.20000e+00	6.069781e-05	
25	-1.25000e+00	5.757681e-05	
26	-1.30000e+00	5.449742e-05	
27	-1.35000e+00	5.145909e-05	
28	-1.40000e+00	4.846129e-05	
29	-1.45000e+00	4.550348e-05	
30	-1.50000e+00	4.258514e-05	
31	-1.55000e+00	3.970577e-05	
32	-1.60000e+00	3.686514e-05	
33	-1.65000e+00	3.406387e-05	
34	-1.70000e+00	3.130506e-05	
35	-1.75000e+00	2.859793e-05	
36	-1.80000e+00	2.596404e-05	
37	-1.85000e+00	2.344310e-05	
38	-1.90000e+00	2.109042e-05	
39	-1.95000e+00	1.896041e-05	
40	-2.00000e+00	1.708590e-05	
41	-2.05000e+00	1.546983e-05	
42	-2.10000e+00	1.409204e-05	
43	-2.15000e+00	1.292124e-05	
44	-2.20000e+00	1.192434e-05	
45	-2.25000e+00	1.107118e-05	
46	-2.30000e+00	1.033618e-05	
47	-2.35000e+00	9.698427e-06	
48	-2.40000e+00	9.141062e-06	
49	-2.45000e+00	8.650565e-06	
50	-2.50000e+00	8.216085e-06	
51	-2.55000e+00	7.828876e-06	
52	-2.60000e+00	7.481849e-06	
53	-2.65000e+00	7.169214e-06	
54	-2.70000e+00	6.886213e-06	

Index   v-sweep         rds             
--------------------------------------------------------------------------------
55	-2.75000e+00	6.628904e-06	
56	-2.80000e+00	6.394003e-06	
57	-2.85000e+00	6.178751e-06	
58	-2.90000e+00	5.980817e-06	
59	-2.95000e+00	5.798220e-06	
60	-3.00000e+00	5.629268e-06	
61	-3.05000e+00	5.472503e-06	
62	-3.10000e+00	5.326668e-06	
63	-3.15000e+00	5.190671e-06	
64	-3.20000e+00	5.063560e-06	
65	-3.25000e+00	4.944501e-06	
66	-3.30000e+00	4.832759e-06	
67	-3.35000e+00	4.727687e-06	
68	-3.40000e+00	4.628711e-06	
69	-3.45000e+00	4.535320e-06	
70	-3.50000e+00	4.447060e-06	
71	-3.55000e+00	4.363523e-06	
72	-3.60000e+00	4.284344e-06	
73	-3.65000e+00	4.209193e-06	
74	-3.70000e+00	4.137774e-06	
75	-3.75000e+00	4.069819e-06	
76	-3.80000e+00	4.005084e-06	
77	-3.85000e+00	3.943348e-06	
78	-3.90000e+00	3.884409e-06	
79	-3.95000e+00	3.828084e-06	
80	-4.00000e+00	3.774204e-06	
81	-4.05000e+00	3.722615e-06	
82	-4.10000e+00	3.673177e-06	
83	-4.15000e+00	3.625758e-06	
84	-4.20000e+00	3.580239e-06	
85	-4.25000e+00	3.536510e-06	
86	-4.30000e+00	3.494467e-06	
87	-4.35000e+00	3.454018e-06	
88	-4.40000e+00	3.415074e-06	
89	-4.45000e+00	3.377553e-06	
90	-4.50000e+00	3.341381e-06	
91	-4.55000e+00	3.306487e-06	
92	-4.60000e+00	3.272806e-06	
93	-4.65000e+00	3.240276e-06	
94	-4.70000e+00	3.208840e-06	
95	-4.75000e+00	3.178446e-06	
96	-4.80000e+00	3.149043e-06	
97	-4.85000e+00	3.120585e-06	
98	-4.90000e+00	3.093028e-06	
99	-4.95000e+00	3.066330e-06	
100	-5.00000e+00	3.040454e-06	
101	-5.05000e+00	3.015363e-06	
102	-5.10000e+00	2.991023e-06	
103	-5.15000e+00	2.967403e-06	
104	-5.20000e+00	2.944471e-06	
105	-5.25000e+00	2.922199e-06	
106	-5.30000e+00	2.900561e-06	
107	-5.35000e+00	2.879532e-06	
108	-5.40000e+00	2.859086e-06	
109	-5.45000e+00	2.839203e-06	
110	-5.50000e+00	2.819860e-06	
111	-5.55000e+00	2.801037e-06	
112	-5.60000e+00	2.782716e-06	

Index   v-sweep         rds             
--------------------------------------------------------------------------------
113	-5.65000e+00	2.764877e-06	
114	-5.70000e+00	2.747505e-06	
115	-5.75000e+00	2.730583e-06	
116	-5.80000e+00	2.714095e-06	
117	-5.85000e+00	2.698027e-06	
118	-5.90000e+00	2.682365e-06	
119	-5.95000e+00	2.667096e-06	
120	-6.00000e+00	2.652208e-06	
121	-6.05000e+00	2.637689e-06	
122	-6.10000e+00	2.623528e-06	
123	-6.15000e+00	2.609713e-06	
124	-6.20000e+00	2.596236e-06	
125	-6.25000e+00	2.583085e-06	
126	-6.30000e+00	2.570253e-06	
127	-6.35000e+00	2.557731e-06	
128	-6.40000e+00	2.545509e-06	
129	-6.45000e+00	2.533581e-06	
130	-6.50000e+00	2.521939e-06	
131	-6.55000e+00	2.510575e-06	
132	-6.60000e+00	2.499483e-06	
Reset re-loads circuit ***************************

Circuit: ***************************

Doing analysis at TEMP = -40.000000 and TNOM = -40.000000


No. of Data Rows : 133
                          ***************************
                          DC transfer characteristic  Mon Jan  9 13:58:53  2023
--------------------------------------------------------------------------------
Index   v-sweep         rds             
--------------------------------------------------------------------------------
0	0.000000e+00	1.775771e-04	
1	-5.00000e-02	1.735015e-04	
2	-1.00000e-01	1.694747e-04	
3	-1.50000e-01	1.654963e-04	
4	-2.00000e-01	1.615654e-04	
5	-2.50000e-01	1.576816e-04	
6	-3.00000e-01	1.538441e-04	
7	-3.50000e-01	1.500524e-04	
8	-4.00000e-01	1.463058e-04	
9	-4.50000e-01	1.426037e-04	
10	-5.00000e-01	1.389455e-04	
11	-5.50000e-01	1.353307e-04	
12	-6.00000e-01	1.317586e-04	
13	-6.50000e-01	1.282287e-04	
14	-7.00000e-01	1.247404e-04	
15	-7.50000e-01	1.212931e-04	
16	-8.00000e-01	1.178864e-04	
17	-8.50000e-01	1.145196e-04	
18	-9.00000e-01	1.111923e-04	
19	-9.50000e-01	1.079038e-04	
20	-1.00000e+00	1.046538e-04	
21	-1.05000e+00	1.014416e-04	
22	-1.10000e+00	9.826676e-05	
23	-1.15000e+00	9.512881e-05	
24	-1.20000e+00	9.202724e-05	
25	-1.25000e+00	8.896156e-05	
26	-1.30000e+00	8.593129e-05	
27	-1.35000e+00	8.293595e-05	
28	-1.40000e+00	7.997507e-05	
29	-1.45000e+00	7.704816e-05	
30	-1.50000e+00	7.415473e-05	
31	-1.55000e+00	7.129426e-05	
32	-1.60000e+00	6.846622e-05	
33	-1.65000e+00	6.567002e-05	
34	-1.70000e+00	6.290501e-05	
35	-1.75000e+00	6.017040e-05	
36	-1.80000e+00	5.746525e-05	
37	-1.85000e+00	5.478835e-05	
38	-1.90000e+00	5.213806e-05	
39	-1.95000e+00	4.951215e-05	
40	-2.00000e+00	4.690746e-05	
41	-2.05000e+00	4.431960e-05	
42	-2.10000e+00	4.174262e-05	
43	-2.15000e+00	3.916915e-05	
44	-2.20000e+00	3.659188e-05	
45	-2.25000e+00	3.400755e-05	
46	-2.30000e+00	3.142466e-05	
47	-2.35000e+00	2.887215e-05	
48	-2.40000e+00	2.640156e-05	
49	-2.45000e+00	2.407568e-05	
50	-2.50000e+00	2.194823e-05	
51	-2.55000e+00	2.004888e-05	
52	-2.60000e+00	1.838142e-05	
53	-2.65000e+00	1.693114e-05	
54	-2.70000e+00	1.567409e-05	

Index   v-sweep         rds             
--------------------------------------------------------------------------------
55	-2.75000e+00	1.458383e-05	
56	-2.80000e+00	1.363523e-05	
57	-2.85000e+00	1.280609e-05	
58	-2.90000e+00	1.207752e-05	
59	-2.95000e+00	1.143379e-05	
60	-3.00000e+00	1.086188e-05	
61	-3.05000e+00	1.035108e-05	
62	-3.10000e+00	9.892543e-06	
63	-3.15000e+00	9.478957e-06	
64	-3.20000e+00	9.104249e-06	
65	-3.25000e+00	8.763347e-06	
66	-3.30000e+00	8.451997e-06	
67	-3.35000e+00	8.166608e-06	
68	-3.40000e+00	7.904131e-06	
69	-3.45000e+00	7.661970e-06	
70	-3.50000e+00	7.437895e-06	
71	-3.55000e+00	7.229988e-06	
72	-3.60000e+00	7.036587e-06	
73	-3.65000e+00	6.856248e-06	
74	-3.70000e+00	6.687709e-06	
75	-3.75000e+00	6.529864e-06	
76	-3.80000e+00	6.381740e-06	
77	-3.85000e+00	6.242477e-06	
78	-3.90000e+00	6.111312e-06	
79	-3.95000e+00	5.987567e-06	
80	-4.00000e+00	5.870637e-06	
81	-4.05000e+00	5.759980e-06	
82	-4.10000e+00	5.655111e-06	
83	-4.15000e+00	5.555591e-06	
84	-4.20000e+00	5.461027e-06	
85	-4.25000e+00	5.371061e-06	
86	-4.30000e+00	5.285369e-06	
87	-4.35000e+00	5.203658e-06	
88	-4.40000e+00	5.125658e-06	
89	-4.45000e+00	5.051126e-06	
90	-4.50000e+00	4.979837e-06	
91	-4.55000e+00	4.911588e-06	
92	-4.60000e+00	4.846190e-06	
93	-4.65000e+00	4.783469e-06	
94	-4.70000e+00	4.723268e-06	
95	-4.75000e+00	4.665438e-06	
96	-4.80000e+00	4.609844e-06	
97	-4.85000e+00	4.556360e-06	
98	-4.90000e+00	4.504870e-06	
99	-4.95000e+00	4.455267e-06	
100	-5.00000e+00	4.407449e-06	
101	-5.05000e+00	4.361324e-06	
102	-5.10000e+00	4.316804e-06	
103	-5.15000e+00	4.273808e-06	
104	-5.20000e+00	4.232261e-06	
105	-5.25000e+00	4.192092e-06	
106	-5.30000e+00	4.153235e-06	
107	-5.35000e+00	4.115628e-06	
108	-5.40000e+00	4.079213e-06	
109	-5.45000e+00	4.043935e-06	
110	-5.50000e+00	4.009744e-06	
111	-5.55000e+00	3.976592e-06	
112	-5.60000e+00	3.944433e-06	

Index   v-sweep         rds             
--------------------------------------------------------------------------------
113	-5.65000e+00	3.913225e-06	
114	-5.70000e+00	3.882927e-06	
115	-5.75000e+00	3.853504e-06	
116	-5.80000e+00	3.824918e-06	
117	-5.85000e+00	3.797136e-06	
118	-5.90000e+00	3.770127e-06	
119	-5.95000e+00	3.743862e-06	
120	-6.00000e+00	3.718311e-06	
121	-6.05000e+00	3.693448e-06	
122	-6.10000e+00	3.669248e-06	
123	-6.15000e+00	3.645688e-06	
124	-6.20000e+00	3.622744e-06	
125	-6.25000e+00	3.600395e-06	
126	-6.30000e+00	3.578622e-06	
127	-6.35000e+00	3.557404e-06	
128	-6.40000e+00	3.536725e-06	
129	-6.45000e+00	3.516566e-06	
130	-6.50000e+00	3.496912e-06	
131	-6.55000e+00	3.477746e-06	
132	-6.60000e+00	3.459055e-06	
Reset re-loads circuit ***************************

Circuit: ***************************

Doing analysis at TEMP = -40.000000 and TNOM = -40.000000


No. of Data Rows : 133
                          ***************************
                          DC transfer characteristic  Mon Jan  9 13:58:53  2023
--------------------------------------------------------------------------------
Index   v-sweep         rds             
--------------------------------------------------------------------------------
0	0.000000e+00	2.008884e-04	
1	-5.00000e-02	1.970455e-04	
2	-1.00000e-01	1.932435e-04	
3	-1.50000e-01	1.894820e-04	
4	-2.00000e-01	1.857605e-04	
5	-2.50000e-01	1.820786e-04	
6	-3.00000e-01	1.784356e-04	
7	-3.50000e-01	1.748313e-04	
8	-4.00000e-01	1.712650e-04	
9	-4.50000e-01	1.677365e-04	
10	-5.00000e-01	1.642452e-04	
11	-5.50000e-01	1.607906e-04	
12	-6.00000e-01	1.573724e-04	
13	-6.50000e-01	1.539902e-04	
14	-7.00000e-01	1.506434e-04	
15	-7.50000e-01	1.473317e-04	
16	-8.00000e-01	1.440546e-04	
17	-8.50000e-01	1.408117e-04	
18	-9.00000e-01	1.376027e-04	
19	-9.50000e-01	1.344271e-04	
20	-1.00000e+00	1.312846e-04	
21	-1.05000e+00	1.281747e-04	
22	-1.10000e+00	1.250970e-04	
23	-1.15000e+00	1.220512e-04	
24	-1.20000e+00	1.190368e-04	
25	-1.25000e+00	1.160536e-04	
26	-1.30000e+00	1.131011e-04	
27	-1.35000e+00	1.101790e-04	
28	-1.40000e+00	1.072869e-04	
29	-1.45000e+00	1.044245e-04	
30	-1.50000e+00	1.015914e-04	
31	-1.55000e+00	9.878723e-05	
32	-1.60000e+00	9.601166e-05	
33	-1.65000e+00	9.326435e-05	
34	-1.70000e+00	9.054493e-05	
35	-1.75000e+00	8.785305e-05	
36	-1.80000e+00	8.518834e-05	
37	-1.85000e+00	8.255042e-05	
38	-1.90000e+00	7.993889e-05	
39	-1.95000e+00	7.735333e-05	
40	-2.00000e+00	7.479324e-05	
41	-2.05000e+00	7.225812e-05	
42	-2.10000e+00	6.974732e-05	
43	-2.15000e+00	6.726010e-05	
44	-2.20000e+00	6.479552e-05	
45	-2.25000e+00	6.235236e-05	
46	-2.30000e+00	5.992901e-05	
47	-2.35000e+00	5.752326e-05	
48	-2.40000e+00	5.513206e-05	
49	-2.45000e+00	5.275116e-05	
50	-2.50000e+00	5.037460e-05	
51	-2.55000e+00	4.799425e-05	
52	-2.60000e+00	4.559945e-05	
53	-2.65000e+00	4.317743e-05	
54	-2.70000e+00	4.071552e-05	

Index   v-sweep         rds             
--------------------------------------------------------------------------------
55	-2.75000e+00	3.820634e-05	
56	-2.80000e+00	3.565625e-05	
57	-2.85000e+00	3.309361e-05	
58	-2.90000e+00	3.057009e-05	
59	-2.95000e+00	2.814995e-05	
60	-3.00000e+00	2.589207e-05	
61	-3.05000e+00	2.383548e-05	
62	-3.10000e+00	2.199537e-05	
63	-3.15000e+00	2.036757e-05	
64	-3.20000e+00	1.893602e-05	
65	-3.25000e+00	1.767929e-05	
66	-3.30000e+00	1.657495e-05	
67	-3.35000e+00	1.560183e-05	
68	-3.40000e+00	1.474110e-05	
69	-3.45000e+00	1.397649e-05	
70	-3.50000e+00	1.329419e-05	
71	-3.55000e+00	1.268257e-05	
72	-3.60000e+00	1.213186e-05	
73	-3.65000e+00	1.163388e-05	
74	-3.70000e+00	1.118175e-05	
75	-3.75000e+00	1.076967e-05	
76	-3.80000e+00	1.039274e-05	
77	-3.85000e+00	1.004677e-05	
78	-3.90000e+00	9.728213e-06	
79	-3.95000e+00	9.434020e-06	
80	-4.00000e+00	9.161564e-06	
81	-4.05000e+00	8.908573e-06	
82	-4.10000e+00	8.673074e-06	
83	-4.15000e+00	8.453348e-06	
84	-4.20000e+00	8.247890e-06	
85	-4.25000e+00	8.055376e-06	
86	-4.30000e+00	7.874640e-06	
87	-4.35000e+00	7.704649e-06	
88	-4.40000e+00	7.544487e-06	
89	-4.45000e+00	7.393336e-06	
90	-4.50000e+00	7.250467e-06	
91	-4.55000e+00	7.115227e-06	
92	-4.60000e+00	6.987028e-06	
93	-4.65000e+00	6.865341e-06	
94	-4.70000e+00	6.749689e-06	
95	-4.75000e+00	6.639638e-06	
96	-4.80000e+00	6.534796e-06	
97	-4.85000e+00	6.434806e-06	
98	-4.90000e+00	6.339343e-06	
99	-4.95000e+00	6.248109e-06	
100	-5.00000e+00	6.160834e-06	
101	-5.05000e+00	6.077268e-06	
102	-5.10000e+00	5.997182e-06	
103	-5.15000e+00	5.920366e-06	
104	-5.20000e+00	5.846626e-06	
105	-5.25000e+00	5.775783e-06	
106	-5.30000e+00	5.707672e-06	
107	-5.35000e+00	5.642139e-06	
108	-5.40000e+00	5.579044e-06	
109	-5.45000e+00	5.518253e-06	
110	-5.50000e+00	5.459645e-06	
111	-5.55000e+00	5.403107e-06	
112	-5.60000e+00	5.348531e-06	

Index   v-sweep         rds             
--------------------------------------------------------------------------------
113	-5.65000e+00	5.295820e-06	
114	-5.70000e+00	5.244881e-06	
115	-5.75000e+00	5.195627e-06	
116	-5.80000e+00	5.147978e-06	
117	-5.85000e+00	5.101859e-06	
118	-5.90000e+00	5.057198e-06	
119	-5.95000e+00	5.013929e-06	
120	-6.00000e+00	4.971991e-06	
121	-6.05000e+00	4.931323e-06	
122	-6.10000e+00	4.891872e-06	
123	-6.15000e+00	4.853585e-06	
124	-6.20000e+00	4.816413e-06	
125	-6.25000e+00	4.780312e-06	
126	-6.30000e+00	4.745237e-06	
127	-6.35000e+00	4.711147e-06	
128	-6.40000e+00	4.678005e-06	
129	-6.45000e+00	4.645773e-06	
130	-6.50000e+00	4.614417e-06	
131	-6.55000e+00	4.583906e-06	
132	-6.60000e+00	4.554208e-06	
Reset re-loads circuit ***************************

Circuit: ***************************

Note: No ".plot", ".print", or ".fourier" lines; no simulations run
