
Note: Compatibility modes selected: hs

Warning: m=xx on .subckt line will override multiplier m hierarchy!


Circuit: ***************************

Doing analysis at TEMP = -40.000000 and TNOM = -40.000000


No. of Data Rows : 133
                          ***************************
                          DC transfer characteristic  Mon Jan  9 13:58:52  2023
--------------------------------------------------------------------------------
Index   v-sweep         rds             
--------------------------------------------------------------------------------
0	0.000000e+00	7.748245e-07	
1	-5.00000e-02	1.980876e-07	
2	-1.00000e-01	2.435285e-08	
3	-1.50000e-01	5.195127e-09	
4	-2.00000e-01	1.964785e-09	
5	-2.50000e-01	1.057132e-09	
6	-3.00000e-01	7.066213e-10	
7	-3.50000e-01	5.399904e-10	
8	-4.00000e-01	4.483212e-10	
9	-4.50000e-01	3.921510e-10	
10	-5.00000e-01	3.547892e-10	
11	-5.50000e-01	3.283037e-10	
12	-6.00000e-01	3.085650e-10	
13	-6.50000e-01	2.932583e-10	
14	-7.00000e-01	2.810049e-10	
15	-7.50000e-01	2.709404e-10	
16	-8.00000e-01	2.624987e-10	
17	-8.50000e-01	2.552949e-10	
18	-9.00000e-01	2.490589e-10	
19	-9.50000e-01	2.435952e-10	
20	-1.00000e+00	2.387591e-10	
21	-1.05000e+00	2.344412e-10	
22	-1.10000e+00	2.305569e-10	
23	-1.15000e+00	2.270397e-10	
24	-1.20000e+00	2.238366e-10	
25	-1.25000e+00	2.209048e-10	
26	-1.30000e+00	2.182092e-10	
27	-1.35000e+00	2.157209e-10	
28	-1.40000e+00	2.134155e-10	
29	-1.45000e+00	2.112727e-10	
30	-1.50000e+00	2.092749e-10	
31	-1.55000e+00	2.074075e-10	
32	-1.60000e+00	2.056574e-10	
33	-1.65000e+00	2.040135e-10	
34	-1.70000e+00	2.024661e-10	
35	-1.75000e+00	2.010067e-10	
36	-1.80000e+00	1.996278e-10	
37	-1.85000e+00	1.983226e-10	
38	-1.90000e+00	1.970853e-10	
39	-1.95000e+00	1.959106e-10	
40	-2.00000e+00	1.947937e-10	
41	-2.05000e+00	1.937304e-10	
42	-2.10000e+00	1.927168e-10	
43	-2.15000e+00	1.917495e-10	
44	-2.20000e+00	1.908253e-10	
45	-2.25000e+00	1.899414e-10	
46	-2.30000e+00	1.890951e-10	
47	-2.35000e+00	1.882841e-10	
48	-2.40000e+00	1.875061e-10	
49	-2.45000e+00	1.867592e-10	
50	-2.50000e+00	1.860416e-10	
51	-2.55000e+00	1.853515e-10	
52	-2.60000e+00	1.846873e-10	
53	-2.65000e+00	1.840477e-10	
54	-2.70000e+00	1.834313e-10	

Index   v-sweep         rds             
--------------------------------------------------------------------------------
55	-2.75000e+00	1.828368e-10	
56	-2.80000e+00	1.822630e-10	
57	-2.85000e+00	1.817090e-10	
58	-2.90000e+00	1.811738e-10	
59	-2.95000e+00	1.806563e-10	
60	-3.00000e+00	1.801557e-10	
61	-3.05000e+00	1.796712e-10	
62	-3.10000e+00	1.792020e-10	
63	-3.15000e+00	1.787475e-10	
64	-3.20000e+00	1.783069e-10	
65	-3.25000e+00	1.778797e-10	
66	-3.30000e+00	1.774652e-10	
67	-3.35000e+00	1.770629e-10	
68	-3.40000e+00	1.766723e-10	
69	-3.45000e+00	1.762928e-10	
70	-3.50000e+00	1.759240e-10	
71	-3.55000e+00	1.755656e-10	
72	-3.60000e+00	1.752169e-10	
73	-3.65000e+00	1.748778e-10	
74	-3.70000e+00	1.745477e-10	
75	-3.75000e+00	1.742264e-10	
76	-3.80000e+00	1.739135e-10	
77	-3.85000e+00	1.736087e-10	
78	-3.90000e+00	1.733118e-10	
79	-3.95000e+00	1.730223e-10	
80	-4.00000e+00	1.727402e-10	
81	-4.05000e+00	1.724650e-10	
82	-4.10000e+00	1.721966e-10	
83	-4.15000e+00	1.719347e-10	
84	-4.20000e+00	1.716791e-10	
85	-4.25000e+00	1.714297e-10	
86	-4.30000e+00	1.711862e-10	
87	-4.35000e+00	1.709483e-10	
88	-4.40000e+00	1.707161e-10	
89	-4.45000e+00	1.704892e-10	
90	-4.50000e+00	1.702675e-10	
91	-4.55000e+00	1.700509e-10	
92	-4.60000e+00	1.698391e-10	
93	-4.65000e+00	1.696322e-10	
94	-4.70000e+00	1.694298e-10	
95	-4.75000e+00	1.692320e-10	
96	-4.80000e+00	1.690385e-10	
97	-4.85000e+00	1.688493e-10	
98	-4.90000e+00	1.686642e-10	
99	-4.95000e+00	1.684832e-10	
100	-5.00000e+00	1.683060e-10	
101	-5.05000e+00	1.681327e-10	
102	-5.10000e+00	1.679631e-10	
103	-5.15000e+00	1.677972e-10	
104	-5.20000e+00	1.676348e-10	
105	-5.25000e+00	1.674759e-10	
106	-5.30000e+00	1.673203e-10	
107	-5.35000e+00	1.671680e-10	
108	-5.40000e+00	1.670190e-10	
109	-5.45000e+00	1.668731e-10	
110	-5.50000e+00	1.667303e-10	
111	-5.55000e+00	1.665906e-10	
112	-5.60000e+00	1.664537e-10	

Index   v-sweep         rds             
--------------------------------------------------------------------------------
113	-5.65000e+00	1.663198e-10	
114	-5.70000e+00	1.661886e-10	
115	-5.75000e+00	1.660603e-10	
116	-5.80000e+00	1.659346e-10	
117	-5.85000e+00	1.658117e-10	
118	-5.90000e+00	1.656913e-10	
119	-5.95000e+00	1.655734e-10	
120	-6.00000e+00	1.654581e-10	
121	-6.05000e+00	1.653452e-10	
122	-6.10000e+00	1.652348e-10	
123	-6.15000e+00	1.651267e-10	
124	-6.20000e+00	1.650209e-10	
125	-6.25000e+00	1.649174e-10	
126	-6.30000e+00	1.648161e-10	
127	-6.35000e+00	1.647170e-10	
128	-6.40000e+00	1.646201e-10	
129	-6.45000e+00	1.645253e-10	
130	-6.50000e+00	1.644326e-10	
131	-6.55000e+00	1.643420e-10	
132	-6.60000e+00	1.642533e-10	
Reset re-loads circuit ***************************

Circuit: ***************************

Doing analysis at TEMP = -40.000000 and TNOM = -40.000000


No. of Data Rows : 133
                          ***************************
                          DC transfer characteristic  Mon Jan  9 13:58:52  2023
--------------------------------------------------------------------------------
Index   v-sweep         rds             
--------------------------------------------------------------------------------
0	0.000000e+00	1.641904e-05	
1	-5.00000e-02	1.528761e-05	
2	-1.00000e-01	1.415740e-05	
3	-1.50000e-01	1.302852e-05	
4	-2.00000e-01	1.190113e-05	
5	-2.50000e-01	1.077547e-05	
6	-3.00000e-01	9.651950e-06	
7	-3.50000e-01	8.531302e-06	
8	-4.00000e-01	7.414826e-06	
9	-4.50000e-01	6.305002e-06	
10	-5.00000e-01	5.206783e-06	
11	-5.50000e-01	4.130476e-06	
12	-6.00000e-01	3.097863e-06	
13	-6.50000e-01	2.152459e-06	
14	-7.00000e-01	1.364668e-06	
15	-7.50000e-01	8.011775e-07	
16	-8.00000e-01	4.624716e-07	
17	-8.50000e-01	2.820910e-07	
18	-9.00000e-01	1.891075e-07	
19	-9.50000e-01	1.395507e-07	
20	-1.00000e+00	1.114151e-07	
21	-1.05000e+00	9.428484e-08	
22	-1.10000e+00	8.314411e-08	
23	-1.15000e+00	7.546478e-08	
24	-1.20000e+00	6.990203e-08	
25	-1.25000e+00	6.570127e-08	
26	-1.30000e+00	6.241735e-08	
27	-1.35000e+00	5.977556e-08	
28	-1.40000e+00	5.759926e-08	
29	-1.45000e+00	5.577069e-08	
30	-1.50000e+00	5.420874e-08	
31	-1.55000e+00	5.285593e-08	
32	-1.60000e+00	5.167041e-08	
33	-1.65000e+00	5.062105e-08	
34	-1.70000e+00	4.968419e-08	
35	-1.75000e+00	4.884152e-08	
36	-1.80000e+00	4.807863e-08	
37	-1.85000e+00	4.738400e-08	
38	-1.90000e+00	4.674833e-08	
39	-1.95000e+00	4.616400e-08	
40	-2.00000e+00	4.562469e-08	
41	-2.05000e+00	4.512512e-08	
42	-2.10000e+00	4.466084e-08	
43	-2.15000e+00	4.422807e-08	
44	-2.20000e+00	4.382357e-08	
45	-2.25000e+00	4.344454e-08	
46	-2.30000e+00	4.308856e-08	
47	-2.35000e+00	4.275351e-08	
48	-2.40000e+00	4.243753e-08	
49	-2.45000e+00	4.213899e-08	
50	-2.50000e+00	4.185645e-08	
51	-2.55000e+00	4.158861e-08	
52	-2.60000e+00	4.133433e-08	
53	-2.65000e+00	4.109257e-08	
54	-2.70000e+00	4.086242e-08	

Index   v-sweep         rds             
--------------------------------------------------------------------------------
55	-2.75000e+00	4.064304e-08	
56	-2.80000e+00	4.043367e-08	
57	-2.85000e+00	4.023363e-08	
58	-2.90000e+00	4.004230e-08	
59	-2.95000e+00	3.985912e-08	
60	-3.00000e+00	3.968357e-08	
61	-3.05000e+00	3.951517e-08	
62	-3.10000e+00	3.935349e-08	
63	-3.15000e+00	3.919813e-08	
64	-3.20000e+00	3.904872e-08	
65	-3.25000e+00	3.890493e-08	
66	-3.30000e+00	3.876644e-08	
67	-3.35000e+00	3.863295e-08	
68	-3.40000e+00	3.850421e-08	
69	-3.45000e+00	3.837996e-08	
70	-3.50000e+00	3.825997e-08	
71	-3.55000e+00	3.814401e-08	
72	-3.60000e+00	3.803190e-08	
73	-3.65000e+00	3.792344e-08	
74	-3.70000e+00	3.781846e-08	
75	-3.75000e+00	3.771679e-08	
76	-3.80000e+00	3.761828e-08	
77	-3.85000e+00	3.752277e-08	
78	-3.90000e+00	3.743015e-08	
79	-3.95000e+00	3.734028e-08	
80	-4.00000e+00	3.725303e-08	
81	-4.05000e+00	3.716830e-08	
82	-4.10000e+00	3.708598e-08	
83	-4.15000e+00	3.700597e-08	
84	-4.20000e+00	3.692818e-08	
85	-4.25000e+00	3.685252e-08	
86	-4.30000e+00	3.677889e-08	
87	-4.35000e+00	3.670723e-08	
88	-4.40000e+00	3.663745e-08	
89	-4.45000e+00	3.656949e-08	
90	-4.50000e+00	3.650328e-08	
91	-4.55000e+00	3.643875e-08	
92	-4.60000e+00	3.637584e-08	
93	-4.65000e+00	3.631450e-08	
94	-4.70000e+00	3.625467e-08	
95	-4.75000e+00	3.619629e-08	
96	-4.80000e+00	3.613933e-08	
97	-4.85000e+00	3.608372e-08	
98	-4.90000e+00	3.602943e-08	
99	-4.95000e+00	3.597641e-08	
100	-5.00000e+00	3.592463e-08	
101	-5.05000e+00	3.587404e-08	
102	-5.10000e+00	3.582461e-08	
103	-5.15000e+00	3.577630e-08	
104	-5.20000e+00	3.572908e-08	
105	-5.25000e+00	3.568291e-08	
106	-5.30000e+00	3.563777e-08	
107	-5.35000e+00	3.559363e-08	
108	-5.40000e+00	3.555045e-08	
109	-5.45000e+00	3.550821e-08	
110	-5.50000e+00	3.546689e-08	
111	-5.55000e+00	3.542646e-08	
112	-5.60000e+00	3.538690e-08	

Index   v-sweep         rds             
--------------------------------------------------------------------------------
113	-5.65000e+00	3.534818e-08	
114	-5.70000e+00	3.531029e-08	
115	-5.75000e+00	3.527320e-08	
116	-5.80000e+00	3.523689e-08	
117	-5.85000e+00	3.520134e-08	
118	-5.90000e+00	3.516654e-08	
119	-5.95000e+00	3.513247e-08	
120	-6.00000e+00	3.509911e-08	
121	-6.05000e+00	3.506644e-08	
122	-6.10000e+00	3.503445e-08	
123	-6.15000e+00	3.500312e-08	
124	-6.20000e+00	3.497244e-08	
125	-6.25000e+00	3.494240e-08	
126	-6.30000e+00	3.491298e-08	
127	-6.35000e+00	3.488417e-08	
128	-6.40000e+00	3.485595e-08	
129	-6.45000e+00	3.482831e-08	
130	-6.50000e+00	3.480125e-08	
131	-6.55000e+00	3.477475e-08	
132	-6.60000e+00	3.474880e-08	
Reset re-loads circuit ***************************

Circuit: ***************************

Doing analysis at TEMP = -40.000000 and TNOM = -40.000000


No. of Data Rows : 133
                          ***************************
                          DC transfer characteristic  Mon Jan  9 13:58:52  2023
--------------------------------------------------------------------------------
Index   v-sweep         rds             
--------------------------------------------------------------------------------
0	0.000000e+00	2.966954e-05	
1	-5.00000e-02	2.863106e-05	
2	-1.00000e-01	2.759346e-05	
3	-1.50000e-01	2.655673e-05	
4	-2.00000e-01	2.552087e-05	
5	-2.50000e-01	2.448589e-05	
6	-3.00000e-01	2.345181e-05	
7	-3.50000e-01	2.241864e-05	
8	-4.00000e-01	2.138638e-05	
9	-4.50000e-01	2.035507e-05	
10	-5.00000e-01	1.932472e-05	
11	-5.50000e-01	1.829538e-05	
12	-6.00000e-01	1.726710e-05	
13	-6.50000e-01	1.623994e-05	
14	-7.00000e-01	1.521399e-05	
15	-7.50000e-01	1.418939e-05	
16	-8.00000e-01	1.316632e-05	
17	-8.50000e-01	1.214506e-05	
18	-9.00000e-01	1.112601e-05	
19	-9.50000e-01	1.010981e-05	
20	-1.00000e+00	9.097435e-06	
21	-1.05000e+00	8.090459e-06	
22	-1.10000e+00	7.091475e-06	
23	-1.15000e+00	6.104843e-06	
24	-1.20000e+00	5.137989e-06	
25	-1.25000e+00	4.203496e-06	
26	-1.30000e+00	3.321877e-06	
27	-1.35000e+00	2.523376e-06	
28	-1.40000e+00	1.844243e-06	
29	-1.45000e+00	1.312961e-06	
30	-1.50000e+00	9.330873e-07	
31	-1.55000e+00	6.806883e-07	
32	-1.60000e+00	5.196016e-07	
33	-1.65000e+00	4.173795e-07	
34	-1.70000e+00	3.512317e-07	
35	-1.75000e+00	3.069673e-07	
36	-1.80000e+00	2.761714e-07	
37	-1.85000e+00	2.538950e-07	
38	-1.90000e+00	2.371873e-07	
39	-1.95000e+00	2.242455e-07	
40	-2.00000e+00	2.139358e-07	
41	-2.05000e+00	2.055231e-07	
42	-2.10000e+00	1.985166e-07	
43	-2.15000e+00	1.925791e-07	
44	-2.20000e+00	1.874726e-07	
45	-2.25000e+00	1.830254e-07	
46	-2.30000e+00	1.791103e-07	
47	-2.35000e+00	1.756318e-07	
48	-2.40000e+00	1.725162e-07	
49	-2.45000e+00	1.697061e-07	
50	-2.50000e+00	1.671559e-07	
51	-2.55000e+00	1.648291e-07	
52	-2.60000e+00	1.626958e-07	
53	-2.65000e+00	1.607316e-07	
54	-2.70000e+00	1.589161e-07	

Index   v-sweep         rds             
--------------------------------------------------------------------------------
55	-2.75000e+00	1.572321e-07	
56	-2.80000e+00	1.556652e-07	
57	-2.85000e+00	1.542030e-07	
58	-2.90000e+00	1.528350e-07	
59	-2.95000e+00	1.515520e-07	
60	-3.00000e+00	1.503459e-07	
61	-3.05000e+00	1.492099e-07	
62	-3.10000e+00	1.481377e-07	
63	-3.15000e+00	1.471241e-07	
64	-3.20000e+00	1.461641e-07	
65	-3.25000e+00	1.452536e-07	
66	-3.30000e+00	1.443886e-07	
67	-3.35000e+00	1.435659e-07	
68	-3.40000e+00	1.427822e-07	
69	-3.45000e+00	1.420349e-07	
70	-3.50000e+00	1.413214e-07	
71	-3.55000e+00	1.406394e-07	
72	-3.60000e+00	1.399868e-07	
73	-3.65000e+00	1.393618e-07	
74	-3.70000e+00	1.387626e-07	
75	-3.75000e+00	1.381876e-07	
76	-3.80000e+00	1.376354e-07	
77	-3.85000e+00	1.371046e-07	
78	-3.90000e+00	1.365940e-07	
79	-3.95000e+00	1.361024e-07	
80	-4.00000e+00	1.356289e-07	
81	-4.05000e+00	1.351723e-07	
82	-4.10000e+00	1.347319e-07	
83	-4.15000e+00	1.343067e-07	
84	-4.20000e+00	1.338960e-07	
85	-4.25000e+00	1.334990e-07	
86	-4.30000e+00	1.331151e-07	
87	-4.35000e+00	1.327437e-07	
88	-4.40000e+00	1.323840e-07	
89	-4.45000e+00	1.320357e-07	
90	-4.50000e+00	1.316981e-07	
91	-4.55000e+00	1.313708e-07	
92	-4.60000e+00	1.310532e-07	
93	-4.65000e+00	1.307451e-07	
94	-4.70000e+00	1.304459e-07	
95	-4.75000e+00	1.301553e-07	
96	-4.80000e+00	1.298730e-07	
97	-4.85000e+00	1.295985e-07	
98	-4.90000e+00	1.293316e-07	
99	-4.95000e+00	1.290719e-07	
100	-5.00000e+00	1.288192e-07	
101	-5.05000e+00	1.285732e-07	
102	-5.10000e+00	1.283337e-07	
103	-5.15000e+00	1.281003e-07	
104	-5.20000e+00	1.278730e-07	
105	-5.25000e+00	1.276514e-07	
106	-5.30000e+00	1.274353e-07	
107	-5.35000e+00	1.272246e-07	
108	-5.40000e+00	1.270191e-07	
109	-5.45000e+00	1.268185e-07	
110	-5.50000e+00	1.266228e-07	
111	-5.55000e+00	1.264317e-07	
112	-5.60000e+00	1.262451e-07	

Index   v-sweep         rds             
--------------------------------------------------------------------------------
113	-5.65000e+00	1.260629e-07	
114	-5.70000e+00	1.258849e-07	
115	-5.75000e+00	1.257110e-07	
116	-5.80000e+00	1.255411e-07	
117	-5.85000e+00	1.253750e-07	
118	-5.90000e+00	1.252126e-07	
119	-5.95000e+00	1.250539e-07	
120	-6.00000e+00	1.248987e-07	
121	-6.05000e+00	1.247469e-07	
122	-6.10000e+00	1.245984e-07	
123	-6.15000e+00	1.244531e-07	
124	-6.20000e+00	1.243110e-07	
125	-6.25000e+00	1.241719e-07	
126	-6.30000e+00	1.240358e-07	
127	-6.35000e+00	1.239026e-07	
128	-6.40000e+00	1.237723e-07	
129	-6.45000e+00	1.236447e-07	
130	-6.50000e+00	1.235197e-07	
131	-6.55000e+00	1.233974e-07	
132	-6.60000e+00	1.232777e-07	
Reset re-loads circuit ***************************

Circuit: ***************************

Doing analysis at TEMP = -40.000000 and TNOM = -40.000000


No. of Data Rows : 133
                          ***************************
                          DC transfer characteristic  Mon Jan  9 13:58:52  2023
--------------------------------------------------------------------------------
Index   v-sweep         rds             
--------------------------------------------------------------------------------
0	0.000000e+00	4.041054e-05	
1	-5.00000e-02	3.946801e-05	
2	-1.00000e-01	3.852619e-05	
3	-1.50000e-01	3.758509e-05	
4	-2.00000e-01	3.664470e-05	
5	-2.50000e-01	3.570503e-05	
6	-3.00000e-01	3.476608e-05	
7	-3.50000e-01	3.382785e-05	
8	-4.00000e-01	3.289034e-05	
9	-4.50000e-01	3.195354e-05	
10	-5.00000e-01	3.101747e-05	
11	-5.50000e-01	3.008213e-05	
12	-6.00000e-01	2.914752e-05	
13	-6.50000e-01	2.821364e-05	
14	-7.00000e-01	2.728050e-05	
15	-7.50000e-01	2.634810e-05	
16	-8.00000e-01	2.541646e-05	
17	-8.50000e-01	2.448558e-05	
18	-9.00000e-01	2.355547e-05	
19	-9.50000e-01	2.262615e-05	
20	-1.00000e+00	2.169763e-05	
21	-1.05000e+00	2.076995e-05	
22	-1.10000e+00	1.984312e-05	
23	-1.15000e+00	1.891719e-05	
24	-1.20000e+00	1.799219e-05	
25	-1.25000e+00	1.706821e-05	
26	-1.30000e+00	1.614531e-05	
27	-1.35000e+00	1.522360e-05	
28	-1.40000e+00	1.430325e-05	
29	-1.45000e+00	1.338444e-05	
30	-1.50000e+00	1.246746e-05	
31	-1.55000e+00	1.155271e-05	
32	-1.60000e+00	1.064076e-05	
33	-1.65000e+00	9.732435e-06	
34	-1.70000e+00	8.828980e-06	
35	-1.75000e+00	7.932247e-06	
36	-1.80000e+00	7.045074e-06	
37	-1.85000e+00	6.171824e-06	
38	-1.90000e+00	5.319198e-06	
39	-1.95000e+00	4.497312e-06	
40	-2.00000e+00	3.720760e-06	
41	-2.05000e+00	3.008822e-06	
42	-2.10000e+00	2.383231e-06	
43	-2.15000e+00	1.862350e-06	
44	-2.20000e+00	1.453673e-06	
45	-2.25000e+00	1.150083e-06	
46	-2.30000e+00	9.333428e-07	
47	-2.35000e+00	7.816140e-07	
48	-2.40000e+00	6.754487e-07	
49	-2.45000e+00	6.001283e-07	
50	-2.50000e+00	5.454721e-07	
51	-2.55000e+00	5.047435e-07	
52	-2.60000e+00	4.735544e-07	
53	-2.65000e+00	4.490405e-07	
54	-2.70000e+00	4.293097e-07	

Index   v-sweep         rds             
--------------------------------------------------------------------------------
55	-2.75000e+00	4.130896e-07	
56	-2.80000e+00	3.995068e-07	
57	-2.85000e+00	3.879489e-07	
58	-2.90000e+00	3.779771e-07	
59	-2.95000e+00	3.692706e-07	
60	-3.00000e+00	3.615902e-07	
61	-3.05000e+00	3.547542e-07	
62	-3.10000e+00	3.486224e-07	
63	-3.15000e+00	3.430847e-07	
64	-3.20000e+00	3.380535e-07	
65	-3.25000e+00	3.334584e-07	
66	-3.30000e+00	3.292416e-07	
67	-3.35000e+00	3.253557e-07	
68	-3.40000e+00	3.217612e-07	
69	-3.45000e+00	3.184249e-07	
70	-3.50000e+00	3.153185e-07	
71	-3.55000e+00	3.124180e-07	
72	-3.60000e+00	3.097028e-07	
73	-3.65000e+00	3.071548e-07	
74	-3.70000e+00	3.047587e-07	
75	-3.75000e+00	3.025006e-07	
76	-3.80000e+00	3.003686e-07	
77	-3.85000e+00	2.983521e-07	
78	-3.90000e+00	2.964417e-07	
79	-3.95000e+00	2.946291e-07	
80	-4.00000e+00	2.929066e-07	
81	-4.05000e+00	2.912677e-07	
82	-4.10000e+00	2.897061e-07	
83	-4.15000e+00	2.882166e-07	
84	-4.20000e+00	2.867940e-07	
85	-4.25000e+00	2.854339e-07	
86	-4.30000e+00	2.841323e-07	
87	-4.35000e+00	2.828853e-07	
88	-4.40000e+00	2.816895e-07	
89	-4.45000e+00	2.805419e-07	
90	-4.50000e+00	2.794395e-07	
91	-4.55000e+00	2.783796e-07	
92	-4.60000e+00	2.773599e-07	
93	-4.65000e+00	2.763780e-07	
94	-4.70000e+00	2.754320e-07	
95	-4.75000e+00	2.745198e-07	
96	-4.80000e+00	2.736396e-07	
97	-4.85000e+00	2.727898e-07	
98	-4.90000e+00	2.719688e-07	
99	-4.95000e+00	2.711752e-07	
100	-5.00000e+00	2.704077e-07	
101	-5.05000e+00	2.696649e-07	
102	-5.10000e+00	2.689456e-07	
103	-5.15000e+00	2.682489e-07	
104	-5.20000e+00	2.675736e-07	
105	-5.25000e+00	2.669187e-07	
106	-5.30000e+00	2.662835e-07	
107	-5.35000e+00	2.656669e-07	
108	-5.40000e+00	2.650682e-07	
109	-5.45000e+00	2.644866e-07	
110	-5.50000e+00	2.639214e-07	
111	-5.55000e+00	2.633720e-07	
112	-5.60000e+00	2.628376e-07	

Index   v-sweep         rds             
--------------------------------------------------------------------------------
113	-5.65000e+00	2.623178e-07	
114	-5.70000e+00	2.618119e-07	
115	-5.75000e+00	2.613193e-07	
116	-5.80000e+00	2.608396e-07	
117	-5.85000e+00	2.603723e-07	
118	-5.90000e+00	2.599170e-07	
119	-5.95000e+00	2.594731e-07	
120	-6.00000e+00	2.590403e-07	
121	-6.05000e+00	2.586182e-07	
122	-6.10000e+00	2.582065e-07	
123	-6.15000e+00	2.578047e-07	
124	-6.20000e+00	2.574125e-07	
125	-6.25000e+00	2.570296e-07	
126	-6.30000e+00	2.566558e-07	
127	-6.35000e+00	2.562906e-07	
128	-6.40000e+00	2.559339e-07	
129	-6.45000e+00	2.555854e-07	
130	-6.50000e+00	2.552448e-07	
131	-6.55000e+00	2.549119e-07	
132	-6.60000e+00	2.545864e-07	
Reset re-loads circuit ***************************

Circuit: ***************************

Doing analysis at TEMP = -40.000000 and TNOM = -40.000000


No. of Data Rows : 133
                          ***************************
                          DC transfer characteristic  Mon Jan  9 13:58:52  2023
--------------------------------------------------------------------------------
Index   v-sweep         rds             
--------------------------------------------------------------------------------
0	0.000000e+00	4.906123e-05	
1	-5.00000e-02	4.820700e-05	
2	-1.00000e-01	4.735337e-05	
3	-1.50000e-01	4.650034e-05	
4	-2.00000e-01	4.564791e-05	
5	-2.50000e-01	4.479608e-05	
6	-3.00000e-01	4.394485e-05	
7	-3.50000e-01	4.309422e-05	
8	-4.00000e-01	4.224419e-05	
9	-4.50000e-01	4.139475e-05	
10	-5.00000e-01	4.054592e-05	
11	-5.50000e-01	3.969769e-05	
12	-6.00000e-01	3.885005e-05	
13	-6.50000e-01	3.800302e-05	
14	-7.00000e-01	3.715659e-05	
15	-7.50000e-01	3.631076e-05	
16	-8.00000e-01	3.546553e-05	
17	-8.50000e-01	3.462091e-05	
18	-9.00000e-01	3.377689e-05	
19	-9.50000e-01	3.293348e-05	
20	-1.00000e+00	3.209067e-05	
21	-1.05000e+00	3.124848e-05	
22	-1.10000e+00	3.040690e-05	
23	-1.15000e+00	2.956594e-05	
24	-1.20000e+00	2.872560e-05	
25	-1.25000e+00	2.788588e-05	
26	-1.30000e+00	2.704680e-05	
27	-1.35000e+00	2.620835e-05	
28	-1.40000e+00	2.537054e-05	
29	-1.45000e+00	2.453339e-05	
30	-1.50000e+00	2.369691e-05	
31	-1.55000e+00	2.286110e-05	
32	-1.60000e+00	2.202599e-05	
33	-1.65000e+00	2.119159e-05	
34	-1.70000e+00	2.035794e-05	
35	-1.75000e+00	1.952506e-05	
36	-1.80000e+00	1.869299e-05	
37	-1.85000e+00	1.786178e-05	
38	-1.90000e+00	1.703150e-05	
39	-1.95000e+00	1.620221e-05	
40	-2.00000e+00	1.537403e-05	
41	-2.05000e+00	1.454709e-05	
42	-2.10000e+00	1.372156e-05	
43	-2.15000e+00	1.289768e-05	
44	-2.20000e+00	1.207577e-05	
45	-2.25000e+00	1.125625e-05	
46	-2.30000e+00	1.043972e-05	
47	-2.35000e+00	9.627011e-06	
48	-2.40000e+00	8.819308e-06	
49	-2.45000e+00	8.018292e-06	
50	-2.50000e+00	7.226394e-06	
51	-2.55000e+00	6.447121e-06	
52	-2.60000e+00	5.685521e-06	
53	-2.65000e+00	4.948728e-06	
54	-2.70000e+00	4.246476e-06	

Index   v-sweep         rds             
--------------------------------------------------------------------------------
55	-2.75000e+00	3.591205e-06	
56	-2.80000e+00	2.997190e-06	
57	-2.85000e+00	2.478105e-06	
58	-2.90000e+00	2.043302e-06	
59	-2.95000e+00	1.694485e-06	
60	-3.00000e+00	1.425009e-06	
61	-3.05000e+00	1.222343e-06	
62	-3.10000e+00	1.071955e-06	
63	-3.15000e+00	9.604269e-07	
64	-3.20000e+00	8.769311e-07	
65	-3.25000e+00	8.134067e-07	
66	-3.30000e+00	7.641190e-07	
67	-3.35000e+00	7.250745e-07	
68	-3.40000e+00	6.935089e-07	
69	-3.45000e+00	6.675002e-07	
70	-3.50000e+00	6.456982e-07	
71	-3.55000e+00	6.271406e-07	
72	-3.60000e+00	6.111307e-07	
73	-3.65000e+00	5.971554e-07	
74	-3.70000e+00	5.848304e-07	
75	-3.75000e+00	5.738634e-07	
76	-3.80000e+00	5.640282e-07	
77	-3.85000e+00	5.551473e-07	
78	-3.90000e+00	5.470797e-07	
79	-3.95000e+00	5.397117e-07	
80	-4.00000e+00	5.329506e-07	
81	-4.05000e+00	5.267199e-07	
82	-4.10000e+00	5.209563e-07	
83	-4.15000e+00	5.156062e-07	
84	-4.20000e+00	5.106245e-07	
85	-4.25000e+00	5.059725e-07	
86	-4.30000e+00	5.016172e-07	
87	-4.35000e+00	4.975299e-07	
88	-4.40000e+00	4.936856e-07	
89	-4.45000e+00	4.900624e-07	
90	-4.50000e+00	4.866412e-07	
91	-4.55000e+00	4.834050e-07	
92	-4.60000e+00	4.803387e-07	
93	-4.65000e+00	4.774290e-07	
94	-4.70000e+00	4.746638e-07	
95	-4.75000e+00	4.720324e-07	
96	-4.80000e+00	4.695251e-07	
97	-4.85000e+00	4.671331e-07	
98	-4.90000e+00	4.648485e-07	
99	-4.95000e+00	4.626641e-07	
100	-5.00000e+00	4.605734e-07	
101	-5.05000e+00	4.585703e-07	
102	-5.10000e+00	4.566493e-07	
103	-5.15000e+00	4.548056e-07	
104	-5.20000e+00	4.530343e-07	
105	-5.25000e+00	4.513314e-07	
106	-5.30000e+00	4.496929e-07	
107	-5.35000e+00	4.481151e-07	
108	-5.40000e+00	4.465947e-07	
109	-5.45000e+00	4.451287e-07	
110	-5.50000e+00	4.437141e-07	
111	-5.55000e+00	4.423483e-07	
112	-5.60000e+00	4.410287e-07	

Index   v-sweep         rds             
--------------------------------------------------------------------------------
113	-5.65000e+00	4.397531e-07	
114	-5.70000e+00	4.385193e-07	
115	-5.75000e+00	4.373252e-07	
116	-5.80000e+00	4.361690e-07	
117	-5.85000e+00	4.350489e-07	
118	-5.90000e+00	4.339632e-07	
119	-5.95000e+00	4.329104e-07	
120	-6.00000e+00	4.318890e-07	
121	-6.05000e+00	4.308976e-07	
122	-6.10000e+00	4.299350e-07	
123	-6.15000e+00	4.289998e-07	
124	-6.20000e+00	4.280911e-07	
125	-6.25000e+00	4.272076e-07	
126	-6.30000e+00	4.263483e-07	
127	-6.35000e+00	4.255123e-07	
128	-6.40000e+00	4.246987e-07	
129	-6.45000e+00	4.239066e-07	
130	-6.50000e+00	4.231352e-07	
131	-6.55000e+00	4.223836e-07	
132	-6.60000e+00	4.216513e-07	
Reset re-loads circuit ***************************

Circuit: ***************************

Doing analysis at TEMP = -40.000000 and TNOM = -40.000000


No. of Data Rows : 133
                          ***************************
                          DC transfer characteristic  Mon Jan  9 13:58:52  2023
--------------------------------------------------------------------------------
Index   v-sweep         rds             
--------------------------------------------------------------------------------
0	0.000000e+00	5.607725e-05	
1	-5.00000e-02	5.530219e-05	
2	-1.00000e-01	5.452763e-05	
3	-1.50000e-01	5.375358e-05	
4	-2.00000e-01	5.298003e-05	
5	-2.50000e-01	5.220699e-05	
6	-3.00000e-01	5.143446e-05	
7	-3.50000e-01	5.066243e-05	
8	-4.00000e-01	4.989091e-05	
9	-4.50000e-01	4.911990e-05	
10	-5.00000e-01	4.834938e-05	
11	-5.50000e-01	4.757938e-05	
12	-6.00000e-01	4.680988e-05	
13	-6.50000e-01	4.604088e-05	
14	-7.00000e-01	4.527239e-05	
15	-7.50000e-01	4.450440e-05	
16	-8.00000e-01	4.373692e-05	
17	-8.50000e-01	4.296994e-05	
18	-9.00000e-01	4.220347e-05	
19	-9.50000e-01	4.143750e-05	
20	-1.00000e+00	4.067204e-05	
21	-1.05000e+00	3.990708e-05	
22	-1.10000e+00	3.914263e-05	
23	-1.15000e+00	3.837868e-05	
24	-1.20000e+00	3.761524e-05	
25	-1.25000e+00	3.685231e-05	
26	-1.30000e+00	3.608988e-05	
27	-1.35000e+00	3.532797e-05	
28	-1.40000e+00	3.456656e-05	
29	-1.45000e+00	3.380567e-05	
30	-1.50000e+00	3.304529e-05	
31	-1.55000e+00	3.228542e-05	
32	-1.60000e+00	3.152608e-05	
33	-1.65000e+00	3.076725e-05	
34	-1.70000e+00	3.000894e-05	
35	-1.75000e+00	2.925115e-05	
36	-1.80000e+00	2.849390e-05	
37	-1.85000e+00	2.773718e-05	
38	-1.90000e+00	2.698099e-05	
39	-1.95000e+00	2.622535e-05	
40	-2.00000e+00	2.547027e-05	
41	-2.05000e+00	2.471574e-05	
42	-2.10000e+00	2.396178e-05	
43	-2.15000e+00	2.320840e-05	
44	-2.20000e+00	2.245561e-05	
45	-2.25000e+00	2.170344e-05	
46	-2.30000e+00	2.095189e-05	
47	-2.35000e+00	2.020100e-05	
48	-2.40000e+00	1.945080e-05	
49	-2.45000e+00	1.870131e-05	
50	-2.50000e+00	1.795258e-05	
51	-2.55000e+00	1.720467e-05	
52	-2.60000e+00	1.645763e-05	
53	-2.65000e+00	1.571157e-05	
54	-2.70000e+00	1.496656e-05	

Index   v-sweep         rds             
--------------------------------------------------------------------------------
55	-2.75000e+00	1.422277e-05	
56	-2.80000e+00	1.348034e-05	
57	-2.85000e+00	1.273951e-05	
58	-2.90000e+00	1.200057e-05	
59	-2.95000e+00	1.126390e-05	
60	-3.00000e+00	1.053002e-05	
61	-3.05000e+00	9.799611e-06	
62	-3.10000e+00	9.073624e-06	
63	-3.15000e+00	8.353347e-06	
64	-3.20000e+00	7.640556e-06	
65	-3.25000e+00	6.937705e-06	
66	-3.30000e+00	6.248172e-06	
67	-3.35000e+00	5.576561e-06	
68	-3.40000e+00	4.928999e-06	
69	-3.45000e+00	4.313322e-06	
70	-3.50000e+00	3.738923e-06	
71	-3.55000e+00	3.215952e-06	
72	-3.60000e+00	2.753716e-06	
73	-3.65000e+00	2.358522e-06	
74	-3.70000e+00	2.031829e-06	
75	-3.75000e+00	1.769754e-06	
76	-3.80000e+00	1.564235e-06	
77	-3.85000e+00	1.405187e-06	
78	-3.90000e+00	1.282541e-06	
79	-3.95000e+00	1.187518e-06	
80	-4.00000e+00	1.113097e-06	
81	-4.05000e+00	1.053956e-06	
82	-4.10000e+00	1.006181e-06	
83	-4.15000e+00	9.669375e-07	
84	-4.20000e+00	9.341777e-07	
85	-4.25000e+00	9.064184e-07	
86	-4.30000e+00	8.825756e-07	
87	-4.35000e+00	8.618478e-07	
88	-4.40000e+00	8.436346e-07	
89	-4.45000e+00	8.274799e-07	
90	-4.50000e+00	8.130325e-07	
91	-4.55000e+00	8.000181e-07	
92	-4.60000e+00	7.882196e-07	
93	-4.65000e+00	7.774628e-07	
94	-4.70000e+00	7.676066e-07	
95	-4.75000e+00	7.585353e-07	
96	-4.80000e+00	7.501530e-07	
97	-4.85000e+00	7.423795e-07	
98	-4.90000e+00	7.351471e-07	
99	-4.95000e+00	7.283983e-07	
100	-5.00000e+00	7.220838e-07	
101	-5.05000e+00	7.161610e-07	
102	-5.10000e+00	7.105931e-07	
103	-5.15000e+00	7.053477e-07	
104	-5.20000e+00	7.003968e-07	
105	-5.25000e+00	6.957151e-07	
106	-5.30000e+00	6.912808e-07	
107	-5.35000e+00	6.870741e-07	
108	-5.40000e+00	6.830775e-07	
109	-5.45000e+00	6.792752e-07	
110	-5.50000e+00	6.756530e-07	
111	-5.55000e+00	6.721982e-07	
112	-5.60000e+00	6.688992e-07	

Index   v-sweep         rds             
--------------------------------------------------------------------------------
113	-5.65000e+00	6.657454e-07	
114	-5.70000e+00	6.627275e-07	
115	-5.75000e+00	6.598366e-07	
116	-5.80000e+00	6.570647e-07	
117	-5.85000e+00	6.544046e-07	
118	-5.90000e+00	6.518495e-07	
119	-5.95000e+00	6.493934e-07	
120	-6.00000e+00	6.470304e-07	
121	-6.05000e+00	6.447553e-07	
122	-6.10000e+00	6.425634e-07	
123	-6.15000e+00	6.404500e-07	
124	-6.20000e+00	6.384110e-07	
125	-6.25000e+00	6.364426e-07	
126	-6.30000e+00	6.345410e-07	
127	-6.35000e+00	6.327030e-07	
128	-6.40000e+00	6.309254e-07	
129	-6.45000e+00	6.292053e-07	
130	-6.50000e+00	6.275398e-07	
131	-6.55000e+00	6.259265e-07	
132	-6.60000e+00	6.243630e-07	
Reset re-loads circuit ***************************

Circuit: ***************************

Note: No ".plot", ".print", or ".fourier" lines; no simulations run
