
Note: Compatibility modes selected: hs

Warning: m=xx on .subckt line will override multiplier m hierarchy!


Circuit: ***************************

Doing analysis at TEMP = 125.000000 and TNOM = 125.000000


No. of Data Rows : 133
                          ***************************
                          DC transfer characteristic  Mon Jan  9 13:58:53  2023
--------------------------------------------------------------------------------
Index   v-sweep         rds             
--------------------------------------------------------------------------------
0	0.000000e+00	1.268641e-04	
1	-5.00000e-02	1.049824e-04	
2	-1.00000e-01	8.339906e-05	
3	-1.50000e-01	6.228134e-05	
4	-2.00000e-01	4.215357e-05	
5	-2.50000e-01	2.460329e-05	
6	-3.00000e-01	1.265138e-05	
7	-3.50000e-01	7.133506e-06	
8	-4.00000e-01	5.108460e-06	
9	-4.50000e-01	4.306977e-06	
10	-5.00000e-01	3.914411e-06	
11	-5.50000e-01	3.678350e-06	
12	-6.00000e-01	3.513542e-06	
13	-6.50000e-01	3.386875e-06	
14	-7.00000e-01	3.283571e-06	
15	-7.50000e-01	3.196151e-06	
16	-8.00000e-01	3.120391e-06	
17	-8.50000e-01	3.053670e-06	
18	-9.00000e-01	2.994236e-06	
19	-9.50000e-01	2.940841e-06	
20	-1.00000e+00	2.892556e-06	
21	-1.05000e+00	2.848659e-06	
22	-1.10000e+00	2.808579e-06	
23	-1.15000e+00	2.771849e-06	
24	-1.20000e+00	2.738081e-06	
25	-1.25000e+00	2.706951e-06	
26	-1.30000e+00	2.678182e-06	
27	-1.35000e+00	2.651538e-06	
28	-1.40000e+00	2.626813e-06	
29	-1.45000e+00	2.603828e-06	
30	-1.50000e+00	2.582427e-06	
31	-1.55000e+00	2.562472e-06	
32	-1.60000e+00	2.543842e-06	
33	-1.65000e+00	2.526426e-06	
34	-1.70000e+00	2.510129e-06	
35	-1.75000e+00	2.494864e-06	
36	-1.80000e+00	2.480552e-06	
37	-1.85000e+00	2.467124e-06	
38	-1.90000e+00	2.454515e-06	
39	-1.95000e+00	2.442669e-06	
40	-2.00000e+00	2.431533e-06	
41	-2.05000e+00	2.421059e-06	
42	-2.10000e+00	2.411205e-06	
43	-2.15000e+00	2.401929e-06	
44	-2.20000e+00	2.393196e-06	
45	-2.25000e+00	2.384972e-06	
46	-2.30000e+00	2.377226e-06	
47	-2.35000e+00	2.369931e-06	
48	-2.40000e+00	2.363059e-06	
49	-2.45000e+00	2.356587e-06	
50	-2.50000e+00	2.350493e-06	
51	-2.55000e+00	2.344754e-06	
52	-2.60000e+00	2.339353e-06	
53	-2.65000e+00	2.334271e-06	
54	-2.70000e+00	2.329492e-06	

Index   v-sweep         rds             
--------------------------------------------------------------------------------
55	-2.75000e+00	2.325000e-06	
56	-2.80000e+00	2.320780e-06	
57	-2.85000e+00	2.316820e-06	
58	-2.90000e+00	2.313105e-06	
59	-2.95000e+00	2.309625e-06	
60	-3.00000e+00	2.306368e-06	
61	-3.05000e+00	2.303324e-06	
62	-3.10000e+00	2.300483e-06	
63	-3.15000e+00	2.297836e-06	
64	-3.20000e+00	2.295375e-06	
65	-3.25000e+00	2.293090e-06	
66	-3.30000e+00	2.290975e-06	
67	-3.35000e+00	2.289021e-06	
68	-3.40000e+00	2.287224e-06	
69	-3.45000e+00	2.285575e-06	
70	-3.50000e+00	2.284069e-06	
71	-3.55000e+00	2.282701e-06	
72	-3.60000e+00	2.281464e-06	
73	-3.65000e+00	2.280353e-06	
74	-3.70000e+00	2.279365e-06	
75	-3.75000e+00	2.278493e-06	
76	-3.80000e+00	2.277735e-06	
77	-3.85000e+00	2.277085e-06	
78	-3.90000e+00	2.276540e-06	
79	-3.95000e+00	2.276097e-06	
80	-4.00000e+00	2.275750e-06	
81	-4.05000e+00	2.275499e-06	
82	-4.10000e+00	2.275338e-06	
83	-4.15000e+00	2.275265e-06	
84	-4.20000e+00	2.275278e-06	
85	-4.25000e+00	2.275374e-06	
86	-4.30000e+00	2.275549e-06	
87	-4.35000e+00	2.275802e-06	
88	-4.40000e+00	2.276131e-06	
89	-4.45000e+00	2.276533e-06	
90	-4.50000e+00	2.277005e-06	
91	-4.55000e+00	2.277547e-06	
92	-4.60000e+00	2.278157e-06	
93	-4.65000e+00	2.278831e-06	
94	-4.70000e+00	2.279570e-06	
95	-4.75000e+00	2.280370e-06	
96	-4.80000e+00	2.281231e-06	
97	-4.85000e+00	2.282152e-06	
98	-4.90000e+00	2.283130e-06	
99	-4.95000e+00	2.284164e-06	
100	-5.00000e+00	2.285254e-06	
101	-5.05000e+00	2.286398e-06	
102	-5.10000e+00	2.287595e-06	
103	-5.15000e+00	2.288844e-06	
104	-5.20000e+00	2.290144e-06	
105	-5.25000e+00	2.291493e-06	
106	-5.30000e+00	2.292892e-06	
107	-5.35000e+00	2.294339e-06	
108	-5.40000e+00	2.295833e-06	
109	-5.45000e+00	2.297373e-06	
110	-5.50000e+00	2.298960e-06	
111	-5.55000e+00	2.300591e-06	
112	-5.60000e+00	2.302267e-06	

Index   v-sweep         rds             
--------------------------------------------------------------------------------
113	-5.65000e+00	2.303986e-06	
114	-5.70000e+00	2.305749e-06	
115	-5.75000e+00	2.307555e-06	
116	-5.80000e+00	2.309402e-06	
117	-5.85000e+00	2.311291e-06	
118	-5.90000e+00	2.313221e-06	
119	-5.95000e+00	2.315191e-06	
120	-6.00000e+00	2.317202e-06	
121	-6.05000e+00	2.319252e-06	
122	-6.10000e+00	2.321341e-06	
123	-6.15000e+00	2.323470e-06	
124	-6.20000e+00	2.325637e-06	
125	-6.25000e+00	2.327842e-06	
126	-6.30000e+00	2.330085e-06	
127	-6.35000e+00	2.332365e-06	
128	-6.40000e+00	2.334683e-06	
129	-6.45000e+00	2.337037e-06	
130	-6.50000e+00	2.339428e-06	
131	-6.55000e+00	2.341856e-06	
132	-6.60000e+00	2.344320e-06	
Reset re-loads circuit ***************************

Circuit: ***************************

Doing analysis at TEMP = 125.000000 and TNOM = 125.000000


No. of Data Rows : 133
                          ***************************
                          DC transfer characteristic  Mon Jan  9 13:58:53  2023
--------------------------------------------------------------------------------
Index   v-sweep         rds             
--------------------------------------------------------------------------------
0	0.000000e+00	4.945161e-04	
1	-5.00000e-02	4.708795e-04	
2	-1.00000e-01	4.474043e-04	
3	-1.50000e-01	4.240898e-04	
4	-2.00000e-01	4.009354e-04	
5	-2.50000e-01	3.779410e-04	
6	-3.00000e-01	3.551064e-04	
7	-3.50000e-01	3.324321e-04	
8	-4.00000e-01	3.099195e-04	
9	-4.50000e-01	2.875706e-04	
10	-5.00000e-01	2.653894e-04	
11	-5.50000e-01	2.433827e-04	
12	-6.00000e-01	2.215616e-04	
13	-6.50000e-01	1.999451e-04	
14	-7.00000e-01	1.785664e-04	
15	-7.50000e-01	1.574843e-04	
16	-8.00000e-01	1.368066e-04	
17	-8.50000e-01	1.167322e-04	
18	-9.00000e-01	9.762524e-05	
19	-9.50000e-01	8.010261e-05	
20	-1.00000e+00	6.502514e-05	
21	-1.05000e+00	5.317093e-05	
22	-1.10000e+00	4.467306e-05	
23	-1.15000e+00	3.889782e-05	
24	-1.20000e+00	3.494956e-05	
25	-1.25000e+00	3.211841e-05	
26	-1.30000e+00	2.996518e-05	
27	-1.35000e+00	2.824167e-05	
28	-1.40000e+00	2.680813e-05	
29	-1.45000e+00	2.558269e-05	
30	-1.50000e+00	2.451457e-05	
31	-1.55000e+00	2.357031e-05	
32	-1.60000e+00	2.272660e-05	
33	-1.65000e+00	2.196646e-05	
34	-1.70000e+00	2.127701e-05	
35	-1.75000e+00	2.064821e-05	
36	-1.80000e+00	2.007199e-05	
37	-1.85000e+00	1.954180e-05	
38	-1.90000e+00	1.905218e-05	
39	-1.95000e+00	1.859856e-05	
40	-2.00000e+00	1.817708e-05	
41	-2.05000e+00	1.778442e-05	
42	-2.10000e+00	1.741770e-05	
43	-2.15000e+00	1.707445e-05	
44	-2.20000e+00	1.675250e-05	
45	-2.25000e+00	1.644993e-05	
46	-2.30000e+00	1.616507e-05	
47	-2.35000e+00	1.589643e-05	
48	-2.40000e+00	1.564267e-05	
49	-2.45000e+00	1.540263e-05	
50	-2.50000e+00	1.517522e-05	
51	-2.55000e+00	1.495951e-05	
52	-2.60000e+00	1.475463e-05	
53	-2.65000e+00	1.455980e-05	
54	-2.70000e+00	1.437432e-05	

Index   v-sweep         rds             
--------------------------------------------------------------------------------
55	-2.75000e+00	1.419756e-05	
56	-2.80000e+00	1.402892e-05	
57	-2.85000e+00	1.386787e-05	
58	-2.90000e+00	1.371393e-05	
59	-2.95000e+00	1.356666e-05	
60	-3.00000e+00	1.342564e-05	
61	-3.05000e+00	1.329050e-05	
62	-3.10000e+00	1.316089e-05	
63	-3.15000e+00	1.303649e-05	
64	-3.20000e+00	1.291701e-05	
65	-3.25000e+00	1.280216e-05	
66	-3.30000e+00	1.269171e-05	
67	-3.35000e+00	1.258540e-05	
68	-3.40000e+00	1.248303e-05	
69	-3.45000e+00	1.238438e-05	
70	-3.50000e+00	1.228927e-05	
71	-3.55000e+00	1.219752e-05	
72	-3.60000e+00	1.210897e-05	
73	-3.65000e+00	1.202346e-05	
74	-3.70000e+00	1.194084e-05	
75	-3.75000e+00	1.186098e-05	
76	-3.80000e+00	1.178374e-05	
77	-3.85000e+00	1.170902e-05	
78	-3.90000e+00	1.163670e-05	
79	-3.95000e+00	1.156667e-05	
80	-4.00000e+00	1.149883e-05	
81	-4.05000e+00	1.143309e-05	
82	-4.10000e+00	1.136936e-05	
83	-4.15000e+00	1.130756e-05	
84	-4.20000e+00	1.124760e-05	
85	-4.25000e+00	1.118942e-05	
86	-4.30000e+00	1.113294e-05	
87	-4.35000e+00	1.107810e-05	
88	-4.40000e+00	1.102483e-05	
89	-4.45000e+00	1.097307e-05	
90	-4.50000e+00	1.092277e-05	
91	-4.55000e+00	1.087387e-05	
92	-4.60000e+00	1.082633e-05	
93	-4.65000e+00	1.078008e-05	
94	-4.70000e+00	1.073510e-05	
95	-4.75000e+00	1.069134e-05	
96	-4.80000e+00	1.064874e-05	
97	-4.85000e+00	1.060729e-05	
98	-4.90000e+00	1.056693e-05	
99	-4.95000e+00	1.052763e-05	
100	-5.00000e+00	1.048936e-05	
101	-5.05000e+00	1.045209e-05	
102	-5.10000e+00	1.041579e-05	
103	-5.15000e+00	1.038042e-05	
104	-5.20000e+00	1.034596e-05	
105	-5.25000e+00	1.031239e-05	
106	-5.30000e+00	1.027968e-05	
107	-5.35000e+00	1.024780e-05	
108	-5.40000e+00	1.021673e-05	
109	-5.45000e+00	1.018645e-05	
110	-5.50000e+00	1.015695e-05	
111	-5.55000e+00	1.012819e-05	
112	-5.60000e+00	1.010017e-05	

Index   v-sweep         rds             
--------------------------------------------------------------------------------
113	-5.65000e+00	1.007286e-05	
114	-5.70000e+00	1.004624e-05	
115	-5.75000e+00	1.002031e-05	
116	-5.80000e+00	9.995041e-06	
117	-5.85000e+00	9.970422e-06	
118	-5.90000e+00	9.946439e-06	
119	-5.95000e+00	9.923078e-06	
120	-6.00000e+00	9.900326e-06	
121	-6.05000e+00	9.878171e-06	
122	-6.10000e+00	9.856600e-06	
123	-6.15000e+00	9.835602e-06	
124	-6.20000e+00	9.815167e-06	
125	-6.25000e+00	9.795283e-06	
126	-6.30000e+00	9.775942e-06	
127	-6.35000e+00	9.757132e-06	
128	-6.40000e+00	9.738845e-06	
129	-6.45000e+00	9.721072e-06	
130	-6.50000e+00	9.703804e-06	
131	-6.55000e+00	9.687034e-06	
132	-6.60000e+00	9.670752e-06	
Reset re-loads circuit ***************************

Circuit: ***************************

Doing analysis at TEMP = 125.000000 and TNOM = 125.000000


No. of Data Rows : 133
                          ***************************
                          DC transfer characteristic  Mon Jan  9 13:58:53  2023
--------------------------------------------------------------------------------
Index   v-sweep         rds             
--------------------------------------------------------------------------------
0	0.000000e+00	7.722193e-04	
1	-5.00000e-02	7.497615e-04	
2	-1.00000e-01	7.274365e-04	
3	-1.50000e-01	7.052437e-04	
4	-2.00000e-01	6.831823e-04	
5	-2.50000e-01	6.612515e-04	
6	-3.00000e-01	6.394507e-04	
7	-3.50000e-01	6.177793e-04	
8	-4.00000e-01	5.962364e-04	
9	-4.50000e-01	5.748215e-04	
10	-5.00000e-01	5.535341e-04	
11	-5.50000e-01	5.323736e-04	
12	-6.00000e-01	5.113395e-04	
13	-6.50000e-01	4.904315e-04	
14	-7.00000e-01	4.696493e-04	
15	-7.50000e-01	4.489928e-04	
16	-8.00000e-01	4.284620e-04	
17	-8.50000e-01	4.080574e-04	
18	-9.00000e-01	3.877795e-04	
19	-9.50000e-01	3.676296e-04	
20	-1.00000e+00	3.476096e-04	
21	-1.05000e+00	3.277224e-04	
22	-1.10000e+00	3.079723e-04	
23	-1.15000e+00	2.883661e-04	
24	-1.20000e+00	2.689138e-04	
25	-1.25000e+00	2.496309e-04	
26	-1.30000e+00	2.305414e-04	
27	-1.35000e+00	2.116831e-04	
28	-1.40000e+00	1.931165e-04	
29	-1.45000e+00	1.749389e-04	
30	-1.50000e+00	1.573054e-04	
31	-1.55000e+00	1.404557e-04	
32	-1.60000e+00	1.247315e-04	
33	-1.65000e+00	1.105498e-04	
34	-1.70000e+00	9.828971e-05	
35	-1.75000e+00	8.812366e-05	
36	-1.80000e+00	7.992902e-05	
37	-1.85000e+00	7.337191e-05	
38	-1.90000e+00	6.806919e-05	
39	-1.95000e+00	6.369594e-05	
40	-2.00000e+00	6.001290e-05	
41	-2.05000e+00	5.685326e-05	
42	-2.10000e+00	5.410140e-05	
43	-2.15000e+00	5.167561e-05	
44	-2.20000e+00	4.951644e-05	
45	-2.25000e+00	4.757930e-05	
46	-2.30000e+00	4.582987e-05	
47	-2.35000e+00	4.424104e-05	
48	-2.40000e+00	4.279101e-05	
49	-2.45000e+00	4.146198e-05	
50	-2.50000e+00	4.023917e-05	
51	-2.55000e+00	3.911021e-05	
52	-2.60000e+00	3.806462e-05	
53	-2.65000e+00	3.709347e-05	
54	-2.70000e+00	3.618908e-05	

Index   v-sweep         rds             
--------------------------------------------------------------------------------
55	-2.75000e+00	3.534480e-05	
56	-2.80000e+00	3.455486e-05	
57	-2.85000e+00	3.381420e-05	
58	-2.90000e+00	3.311838e-05	
59	-2.95000e+00	3.246348e-05	
60	-3.00000e+00	3.184602e-05	
61	-3.05000e+00	3.126291e-05	
62	-3.10000e+00	3.071140e-05	
63	-3.15000e+00	3.018900e-05	
64	-3.20000e+00	2.969351e-05	
65	-3.25000e+00	2.922293e-05	
66	-3.30000e+00	2.877544e-05	
67	-3.35000e+00	2.834942e-05	
68	-3.40000e+00	2.794338e-05	
69	-3.45000e+00	2.755597e-05	
70	-3.50000e+00	2.718595e-05	
71	-3.55000e+00	2.683221e-05	
72	-3.60000e+00	2.649370e-05	
73	-3.65000e+00	2.616949e-05	
74	-3.70000e+00	2.585871e-05	
75	-3.75000e+00	2.556055e-05	
76	-3.80000e+00	2.527428e-05	
77	-3.85000e+00	2.499922e-05	
78	-3.90000e+00	2.473474e-05	
79	-3.95000e+00	2.448024e-05	
80	-4.00000e+00	2.423520e-05	
81	-4.05000e+00	2.399911e-05	
82	-4.10000e+00	2.377149e-05	
83	-4.15000e+00	2.355191e-05	
84	-4.20000e+00	2.333997e-05	
85	-4.25000e+00	2.313528e-05	
86	-4.30000e+00	2.293750e-05	
87	-4.35000e+00	2.274628e-05	
88	-4.40000e+00	2.256132e-05	
89	-4.45000e+00	2.238232e-05	
90	-4.50000e+00	2.220901e-05	
91	-4.55000e+00	2.204114e-05	
92	-4.60000e+00	2.187846e-05	
93	-4.65000e+00	2.172075e-05	
94	-4.70000e+00	2.156778e-05	
95	-4.75000e+00	2.141937e-05	
96	-4.80000e+00	2.127531e-05	
97	-4.85000e+00	2.113544e-05	
98	-4.90000e+00	2.099957e-05	
99	-4.95000e+00	2.086755e-05	
100	-5.00000e+00	2.073923e-05	
101	-5.05000e+00	2.061447e-05	
102	-5.10000e+00	2.049312e-05	
103	-5.15000e+00	2.037507e-05	
104	-5.20000e+00	2.026019e-05	
105	-5.25000e+00	2.014836e-05	
106	-5.30000e+00	2.003948e-05	
107	-5.35000e+00	1.993344e-05	
108	-5.40000e+00	1.983014e-05	
109	-5.45000e+00	1.972950e-05	
110	-5.50000e+00	1.963141e-05	
111	-5.55000e+00	1.953581e-05	
112	-5.60000e+00	1.944260e-05	

Index   v-sweep         rds             
--------------------------------------------------------------------------------
113	-5.65000e+00	1.935172e-05	
114	-5.70000e+00	1.926308e-05	
115	-5.75000e+00	1.917663e-05	
116	-5.80000e+00	1.909229e-05	
117	-5.85000e+00	1.901001e-05	
118	-5.90000e+00	1.892973e-05	
119	-5.95000e+00	1.885138e-05	
120	-6.00000e+00	1.877492e-05	
121	-6.05000e+00	1.870030e-05	
122	-6.10000e+00	1.862746e-05	
123	-6.15000e+00	1.855636e-05	
124	-6.20000e+00	1.848696e-05	
125	-6.25000e+00	1.841921e-05	
126	-6.30000e+00	1.835307e-05	
127	-6.35000e+00	1.828851e-05	
128	-6.40000e+00	1.822549e-05	
129	-6.45000e+00	1.816397e-05	
130	-6.50000e+00	1.810392e-05	
131	-6.55000e+00	1.804532e-05	
132	-6.60000e+00	1.798812e-05	
Reset re-loads circuit ***************************

Circuit: ***************************

Doing analysis at TEMP = 125.000000 and TNOM = 125.000000


No. of Data Rows : 133
                          ***************************
                          DC transfer characteristic  Mon Jan  9 13:58:53  2023
--------------------------------------------------------------------------------
Index   v-sweep         rds             
--------------------------------------------------------------------------------
0	0.000000e+00	1.007275e-03	
1	-5.00000e-02	9.859546e-04	
2	-1.00000e-01	9.647481e-04	
3	-1.50000e-01	9.436551e-04	
4	-2.00000e-01	9.226748e-04	
5	-2.50000e-01	9.018066e-04	
6	-3.00000e-01	8.810501e-04	
7	-3.50000e-01	8.604045e-04	
8	-4.00000e-01	8.398692e-04	
9	-4.50000e-01	8.194438e-04	
10	-5.00000e-01	7.991276e-04	
11	-5.50000e-01	7.789200e-04	
12	-6.00000e-01	7.588205e-04	
13	-6.50000e-01	7.388285e-04	
14	-7.00000e-01	7.189436e-04	
15	-7.50000e-01	6.991651e-04	
16	-8.00000e-01	6.794926e-04	
17	-8.50000e-01	6.599256e-04	
18	-9.00000e-01	6.404636e-04	
19	-9.50000e-01	6.211063e-04	
20	-1.00000e+00	6.018531e-04	
21	-1.05000e+00	5.827038e-04	
22	-1.10000e+00	5.636579e-04	
23	-1.15000e+00	5.447154e-04	
24	-1.20000e+00	5.258759e-04	
25	-1.25000e+00	5.071394e-04	
26	-1.30000e+00	4.885059e-04	
27	-1.35000e+00	4.699756e-04	
28	-1.40000e+00	4.515488e-04	
29	-1.45000e+00	4.332263e-04	
30	-1.50000e+00	4.150088e-04	
31	-1.55000e+00	3.968979e-04	
32	-1.60000e+00	3.788957e-04	
33	-1.65000e+00	3.610049e-04	
34	-1.70000e+00	3.432298e-04	
35	-1.75000e+00	3.255762e-04	
36	-1.80000e+00	3.080526e-04	
37	-1.85000e+00	2.906710e-04	
38	-1.90000e+00	2.734491e-04	
39	-1.95000e+00	2.564127e-04	
40	-2.00000e+00	2.396002e-04	
41	-2.05000e+00	2.230684e-04	
42	-2.10000e+00	2.069013e-04	
43	-2.15000e+00	1.912196e-04	
44	-2.20000e+00	1.761889e-04	
45	-2.25000e+00	1.620170e-04	
46	-2.30000e+00	1.489273e-04	
47	-2.35000e+00	1.371072e-04	
48	-2.40000e+00	1.266498e-04	
49	-2.45000e+00	1.175290e-04	
50	-2.50000e+00	1.096248e-04	
51	-2.55000e+00	1.027725e-04	
52	-2.60000e+00	9.680506e-05	
53	-2.65000e+00	9.157467e-05	
54	-2.70000e+00	8.695843e-05	

Index   v-sweep         rds             
--------------------------------------------------------------------------------
55	-2.75000e+00	8.285681e-05	
56	-2.80000e+00	7.918971e-05	
57	-2.85000e+00	7.589245e-05	
58	-2.90000e+00	7.291239e-05	
59	-2.95000e+00	7.020635e-05	
60	-3.00000e+00	6.773862e-05	
61	-3.05000e+00	6.547937e-05	
62	-3.10000e+00	6.340353e-05	
63	-3.15000e+00	6.148988e-05	
64	-3.20000e+00	5.972034e-05	
65	-3.25000e+00	5.807938e-05	
66	-3.30000e+00	5.655364e-05	
67	-3.35000e+00	5.513152e-05	
68	-3.40000e+00	5.380293e-05	
69	-3.45000e+00	5.255904e-05	
70	-3.50000e+00	5.139208e-05	
71	-3.55000e+00	5.029522e-05	
72	-3.60000e+00	4.926239e-05	
73	-3.65000e+00	4.828822e-05	
74	-3.70000e+00	4.736790e-05	
75	-3.75000e+00	4.649713e-05	
76	-3.80000e+00	4.567208e-05	
77	-3.85000e+00	4.488927e-05	
78	-3.90000e+00	4.414559e-05	
79	-3.95000e+00	4.343821e-05	
80	-4.00000e+00	4.276458e-05	
81	-4.05000e+00	4.212236e-05	
82	-4.10000e+00	4.150945e-05	
83	-4.15000e+00	4.092390e-05	
84	-4.20000e+00	4.036395e-05	
85	-4.25000e+00	3.982800e-05	
86	-4.30000e+00	3.931454e-05	
87	-4.35000e+00	3.882221e-05	
88	-4.40000e+00	3.834977e-05	
89	-4.45000e+00	3.789604e-05	
90	-4.50000e+00	3.745996e-05	
91	-4.55000e+00	3.704054e-05	
92	-4.60000e+00	3.663685e-05	
93	-4.65000e+00	3.624804e-05	
94	-4.70000e+00	3.587333e-05	
95	-4.75000e+00	3.551198e-05	
96	-4.80000e+00	3.516329e-05	
97	-4.85000e+00	3.482662e-05	
98	-4.90000e+00	3.450139e-05	
99	-4.95000e+00	3.418703e-05	
100	-5.00000e+00	3.388302e-05	
101	-5.05000e+00	3.358886e-05	
102	-5.10000e+00	3.330411e-05	
103	-5.15000e+00	3.302832e-05	
104	-5.20000e+00	3.276110e-05	
105	-5.25000e+00	3.250206e-05	
106	-5.30000e+00	3.225084e-05	
107	-5.35000e+00	3.200711e-05	
108	-5.40000e+00	3.177055e-05	
109	-5.45000e+00	3.154087e-05	
110	-5.50000e+00	3.131777e-05	
111	-5.55000e+00	3.110099e-05	
112	-5.60000e+00	3.089028e-05	

Index   v-sweep         rds             
--------------------------------------------------------------------------------
113	-5.65000e+00	3.068541e-05	
114	-5.70000e+00	3.048614e-05	
115	-5.75000e+00	3.029227e-05	
116	-5.80000e+00	3.010359e-05	
117	-5.85000e+00	2.991991e-05	
118	-5.90000e+00	2.974105e-05	
119	-5.95000e+00	2.956684e-05	
120	-6.00000e+00	2.939712e-05	
121	-6.05000e+00	2.923173e-05	
122	-6.10000e+00	2.907053e-05	
123	-6.15000e+00	2.891338e-05	
124	-6.20000e+00	2.876015e-05	
125	-6.25000e+00	2.861070e-05	
126	-6.30000e+00	2.846493e-05	
127	-6.35000e+00	2.832272e-05	
128	-6.40000e+00	2.818396e-05	
129	-6.45000e+00	2.804855e-05	
130	-6.50000e+00	2.791640e-05	
131	-6.55000e+00	2.778741e-05	
132	-6.60000e+00	2.766149e-05	
Reset re-loads circuit ***************************

Circuit: ***************************

Doing analysis at TEMP = 125.000000 and TNOM = 125.000000


No. of Data Rows : 133
                          ***************************
                          DC transfer characteristic  Mon Jan  9 13:58:53  2023
--------------------------------------------------------------------------------
Index   v-sweep         rds             
--------------------------------------------------------------------------------
0	0.000000e+00	1.200742e-03	
1	-5.00000e-02	1.180424e-03	
2	-1.00000e-01	1.160206e-03	
3	-1.50000e-01	1.140088e-03	
4	-2.00000e-01	1.120069e-03	
5	-2.50000e-01	1.100149e-03	
6	-3.00000e-01	1.080328e-03	
7	-3.50000e-01	1.060604e-03	
8	-4.00000e-01	1.040978e-03	
9	-4.50000e-01	1.021448e-03	
10	-5.00000e-01	1.002015e-03	
11	-5.50000e-01	9.826775e-04	
12	-6.00000e-01	9.634354e-04	
13	-6.50000e-01	9.442883e-04	
14	-7.00000e-01	9.252356e-04	
15	-7.50000e-01	9.062767e-04	
16	-8.00000e-01	8.874114e-04	
17	-8.50000e-01	8.686390e-04	
18	-9.00000e-01	8.499592e-04	
19	-9.50000e-01	8.313715e-04	
20	-1.00000e+00	8.128754e-04	
21	-1.05000e+00	7.944705e-04	
22	-1.10000e+00	7.761564e-04	
23	-1.15000e+00	7.579328e-04	
24	-1.20000e+00	7.397990e-04	
25	-1.25000e+00	7.217549e-04	
26	-1.30000e+00	7.038000e-04	
27	-1.35000e+00	6.859339e-04	
28	-1.40000e+00	6.681564e-04	
29	-1.45000e+00	6.504670e-04	
30	-1.50000e+00	6.328656e-04	
31	-1.55000e+00	6.153518e-04	
32	-1.60000e+00	5.979254e-04	
33	-1.65000e+00	5.805863e-04	
34	-1.70000e+00	5.633343e-04	
35	-1.75000e+00	5.461693e-04	
36	-1.80000e+00	5.290915e-04	
37	-1.85000e+00	5.121009e-04	
38	-1.90000e+00	4.951977e-04	
39	-1.95000e+00	4.783824e-04	
40	-2.00000e+00	4.616556e-04	
41	-2.05000e+00	4.450181e-04	
42	-2.10000e+00	4.284712e-04	
43	-2.15000e+00	4.120165e-04	
44	-2.20000e+00	3.956563e-04	
45	-2.25000e+00	3.793936e-04	
46	-2.30000e+00	3.632326e-04	
47	-2.35000e+00	3.471790e-04	
48	-2.40000e+00	3.312405e-04	
49	-2.45000e+00	3.154278e-04	
50	-2.50000e+00	2.997559e-04	
51	-2.55000e+00	2.842455e-04	
52	-2.60000e+00	2.689257e-04	
53	-2.65000e+00	2.538371e-04	
54	-2.70000e+00	2.390360e-04	

Index   v-sweep         rds             
--------------------------------------------------------------------------------
55	-2.75000e+00	2.245984e-04	
56	-2.80000e+00	2.106225e-04	
57	-2.85000e+00	1.972273e-04	
58	-2.90000e+00	1.845421e-04	
59	-2.95000e+00	1.726879e-04	
60	-3.00000e+00	1.617550e-04	
61	-3.05000e+00	1.517860e-04	
62	-3.10000e+00	1.427733e-04	
63	-3.15000e+00	1.346688e-04	
64	-3.20000e+00	1.273989e-04	
65	-3.25000e+00	1.208792e-04	
66	-3.30000e+00	1.150242e-04	
67	-3.35000e+00	1.097536e-04	
68	-3.40000e+00	1.049950e-04	
69	-3.45000e+00	1.006844e-04	
70	-3.50000e+00	9.676639e-05	
71	-3.55000e+00	9.319306e-05	
72	-3.60000e+00	8.992325e-05	
73	-3.65000e+00	8.692159e-05	
74	-3.70000e+00	8.415768e-05	
75	-3.75000e+00	8.160527e-05	
76	-3.80000e+00	7.924171e-05	
77	-3.85000e+00	7.704734e-05	
78	-3.90000e+00	7.500505e-05	
79	-3.95000e+00	7.309991e-05	
80	-4.00000e+00	7.131883e-05	
81	-4.05000e+00	6.965030e-05	
82	-4.10000e+00	6.808418e-05	
83	-4.15000e+00	6.661147e-05	
84	-4.20000e+00	6.522419e-05	
85	-4.25000e+00	6.391524e-05	
86	-4.30000e+00	6.267827e-05	
87	-4.35000e+00	6.150759e-05	
88	-4.40000e+00	6.039807e-05	
89	-4.45000e+00	5.934513e-05	
90	-4.50000e+00	5.834461e-05	
91	-4.55000e+00	5.739273e-05	
92	-4.60000e+00	5.648609e-05	
93	-4.65000e+00	5.562159e-05	
94	-4.70000e+00	5.479639e-05	
95	-4.75000e+00	5.400791e-05	
96	-4.80000e+00	5.325380e-05	
97	-4.85000e+00	5.253187e-05	
98	-4.90000e+00	5.184016e-05	
99	-4.95000e+00	5.117682e-05	
100	-5.00000e+00	5.054018e-05	
101	-5.05000e+00	4.992868e-05	
102	-5.10000e+00	4.934088e-05	
103	-5.15000e+00	4.877546e-05	
104	-5.20000e+00	4.823117e-05	
105	-5.25000e+00	4.770688e-05	
106	-5.30000e+00	4.720153e-05	
107	-5.35000e+00	4.671412e-05	
108	-5.40000e+00	4.624374e-05	
109	-5.45000e+00	4.578952e-05	
110	-5.50000e+00	4.535066e-05	
111	-5.55000e+00	4.492641e-05	
112	-5.60000e+00	4.451608e-05	

Index   v-sweep         rds             
--------------------------------------------------------------------------------
113	-5.65000e+00	4.411899e-05	
114	-5.70000e+00	4.373453e-05	
115	-5.75000e+00	4.336213e-05	
116	-5.80000e+00	4.300125e-05	
117	-5.85000e+00	4.265136e-05	
118	-5.90000e+00	4.231200e-05	
119	-5.95000e+00	4.198270e-05	
120	-6.00000e+00	4.166304e-05	
121	-6.05000e+00	4.135262e-05	
122	-6.10000e+00	4.105107e-05	
123	-6.15000e+00	4.075801e-05	
124	-6.20000e+00	4.047312e-05	
125	-6.25000e+00	4.019608e-05	
126	-6.30000e+00	3.992658e-05	
127	-6.35000e+00	3.966433e-05	
128	-6.40000e+00	3.940907e-05	
129	-6.45000e+00	3.916055e-05	
130	-6.50000e+00	3.891851e-05	
131	-6.55000e+00	3.868273e-05	
132	-6.60000e+00	3.845300e-05	
Reset re-loads circuit ***************************

Circuit: ***************************

Doing analysis at TEMP = 125.000000 and TNOM = 125.000000


No. of Data Rows : 133
                          ***************************
                          DC transfer characteristic  Mon Jan  9 13:58:53  2023
--------------------------------------------------------------------------------
Index   v-sweep         rds             
--------------------------------------------------------------------------------
0	0.000000e+00	1.381638e-03	
1	-5.00000e-02	1.362121e-03	
2	-1.00000e-01	1.342693e-03	
3	-1.50000e-01	1.323355e-03	
4	-2.00000e-01	1.304107e-03	
5	-2.50000e-01	1.284948e-03	
6	-3.00000e-01	1.265878e-03	
7	-3.50000e-01	1.246896e-03	
8	-4.00000e-01	1.228001e-03	
9	-4.50000e-01	1.209194e-03	
10	-5.00000e-01	1.190474e-03	
11	-5.50000e-01	1.171840e-03	
12	-6.00000e-01	1.153292e-03	
13	-6.50000e-01	1.134830e-03	
14	-7.00000e-01	1.116453e-03	
15	-7.50000e-01	1.098161e-03	
16	-8.00000e-01	1.079953e-03	
17	-8.50000e-01	1.061829e-03	
18	-9.00000e-01	1.043789e-03	
19	-9.50000e-01	1.025832e-03	
20	-1.00000e+00	1.007957e-03	
21	-1.05000e+00	9.901652e-04	
22	-1.10000e+00	9.724552e-04	
23	-1.15000e+00	9.548268e-04	
24	-1.20000e+00	9.372796e-04	
25	-1.25000e+00	9.198132e-04	
26	-1.30000e+00	9.024272e-04	
27	-1.35000e+00	8.851213e-04	
28	-1.40000e+00	8.678952e-04	
29	-1.45000e+00	8.507483e-04	
30	-1.50000e+00	8.336805e-04	
31	-1.55000e+00	8.166914e-04	
32	-1.60000e+00	7.997805e-04	
33	-1.65000e+00	7.829477e-04	
34	-1.70000e+00	7.661926e-04	
35	-1.75000e+00	7.495148e-04	
36	-1.80000e+00	7.329141e-04	
37	-1.85000e+00	7.163903e-04	
38	-1.90000e+00	6.999429e-04	
39	-1.95000e+00	6.835719e-04	
40	-2.00000e+00	6.672769e-04	
41	-2.05000e+00	6.510579e-04	
42	-2.10000e+00	6.349145e-04	
43	-2.15000e+00	6.188466e-04	
44	-2.20000e+00	6.028542e-04	
45	-2.25000e+00	5.869372e-04	
46	-2.30000e+00	5.710955e-04	
47	-2.35000e+00	5.553293e-04	
48	-2.40000e+00	5.396386e-04	
49	-2.45000e+00	5.240236e-04	
50	-2.50000e+00	5.084848e-04	
51	-2.55000e+00	4.930225e-04	
52	-2.60000e+00	4.776374e-04	
53	-2.65000e+00	4.623304e-04	
54	-2.70000e+00	4.471026e-04	

Index   v-sweep         rds             
--------------------------------------------------------------------------------
55	-2.75000e+00	4.319555e-04	
56	-2.80000e+00	4.168909e-04	
57	-2.85000e+00	4.019113e-04	
58	-2.90000e+00	3.870198e-04	
59	-2.95000e+00	3.722207e-04	
60	-3.00000e+00	3.575191e-04	
61	-3.05000e+00	3.429219e-04	
62	-3.10000e+00	3.284380e-04	
63	-3.15000e+00	3.140792e-04	
64	-3.20000e+00	2.998606e-04	
65	-3.25000e+00	2.858024e-04	
66	-3.30000e+00	2.719316e-04	
67	-3.35000e+00	2.582842e-04	
68	-3.40000e+00	2.449093e-04	
69	-3.45000e+00	2.318719e-04	
70	-3.50000e+00	2.192558e-04	
71	-3.55000e+00	2.071593e-04	
72	-3.60000e+00	1.956851e-04	
73	-3.65000e+00	1.849224e-04	
74	-3.70000e+00	1.749317e-04	
75	-3.75000e+00	1.657367e-04	
76	-3.80000e+00	1.573264e-04	
77	-3.85000e+00	1.496633e-04	
78	-3.90000e+00	1.426939e-04	
79	-3.95000e+00	1.363570e-04	
80	-4.00000e+00	1.305904e-04	
81	-4.05000e+00	1.253340e-04	
82	-4.10000e+00	1.205327e-04	
83	-4.15000e+00	1.161364e-04	
84	-4.20000e+00	1.121008e-04	
85	-4.25000e+00	1.083866e-04	
86	-4.30000e+00	1.049594e-04	
87	-4.35000e+00	1.017890e-04	
88	-4.40000e+00	9.884893e-05	
89	-4.45000e+00	9.611605e-05	
90	-4.50000e+00	9.357001e-05	
91	-4.55000e+00	9.119291e-05	
92	-4.60000e+00	8.896898e-05	
93	-4.65000e+00	8.688429e-05	
94	-4.70000e+00	8.492647e-05	
95	-4.75000e+00	8.308457e-05	
96	-4.80000e+00	8.134879e-05	
97	-4.85000e+00	7.971043e-05	
98	-4.90000e+00	7.816165e-05	
99	-4.95000e+00	7.669544e-05	
100	-5.00000e+00	7.530549e-05	
101	-5.05000e+00	7.398610e-05	
102	-5.10000e+00	7.273213e-05	
103	-5.15000e+00	7.153889e-05	
104	-5.20000e+00	7.040217e-05	
105	-5.25000e+00	6.931808e-05	
106	-5.30000e+00	6.828313e-05	
107	-5.35000e+00	6.729409e-05	
108	-5.40000e+00	6.634803e-05	
109	-5.45000e+00	6.544223e-05	
110	-5.50000e+00	6.457424e-05	
111	-5.55000e+00	6.374175e-05	
112	-5.60000e+00	6.294268e-05	

Index   v-sweep         rds             
--------------------------------------------------------------------------------
113	-5.65000e+00	6.217508e-05	
114	-5.70000e+00	6.143716e-05	
115	-5.75000e+00	6.072725e-05	
116	-5.80000e+00	6.004382e-05	
117	-5.85000e+00	5.938544e-05	
118	-5.90000e+00	5.875077e-05	
119	-5.95000e+00	5.813858e-05	
120	-6.00000e+00	5.754771e-05	
121	-6.05000e+00	5.697710e-05	
122	-6.10000e+00	5.642574e-05	
123	-6.15000e+00	5.589268e-05	
124	-6.20000e+00	5.537705e-05	
125	-6.25000e+00	5.487803e-05	
126	-6.30000e+00	5.439485e-05	
127	-6.35000e+00	5.392677e-05	
128	-6.40000e+00	5.347312e-05	
129	-6.45000e+00	5.303327e-05	
130	-6.50000e+00	5.260660e-05	
131	-6.55000e+00	5.219255e-05	
132	-6.60000e+00	5.179059e-05	
Reset re-loads circuit ***************************

Circuit: ***************************

Note: No ".plot", ".print", or ".fourier" lines; no simulations run
