
Note: Compatibility modes selected: hs

Warning: m=xx on .subckt line will override multiplier m hierarchy!


Circuit: ***************************

Doing analysis at TEMP = 25.000000 and TNOM = 25.000000


No. of Data Rows : 133
                          ***************************
                          DC transfer characteristic  Mon Jan  9 13:58:52  2023
--------------------------------------------------------------------------------
Index   v-sweep         rds             
--------------------------------------------------------------------------------
0	0.000000e+00	1.962550e-07	
1	-5.00000e-02	1.151287e-07	
2	-1.00000e-01	4.565512e-08	
3	-1.50000e-01	1.095046e-08	
4	-2.00000e-01	2.882884e-09	
5	-2.50000e-01	1.153920e-09	
6	-3.00000e-01	6.459650e-10	
7	-3.50000e-01	4.475842e-10	
8	-4.00000e-01	3.520066e-10	
9	-4.50000e-01	2.982417e-10	
10	-5.00000e-01	2.642791e-10	
11	-5.50000e-01	2.408669e-10	
12	-6.00000e-01	2.236272e-10	
13	-6.50000e-01	2.102825e-10	
14	-7.00000e-01	1.995522e-10	
15	-7.50000e-01	1.906681e-10	
16	-8.00000e-01	1.831432e-10	
17	-8.50000e-01	1.766540e-10	
18	-9.00000e-01	1.709769e-10	
19	-9.50000e-01	1.659519e-10	
20	-1.00000e+00	1.614611e-10	
21	-1.05000e+00	1.574150e-10	
22	-1.10000e+00	1.537446e-10	
23	-1.15000e+00	1.503954e-10	
24	-1.20000e+00	1.473237e-10	
25	-1.25000e+00	1.444938e-10	
26	-1.30000e+00	1.418765e-10	
27	-1.35000e+00	1.394471e-10	
28	-1.40000e+00	1.371851e-10	
29	-1.45000e+00	1.350728e-10	
30	-1.50000e+00	1.330951e-10	
31	-1.55000e+00	1.312392e-10	
32	-1.60000e+00	1.294935e-10	
33	-1.65000e+00	1.278484e-10	
34	-1.70000e+00	1.262949e-10	
35	-1.75000e+00	1.248256e-10	
36	-1.80000e+00	1.234335e-10	
37	-1.85000e+00	1.221125e-10	
38	-1.90000e+00	1.208573e-10	
39	-1.95000e+00	1.196629e-10	
40	-2.00000e+00	1.185250e-10	
41	-2.05000e+00	1.174395e-10	
42	-2.10000e+00	1.164029e-10	
43	-2.15000e+00	1.154119e-10	
44	-2.20000e+00	1.144635e-10	
45	-2.25000e+00	1.135550e-10	
46	-2.30000e+00	1.126839e-10	
47	-2.35000e+00	1.118479e-10	
48	-2.40000e+00	1.110450e-10	
49	-2.45000e+00	1.102731e-10	
50	-2.50000e+00	1.095306e-10	
51	-2.55000e+00	1.088157e-10	
52	-2.60000e+00	1.081269e-10	
53	-2.65000e+00	1.074628e-10	
54	-2.70000e+00	1.068222e-10	

Index   v-sweep         rds             
--------------------------------------------------------------------------------
55	-2.75000e+00	1.062037e-10	
56	-2.80000e+00	1.056063e-10	
57	-2.85000e+00	1.050289e-10	
58	-2.90000e+00	1.044705e-10	
59	-2.95000e+00	1.039302e-10	
60	-3.00000e+00	1.034071e-10	
61	-3.05000e+00	1.029005e-10	
62	-3.10000e+00	1.024094e-10	
63	-3.15000e+00	1.019334e-10	
64	-3.20000e+00	1.014715e-10	
65	-3.25000e+00	1.010234e-10	
66	-3.30000e+00	1.005883e-10	
67	-3.35000e+00	1.001657e-10	
68	-3.40000e+00	9.975505e-11	
69	-3.45000e+00	9.935589e-11	
70	-3.50000e+00	9.896775e-11	
71	-3.55000e+00	9.859017e-11	
72	-3.60000e+00	9.822274e-11	
73	-3.65000e+00	9.786507e-11	
74	-3.70000e+00	9.751678e-11	
75	-3.75000e+00	9.717751e-11	
76	-3.80000e+00	9.684694e-11	
77	-3.85000e+00	9.652473e-11	
78	-3.90000e+00	9.621059e-11	
79	-3.95000e+00	9.590423e-11	
80	-4.00000e+00	9.560538e-11	
81	-4.05000e+00	9.531377e-11	
82	-4.10000e+00	9.502917e-11	
83	-4.15000e+00	9.475133e-11	
84	-4.20000e+00	9.448003e-11	
85	-4.25000e+00	9.421507e-11	
86	-4.30000e+00	9.395622e-11	
87	-4.35000e+00	9.370331e-11	
88	-4.40000e+00	9.345614e-11	
89	-4.45000e+00	9.321455e-11	
90	-4.50000e+00	9.297836e-11	
91	-4.55000e+00	9.274741e-11	
92	-4.60000e+00	9.252154e-11	
93	-4.65000e+00	9.230062e-11	
94	-4.70000e+00	9.208450e-11	
95	-4.75000e+00	9.187304e-11	
96	-4.80000e+00	9.166613e-11	
97	-4.85000e+00	9.146362e-11	
98	-4.90000e+00	9.126541e-11	
99	-4.95000e+00	9.107139e-11	
100	-5.00000e+00	9.088143e-11	
101	-5.05000e+00	9.069545e-11	
102	-5.10000e+00	9.051334e-11	
103	-5.15000e+00	9.033500e-11	
104	-5.20000e+00	9.016035e-11	
105	-5.25000e+00	8.998929e-11	
106	-5.30000e+00	8.982173e-11	
107	-5.35000e+00	8.965761e-11	
108	-5.40000e+00	8.949683e-11	
109	-5.45000e+00	8.933932e-11	
110	-5.50000e+00	8.918501e-11	
111	-5.55000e+00	8.903383e-11	
112	-5.60000e+00	8.888571e-11	

Index   v-sweep         rds             
--------------------------------------------------------------------------------
113	-5.65000e+00	8.874058e-11	
114	-5.70000e+00	8.859839e-11	
115	-5.75000e+00	8.845907e-11	
116	-5.80000e+00	8.832256e-11	
117	-5.85000e+00	8.818881e-11	
118	-5.90000e+00	8.805775e-11	
119	-5.95000e+00	8.792934e-11	
120	-6.00000e+00	8.780353e-11	
121	-6.05000e+00	8.768027e-11	
122	-6.10000e+00	8.755950e-11	
123	-6.15000e+00	8.744118e-11	
124	-6.20000e+00	8.732526e-11	
125	-6.25000e+00	8.721171e-11	
126	-6.30000e+00	8.710048e-11	
127	-6.35000e+00	8.699153e-11	
128	-6.40000e+00	8.688481e-11	
129	-6.45000e+00	8.678029e-11	
130	-6.50000e+00	8.667793e-11	
131	-6.55000e+00	8.657769e-11	
132	-6.60000e+00	8.647954e-11	
Reset re-loads circuit ***************************

Circuit: ***************************

Doing analysis at TEMP = 25.000000 and TNOM = 25.000000


No. of Data Rows : 133
                          ***************************
                          DC transfer characteristic  Mon Jan  9 13:58:52  2023
--------------------------------------------------------------------------------
Index   v-sweep         rds             
--------------------------------------------------------------------------------
0	0.000000e+00	1.678743e-06	
1	-5.00000e-02	1.574451e-06	
2	-1.00000e-01	1.470246e-06	
3	-1.50000e-01	1.366134e-06	
4	-2.00000e-01	1.262124e-06	
5	-2.50000e-01	1.158229e-06	
6	-3.00000e-01	1.054471e-06	
7	-3.50000e-01	9.508835e-07	
8	-4.00000e-01	8.475256e-07	
9	-4.50000e-01	7.444988e-07	
10	-5.00000e-01	6.419895e-07	
11	-5.50000e-01	5.403544e-07	
12	-6.00000e-01	4.403042e-07	
13	-6.50000e-01	3.432885e-07	
14	-7.00000e-01	2.521961e-07	
15	-7.50000e-01	1.720968e-07	
16	-8.00000e-01	1.093491e-07	
17	-8.50000e-01	6.726133e-08	
18	-9.00000e-01	4.272685e-08	
19	-9.50000e-01	2.939211e-08	
20	-1.00000e+00	2.210252e-08	
21	-1.05000e+00	1.790360e-08	
22	-1.10000e+00	1.531005e-08	
23	-1.15000e+00	1.359154e-08	
24	-1.20000e+00	1.237901e-08	
25	-1.25000e+00	1.147693e-08	
26	-1.30000e+00	1.077617e-08	
27	-1.35000e+00	1.021260e-08	
28	-1.40000e+00	9.746624e-09	
29	-1.45000e+00	9.352737e-09	
30	-1.50000e+00	9.013812e-09	
31	-1.55000e+00	8.717943e-09	
32	-1.60000e+00	8.456587e-09	
33	-1.65000e+00	8.223440e-09	
34	-1.70000e+00	8.013733e-09	
35	-1.75000e+00	7.823784e-09	
36	-1.80000e+00	7.650692e-09	
37	-1.85000e+00	7.492133e-09	
38	-1.90000e+00	7.346220e-09	
39	-1.95000e+00	7.211398e-09	
40	-2.00000e+00	7.086373e-09	
41	-2.05000e+00	6.970057e-09	
42	-2.10000e+00	6.861523e-09	
43	-2.15000e+00	6.759981e-09	
44	-2.20000e+00	6.664748e-09	
45	-2.25000e+00	6.575232e-09	
46	-2.30000e+00	6.490914e-09	
47	-2.35000e+00	6.411341e-09	
48	-2.40000e+00	6.336112e-09	
49	-2.45000e+00	6.264870e-09	
50	-2.50000e+00	6.197300e-09	
51	-2.55000e+00	6.133118e-09	
52	-2.60000e+00	6.072071e-09	
53	-2.65000e+00	6.013931e-09	
54	-2.70000e+00	5.958490e-09	

Index   v-sweep         rds             
--------------------------------------------------------------------------------
55	-2.75000e+00	5.905563e-09	
56	-2.80000e+00	5.854980e-09	
57	-2.85000e+00	5.806587e-09	
58	-2.90000e+00	5.760242e-09	
59	-2.95000e+00	5.715818e-09	
60	-3.00000e+00	5.673195e-09	
61	-3.05000e+00	5.632266e-09	
62	-3.10000e+00	5.592931e-09	
63	-3.15000e+00	5.555097e-09	
64	-3.20000e+00	5.518681e-09	
65	-3.25000e+00	5.483603e-09	
66	-3.30000e+00	5.449790e-09	
67	-3.35000e+00	5.417175e-09	
68	-3.40000e+00	5.385696e-09	
69	-3.45000e+00	5.355293e-09	
70	-3.50000e+00	5.325913e-09	
71	-3.55000e+00	5.297504e-09	
72	-3.60000e+00	5.270019e-09	
73	-3.65000e+00	5.243415e-09	
74	-3.70000e+00	5.217648e-09	
75	-3.75000e+00	5.192681e-09	
76	-3.80000e+00	5.168476e-09	
77	-3.85000e+00	5.145000e-09	
78	-3.90000e+00	5.122220e-09	
79	-3.95000e+00	5.100106e-09	
80	-4.00000e+00	5.078630e-09	
81	-4.05000e+00	5.057764e-09	
82	-4.10000e+00	5.037483e-09	
83	-4.15000e+00	5.017763e-09	
84	-4.20000e+00	4.998582e-09	
85	-4.25000e+00	4.979917e-09	
86	-4.30000e+00	4.961750e-09	
87	-4.35000e+00	4.944060e-09	
88	-4.40000e+00	4.926829e-09	
89	-4.45000e+00	4.910041e-09	
90	-4.50000e+00	4.893679e-09	
91	-4.55000e+00	4.877727e-09	
92	-4.60000e+00	4.862171e-09	
93	-4.65000e+00	4.846997e-09	
94	-4.70000e+00	4.832191e-09	
95	-4.75000e+00	4.817742e-09	
96	-4.80000e+00	4.803636e-09	
97	-4.85000e+00	4.789863e-09	
98	-4.90000e+00	4.776411e-09	
99	-4.95000e+00	4.763271e-09	
100	-5.00000e+00	4.750432e-09	
101	-5.05000e+00	4.737885e-09	
102	-5.10000e+00	4.725621e-09	
103	-5.15000e+00	4.713632e-09	
104	-5.20000e+00	4.701908e-09	
105	-5.25000e+00	4.690443e-09	
106	-5.30000e+00	4.679229e-09	
107	-5.35000e+00	4.668258e-09	
108	-5.40000e+00	4.657525e-09	
109	-5.45000e+00	4.647021e-09	
110	-5.50000e+00	4.636742e-09	
111	-5.55000e+00	4.626680e-09	
112	-5.60000e+00	4.616831e-09	

Index   v-sweep         rds             
--------------------------------------------------------------------------------
113	-5.65000e+00	4.607189e-09	
114	-5.70000e+00	4.597748e-09	
115	-5.75000e+00	4.588503e-09	
116	-5.80000e+00	4.579450e-09	
117	-5.85000e+00	4.570583e-09	
118	-5.90000e+00	4.561899e-09	
119	-5.95000e+00	4.553393e-09	
120	-6.00000e+00	4.545061e-09	
121	-6.05000e+00	4.536898e-09	
122	-6.10000e+00	4.528901e-09	
123	-6.15000e+00	4.521067e-09	
124	-6.20000e+00	4.513391e-09	
125	-6.25000e+00	4.505871e-09	
126	-6.30000e+00	4.498503e-09	
127	-6.35000e+00	4.491283e-09	
128	-6.40000e+00	4.484209e-09	
129	-6.45000e+00	4.477277e-09	
130	-6.50000e+00	4.470486e-09	
131	-6.55000e+00	4.463831e-09	
132	-6.60000e+00	4.457311e-09	
Reset re-loads circuit ***************************

Circuit: ***************************

Doing analysis at TEMP = 25.000000 and TNOM = 25.000000


No. of Data Rows : 133
                          ***************************
                          DC transfer characteristic  Mon Jan  9 13:58:52  2023
--------------------------------------------------------------------------------
Index   v-sweep         rds             
--------------------------------------------------------------------------------
0	0.000000e+00	2.999323e-06	
1	-5.00000e-02	2.899697e-06	
2	-1.00000e-01	2.800132e-06	
3	-1.50000e-01	2.700631e-06	
4	-2.00000e-01	2.601192e-06	
5	-2.50000e-01	2.501816e-06	
6	-3.00000e-01	2.402505e-06	
7	-3.50000e-01	2.303259e-06	
8	-4.00000e-01	2.204079e-06	
9	-4.50000e-01	2.104967e-06	
10	-5.00000e-01	2.005925e-06	
11	-5.50000e-01	1.906955e-06	
12	-6.00000e-01	1.808061e-06	
13	-6.50000e-01	1.709248e-06	
14	-7.00000e-01	1.610522e-06	
15	-7.50000e-01	1.511892e-06	
16	-8.00000e-01	1.413371e-06	
17	-8.50000e-01	1.314974e-06	
18	-9.00000e-01	1.216729e-06	
19	-9.50000e-01	1.118672e-06	
20	-1.00000e+00	1.020861e-06	
21	-1.05000e+00	9.233812e-07	
22	-1.10000e+00	8.263731e-07	
23	-1.15000e+00	7.300618e-07	
24	-1.20000e+00	6.348211e-07	
25	-1.25000e+00	5.412795e-07	
26	-1.30000e+00	4.504927e-07	
27	-1.35000e+00	3.641807e-07	
28	-1.40000e+00	2.849268e-07	
29	-1.45000e+00	2.159994e-07	
30	-1.50000e+00	1.603488e-07	
31	-1.55000e+00	1.190324e-07	
32	-1.60000e+00	9.051161e-08	
33	-1.65000e+00	7.165627e-08	
34	-1.70000e+00	5.929589e-08	
35	-1.75000e+00	5.103753e-08	
36	-1.80000e+00	4.532391e-08	
37	-1.85000e+00	4.120633e-08	
38	-1.90000e+00	3.811710e-08	
39	-1.95000e+00	3.571353e-08	
40	-2.00000e+00	3.378393e-08	
41	-2.05000e+00	3.219369e-08	
42	-2.10000e+00	3.085440e-08	
43	-2.15000e+00	2.970617e-08	
44	-2.20000e+00	2.870719e-08	
45	-2.25000e+00	2.782740e-08	
46	-2.30000e+00	2.704468e-08	
47	-2.35000e+00	2.634233e-08	
48	-2.40000e+00	2.570747e-08	
49	-2.45000e+00	2.513003e-08	
50	-2.50000e+00	2.460194e-08	
51	-2.55000e+00	2.411668e-08	
52	-2.60000e+00	2.366890e-08	
53	-2.65000e+00	2.325416e-08	
54	-2.70000e+00	2.286872e-08	

Index   v-sweep         rds             
--------------------------------------------------------------------------------
55	-2.75000e+00	2.250943e-08	
56	-2.80000e+00	2.217359e-08	
57	-2.85000e+00	2.185888e-08	
58	-2.90000e+00	2.156329e-08	
59	-2.95000e+00	2.128507e-08	
60	-3.00000e+00	2.102269e-08	
61	-3.05000e+00	2.077478e-08	
62	-3.10000e+00	2.054016e-08	
63	-3.15000e+00	2.031776e-08	
64	-3.20000e+00	2.010662e-08	
65	-3.25000e+00	1.990589e-08	
66	-3.30000e+00	1.971481e-08	
67	-3.35000e+00	1.953269e-08	
68	-3.40000e+00	1.935891e-08	
69	-3.45000e+00	1.919288e-08	
70	-3.50000e+00	1.903411e-08	
71	-3.55000e+00	1.888211e-08	
72	-3.60000e+00	1.873647e-08	
73	-3.65000e+00	1.859678e-08	
74	-3.70000e+00	1.846269e-08	
75	-3.75000e+00	1.833386e-08	
76	-3.80000e+00	1.820999e-08	
77	-3.85000e+00	1.809079e-08	
78	-3.90000e+00	1.797601e-08	
79	-3.95000e+00	1.786540e-08	
80	-4.00000e+00	1.775873e-08	
81	-4.05000e+00	1.765581e-08	
82	-4.10000e+00	1.755643e-08	
83	-4.15000e+00	1.746041e-08	
84	-4.20000e+00	1.736759e-08	
85	-4.25000e+00	1.727782e-08	
86	-4.30000e+00	1.719093e-08	
87	-4.35000e+00	1.710680e-08	
88	-4.40000e+00	1.702530e-08	
89	-4.45000e+00	1.694630e-08	
90	-4.50000e+00	1.686969e-08	
91	-4.55000e+00	1.679537e-08	
92	-4.60000e+00	1.672324e-08	
93	-4.65000e+00	1.665319e-08	
94	-4.70000e+00	1.658515e-08	
95	-4.75000e+00	1.651903e-08	
96	-4.80000e+00	1.645475e-08	
97	-4.85000e+00	1.639223e-08	
98	-4.90000e+00	1.633141e-08	
99	-4.95000e+00	1.627221e-08	
100	-5.00000e+00	1.621458e-08	
101	-5.05000e+00	1.615845e-08	
102	-5.10000e+00	1.610377e-08	
103	-5.15000e+00	1.605048e-08	
104	-5.20000e+00	1.599854e-08	
105	-5.25000e+00	1.594789e-08	
106	-5.30000e+00	1.589849e-08	
107	-5.35000e+00	1.585030e-08	
108	-5.40000e+00	1.580327e-08	
109	-5.45000e+00	1.575736e-08	
110	-5.50000e+00	1.571254e-08	
111	-5.55000e+00	1.566877e-08	
112	-5.60000e+00	1.562602e-08	

Index   v-sweep         rds             
--------------------------------------------------------------------------------
113	-5.65000e+00	1.558425e-08	
114	-5.70000e+00	1.554343e-08	
115	-5.75000e+00	1.550354e-08	
116	-5.80000e+00	1.546454e-08	
117	-5.85000e+00	1.542642e-08	
118	-5.90000e+00	1.538913e-08	
119	-5.95000e+00	1.535266e-08	
120	-6.00000e+00	1.531699e-08	
121	-6.05000e+00	1.528209e-08	
122	-6.10000e+00	1.524794e-08	
123	-6.15000e+00	1.521452e-08	
124	-6.20000e+00	1.518182e-08	
125	-6.25000e+00	1.514980e-08	
126	-6.30000e+00	1.511846e-08	
127	-6.35000e+00	1.508777e-08	
128	-6.40000e+00	1.505773e-08	
129	-6.45000e+00	1.502830e-08	
130	-6.50000e+00	1.499949e-08	
131	-6.55000e+00	1.497127e-08	
132	-6.60000e+00	1.494363e-08	
Reset re-loads circuit ***************************

Circuit: ***************************

Doing analysis at TEMP = 25.000000 and TNOM = 25.000000


No. of Data Rows : 133
                          ***************************
                          DC transfer characteristic  Mon Jan  9 13:58:52  2023
--------------------------------------------------------------------------------
Index   v-sweep         rds             
--------------------------------------------------------------------------------
0	0.000000e+00	4.191209e-06	
1	-5.00000e-02	4.096872e-06	
2	-1.00000e-01	4.002588e-06	
3	-1.50000e-01	3.908355e-06	
4	-2.00000e-01	3.814175e-06	
5	-2.50000e-01	3.720048e-06	
6	-3.00000e-01	3.625973e-06	
7	-3.50000e-01	3.531950e-06	
8	-4.00000e-01	3.437980e-06	
9	-4.50000e-01	3.344063e-06	
10	-5.00000e-01	3.250200e-06	
11	-5.50000e-01	3.156389e-06	
12	-6.00000e-01	3.062632e-06	
13	-6.50000e-01	2.968929e-06	
14	-7.00000e-01	2.875281e-06	
15	-7.50000e-01	2.781687e-06	
16	-8.00000e-01	2.688149e-06	
17	-8.50000e-01	2.594667e-06	
18	-9.00000e-01	2.501243e-06	
19	-9.50000e-01	2.407877e-06	
20	-1.00000e+00	2.314572e-06	
21	-1.05000e+00	2.221328e-06	
22	-1.10000e+00	2.128149e-06	
23	-1.15000e+00	2.035037e-06	
24	-1.20000e+00	1.941997e-06	
25	-1.25000e+00	1.849032e-06	
26	-1.30000e+00	1.756151e-06	
27	-1.35000e+00	1.663360e-06	
28	-1.40000e+00	1.570672e-06	
29	-1.45000e+00	1.478102e-06	
30	-1.50000e+00	1.385670e-06	
31	-1.55000e+00	1.293405e-06	
32	-1.60000e+00	1.201349e-06	
33	-1.65000e+00	1.109558e-06	
34	-1.70000e+00	1.018118e-06	
35	-1.75000e+00	9.271523e-07	
36	-1.80000e+00	8.368486e-07	
37	-1.85000e+00	7.474905e-07	
38	-1.90000e+00	6.595125e-07	
39	-1.95000e+00	5.735782e-07	
40	-2.00000e+00	4.906825e-07	
41	-2.05000e+00	4.122519e-07	
42	-2.10000e+00	3.401595e-07	
43	-2.15000e+00	2.765096e-07	
44	-2.20000e+00	2.230854e-07	
45	-2.25000e+00	1.806405e-07	
46	-2.30000e+00	1.485387e-07	
47	-2.35000e+00	1.250665e-07	
48	-2.40000e+00	1.081374e-07	
49	-2.45000e+00	9.586689e-08	
50	-2.50000e+00	8.680952e-08	
51	-2.55000e+00	7.995183e-08	
52	-2.60000e+00	7.461378e-08	
53	-2.65000e+00	7.034564e-08	
54	-2.70000e+00	6.684902e-08	

Index   v-sweep         rds             
--------------------------------------------------------------------------------
55	-2.75000e+00	6.392316e-08	
56	-2.80000e+00	6.143027e-08	
57	-2.85000e+00	5.927370e-08	
58	-2.90000e+00	5.738403e-08	
59	-2.95000e+00	5.571026e-08	
60	-3.00000e+00	5.421412e-08	
61	-3.05000e+00	5.286632e-08	
62	-3.10000e+00	5.164401e-08	
63	-3.15000e+00	5.052906e-08	
64	-3.20000e+00	4.950689e-08	
65	-3.25000e+00	4.856558e-08	
66	-3.30000e+00	4.769532e-08	
67	-3.35000e+00	4.688788e-08	
68	-3.40000e+00	4.613636e-08	
69	-3.45000e+00	4.543484e-08	
70	-3.50000e+00	4.477830e-08	
71	-3.55000e+00	4.416237e-08	
72	-3.60000e+00	4.358325e-08	
73	-3.65000e+00	4.303764e-08	
74	-3.70000e+00	4.252262e-08	
75	-3.75000e+00	4.203563e-08	
76	-3.80000e+00	4.157437e-08	
77	-3.85000e+00	4.113683e-08	
78	-3.90000e+00	4.072117e-08	
79	-3.95000e+00	4.032576e-08	
80	-4.00000e+00	3.994914e-08	
81	-4.05000e+00	3.958998e-08	
82	-4.10000e+00	3.924708e-08	
83	-4.15000e+00	3.891933e-08	
84	-4.20000e+00	3.860576e-08	
85	-4.25000e+00	3.830544e-08	
86	-4.30000e+00	3.801755e-08	
87	-4.35000e+00	3.774133e-08	
88	-4.40000e+00	3.747607e-08	
89	-4.45000e+00	3.722113e-08	
90	-4.50000e+00	3.697592e-08	
91	-4.55000e+00	3.673989e-08	
92	-4.60000e+00	3.651253e-08	
93	-4.65000e+00	3.629337e-08	
94	-4.70000e+00	3.608196e-08	
95	-4.75000e+00	3.587792e-08	
96	-4.80000e+00	3.568085e-08	
97	-4.85000e+00	3.549041e-08	
98	-4.90000e+00	3.530626e-08	
99	-4.95000e+00	3.512811e-08	
100	-5.00000e+00	3.495565e-08	
101	-5.05000e+00	3.478863e-08	
102	-5.10000e+00	3.462679e-08	
103	-5.15000e+00	3.446990e-08	
104	-5.20000e+00	3.431772e-08	
105	-5.25000e+00	3.417007e-08	
106	-5.30000e+00	3.402672e-08	
107	-5.35000e+00	3.388751e-08	
108	-5.40000e+00	3.375226e-08	
109	-5.45000e+00	3.362080e-08	
110	-5.50000e+00	3.349298e-08	
111	-5.55000e+00	3.336864e-08	
112	-5.60000e+00	3.324766e-08	

Index   v-sweep         rds             
--------------------------------------------------------------------------------
113	-5.65000e+00	3.312990e-08	
114	-5.70000e+00	3.301524e-08	
115	-5.75000e+00	3.290355e-08	
116	-5.80000e+00	3.279474e-08	
117	-5.85000e+00	3.268868e-08	
118	-5.90000e+00	3.258528e-08	
119	-5.95000e+00	3.248445e-08	
120	-6.00000e+00	3.238610e-08	
121	-6.05000e+00	3.229013e-08	
122	-6.10000e+00	3.219647e-08	
123	-6.15000e+00	3.210504e-08	
124	-6.20000e+00	3.201577e-08	
125	-6.25000e+00	3.192858e-08	
126	-6.30000e+00	3.184341e-08	
127	-6.35000e+00	3.176019e-08	
128	-6.40000e+00	3.167886e-08	
129	-6.45000e+00	3.159937e-08	
130	-6.50000e+00	3.152166e-08	
131	-6.55000e+00	3.144567e-08	
132	-6.60000e+00	3.137136e-08	
Reset re-loads circuit ***************************

Circuit: ***************************

Doing analysis at TEMP = 25.000000 and TNOM = 25.000000


No. of Data Rows : 133
                          ***************************
                          DC transfer characteristic  Mon Jan  9 13:58:52  2023
--------------------------------------------------------------------------------
Index   v-sweep         rds             
--------------------------------------------------------------------------------
0	0.000000e+00	5.265126e-06	
1	-5.00000e-02	5.175845e-06	
2	-1.00000e-01	5.086610e-06	
3	-1.50000e-01	4.997420e-06	
4	-2.00000e-01	4.908275e-06	
5	-2.50000e-01	4.819176e-06	
6	-3.00000e-01	4.730122e-06	
7	-3.50000e-01	4.641114e-06	
8	-4.00000e-01	4.552151e-06	
9	-4.50000e-01	4.463233e-06	
10	-5.00000e-01	4.374361e-06	
11	-5.50000e-01	4.285534e-06	
12	-6.00000e-01	4.196753e-06	
13	-6.50000e-01	4.108017e-06	
14	-7.00000e-01	4.019327e-06	
15	-7.50000e-01	3.930683e-06	
16	-8.00000e-01	3.842084e-06	
17	-8.50000e-01	3.753531e-06	
18	-9.00000e-01	3.665024e-06	
19	-9.50000e-01	3.576563e-06	
20	-1.00000e+00	3.488149e-06	
21	-1.05000e+00	3.399781e-06	
22	-1.10000e+00	3.311460e-06	
23	-1.15000e+00	3.223186e-06	
24	-1.20000e+00	3.134960e-06	
25	-1.25000e+00	3.046781e-06	
26	-1.30000e+00	2.958651e-06	
27	-1.35000e+00	2.870570e-06	
28	-1.40000e+00	2.782539e-06	
29	-1.45000e+00	2.694559e-06	
30	-1.50000e+00	2.606630e-06	
31	-1.55000e+00	2.518754e-06	
32	-1.60000e+00	2.430933e-06	
33	-1.65000e+00	2.343169e-06	
34	-1.70000e+00	2.255463e-06	
35	-1.75000e+00	2.167820e-06	
36	-1.80000e+00	2.080241e-06	
37	-1.85000e+00	1.992732e-06	
38	-1.90000e+00	1.905299e-06	
39	-1.95000e+00	1.817948e-06	
40	-2.00000e+00	1.730689e-06	
41	-2.05000e+00	1.643533e-06	
42	-2.10000e+00	1.556497e-06	
43	-2.15000e+00	1.469599e-06	
44	-2.20000e+00	1.382868e-06	
45	-2.25000e+00	1.296341e-06	
46	-2.30000e+00	1.210066e-06	
47	-2.35000e+00	1.124116e-06	
48	-2.40000e+00	1.038586e-06	
49	-2.45000e+00	9.536160e-07	
50	-2.50000e+00	8.694039e-07	
51	-2.55000e+00	7.862353e-07	
52	-2.60000e+00	7.045216e-07	
53	-2.65000e+00	6.248500e-07	
54	-2.70000e+00	5.480402e-07	

Index   v-sweep         rds             
--------------------------------------------------------------------------------
55	-2.75000e+00	4.751857e-07	
56	-2.80000e+00	4.076362e-07	
57	-2.85000e+00	3.468568e-07	
58	-2.90000e+00	2.941280e-07	
59	-2.95000e+00	2.501626e-07	
60	-3.00000e+00	2.148463e-07	
61	-3.05000e+00	1.872850e-07	
62	-3.10000e+00	1.661247e-07	
63	-3.15000e+00	1.499287e-07	
64	-3.20000e+00	1.374331e-07	
65	-3.25000e+00	1.276423e-07	
66	-3.30000e+00	1.198219e-07	
67	-3.35000e+00	1.134478e-07	
68	-3.40000e+00	1.081507e-07	
69	-3.45000e+00	1.036704e-07	
70	-3.50000e+00	9.982155e-08	
71	-3.55000e+00	9.647053e-08	
72	-3.60000e+00	9.351919e-08	
73	-3.65000e+00	9.089417e-08	
74	-3.70000e+00	8.853965e-08	
75	-3.75000e+00	8.641241e-08	
76	-3.80000e+00	8.447843e-08	
77	-3.85000e+00	8.271053e-08	
78	-3.90000e+00	8.108668e-08	
79	-3.95000e+00	7.958883e-08	
80	-4.00000e+00	7.820196e-08	
81	-4.05000e+00	7.691351e-08	
82	-4.10000e+00	7.571283e-08	
83	-4.15000e+00	7.459085e-08	
84	-4.20000e+00	7.353976e-08	
85	-4.25000e+00	7.255278e-08	
86	-4.30000e+00	7.162404e-08	
87	-4.35000e+00	7.074836e-08	
88	-4.40000e+00	6.992121e-08	
89	-4.45000e+00	6.913855e-08	
90	-4.50000e+00	6.839680e-08	
91	-4.55000e+00	6.769279e-08	
92	-4.60000e+00	6.702364e-08	
93	-4.65000e+00	6.638679e-08	
94	-4.70000e+00	6.577991e-08	
95	-4.75000e+00	6.520092e-08	
96	-4.80000e+00	6.464791e-08	
97	-4.85000e+00	6.411915e-08	
98	-4.90000e+00	6.361306e-08	
99	-4.95000e+00	6.312821e-08	
100	-5.00000e+00	6.266328e-08	
101	-5.05000e+00	6.221704e-08	
102	-5.10000e+00	6.178840e-08	
103	-5.15000e+00	6.137633e-08	
104	-5.20000e+00	6.097987e-08	
105	-5.25000e+00	6.059816e-08	
106	-5.30000e+00	6.023038e-08	
107	-5.35000e+00	5.987579e-08	
108	-5.40000e+00	5.953368e-08	
109	-5.45000e+00	5.920340e-08	
110	-5.50000e+00	5.888436e-08	
111	-5.55000e+00	5.857599e-08	
112	-5.60000e+00	5.827776e-08	

Index   v-sweep         rds             
--------------------------------------------------------------------------------
113	-5.65000e+00	5.798918e-08	
114	-5.70000e+00	5.770979e-08	
115	-5.75000e+00	5.743916e-08	
116	-5.80000e+00	5.717688e-08	
117	-5.85000e+00	5.692258e-08	
118	-5.90000e+00	5.667590e-08	
119	-5.95000e+00	5.643650e-08	
120	-6.00000e+00	5.620408e-08	
121	-6.05000e+00	5.597832e-08	
122	-6.10000e+00	5.575895e-08	
123	-6.15000e+00	5.554571e-08	
124	-6.20000e+00	5.533834e-08	
125	-6.25000e+00	5.513662e-08	
126	-6.30000e+00	5.494031e-08	
127	-6.35000e+00	5.474921e-08	
128	-6.40000e+00	5.456312e-08	
129	-6.45000e+00	5.438184e-08	
130	-6.50000e+00	5.420519e-08	
131	-6.55000e+00	5.403302e-08	
132	-6.60000e+00	5.386515e-08	
Reset re-loads circuit ***************************

Circuit: ***************************

Doing analysis at TEMP = 25.000000 and TNOM = 25.000000


No. of Data Rows : 133
                          ***************************
                          DC transfer characteristic  Mon Jan  9 13:58:52  2023
--------------------------------------------------------------------------------
Index   v-sweep         rds             
--------------------------------------------------------------------------------
0	0.000000e+00	6.249869e-06	
1	-5.00000e-02	6.165226e-06	
2	-1.00000e-01	6.080624e-06	
3	-1.50000e-01	5.996062e-06	
4	-2.00000e-01	5.911539e-06	
5	-2.50000e-01	5.827057e-06	
6	-3.00000e-01	5.742615e-06	
7	-3.50000e-01	5.658213e-06	
8	-4.00000e-01	5.573851e-06	
9	-4.50000e-01	5.489528e-06	
10	-5.00000e-01	5.405246e-06	
11	-5.50000e-01	5.321004e-06	
12	-6.00000e-01	5.236801e-06	
13	-6.50000e-01	5.152639e-06	
14	-7.00000e-01	5.068516e-06	
15	-7.50000e-01	4.984433e-06	
16	-8.00000e-01	4.900390e-06	
17	-8.50000e-01	4.816388e-06	
18	-9.00000e-01	4.732425e-06	
19	-9.50000e-01	4.648501e-06	
20	-1.00000e+00	4.564618e-06	
21	-1.05000e+00	4.480775e-06	
22	-1.10000e+00	4.396972e-06	
23	-1.15000e+00	4.313209e-06	
24	-1.20000e+00	4.229486e-06	
25	-1.25000e+00	4.145804e-06	
26	-1.30000e+00	4.062161e-06	
27	-1.35000e+00	3.978559e-06	
28	-1.40000e+00	3.894998e-06	
29	-1.45000e+00	3.811477e-06	
30	-1.50000e+00	3.727997e-06	
31	-1.55000e+00	3.644558e-06	
32	-1.60000e+00	3.561160e-06	
33	-1.65000e+00	3.477804e-06	
34	-1.70000e+00	3.394490e-06	
35	-1.75000e+00	3.311217e-06	
36	-1.80000e+00	3.227987e-06	
37	-1.85000e+00	3.144801e-06	
38	-1.90000e+00	3.061657e-06	
39	-1.95000e+00	2.978558e-06	
40	-2.00000e+00	2.895504e-06	
41	-2.05000e+00	2.812495e-06	
42	-2.10000e+00	2.729534e-06	
43	-2.15000e+00	2.646620e-06	
44	-2.20000e+00	2.563756e-06	
45	-2.25000e+00	2.480943e-06	
46	-2.30000e+00	2.398183e-06	
47	-2.35000e+00	2.315479e-06	
48	-2.40000e+00	2.232834e-06	
49	-2.45000e+00	2.150252e-06	
50	-2.50000e+00	2.067736e-06	
51	-2.55000e+00	1.985293e-06	
52	-2.60000e+00	1.902929e-06	
53	-2.65000e+00	1.820653e-06	
54	-2.70000e+00	1.738476e-06	

Index   v-sweep         rds             
--------------------------------------------------------------------------------
55	-2.75000e+00	1.656411e-06	
56	-2.80000e+00	1.574476e-06	
57	-2.85000e+00	1.492695e-06	
58	-2.90000e+00	1.411096e-06	
59	-2.95000e+00	1.329719e-06	
60	-3.00000e+00	1.248616e-06	
61	-3.05000e+00	1.167857e-06	
62	-3.10000e+00	1.087538e-06	
63	-3.15000e+00	1.007789e-06	
64	-3.20000e+00	9.287879e-07	
65	-3.25000e+00	8.507828e-07	
66	-3.30000e+00	7.741136e-07	
67	-3.35000e+00	6.992444e-07	
68	-3.40000e+00	6.267961e-07	
69	-3.45000e+00	5.575686e-07	
70	-3.50000e+00	4.925334e-07	
71	-3.55000e+00	4.327634e-07	
72	-3.60000e+00	3.792785e-07	
73	-3.65000e+00	3.328255e-07	
74	-3.70000e+00	2.936711e-07	
75	-3.75000e+00	2.615215e-07	
76	-3.80000e+00	2.356156e-07	
77	-3.85000e+00	2.149381e-07	
78	-3.90000e+00	1.984383e-07	
79	-3.95000e+00	1.851765e-07	
80	-4.00000e+00	1.743863e-07	
81	-4.05000e+00	1.654761e-07	
82	-4.10000e+00	1.580037e-07	
83	-4.15000e+00	1.516426e-07	
84	-4.20000e+00	1.461529e-07	
85	-4.25000e+00	1.413570e-07	
86	-4.30000e+00	1.371221e-07	
87	-4.35000e+00	1.333477e-07	
88	-4.40000e+00	1.299566e-07	
89	-4.45000e+00	1.268885e-07	
90	-4.50000e+00	1.240957e-07	
91	-4.55000e+00	1.215401e-07	
92	-4.60000e+00	1.191906e-07	
93	-4.65000e+00	1.170215e-07	
94	-4.70000e+00	1.150117e-07	
95	-4.75000e+00	1.131433e-07	
96	-4.80000e+00	1.114011e-07	
97	-4.85000e+00	1.097722e-07	
98	-4.90000e+00	1.082454e-07	
99	-4.95000e+00	1.068112e-07	
100	-5.00000e+00	1.054610e-07	
101	-5.05000e+00	1.041875e-07	
102	-5.10000e+00	1.029841e-07	
103	-5.15000e+00	1.018450e-07	
104	-5.20000e+00	1.007653e-07	
105	-5.25000e+00	9.974013e-08	
106	-5.30000e+00	9.876552e-08	
107	-5.35000e+00	9.783774e-08	
108	-5.40000e+00	9.695345e-08	
109	-5.45000e+00	9.610962e-08	
110	-5.50000e+00	9.530351e-08	
111	-5.55000e+00	9.453263e-08	
112	-5.60000e+00	9.379469e-08	

Index   v-sweep         rds             
--------------------------------------------------------------------------------
113	-5.65000e+00	9.308760e-08	
114	-5.70000e+00	9.240948e-08	
115	-5.75000e+00	9.175855e-08	
116	-5.80000e+00	9.113321e-08	
117	-5.85000e+00	9.053197e-08	
118	-5.90000e+00	8.995347e-08	
119	-5.95000e+00	8.939643e-08	
120	-6.00000e+00	8.885967e-08	
121	-6.05000e+00	8.834212e-08	
122	-6.10000e+00	8.784275e-08	
123	-6.15000e+00	8.736062e-08	
124	-6.20000e+00	8.689486e-08	
125	-6.25000e+00	8.644464e-08	
126	-6.30000e+00	8.600920e-08	
127	-6.35000e+00	8.558784e-08	
128	-6.40000e+00	8.517987e-08	
129	-6.45000e+00	8.478467e-08	
130	-6.50000e+00	8.440165e-08	
131	-6.55000e+00	8.403027e-08	
132	-6.60000e+00	8.367000e-08	
Reset re-loads circuit ***************************

Circuit: ***************************

Note: No ".plot", ".print", or ".fourier" lines; no simulations run
