
Note: Compatibility modes selected: hs

Warning: m=xx on .subckt line will override multiplier m hierarchy!


Circuit: ***************************

Doing analysis at TEMP = -40.000000 and TNOM = -40.000000


No. of Data Rows : 133
                          ***************************
                          DC transfer characteristic  Mon Jan  9 13:58:52  2023
--------------------------------------------------------------------------------
Index   v-sweep         rds             
--------------------------------------------------------------------------------
0	0.000000e+00	1.638062e-07	
1	-5.00000e-02	4.546552e-08	
2	-1.00000e-01	5.871736e-09	
3	-1.50000e-01	1.224688e-09	
4	-2.00000e-01	4.542184e-10	
5	-2.50000e-01	2.414008e-10	
6	-3.00000e-01	1.601315e-10	
7	-3.50000e-01	1.217724e-10	
8	-4.00000e-01	1.007662e-10	
9	-4.50000e-01	8.793241e-11	
10	-5.00000e-01	7.941194e-11	
11	-5.50000e-01	7.337920e-11	
12	-6.00000e-01	6.888683e-11	
13	-6.50000e-01	6.540514e-11	
14	-7.00000e-01	6.261917e-11	
15	-7.50000e-01	6.033170e-11	
16	-8.00000e-01	5.841369e-11	
17	-8.50000e-01	5.677746e-11	
18	-9.00000e-01	5.536146e-11	
19	-9.50000e-01	5.412120e-11	
20	-1.00000e+00	5.302376e-11	
21	-1.05000e+00	5.204419e-11	
22	-1.10000e+00	5.116324e-11	
23	-1.15000e+00	5.036579e-11	
24	-1.20000e+00	4.963977e-11	
25	-1.25000e+00	4.897544e-11	
26	-1.30000e+00	4.836481e-11	
27	-1.35000e+00	4.780127e-11	
28	-1.40000e+00	4.727932e-11	
29	-1.45000e+00	4.679428e-11	
30	-1.50000e+00	4.634221e-11	
31	-1.55000e+00	4.591971e-11	
32	-1.60000e+00	4.552386e-11	
33	-1.65000e+00	4.515213e-11	
34	-1.70000e+00	4.480229e-11	
35	-1.75000e+00	4.447242e-11	
36	-1.80000e+00	4.416079e-11	
37	-1.85000e+00	4.386590e-11	
38	-1.90000e+00	4.358639e-11	
39	-1.95000e+00	4.332106e-11	
40	-2.00000e+00	4.306885e-11	
41	-2.05000e+00	4.282877e-11	
42	-2.10000e+00	4.259996e-11	
43	-2.15000e+00	4.238163e-11	
44	-2.20000e+00	4.217306e-11	
45	-2.25000e+00	4.197361e-11	
46	-2.30000e+00	4.178268e-11	
47	-2.35000e+00	4.159973e-11	
48	-2.40000e+00	4.142426e-11	
49	-2.45000e+00	4.125582e-11	
50	-2.50000e+00	4.109400e-11	
51	-2.55000e+00	4.093840e-11	
52	-2.60000e+00	4.078867e-11	
53	-2.65000e+00	4.064449e-11	
54	-2.70000e+00	4.050555e-11	

Index   v-sweep         rds             
--------------------------------------------------------------------------------
55	-2.75000e+00	4.037157e-11	
56	-2.80000e+00	4.024229e-11	
57	-2.85000e+00	4.011746e-11	
58	-2.90000e+00	3.999685e-11	
59	-2.95000e+00	3.988027e-11	
60	-3.00000e+00	3.976750e-11	
61	-3.05000e+00	3.965837e-11	
62	-3.10000e+00	3.955271e-11	
63	-3.15000e+00	3.945034e-11	
64	-3.20000e+00	3.935113e-11	
65	-3.25000e+00	3.925493e-11	
66	-3.30000e+00	3.916160e-11	
67	-3.35000e+00	3.907102e-11	
68	-3.40000e+00	3.898307e-11	
69	-3.45000e+00	3.889764e-11	
70	-3.50000e+00	3.881463e-11	
71	-3.55000e+00	3.873394e-11	
72	-3.60000e+00	3.865547e-11	
73	-3.65000e+00	3.857913e-11	
74	-3.70000e+00	3.850485e-11	
75	-3.75000e+00	3.843254e-11	
76	-3.80000e+00	3.836212e-11	
77	-3.85000e+00	3.829354e-11	
78	-3.90000e+00	3.822671e-11	
79	-3.95000e+00	3.816158e-11	
80	-4.00000e+00	3.809809e-11	
81	-4.05000e+00	3.803617e-11	
82	-4.10000e+00	3.797578e-11	
83	-4.15000e+00	3.791686e-11	
84	-4.20000e+00	3.785937e-11	
85	-4.25000e+00	3.780325e-11	
86	-4.30000e+00	3.774846e-11	
87	-4.35000e+00	3.769496e-11	
88	-4.40000e+00	3.764270e-11	
89	-4.45000e+00	3.759166e-11	
90	-4.50000e+00	3.754179e-11	
91	-4.55000e+00	3.749305e-11	
92	-4.60000e+00	3.744542e-11	
93	-4.65000e+00	3.739886e-11	
94	-4.70000e+00	3.735334e-11	
95	-4.75000e+00	3.730883e-11	
96	-4.80000e+00	3.726531e-11	
97	-4.85000e+00	3.722274e-11	
98	-4.90000e+00	3.718110e-11	
99	-4.95000e+00	3.714036e-11	
100	-5.00000e+00	3.710051e-11	
101	-5.05000e+00	3.706152e-11	
102	-5.10000e+00	3.702337e-11	
103	-5.15000e+00	3.698603e-11	
104	-5.20000e+00	3.694949e-11	
105	-5.25000e+00	3.691373e-11	
106	-5.30000e+00	3.687872e-11	
107	-5.35000e+00	3.684446e-11	
108	-5.40000e+00	3.681092e-11	
109	-5.45000e+00	3.677809e-11	
110	-5.50000e+00	3.674595e-11	
111	-5.55000e+00	3.671448e-11	
112	-5.60000e+00	3.668368e-11	

Index   v-sweep         rds             
--------------------------------------------------------------------------------
113	-5.65000e+00	3.665353e-11	
114	-5.70000e+00	3.662401e-11	
115	-5.75000e+00	3.659511e-11	
116	-5.80000e+00	3.656682e-11	
117	-5.85000e+00	3.653912e-11	
118	-5.90000e+00	3.651201e-11	
119	-5.95000e+00	3.648547e-11	
120	-6.00000e+00	3.645949e-11	
121	-6.05000e+00	3.643407e-11	
122	-6.10000e+00	3.640918e-11	
123	-6.15000e+00	3.638482e-11	
124	-6.20000e+00	3.636098e-11	
125	-6.25000e+00	3.633765e-11	
126	-6.30000e+00	3.631483e-11	
127	-6.35000e+00	3.629249e-11	
128	-6.40000e+00	3.627064e-11	
129	-6.45000e+00	3.624927e-11	
130	-6.50000e+00	3.622836e-11	
131	-6.55000e+00	3.620791e-11	
132	-6.60000e+00	3.618791e-11	
Reset re-loads circuit ***************************

Circuit: ***************************

Doing analysis at TEMP = -40.000000 and TNOM = -40.000000


No. of Data Rows : 133
                          ***************************
                          DC transfer characteristic  Mon Jan  9 13:58:53  2023
--------------------------------------------------------------------------------
Index   v-sweep         rds             
--------------------------------------------------------------------------------
0	0.000000e+00	3.207179e-06	
1	-5.00000e-02	2.987392e-06	
2	-1.00000e-01	2.767831e-06	
3	-1.50000e-01	2.548514e-06	
4	-2.00000e-01	2.329471e-06	
5	-2.50000e-01	2.110750e-06	
6	-3.00000e-01	1.892429e-06	
7	-3.50000e-01	1.674643e-06	
8	-4.00000e-01	1.457636e-06	
9	-4.50000e-01	1.241870e-06	
10	-5.00000e-01	1.028265e-06	
11	-5.50000e-01	8.187253e-07	
12	-6.00000e-01	6.172717e-07	
13	-6.50000e-01	4.319814e-07	
14	-7.00000e-01	2.761925e-07	
15	-7.50000e-01	1.632591e-07	
16	-8.00000e-01	9.445104e-08	
17	-8.50000e-01	5.749145e-08	
18	-9.00000e-01	3.838534e-08	
19	-9.50000e-01	2.820822e-08	
20	-1.00000e+00	2.244050e-08	
21	-1.05000e+00	1.893544e-08	
22	-1.10000e+00	1.665952e-08	
23	-1.15000e+00	1.509265e-08	
24	-1.20000e+00	1.395870e-08	
25	-1.25000e+00	1.310301e-08	
26	-1.30000e+00	1.243448e-08	
27	-1.35000e+00	1.189694e-08	
28	-1.40000e+00	1.145434e-08	
29	-1.45000e+00	1.108262e-08	
30	-1.50000e+00	1.076525e-08	
31	-1.55000e+00	1.049049e-08	
32	-1.60000e+00	1.024982e-08	
33	-1.65000e+00	1.003689e-08	
34	-1.70000e+00	9.846868e-09	
35	-1.75000e+00	9.676025e-09	
36	-1.80000e+00	9.521422e-09	
37	-1.85000e+00	9.380714e-09	
38	-1.90000e+00	9.252001e-09	
39	-1.95000e+00	9.133730e-09	
40	-2.00000e+00	9.024613e-09	
41	-2.05000e+00	8.923576e-09	
42	-2.10000e+00	8.829710e-09	
43	-2.15000e+00	8.742246e-09	
44	-2.20000e+00	8.660522e-09	
45	-2.25000e+00	8.583969e-09	
46	-2.30000e+00	8.512094e-09	
47	-2.35000e+00	8.444466e-09	
48	-2.40000e+00	8.380707e-09	
49	-2.45000e+00	8.320484e-09	
50	-2.50000e+00	8.263502e-09	
51	-2.55000e+00	8.209501e-09	
52	-2.60000e+00	8.158245e-09	
53	-2.65000e+00	8.109527e-09	
54	-2.70000e+00	8.063158e-09	

Index   v-sweep         rds             
--------------------------------------------------------------------------------
55	-2.75000e+00	8.018968e-09	
56	-2.80000e+00	7.976805e-09	
57	-2.85000e+00	7.936530e-09	
58	-2.90000e+00	7.898016e-09	
59	-2.95000e+00	7.861150e-09	
60	-3.00000e+00	7.825825e-09	
61	-3.05000e+00	7.791946e-09	
62	-3.10000e+00	7.759425e-09	
63	-3.15000e+00	7.728180e-09	
64	-3.20000e+00	7.698138e-09	
65	-3.25000e+00	7.669229e-09	
66	-3.30000e+00	7.641390e-09	
67	-3.35000e+00	7.614562e-09	
68	-3.40000e+00	7.588691e-09	
69	-3.45000e+00	7.563726e-09	
70	-3.50000e+00	7.539620e-09	
71	-3.55000e+00	7.516329e-09	
72	-3.60000e+00	7.493812e-09	
73	-3.65000e+00	7.472031e-09	
74	-3.70000e+00	7.450952e-09	
75	-3.75000e+00	7.430539e-09	
76	-3.80000e+00	7.410763e-09	
77	-3.85000e+00	7.391594e-09	
78	-3.90000e+00	7.373004e-09	
79	-3.95000e+00	7.354968e-09	
80	-4.00000e+00	7.337461e-09	
81	-4.05000e+00	7.320461e-09	
82	-4.10000e+00	7.303947e-09	
83	-4.15000e+00	7.287897e-09	
84	-4.20000e+00	7.272293e-09	
85	-4.25000e+00	7.257117e-09	
86	-4.30000e+00	7.242352e-09	
87	-4.35000e+00	7.227981e-09	
88	-4.40000e+00	7.213990e-09	
89	-4.45000e+00	7.200364e-09	
90	-4.50000e+00	7.187090e-09	
91	-4.55000e+00	7.174153e-09	
92	-4.60000e+00	7.161543e-09	
93	-4.65000e+00	7.149248e-09	
94	-4.70000e+00	7.137255e-09	
95	-4.75000e+00	7.125556e-09	
96	-4.80000e+00	7.114140e-09	
97	-4.85000e+00	7.102997e-09	
98	-4.90000e+00	7.092118e-09	
99	-4.95000e+00	7.081495e-09	
100	-5.00000e+00	7.071120e-09	
101	-5.05000e+00	7.060984e-09	
102	-5.10000e+00	7.051080e-09	
103	-5.15000e+00	7.041402e-09	
104	-5.20000e+00	7.031942e-09	
105	-5.25000e+00	7.022694e-09	
106	-5.30000e+00	7.013652e-09	
107	-5.35000e+00	7.004809e-09	
108	-5.40000e+00	6.996161e-09	
109	-5.45000e+00	6.987701e-09	
110	-5.50000e+00	6.979425e-09	
111	-5.55000e+00	6.971327e-09	
112	-5.60000e+00	6.963404e-09	

Index   v-sweep         rds             
--------------------------------------------------------------------------------
113	-5.65000e+00	6.955649e-09	
114	-5.70000e+00	6.948060e-09	
115	-5.75000e+00	6.940631e-09	
116	-5.80000e+00	6.933360e-09	
117	-5.85000e+00	6.926241e-09	
118	-5.90000e+00	6.919271e-09	
119	-5.95000e+00	6.912447e-09	
120	-6.00000e+00	6.905765e-09	
121	-6.05000e+00	6.899222e-09	
122	-6.10000e+00	6.892815e-09	
123	-6.15000e+00	6.886541e-09	
124	-6.20000e+00	6.880396e-09	
125	-6.25000e+00	6.874379e-09	
126	-6.30000e+00	6.868486e-09	
127	-6.35000e+00	6.862714e-09	
128	-6.40000e+00	6.857062e-09	
129	-6.45000e+00	6.851526e-09	
130	-6.50000e+00	6.846105e-09	
131	-6.55000e+00	6.840796e-09	
132	-6.60000e+00	6.835596e-09	
Reset re-loads circuit ***************************

Circuit: ***************************

Doing analysis at TEMP = -40.000000 and TNOM = -40.000000


No. of Data Rows : 133
                          ***************************
                          DC transfer characteristic  Mon Jan  9 13:58:53  2023
--------------------------------------------------------------------------------
Index   v-sweep         rds             
--------------------------------------------------------------------------------
0	0.000000e+00	5.816296e-06	
1	-5.00000e-02	5.612757e-06	
2	-1.00000e-01	5.409378e-06	
3	-1.50000e-01	5.206157e-06	
4	-2.00000e-01	5.003098e-06	
5	-2.50000e-01	4.800201e-06	
6	-3.00000e-01	4.597467e-06	
7	-3.50000e-01	4.394901e-06	
8	-4.00000e-01	4.192504e-06	
9	-4.50000e-01	3.990280e-06	
10	-5.00000e-01	3.788236e-06	
11	-5.50000e-01	3.586378e-06	
12	-6.00000e-01	3.384716e-06	
13	-6.50000e-01	3.183264e-06	
14	-7.00000e-01	2.982039e-06	
15	-7.50000e-01	2.781067e-06	
16	-8.00000e-01	2.580387e-06	
17	-8.50000e-01	2.380051e-06	
18	-9.00000e-01	2.180141e-06	
19	-9.50000e-01	1.980781e-06	
20	-1.00000e+00	1.782165e-06	
21	-1.05000e+00	1.584606e-06	
22	-1.10000e+00	1.388618e-06	
23	-1.15000e+00	1.195068e-06	
24	-1.20000e+00	1.005429e-06	
25	-1.25000e+00	8.222027e-07	
26	-1.30000e+00	6.494587e-07	
27	-1.35000e+00	4.931781e-07	
28	-1.40000e+00	3.604806e-07	
29	-1.45000e+00	2.568721e-07	
30	-1.50000e+00	1.829057e-07	
31	-1.55000e+00	1.337835e-07	
32	-1.60000e+00	1.024034e-07	
33	-1.65000e+00	8.244678e-08	
34	-1.70000e+00	6.949382e-08	
35	-1.75000e+00	6.079621e-08	
36	-1.80000e+00	5.472386e-08	
37	-1.85000e+00	5.031676e-08	
38	-1.90000e+00	4.700144e-08	
39	-1.95000e+00	4.442670e-08	
40	-2.00000e+00	4.237111e-08	
41	-2.05000e+00	4.069073e-08	
42	-2.10000e+00	3.928919e-08	
43	-2.15000e+00	3.810011e-08	
44	-2.20000e+00	3.707655e-08	
45	-2.25000e+00	3.618454e-08	
46	-2.30000e+00	3.539888e-08	
47	-2.35000e+00	3.470056e-08	
48	-2.40000e+00	3.407495e-08	
49	-2.45000e+00	3.351059e-08	
50	-2.50000e+00	3.299840e-08	
51	-2.55000e+00	3.253106e-08	
52	-2.60000e+00	3.210261e-08	
53	-2.65000e+00	3.170813e-08	
54	-2.70000e+00	3.134354e-08	

Index   v-sweep         rds             
--------------------------------------------------------------------------------
55	-2.75000e+00	3.100540e-08	
56	-2.80000e+00	3.069081e-08	
57	-2.85000e+00	3.039729e-08	
58	-2.90000e+00	3.012271e-08	
59	-2.95000e+00	2.986522e-08	
60	-3.00000e+00	2.962322e-08	
61	-3.05000e+00	2.939530e-08	
62	-3.10000e+00	2.918024e-08	
63	-3.15000e+00	2.897694e-08	
64	-3.20000e+00	2.878444e-08	
65	-3.25000e+00	2.860188e-08	
66	-3.30000e+00	2.842849e-08	
67	-3.35000e+00	2.826358e-08	
68	-3.40000e+00	2.810653e-08	
69	-3.45000e+00	2.795678e-08	
70	-3.50000e+00	2.781382e-08	
71	-3.55000e+00	2.767720e-08	
72	-3.60000e+00	2.754650e-08	
73	-3.65000e+00	2.742133e-08	
74	-3.70000e+00	2.730134e-08	
75	-3.75000e+00	2.718622e-08	
76	-3.80000e+00	2.707567e-08	
77	-3.85000e+00	2.696942e-08	
78	-3.90000e+00	2.686723e-08	
79	-3.95000e+00	2.676885e-08	
80	-4.00000e+00	2.667409e-08	
81	-4.05000e+00	2.658275e-08	
82	-4.10000e+00	2.649463e-08	
83	-4.15000e+00	2.640958e-08	
84	-4.20000e+00	2.632743e-08	
85	-4.25000e+00	2.624804e-08	
86	-4.30000e+00	2.617127e-08	
87	-4.35000e+00	2.609700e-08	
88	-4.40000e+00	2.602509e-08	
89	-4.45000e+00	2.595545e-08	
90	-4.50000e+00	2.588796e-08	
91	-4.55000e+00	2.582253e-08	
92	-4.60000e+00	2.575907e-08	
93	-4.65000e+00	2.569748e-08	
94	-4.70000e+00	2.563769e-08	
95	-4.75000e+00	2.557962e-08	
96	-4.80000e+00	2.552320e-08	
97	-4.85000e+00	2.546836e-08	
98	-4.90000e+00	2.541503e-08	
99	-4.95000e+00	2.536316e-08	
100	-5.00000e+00	2.531268e-08	
101	-5.05000e+00	2.526355e-08	
102	-5.10000e+00	2.521570e-08	
103	-5.15000e+00	2.516910e-08	
104	-5.20000e+00	2.512369e-08	
105	-5.25000e+00	2.507944e-08	
106	-5.30000e+00	2.503629e-08	
107	-5.35000e+00	2.499422e-08	
108	-5.40000e+00	2.495318e-08	
109	-5.45000e+00	2.491314e-08	
110	-5.50000e+00	2.487406e-08	
111	-5.55000e+00	2.483591e-08	
112	-5.60000e+00	2.479866e-08	

Index   v-sweep         rds             
--------------------------------------------------------------------------------
113	-5.65000e+00	2.476229e-08	
114	-5.70000e+00	2.472676e-08	
115	-5.75000e+00	2.469205e-08	
116	-5.80000e+00	2.465813e-08	
117	-5.85000e+00	2.462498e-08	
118	-5.90000e+00	2.459257e-08	
119	-5.95000e+00	2.456089e-08	
120	-6.00000e+00	2.452991e-08	
121	-6.05000e+00	2.449961e-08	
122	-6.10000e+00	2.446998e-08	
123	-6.15000e+00	2.444099e-08	
124	-6.20000e+00	2.441263e-08	
125	-6.25000e+00	2.438487e-08	
126	-6.30000e+00	2.435772e-08	
127	-6.35000e+00	2.433114e-08	
128	-6.40000e+00	2.430512e-08	
129	-6.45000e+00	2.427966e-08	
130	-6.50000e+00	2.425473e-08	
131	-6.55000e+00	2.423033e-08	
132	-6.60000e+00	2.420643e-08	
Reset re-loads circuit ***************************

Circuit: ***************************

Doing analysis at TEMP = -40.000000 and TNOM = -40.000000


No. of Data Rows : 133
                          ***************************
                          DC transfer characteristic  Mon Jan  9 13:58:53  2023
--------------------------------------------------------------------------------
Index   v-sweep         rds             
--------------------------------------------------------------------------------
0	0.000000e+00	7.994973e-06	
1	-5.00000e-02	7.808447e-06	
2	-1.00000e-01	7.622053e-06	
3	-1.50000e-01	7.435790e-06	
4	-2.00000e-01	7.249660e-06	
5	-2.50000e-01	7.063661e-06	
6	-3.00000e-01	6.877795e-06	
7	-3.50000e-01	6.692061e-06	
8	-4.00000e-01	6.506460e-06	
9	-4.50000e-01	6.320992e-06	
10	-5.00000e-01	6.135657e-06	
11	-5.50000e-01	5.950457e-06	
12	-6.00000e-01	5.765392e-06	
13	-6.50000e-01	5.580462e-06	
14	-7.00000e-01	5.395669e-06	
15	-7.50000e-01	5.211013e-06	
16	-8.00000e-01	5.026497e-06	
17	-8.50000e-01	4.842123e-06	
18	-9.00000e-01	4.657891e-06	
19	-9.50000e-01	4.473807e-06	
20	-1.00000e+00	4.289873e-06	
21	-1.05000e+00	4.106093e-06	
22	-1.10000e+00	3.922474e-06	
23	-1.15000e+00	3.739023e-06	
24	-1.20000e+00	3.555750e-06	
25	-1.25000e+00	3.372667e-06	
26	-1.30000e+00	3.189790e-06	
27	-1.35000e+00	3.007143e-06	
28	-1.40000e+00	2.824755e-06	
29	-1.45000e+00	2.642668e-06	
30	-1.50000e+00	2.460937e-06	
31	-1.55000e+00	2.279644e-06	
32	-1.60000e+00	2.098906e-06	
33	-1.65000e+00	1.918891e-06	
34	-1.70000e+00	1.739851e-06	
35	-1.75000e+00	1.562165e-06	
36	-1.80000e+00	1.386413e-06	
37	-1.85000e+00	1.213488e-06	
38	-1.90000e+00	1.044762e-06	
39	-1.95000e+00	8.822993e-07	
40	-2.00000e+00	7.290689e-07	
41	-2.05000e+00	5.889569e-07	
42	-2.10000e+00	4.662742e-07	
43	-2.15000e+00	3.645493e-07	
44	-2.20000e+00	2.850541e-07	
45	-2.25000e+00	2.261660e-07	
46	-2.30000e+00	1.841626e-07	
47	-2.35000e+00	1.547244e-07	
48	-2.40000e+00	1.340676e-07	
49	-2.45000e+00	1.193542e-07	
50	-2.50000e+00	1.086293e-07	
51	-2.55000e+00	1.006007e-07	
52	-2.60000e+00	9.442599e-08	
53	-2.65000e+00	8.955386e-08	
54	-2.70000e+00	8.561907e-08	

Index   v-sweep         rds             
--------------------------------------------------------------------------------
55	-2.75000e+00	8.237509e-08	
56	-2.80000e+00	7.965208e-08	
57	-2.85000e+00	7.733049e-08	
58	-2.90000e+00	7.532435e-08	
59	-2.95000e+00	7.357058e-08	
60	-3.00000e+00	7.202197e-08	
61	-3.05000e+00	7.064256e-08	
62	-3.10000e+00	6.940452e-08	
63	-3.15000e+00	6.828593e-08	
64	-3.20000e+00	6.726933e-08	
65	-3.25000e+00	6.634061e-08	
66	-3.30000e+00	6.548824e-08	
67	-3.35000e+00	6.470269e-08	
68	-3.40000e+00	6.397601e-08	
69	-3.45000e+00	6.330151e-08	
70	-3.50000e+00	6.267351e-08	
71	-3.55000e+00	6.208718e-08	
72	-3.60000e+00	6.153832e-08	
73	-3.65000e+00	6.102333e-08	
74	-3.70000e+00	6.053906e-08	
75	-3.75000e+00	6.008274e-08	
76	-3.80000e+00	5.965196e-08	
77	-3.85000e+00	5.924457e-08	
78	-3.90000e+00	5.885865e-08	
79	-3.95000e+00	5.849252e-08	
80	-4.00000e+00	5.814465e-08	
81	-4.05000e+00	5.781369e-08	
82	-4.10000e+00	5.749840e-08	
83	-4.15000e+00	5.719768e-08	
84	-4.20000e+00	5.691052e-08	
85	-4.25000e+00	5.663601e-08	
86	-4.30000e+00	5.637332e-08	
87	-4.35000e+00	5.612169e-08	
88	-4.40000e+00	5.588043e-08	
89	-4.45000e+00	5.564890e-08	
90	-4.50000e+00	5.542652e-08	
91	-4.55000e+00	5.521275e-08	
92	-4.60000e+00	5.500709e-08	
93	-4.65000e+00	5.480910e-08	
94	-4.70000e+00	5.461834e-08	
95	-4.75000e+00	5.443442e-08	
96	-4.80000e+00	5.425698e-08	
97	-4.85000e+00	5.408568e-08	
98	-4.90000e+00	5.392021e-08	
99	-4.95000e+00	5.376027e-08	
100	-5.00000e+00	5.360558e-08	
101	-5.05000e+00	5.345591e-08	
102	-5.10000e+00	5.331099e-08	
103	-5.15000e+00	5.317062e-08	
104	-5.20000e+00	5.303457e-08	
105	-5.25000e+00	5.290266e-08	
106	-5.30000e+00	5.277470e-08	
107	-5.35000e+00	5.265051e-08	
108	-5.40000e+00	5.252993e-08	
109	-5.45000e+00	5.241281e-08	
110	-5.50000e+00	5.229901e-08	
111	-5.55000e+00	5.218838e-08	
112	-5.60000e+00	5.208079e-08	

Index   v-sweep         rds             
--------------------------------------------------------------------------------
113	-5.65000e+00	5.197613e-08	
114	-5.70000e+00	5.187428e-08	
115	-5.75000e+00	5.177513e-08	
116	-5.80000e+00	5.167857e-08	
117	-5.85000e+00	5.158452e-08	
118	-5.90000e+00	5.149287e-08	
119	-5.95000e+00	5.140354e-08	
120	-6.00000e+00	5.131644e-08	
121	-6.05000e+00	5.123150e-08	
122	-6.10000e+00	5.114864e-08	
123	-6.15000e+00	5.106779e-08	
124	-6.20000e+00	5.098888e-08	
125	-6.25000e+00	5.091185e-08	
126	-6.30000e+00	5.083664e-08	
127	-6.35000e+00	5.076318e-08	
128	-6.40000e+00	5.069142e-08	
129	-6.45000e+00	5.062130e-08	
130	-6.50000e+00	5.055279e-08	
131	-6.55000e+00	5.048582e-08	
132	-6.60000e+00	5.042036e-08	
Reset re-loads circuit ***************************

Circuit: ***************************

Doing analysis at TEMP = -40.000000 and TNOM = -40.000000


No. of Data Rows : 133
                          ***************************
                          DC transfer characteristic  Mon Jan  9 13:58:53  2023
--------------------------------------------------------------------------------
Index   v-sweep         rds             
--------------------------------------------------------------------------------
0	0.000000e+00	9.798751e-06	
1	-5.00000e-02	9.628054e-06	
2	-1.00000e-01	9.457468e-06	
3	-1.50000e-01	9.286994e-06	
4	-2.00000e-01	9.116631e-06	
5	-2.50000e-01	8.946380e-06	
6	-3.00000e-01	8.776239e-06	
7	-3.50000e-01	8.606211e-06	
8	-4.00000e-01	8.436293e-06	
9	-4.50000e-01	8.266487e-06	
10	-5.00000e-01	8.096792e-06	
11	-5.50000e-01	7.927208e-06	
12	-6.00000e-01	7.757736e-06	
13	-6.50000e-01	7.588376e-06	
14	-7.00000e-01	7.419127e-06	
15	-7.50000e-01	7.249991e-06	
16	-8.00000e-01	7.080966e-06	
17	-8.50000e-01	6.912053e-06	
18	-9.00000e-01	6.743254e-06	
19	-9.50000e-01	6.574567e-06	
20	-1.00000e+00	6.405993e-06	
21	-1.05000e+00	6.237533e-06	
22	-1.10000e+00	6.069188e-06	
23	-1.15000e+00	5.900957e-06	
24	-1.20000e+00	5.732843e-06	
25	-1.25000e+00	5.564845e-06	
26	-1.30000e+00	5.396965e-06	
27	-1.35000e+00	5.229203e-06	
28	-1.40000e+00	5.061563e-06	
29	-1.45000e+00	4.894046e-06	
30	-1.50000e+00	4.726653e-06	
31	-1.55000e+00	4.559388e-06	
32	-1.60000e+00	4.392255e-06	
33	-1.65000e+00	4.225257e-06	
34	-1.70000e+00	4.058399e-06	
35	-1.75000e+00	3.891688e-06	
36	-1.80000e+00	3.725133e-06	
37	-1.85000e+00	3.558742e-06	
38	-1.90000e+00	3.392530e-06	
39	-1.95000e+00	3.226511e-06	
40	-2.00000e+00	3.060708e-06	
41	-2.05000e+00	2.895148e-06	
42	-2.10000e+00	2.729867e-06	
43	-2.15000e+00	2.564914e-06	
44	-2.20000e+00	2.400356e-06	
45	-2.25000e+00	2.236280e-06	
46	-2.30000e+00	2.072813e-06	
47	-2.35000e+00	1.910127e-06	
48	-2.40000e+00	1.748471e-06	
49	-2.45000e+00	1.588198e-06	
50	-2.50000e+00	1.429819e-06	
51	-2.55000e+00	1.274071e-06	
52	-2.60000e+00	1.122017e-06	
53	-2.65000e+00	9.751511e-07	
54	-2.70000e+00	8.355009e-07	

Index   v-sweep         rds             
--------------------------------------------------------------------------------
55	-2.75000e+00	7.056281e-07	
56	-2.80000e+00	5.884148e-07	
57	-2.85000e+00	4.865294e-07	
58	-2.90000e+00	4.016638e-07	
59	-2.95000e+00	3.339181e-07	
60	-3.00000e+00	2.817558e-07	
61	-3.05000e+00	2.425683e-07	
62	-3.10000e+00	2.134531e-07	
63	-3.15000e+00	1.917924e-07	
64	-3.20000e+00	1.755031e-07	
65	-3.25000e+00	1.630458e-07	
66	-3.30000e+00	1.533286e-07	
67	-3.35000e+00	1.455916e-07	
68	-3.40000e+00	1.393074e-07	
69	-3.45000e+00	1.341082e-07	
70	-3.50000e+00	1.297345e-07	
71	-3.55000e+00	1.260006e-07	
72	-3.60000e+00	1.227714e-07	
73	-3.65000e+00	1.199468e-07	
74	-3.70000e+00	1.174517e-07	
75	-3.75000e+00	1.152286e-07	
76	-3.80000e+00	1.132328e-07	
77	-3.85000e+00	1.114292e-07	
78	-3.90000e+00	1.097896e-07	
79	-3.95000e+00	1.082914e-07	
80	-4.00000e+00	1.069161e-07	
81	-4.05000e+00	1.056483e-07	
82	-4.10000e+00	1.044753e-07	
83	-4.15000e+00	1.033863e-07	
84	-4.20000e+00	1.023721e-07	
85	-4.25000e+00	1.014251e-07	
86	-4.30000e+00	1.005383e-07	
87	-4.35000e+00	9.970617e-08	
88	-4.40000e+00	9.892350e-08	
89	-4.45000e+00	9.818588e-08	
90	-4.50000e+00	9.748942e-08	
91	-4.55000e+00	9.683065e-08	
92	-4.60000e+00	9.620653e-08	
93	-4.65000e+00	9.561431e-08	
94	-4.70000e+00	9.505156e-08	
95	-4.75000e+00	9.451608e-08	
96	-4.80000e+00	9.400590e-08	
97	-4.85000e+00	9.351923e-08	
98	-4.90000e+00	9.305446e-08	
99	-4.95000e+00	9.261011e-08	
100	-5.00000e+00	9.218485e-08	
101	-5.05000e+00	9.177746e-08	
102	-5.10000e+00	9.138682e-08	
103	-5.15000e+00	9.101190e-08	
104	-5.20000e+00	9.065177e-08	
105	-5.25000e+00	9.030556e-08	
106	-5.30000e+00	8.997246e-08	
107	-5.35000e+00	8.965175e-08	
108	-5.40000e+00	8.934274e-08	
109	-5.45000e+00	8.904479e-08	
110	-5.50000e+00	8.875732e-08	
111	-5.55000e+00	8.847979e-08	
112	-5.60000e+00	8.821168e-08	

Index   v-sweep         rds             
--------------------------------------------------------------------------------
113	-5.65000e+00	8.795251e-08	
114	-5.70000e+00	8.770186e-08	
115	-5.75000e+00	8.745930e-08	
116	-5.80000e+00	8.722446e-08	
117	-5.85000e+00	8.699696e-08	
118	-5.90000e+00	8.677647e-08	
119	-5.95000e+00	8.656267e-08	
120	-6.00000e+00	8.635526e-08	
121	-6.05000e+00	8.615396e-08	
122	-6.10000e+00	8.595851e-08	
123	-6.15000e+00	8.576866e-08	
124	-6.20000e+00	8.558417e-08	
125	-6.25000e+00	8.540482e-08	
126	-6.30000e+00	8.523040e-08	
127	-6.35000e+00	8.506072e-08	
128	-6.40000e+00	8.489559e-08	
129	-6.45000e+00	8.473483e-08	
130	-6.50000e+00	8.457828e-08	
131	-6.55000e+00	8.442577e-08	
132	-6.60000e+00	8.427716e-08	
Reset re-loads circuit ***************************

Circuit: ***************************

Doing analysis at TEMP = -40.000000 and TNOM = -40.000000


No. of Data Rows : 133
                          ***************************
                          DC transfer characteristic  Mon Jan  9 13:58:53  2023
--------------------------------------------------------------------------------
Index   v-sweep         rds             
--------------------------------------------------------------------------------
0	0.000000e+00	1.130913e-05	
1	-5.00000e-02	1.115273e-05	
2	-1.00000e-01	1.099643e-05	
3	-1.50000e-01	1.084022e-05	
4	-2.00000e-01	1.068411e-05	
5	-2.50000e-01	1.052809e-05	
6	-3.00000e-01	1.037216e-05	
7	-3.50000e-01	1.021633e-05	
8	-4.00000e-01	1.006060e-05	
9	-4.50000e-01	9.904959e-06	
10	-5.00000e-01	9.749414e-06	
11	-5.50000e-01	9.593963e-06	
12	-6.00000e-01	9.438607e-06	
13	-6.50000e-01	9.283345e-06	
14	-7.00000e-01	9.128178e-06	
15	-7.50000e-01	8.973106e-06	
16	-8.00000e-01	8.818128e-06	
17	-8.50000e-01	8.663244e-06	
18	-9.00000e-01	8.508455e-06	
19	-9.50000e-01	8.353761e-06	
20	-1.00000e+00	8.199161e-06	
21	-1.05000e+00	8.044657e-06	
22	-1.10000e+00	7.890247e-06	
23	-1.15000e+00	7.735932e-06	
24	-1.20000e+00	7.581712e-06	
25	-1.25000e+00	7.427587e-06	
26	-1.30000e+00	7.273557e-06	
27	-1.35000e+00	7.119624e-06	
28	-1.40000e+00	6.965786e-06	
29	-1.45000e+00	6.812044e-06	
30	-1.50000e+00	6.658398e-06	
31	-1.55000e+00	6.504849e-06	
32	-1.60000e+00	6.351397e-06	
33	-1.65000e+00	6.198043e-06	
34	-1.70000e+00	6.044788e-06	
35	-1.75000e+00	5.891631e-06	
36	-1.80000e+00	5.738574e-06	
37	-1.85000e+00	5.585617e-06	
38	-1.90000e+00	5.432762e-06	
39	-1.95000e+00	5.280010e-06	
40	-2.00000e+00	5.127363e-06	
41	-2.05000e+00	4.974821e-06	
42	-2.10000e+00	4.822388e-06	
43	-2.15000e+00	4.670065e-06	
44	-2.20000e+00	4.517855e-06	
45	-2.25000e+00	4.365763e-06	
46	-2.30000e+00	4.213791e-06	
47	-2.35000e+00	4.061945e-06	
48	-2.40000e+00	3.910231e-06	
49	-2.45000e+00	3.758657e-06	
50	-2.50000e+00	3.607230e-06	
51	-2.55000e+00	3.455964e-06	
52	-2.60000e+00	3.304870e-06	
53	-2.65000e+00	3.153968e-06	
54	-2.70000e+00	3.003278e-06	

Index   v-sweep         rds             
--------------------------------------------------------------------------------
55	-2.75000e+00	2.852830e-06	
56	-2.80000e+00	2.702659e-06	
57	-2.85000e+00	2.552814e-06	
58	-2.90000e+00	2.403355e-06	
59	-2.95000e+00	2.254365e-06	
60	-3.00000e+00	2.105954e-06	
61	-3.05000e+00	1.958271e-06	
62	-3.10000e+00	1.811517e-06	
63	-3.15000e+00	1.665971e-06	
64	-3.20000e+00	1.522015e-06	
65	-3.25000e+00	1.380179e-06	
66	-3.30000e+00	1.241193e-06	
67	-3.35000e+00	1.106044e-06	
68	-3.40000e+00	9.760442e-07	
69	-3.45000e+00	8.528500e-07	
70	-3.50000e+00	7.384139e-07	
71	-3.55000e+00	6.347886e-07	
72	-3.60000e+00	5.437694e-07	
73	-3.65000e+00	4.664525e-07	
74	-3.70000e+00	4.029044e-07	
75	-3.75000e+00	3.521352e-07	
76	-3.80000e+00	3.123948e-07	
77	-3.85000e+00	2.816204e-07	
78	-3.90000e+00	2.578216e-07	
79	-3.95000e+00	2.393001e-07	
80	-4.00000e+00	2.247147e-07	
81	-4.05000e+00	2.130557e-07	
82	-4.10000e+00	2.035827e-07	
83	-4.15000e+00	1.957589e-07	
84	-4.20000e+00	1.891957e-07	
85	-4.25000e+00	1.836107e-07	
86	-4.30000e+00	1.787960e-07	
87	-4.35000e+00	1.745975e-07	
88	-4.40000e+00	1.708988e-07	
89	-4.45000e+00	1.676113e-07	
90	-4.50000e+00	1.646662e-07	
91	-4.55000e+00	1.620094e-07	
92	-4.60000e+00	1.595981e-07	
93	-4.65000e+00	1.573977e-07	
94	-4.70000e+00	1.553801e-07	
95	-4.75000e+00	1.535220e-07	
96	-4.80000e+00	1.518043e-07	
97	-4.85000e+00	1.502108e-07	
98	-4.90000e+00	1.487278e-07	
99	-4.95000e+00	1.473436e-07	
100	-5.00000e+00	1.460483e-07	
101	-5.05000e+00	1.448333e-07	
102	-5.10000e+00	1.436909e-07	
103	-5.15000e+00	1.426147e-07	
104	-5.20000e+00	1.415989e-07	
105	-5.25000e+00	1.406383e-07	
106	-5.30000e+00	1.397285e-07	
107	-5.35000e+00	1.388654e-07	
108	-5.40000e+00	1.380455e-07	
109	-5.45000e+00	1.372654e-07	
110	-5.50000e+00	1.365224e-07	
111	-5.55000e+00	1.358137e-07	
112	-5.60000e+00	1.351370e-07	

Index   v-sweep         rds             
--------------------------------------------------------------------------------
113	-5.65000e+00	1.344902e-07	
114	-5.70000e+00	1.338713e-07	
115	-5.75000e+00	1.332785e-07	
116	-5.80000e+00	1.327101e-07	
117	-5.85000e+00	1.321647e-07	
118	-5.90000e+00	1.316408e-07	
119	-5.95000e+00	1.311373e-07	
120	-6.00000e+00	1.306529e-07	
121	-6.05000e+00	1.301866e-07	
122	-6.10000e+00	1.297373e-07	
123	-6.15000e+00	1.293042e-07	
124	-6.20000e+00	1.288863e-07	
125	-6.25000e+00	1.284830e-07	
126	-6.30000e+00	1.280933e-07	
127	-6.35000e+00	1.277168e-07	
128	-6.40000e+00	1.273526e-07	
129	-6.45000e+00	1.270002e-07	
130	-6.50000e+00	1.266590e-07	
131	-6.55000e+00	1.263286e-07	
132	-6.60000e+00	1.260083e-07	
Reset re-loads circuit ***************************

Circuit: ***************************

Note: No ".plot", ".print", or ".fourier" lines; no simulations run
