
Note: Compatibility modes selected: hs

Warning: m=xx on .subckt line will override multiplier m hierarchy!


Circuit: ***************************

Doing analysis at TEMP = 125.000000 and TNOM = 125.000000


No. of Data Rows : 133
                          ***************************
                          DC transfer characteristic  Mon Jan  9 13:58:53  2023
--------------------------------------------------------------------------------
Index   v-sweep         rds             
--------------------------------------------------------------------------------
0	0.000000e+00	1.245439e-07	
1	-5.00000e-02	9.462447e-08	
2	-1.00000e-01	6.520471e-08	
3	-1.50000e-01	3.756943e-08	
4	-2.00000e-01	1.593083e-08	
5	-2.50000e-01	5.177639e-09	
6	-3.00000e-01	1.801924e-09	
7	-3.50000e-01	8.057001e-10	
8	-4.00000e-01	4.573180e-10	
9	-4.50000e-01	3.106201e-10	
10	-5.00000e-01	2.387209e-10	
11	-5.50000e-01	1.990116e-10	
12	-6.00000e-01	1.748989e-10	
13	-6.50000e-01	1.590939e-10	
14	-7.00000e-01	1.480684e-10	
15	-7.50000e-01	1.399743e-10	
16	-8.00000e-01	1.337773e-10	
17	-8.50000e-01	1.288661e-10	
18	-9.00000e-01	1.248613e-10	
19	-9.50000e-01	1.215180e-10	
20	-1.00000e+00	1.186719e-10	
21	-1.05000e+00	1.162096e-10	
22	-1.10000e+00	1.140503e-10	
23	-1.15000e+00	1.121349e-10	
24	-1.20000e+00	1.104196e-10	
25	-1.25000e+00	1.088707e-10	
26	-1.30000e+00	1.074622e-10	
27	-1.35000e+00	1.061736e-10	
28	-1.40000e+00	1.049884e-10	
29	-1.45000e+00	1.038932e-10	
30	-1.50000e+00	1.028770e-10	
31	-1.55000e+00	1.019307e-10	
32	-1.60000e+00	1.010466e-10	
33	-1.65000e+00	1.002182e-10	
34	-1.70000e+00	9.943998e-11	
35	-1.75000e+00	9.870707e-11	
36	-1.80000e+00	9.801535e-11	
37	-1.85000e+00	9.736119e-11	
38	-1.90000e+00	9.674141e-11	
39	-1.95000e+00	9.615319e-11	
40	-2.00000e+00	9.559404e-11	
41	-2.05000e+00	9.506174e-11	
42	-2.10000e+00	9.455429e-11	
43	-2.15000e+00	9.406993e-11	
44	-2.20000e+00	9.360703e-11	
45	-2.25000e+00	9.316414e-11	
46	-2.30000e+00	9.273995e-11	
47	-2.35000e+00	9.233324e-11	
48	-2.40000e+00	9.194293e-11	
49	-2.45000e+00	9.156800e-11	
50	-2.50000e+00	9.120755e-11	
51	-2.55000e+00	9.086073e-11	
52	-2.60000e+00	9.052675e-11	
53	-2.65000e+00	9.020490e-11	
54	-2.70000e+00	8.989453e-11	

Index   v-sweep         rds             
--------------------------------------------------------------------------------
55	-2.75000e+00	8.959500e-11	
56	-2.80000e+00	8.930576e-11	
57	-2.85000e+00	8.902627e-11	
58	-2.90000e+00	8.875605e-11	
59	-2.95000e+00	8.849462e-11	
60	-3.00000e+00	8.824157e-11	
61	-3.05000e+00	8.799650e-11	
62	-3.10000e+00	8.775902e-11	
63	-3.15000e+00	8.752879e-11	
64	-3.20000e+00	8.730548e-11	
65	-3.25000e+00	8.708878e-11	
66	-3.30000e+00	8.687840e-11	
67	-3.35000e+00	8.667407e-11	
68	-3.40000e+00	8.647552e-11	
69	-3.45000e+00	8.628253e-11	
70	-3.50000e+00	8.609486e-11	
71	-3.55000e+00	8.591229e-11	
72	-3.60000e+00	8.573462e-11	
73	-3.65000e+00	8.556167e-11	
74	-3.70000e+00	8.539324e-11	
75	-3.75000e+00	8.522916e-11	
76	-3.80000e+00	8.506928e-11	
77	-3.85000e+00	8.491343e-11	
78	-3.90000e+00	8.476147e-11	
79	-3.95000e+00	8.461327e-11	
80	-4.00000e+00	8.446868e-11	
81	-4.05000e+00	8.432759e-11	
82	-4.10000e+00	8.418987e-11	
83	-4.15000e+00	8.405541e-11	
84	-4.20000e+00	8.392410e-11	
85	-4.25000e+00	8.379584e-11	
86	-4.30000e+00	8.367054e-11	
87	-4.35000e+00	8.354809e-11	
88	-4.40000e+00	8.342841e-11	
89	-4.45000e+00	8.331141e-11	
90	-4.50000e+00	8.319702e-11	
91	-4.55000e+00	8.308515e-11	
92	-4.60000e+00	8.297573e-11	
93	-4.65000e+00	8.286870e-11	
94	-4.70000e+00	8.276398e-11	
95	-4.75000e+00	8.266150e-11	
96	-4.80000e+00	8.256122e-11	
97	-4.85000e+00	8.246306e-11	
98	-4.90000e+00	8.236697e-11	
99	-4.95000e+00	8.227290e-11	
100	-5.00000e+00	8.218080e-11	
101	-5.05000e+00	8.209061e-11	
102	-5.10000e+00	8.200228e-11	
103	-5.15000e+00	8.191578e-11	
104	-5.20000e+00	8.183106e-11	
105	-5.25000e+00	8.174807e-11	
106	-5.30000e+00	8.166677e-11	
107	-5.35000e+00	8.158713e-11	
108	-5.40000e+00	8.150911e-11	
109	-5.45000e+00	8.143266e-11	
110	-5.50000e+00	8.135777e-11	
111	-5.55000e+00	8.128438e-11	
112	-5.60000e+00	8.121248e-11	

Index   v-sweep         rds             
--------------------------------------------------------------------------------
113	-5.65000e+00	8.114203e-11	
114	-5.70000e+00	8.107299e-11	
115	-5.75000e+00	8.100535e-11	
116	-5.80000e+00	8.093907e-11	
117	-5.85000e+00	8.087412e-11	
118	-5.90000e+00	8.081048e-11	
119	-5.95000e+00	8.074812e-11	
120	-6.00000e+00	8.068703e-11	
121	-6.05000e+00	8.062716e-11	
122	-6.10000e+00	8.056851e-11	
123	-6.15000e+00	8.051105e-11	
124	-6.20000e+00	8.045476e-11	
125	-6.25000e+00	8.039962e-11	
126	-6.30000e+00	8.034561e-11	
127	-6.35000e+00	8.029270e-11	
128	-6.40000e+00	8.024088e-11	
129	-6.45000e+00	8.019013e-11	
130	-6.50000e+00	8.014043e-11	
131	-6.55000e+00	8.009177e-11	
132	-6.60000e+00	8.004412e-11	
Reset re-loads circuit ***************************

Circuit: ***************************

Doing analysis at TEMP = 125.000000 and TNOM = 125.000000


No. of Data Rows : 133
                          ***************************
                          DC transfer characteristic  Mon Jan  9 13:58:53  2023
--------------------------------------------------------------------------------
Index   v-sweep         rds             
--------------------------------------------------------------------------------
0	0.000000e+00	6.182155e-07	
1	-5.00000e-02	5.839206e-07	
2	-1.00000e-01	5.496329e-07	
3	-1.50000e-01	5.153537e-07	
4	-2.00000e-01	4.810846e-07	
5	-2.50000e-01	4.468282e-07	
6	-3.00000e-01	4.125882e-07	
7	-3.50000e-01	3.783704e-07	
8	-4.00000e-01	3.441835e-07	
9	-4.50000e-01	3.100420e-07	
10	-5.00000e-01	2.759699e-07	
11	-5.50000e-01	2.420085e-07	
12	-6.00000e-01	2.082330e-07	
13	-6.50000e-01	1.747840e-07	
14	-7.00000e-01	1.419343e-07	
15	-7.50000e-01	1.102187e-07	
16	-8.00000e-01	8.064547e-08	
17	-8.50000e-01	5.485903e-08	
18	-9.00000e-01	3.474938e-08	
19	-9.50000e-01	2.117125e-08	
20	-1.00000e+00	1.312432e-08	
21	-1.05000e+00	8.689098e-09	
22	-1.10000e+00	6.266799e-09	
23	-1.15000e+00	4.900133e-09	
24	-1.20000e+00	4.088208e-09	
25	-1.25000e+00	3.577649e-09	
26	-1.30000e+00	3.238382e-09	
27	-1.35000e+00	3.001242e-09	
28	-1.40000e+00	2.827872e-09	
29	-1.45000e+00	2.696067e-09	
30	-1.50000e+00	2.592442e-09	
31	-1.55000e+00	2.508611e-09	
32	-1.60000e+00	2.439138e-09	
33	-1.65000e+00	2.380382e-09	
34	-1.70000e+00	2.329833e-09	
35	-1.75000e+00	2.285714e-09	
36	-1.80000e+00	2.246735e-09	
37	-1.85000e+00	2.211942e-09	
38	-1.90000e+00	2.180610e-09	
39	-1.95000e+00	2.152182e-09	
40	-2.00000e+00	2.126221e-09	
41	-2.05000e+00	2.102378e-09	
42	-2.10000e+00	2.080373e-09	
43	-2.15000e+00	2.059977e-09	
44	-2.20000e+00	2.040998e-09	
45	-2.25000e+00	2.023278e-09	
46	-2.30000e+00	2.006683e-09	
47	-2.35000e+00	1.991099e-09	
48	-2.40000e+00	1.976428e-09	
49	-2.45000e+00	1.962585e-09	
50	-2.50000e+00	1.949496e-09	
51	-2.55000e+00	1.937097e-09	
52	-2.60000e+00	1.925330e-09	
53	-2.65000e+00	1.914146e-09	
54	-2.70000e+00	1.903500e-09	

Index   v-sweep         rds             
--------------------------------------------------------------------------------
55	-2.75000e+00	1.893350e-09	
56	-2.80000e+00	1.883663e-09	
57	-2.85000e+00	1.874404e-09	
58	-2.90000e+00	1.865546e-09	
59	-2.95000e+00	1.857061e-09	
60	-3.00000e+00	1.848926e-09	
61	-3.05000e+00	1.841118e-09	
62	-3.10000e+00	1.833618e-09	
63	-3.15000e+00	1.826407e-09	
64	-3.20000e+00	1.819468e-09	
65	-3.25000e+00	1.812785e-09	
66	-3.30000e+00	1.806345e-09	
67	-3.35000e+00	1.800133e-09	
68	-3.40000e+00	1.794139e-09	
69	-3.45000e+00	1.788350e-09	
70	-3.50000e+00	1.782755e-09	
71	-3.55000e+00	1.777346e-09	
72	-3.60000e+00	1.772112e-09	
73	-3.65000e+00	1.767045e-09	
74	-3.70000e+00	1.762138e-09	
75	-3.75000e+00	1.757382e-09	
76	-3.80000e+00	1.752772e-09	
77	-3.85000e+00	1.748299e-09	
78	-3.90000e+00	1.743958e-09	
79	-3.95000e+00	1.739744e-09	
80	-4.00000e+00	1.735650e-09	
81	-4.05000e+00	1.731672e-09	
82	-4.10000e+00	1.727805e-09	
83	-4.15000e+00	1.724044e-09	
84	-4.20000e+00	1.720385e-09	
85	-4.25000e+00	1.716824e-09	
86	-4.30000e+00	1.713357e-09	
87	-4.35000e+00	1.709981e-09	
88	-4.40000e+00	1.706691e-09	
89	-4.45000e+00	1.703486e-09	
90	-4.50000e+00	1.700360e-09	
91	-4.55000e+00	1.697313e-09	
92	-4.60000e+00	1.694340e-09	
93	-4.65000e+00	1.691440e-09	
94	-4.70000e+00	1.688610e-09	
95	-4.75000e+00	1.685847e-09	
96	-4.80000e+00	1.683149e-09	
97	-4.85000e+00	1.680514e-09	
98	-4.90000e+00	1.677940e-09	
99	-4.95000e+00	1.675425e-09	
100	-5.00000e+00	1.672967e-09	
101	-5.05000e+00	1.670564e-09	
102	-5.10000e+00	1.668215e-09	
103	-5.15000e+00	1.665918e-09	
104	-5.20000e+00	1.663671e-09	
105	-5.25000e+00	1.661474e-09	
106	-5.30000e+00	1.659323e-09	
107	-5.35000e+00	1.657220e-09	
108	-5.40000e+00	1.655161e-09	
109	-5.45000e+00	1.653145e-09	
110	-5.50000e+00	1.651173e-09	
111	-5.55000e+00	1.649241e-09	
112	-5.60000e+00	1.647350e-09	

Index   v-sweep         rds             
--------------------------------------------------------------------------------
113	-5.65000e+00	1.645498e-09	
114	-5.70000e+00	1.643685e-09	
115	-5.75000e+00	1.641908e-09	
116	-5.80000e+00	1.640168e-09	
117	-5.85000e+00	1.638464e-09	
118	-5.90000e+00	1.636794e-09	
119	-5.95000e+00	1.635159e-09	
120	-6.00000e+00	1.633556e-09	
121	-6.05000e+00	1.631985e-09	
122	-6.10000e+00	1.630446e-09	
123	-6.15000e+00	1.628938e-09	
124	-6.20000e+00	1.627461e-09	
125	-6.25000e+00	1.626013e-09	
126	-6.30000e+00	1.624593e-09	
127	-6.35000e+00	1.623203e-09	
128	-6.40000e+00	1.621840e-09	
129	-6.45000e+00	1.620504e-09	
130	-6.50000e+00	1.619195e-09	
131	-6.55000e+00	1.617912e-09	
132	-6.60000e+00	1.616654e-09	
Reset re-loads circuit ***************************

Circuit: ***************************

Doing analysis at TEMP = 125.000000 and TNOM = 125.000000


No. of Data Rows : 133
                          ***************************
                          DC transfer characteristic  Mon Jan  9 13:58:53  2023
--------------------------------------------------------------------------------
Index   v-sweep         rds             
--------------------------------------------------------------------------------
0	0.000000e+00	1.072172e-06	
1	-5.00000e-02	1.038900e-06	
2	-1.00000e-01	1.005631e-06	
3	-1.50000e-01	9.723659e-07	
4	-2.00000e-01	9.391045e-07	
5	-2.50000e-01	9.058470e-07	
6	-3.00000e-01	8.725936e-07	
7	-3.50000e-01	8.393446e-07	
8	-4.00000e-01	8.061003e-07	
9	-4.50000e-01	7.728610e-07	
10	-5.00000e-01	7.396272e-07	
11	-5.50000e-01	7.063996e-07	
12	-6.00000e-01	6.731789e-07	
13	-6.50000e-01	6.399662e-07	
14	-7.00000e-01	6.067627e-07	
15	-7.50000e-01	5.735704e-07	
16	-8.00000e-01	5.403916e-07	
17	-8.50000e-01	5.072297e-07	
18	-9.00000e-01	4.740891e-07	
19	-9.50000e-01	4.409764e-07	
20	-1.00000e+00	4.079009e-07	
21	-1.05000e+00	3.748762e-07	
22	-1.10000e+00	3.419228e-07	
23	-1.15000e+00	3.090720e-07	
24	-1.20000e+00	2.763727e-07	
25	-1.25000e+00	2.439033e-07	
26	-1.30000e+00	2.117919e-07	
27	-1.35000e+00	1.802496e-07	
28	-1.40000e+00	1.496244e-07	
29	-1.45000e+00	1.204731e-07	
30	-1.50000e+00	9.362230e-08	
31	-1.55000e+00	7.012179e-08	
32	-1.60000e+00	5.095951e-08	
33	-1.65000e+00	3.658006e-08	
34	-1.70000e+00	2.660300e-08	
35	-1.75000e+00	2.005768e-08	
36	-1.80000e+00	1.587242e-08	
37	-1.85000e+00	1.319165e-08	
38	-1.90000e+00	1.143855e-08	
39	-1.95000e+00	1.025547e-08	
40	-2.00000e+00	9.427781e-09	
41	-2.05000e+00	8.827110e-09	
42	-2.10000e+00	8.375687e-09	
43	-2.15000e+00	8.025390e-09	
44	-2.20000e+00	7.745693e-09	
45	-2.25000e+00	7.516718e-09	
46	-2.30000e+00	7.325176e-09	
47	-2.35000e+00	7.161958e-09	
48	-2.40000e+00	7.020666e-09	
49	-2.45000e+00	6.896703e-09	
50	-2.50000e+00	6.786695e-09	
51	-2.55000e+00	6.688115e-09	
52	-2.60000e+00	6.599037e-09	
53	-2.65000e+00	6.517966e-09	
54	-2.70000e+00	6.443723e-09	

Index   v-sweep         rds             
--------------------------------------------------------------------------------
55	-2.75000e+00	6.375367e-09	
56	-2.80000e+00	6.312132e-09	
57	-2.85000e+00	6.253392e-09	
58	-2.90000e+00	6.198627e-09	
59	-2.95000e+00	6.147400e-09	
60	-3.00000e+00	6.099343e-09	
61	-3.05000e+00	6.054141e-09	
62	-3.10000e+00	6.011521e-09	
63	-3.15000e+00	5.971250e-09	
64	-3.20000e+00	5.933122e-09	
65	-3.25000e+00	5.896957e-09	
66	-3.30000e+00	5.862596e-09	
67	-3.35000e+00	5.829899e-09	
68	-3.40000e+00	5.798740e-09	
69	-3.45000e+00	5.769007e-09	
70	-3.50000e+00	5.740599e-09	
71	-3.55000e+00	5.713424e-09	
72	-3.60000e+00	5.687401e-09	
73	-3.65000e+00	5.662454e-09	
74	-3.70000e+00	5.638516e-09	
75	-3.75000e+00	5.615523e-09	
76	-3.80000e+00	5.593420e-09	
77	-3.85000e+00	5.572154e-09	
78	-3.90000e+00	5.551677e-09	
79	-3.95000e+00	5.531944e-09	
80	-4.00000e+00	5.512914e-09	
81	-4.05000e+00	5.494551e-09	
82	-4.10000e+00	5.476818e-09	
83	-4.15000e+00	5.459683e-09	
84	-4.20000e+00	5.443116e-09	
85	-4.25000e+00	5.427088e-09	
86	-4.30000e+00	5.411574e-09	
87	-4.35000e+00	5.396548e-09	
88	-4.40000e+00	5.381987e-09	
89	-4.45000e+00	5.367871e-09	
90	-4.50000e+00	5.354178e-09	
91	-4.55000e+00	5.340890e-09	
92	-4.60000e+00	5.327990e-09	
93	-4.65000e+00	5.315459e-09	
94	-4.70000e+00	5.303283e-09	
95	-4.75000e+00	5.291447e-09	
96	-4.80000e+00	5.279937e-09	
97	-4.85000e+00	5.268739e-09	
98	-4.90000e+00	5.257841e-09	
99	-4.95000e+00	5.247231e-09	
100	-5.00000e+00	5.236898e-09	
101	-5.05000e+00	5.226832e-09	
102	-5.10000e+00	5.217022e-09	
103	-5.15000e+00	5.207459e-09	
104	-5.20000e+00	5.198134e-09	
105	-5.25000e+00	5.189038e-09	
106	-5.30000e+00	5.180164e-09	
107	-5.35000e+00	5.171503e-09	
108	-5.40000e+00	5.163049e-09	
109	-5.45000e+00	5.154793e-09	
110	-5.50000e+00	5.146731e-09	
111	-5.55000e+00	5.138855e-09	
112	-5.60000e+00	5.131159e-09	

Index   v-sweep         rds             
--------------------------------------------------------------------------------
113	-5.65000e+00	5.123638e-09	
114	-5.70000e+00	5.116286e-09	
115	-5.75000e+00	5.109098e-09	
116	-5.80000e+00	5.102069e-09	
117	-5.85000e+00	5.095195e-09	
118	-5.90000e+00	5.088470e-09	
119	-5.95000e+00	5.081890e-09	
120	-6.00000e+00	5.075452e-09	
121	-6.05000e+00	5.069151e-09	
122	-6.10000e+00	5.062983e-09	
123	-6.15000e+00	5.056945e-09	
124	-6.20000e+00	5.051034e-09	
125	-6.25000e+00	5.045246e-09	
126	-6.30000e+00	5.039578e-09	
127	-6.35000e+00	5.034026e-09	
128	-6.40000e+00	5.028589e-09	
129	-6.45000e+00	5.023263e-09	
130	-6.50000e+00	5.018045e-09	
131	-6.55000e+00	5.012933e-09	
132	-6.60000e+00	5.007924e-09	
Reset re-loads circuit ***************************

Circuit: ***************************

Doing analysis at TEMP = 125.000000 and TNOM = 125.000000


No. of Data Rows : 133
                          ***************************
                          DC transfer characteristic  Mon Jan  9 13:58:53  2023
--------------------------------------------------------------------------------
Index   v-sweep         rds             
--------------------------------------------------------------------------------
0	0.000000e+00	1.501658e-06	
1	-5.00000e-02	1.469568e-06	
2	-1.00000e-01	1.437480e-06	
3	-1.50000e-01	1.405396e-06	
4	-2.00000e-01	1.373314e-06	
5	-2.50000e-01	1.341235e-06	
6	-3.00000e-01	1.309159e-06	
7	-3.50000e-01	1.277086e-06	
8	-4.00000e-01	1.245016e-06	
9	-4.50000e-01	1.212949e-06	
10	-5.00000e-01	1.180885e-06	
11	-5.50000e-01	1.148824e-06	
12	-6.00000e-01	1.116767e-06	
13	-6.50000e-01	1.084713e-06	
14	-7.00000e-01	1.052662e-06	
15	-7.50000e-01	1.020615e-06	
16	-8.00000e-01	9.885723e-07	
17	-8.50000e-01	9.565334e-07	
18	-9.00000e-01	9.244988e-07	
19	-9.50000e-01	8.924689e-07	
20	-1.00000e+00	8.604439e-07	
21	-1.05000e+00	8.284245e-07	
22	-1.10000e+00	7.964111e-07	
23	-1.15000e+00	7.644045e-07	
24	-1.20000e+00	7.324055e-07	
25	-1.25000e+00	7.004152e-07	
26	-1.30000e+00	6.684351e-07	
27	-1.35000e+00	6.364669e-07	
28	-1.40000e+00	6.045130e-07	
29	-1.45000e+00	5.725763e-07	
30	-1.50000e+00	5.406609e-07	
31	-1.55000e+00	5.087720e-07	
32	-1.60000e+00	4.769169e-07	
33	-1.65000e+00	4.451054e-07	
34	-1.70000e+00	4.133512e-07	
35	-1.75000e+00	3.816739e-07	
36	-1.80000e+00	3.501013e-07	
37	-1.85000e+00	3.186741e-07	
38	-1.90000e+00	2.874525e-07	
39	-1.95000e+00	2.565264e-07	
40	-2.00000e+00	2.260320e-07	
41	-2.05000e+00	1.961746e-07	
42	-2.10000e+00	1.672607e-07	
43	-2.15000e+00	1.397317e-07	
44	-2.20000e+00	1.141813e-07	
45	-2.25000e+00	9.131580e-08	
46	-2.30000e+00	7.181179e-08	
47	-2.35000e+00	5.608750e-08	
48	-2.40000e+00	4.411567e-08	
49	-2.45000e+00	3.543166e-08	
50	-2.50000e+00	2.933212e-08	
51	-2.55000e+00	2.510562e-08	
52	-2.60000e+00	2.216824e-08	
53	-2.65000e+00	2.009556e-08	
54	-2.70000e+00	1.859922e-08	

Index   v-sweep         rds             
--------------------------------------------------------------------------------
55	-2.75000e+00	1.748971e-08	
56	-2.80000e+00	1.664379e-08	
57	-2.85000e+00	1.598111e-08	
58	-2.90000e+00	1.544866e-08	
59	-2.95000e+00	1.501094e-08	
60	-3.00000e+00	1.464374e-08	
61	-3.05000e+00	1.433017e-08	
62	-3.10000e+00	1.405829e-08	
63	-3.15000e+00	1.381943e-08	
64	-3.20000e+00	1.360719e-08	
65	-3.25000e+00	1.341678e-08	
66	-3.30000e+00	1.324452e-08	
67	-3.35000e+00	1.308758e-08	
68	-3.40000e+00	1.294370e-08	
69	-3.45000e+00	1.281108e-08	
70	-3.50000e+00	1.268827e-08	
71	-3.55000e+00	1.257407e-08	
72	-3.60000e+00	1.246749e-08	
73	-3.65000e+00	1.236770e-08	
74	-3.70000e+00	1.227400e-08	
75	-3.75000e+00	1.218578e-08	
76	-3.80000e+00	1.210253e-08	
77	-3.85000e+00	1.202381e-08	
78	-3.90000e+00	1.194921e-08	
79	-3.95000e+00	1.187840e-08	
80	-4.00000e+00	1.181107e-08	
81	-4.05000e+00	1.174695e-08	
82	-4.10000e+00	1.168581e-08	
83	-4.15000e+00	1.162743e-08	
84	-4.20000e+00	1.157162e-08	
85	-4.25000e+00	1.151820e-08	
86	-4.30000e+00	1.146701e-08	
87	-4.35000e+00	1.141791e-08	
88	-4.40000e+00	1.137077e-08	
89	-4.45000e+00	1.132548e-08	
90	-4.50000e+00	1.128191e-08	
91	-4.55000e+00	1.123998e-08	
92	-4.60000e+00	1.119958e-08	
93	-4.65000e+00	1.116064e-08	
94	-4.70000e+00	1.112306e-08	
95	-4.75000e+00	1.108679e-08	
96	-4.80000e+00	1.105175e-08	
97	-4.85000e+00	1.101788e-08	
98	-4.90000e+00	1.098513e-08	
99	-4.95000e+00	1.095342e-08	
100	-5.00000e+00	1.092273e-08	
101	-5.05000e+00	1.089299e-08	
102	-5.10000e+00	1.086416e-08	
103	-5.15000e+00	1.083620e-08	
104	-5.20000e+00	1.080908e-08	
105	-5.25000e+00	1.078275e-08	
106	-5.30000e+00	1.075718e-08	
107	-5.35000e+00	1.073234e-08	
108	-5.40000e+00	1.070820e-08	
109	-5.45000e+00	1.068472e-08	
110	-5.50000e+00	1.066189e-08	
111	-5.55000e+00	1.063966e-08	
112	-5.60000e+00	1.061803e-08	

Index   v-sweep         rds             
--------------------------------------------------------------------------------
113	-5.65000e+00	1.059697e-08	
114	-5.70000e+00	1.057646e-08	
115	-5.75000e+00	1.055646e-08	
116	-5.80000e+00	1.053698e-08	
117	-5.85000e+00	1.051798e-08	
118	-5.90000e+00	1.049945e-08	
119	-5.95000e+00	1.048137e-08	
120	-6.00000e+00	1.046373e-08	
121	-6.05000e+00	1.044652e-08	
122	-6.10000e+00	1.042971e-08	
123	-6.15000e+00	1.041329e-08	
124	-6.20000e+00	1.039725e-08	
125	-6.25000e+00	1.038158e-08	
126	-6.30000e+00	1.036627e-08	
127	-6.35000e+00	1.035130e-08	
128	-6.40000e+00	1.033667e-08	
129	-6.45000e+00	1.032237e-08	
130	-6.50000e+00	1.030837e-08	
131	-6.55000e+00	1.029468e-08	
132	-6.60000e+00	1.028129e-08	
Reset re-loads circuit ***************************

Circuit: ***************************

Doing analysis at TEMP = 125.000000 and TNOM = 125.000000


No. of Data Rows : 133
                          ***************************
                          DC transfer characteristic  Mon Jan  9 13:58:53  2023
--------------------------------------------------------------------------------
Index   v-sweep         rds             
--------------------------------------------------------------------------------
0	0.000000e+00	1.913406e-06	
1	-5.00000e-02	1.882385e-06	
2	-1.00000e-01	1.851366e-06	
3	-1.50000e-01	1.820351e-06	
4	-2.00000e-01	1.789337e-06	
5	-2.50000e-01	1.758326e-06	
6	-3.00000e-01	1.727318e-06	
7	-3.50000e-01	1.696312e-06	
8	-4.00000e-01	1.665309e-06	
9	-4.50000e-01	1.634308e-06	
10	-5.00000e-01	1.603310e-06	
11	-5.50000e-01	1.572314e-06	
12	-6.00000e-01	1.541321e-06	
13	-6.50000e-01	1.510331e-06	
14	-7.00000e-01	1.479343e-06	
15	-7.50000e-01	1.448358e-06	
16	-8.00000e-01	1.417376e-06	
17	-8.50000e-01	1.386396e-06	
18	-9.00000e-01	1.355420e-06	
19	-9.50000e-01	1.324446e-06	
20	-1.00000e+00	1.293475e-06	
21	-1.05000e+00	1.262507e-06	
22	-1.10000e+00	1.231542e-06	
23	-1.15000e+00	1.200581e-06	
24	-1.20000e+00	1.169623e-06	
25	-1.25000e+00	1.138668e-06	
26	-1.30000e+00	1.107717e-06	
27	-1.35000e+00	1.076769e-06	
28	-1.40000e+00	1.045825e-06	
29	-1.45000e+00	1.014886e-06	
30	-1.50000e+00	9.839512e-07	
31	-1.55000e+00	9.530211e-07	
32	-1.60000e+00	9.220962e-07	
33	-1.65000e+00	8.911769e-07	
34	-1.70000e+00	8.602639e-07	
35	-1.75000e+00	8.293579e-07	
36	-1.80000e+00	7.984596e-07	
37	-1.85000e+00	7.675700e-07	
38	-1.90000e+00	7.366905e-07	
39	-1.95000e+00	7.058225e-07	
40	-2.00000e+00	6.749680e-07	
41	-2.05000e+00	6.441294e-07	
42	-2.10000e+00	6.133098e-07	
43	-2.15000e+00	5.825131e-07	
44	-2.20000e+00	5.517445e-07	
45	-2.25000e+00	5.210106e-07	
46	-2.30000e+00	4.903202e-07	
47	-2.35000e+00	4.596850e-07	
48	-2.40000e+00	4.291209e-07	
49	-2.45000e+00	3.986496e-07	
50	-2.50000e+00	3.683008e-07	
51	-2.55000e+00	3.381166e-07	
52	-2.60000e+00	3.081558e-07	
53	-2.65000e+00	2.785024e-07	
54	-2.70000e+00	2.492761e-07	

Index   v-sweep         rds             
--------------------------------------------------------------------------------
55	-2.75000e+00	2.206474e-07	
56	-2.80000e+00	1.928558e-07	
57	-2.85000e+00	1.662283e-07	
58	-2.90000e+00	1.411888e-07	
59	-2.95000e+00	1.182411e-07	
60	-3.00000e+00	9.790365e-08	
61	-3.05000e+00	8.059306e-08	
62	-3.10000e+00	6.649253e-08	
63	-3.15000e+00	5.548133e-08	
64	-3.20000e+00	4.717563e-08	
65	-3.25000e+00	4.105324e-08	
66	-3.30000e+00	3.658516e-08	
67	-3.35000e+00	3.331824e-08	
68	-3.40000e+00	3.090269e-08	
69	-3.45000e+00	2.908507e-08	
70	-3.50000e+00	2.768813e-08	
71	-3.55000e+00	2.658999e-08	
72	-3.60000e+00	2.570713e-08	
73	-3.65000e+00	2.498209e-08	
74	-3.70000e+00	2.437491e-08	
75	-3.75000e+00	2.385747e-08	
76	-3.80000e+00	2.340967e-08	
77	-3.85000e+00	2.301692e-08	
78	-3.90000e+00	2.266842e-08	
79	-3.95000e+00	2.235610e-08	
80	-4.00000e+00	2.207377e-08	
81	-4.05000e+00	2.181666e-08	
82	-4.10000e+00	2.158102e-08	
83	-4.15000e+00	2.136385e-08	
84	-4.20000e+00	2.116274e-08	
85	-4.25000e+00	2.097570e-08	
86	-4.30000e+00	2.080110e-08	
87	-4.35000e+00	2.063757e-08	
88	-4.40000e+00	2.048397e-08	
89	-4.45000e+00	2.033930e-08	
90	-4.50000e+00	2.020273e-08	
91	-4.55000e+00	2.007352e-08	
92	-4.60000e+00	1.995104e-08	
93	-4.65000e+00	1.983473e-08	
94	-4.70000e+00	1.972410e-08	
95	-4.75000e+00	1.961871e-08	
96	-4.80000e+00	1.951816e-08	
97	-4.85000e+00	1.942212e-08	
98	-4.90000e+00	1.933027e-08	
99	-4.95000e+00	1.924232e-08	
100	-5.00000e+00	1.915803e-08	
101	-5.05000e+00	1.907714e-08	
102	-5.10000e+00	1.899947e-08	
103	-5.15000e+00	1.892480e-08	
104	-5.20000e+00	1.885297e-08	
105	-5.25000e+00	1.878380e-08	
106	-5.30000e+00	1.871715e-08	
107	-5.35000e+00	1.865289e-08	
108	-5.40000e+00	1.859087e-08	
109	-5.45000e+00	1.853099e-08	
110	-5.50000e+00	1.847312e-08	
111	-5.55000e+00	1.841718e-08	
112	-5.60000e+00	1.836306e-08	

Index   v-sweep         rds             
--------------------------------------------------------------------------------
113	-5.65000e+00	1.831068e-08	
114	-5.70000e+00	1.825994e-08	
115	-5.75000e+00	1.821078e-08	
116	-5.80000e+00	1.816312e-08	
117	-5.85000e+00	1.811689e-08	
118	-5.90000e+00	1.807203e-08	
119	-5.95000e+00	1.802848e-08	
120	-6.00000e+00	1.798618e-08	
121	-6.05000e+00	1.794508e-08	
122	-6.10000e+00	1.790512e-08	
123	-6.15000e+00	1.786626e-08	
124	-6.20000e+00	1.782846e-08	
125	-6.25000e+00	1.779168e-08	
126	-6.30000e+00	1.775586e-08	
127	-6.35000e+00	1.772099e-08	
128	-6.40000e+00	1.768701e-08	
129	-6.45000e+00	1.765390e-08	
130	-6.50000e+00	1.762162e-08	
131	-6.55000e+00	1.759014e-08	
132	-6.60000e+00	1.755944e-08	
Reset re-loads circuit ***************************

Circuit: ***************************

Doing analysis at TEMP = 125.000000 and TNOM = 125.000000


No. of Data Rows : 133
                          ***************************
                          DC transfer characteristic  Mon Jan  9 13:58:53  2023
--------------------------------------------------------------------------------
Index   v-sweep         rds             
--------------------------------------------------------------------------------
0	0.000000e+00	2.316364e-06	
1	-5.00000e-02	2.286259e-06	
2	-1.00000e-01	2.256158e-06	
3	-1.50000e-01	2.226058e-06	
4	-2.00000e-01	2.195961e-06	
5	-2.50000e-01	2.165867e-06	
6	-3.00000e-01	2.135774e-06	
7	-3.50000e-01	2.105684e-06	
8	-4.00000e-01	2.075596e-06	
9	-4.50000e-01	2.045511e-06	
10	-5.00000e-01	2.015428e-06	
11	-5.50000e-01	1.985347e-06	
12	-6.00000e-01	1.955269e-06	
13	-6.50000e-01	1.925192e-06	
14	-7.00000e-01	1.895119e-06	
15	-7.50000e-01	1.865048e-06	
16	-8.00000e-01	1.834979e-06	
17	-8.50000e-01	1.804912e-06	
18	-9.00000e-01	1.774848e-06	
19	-9.50000e-01	1.744786e-06	
20	-1.00000e+00	1.714727e-06	
21	-1.05000e+00	1.684670e-06	
22	-1.10000e+00	1.654616e-06	
23	-1.15000e+00	1.624564e-06	
24	-1.20000e+00	1.594515e-06	
25	-1.25000e+00	1.564468e-06	
26	-1.30000e+00	1.534424e-06	
27	-1.35000e+00	1.504383e-06	
28	-1.40000e+00	1.474344e-06	
29	-1.45000e+00	1.444308e-06	
30	-1.50000e+00	1.414275e-06	
31	-1.55000e+00	1.384244e-06	
32	-1.60000e+00	1.354217e-06	
33	-1.65000e+00	1.324192e-06	
34	-1.70000e+00	1.294171e-06	
35	-1.75000e+00	1.264153e-06	
36	-1.80000e+00	1.234138e-06	
37	-1.85000e+00	1.204126e-06	
38	-1.90000e+00	1.174119e-06	
39	-1.95000e+00	1.144115e-06	
40	-2.00000e+00	1.114115e-06	
41	-2.05000e+00	1.084119e-06	
42	-2.10000e+00	1.054127e-06	
43	-2.15000e+00	1.024141e-06	
44	-2.20000e+00	9.941595e-07	
45	-2.25000e+00	9.641838e-07	
46	-2.30000e+00	9.342141e-07	
47	-2.35000e+00	9.042513e-07	
48	-2.40000e+00	8.742958e-07	
49	-2.45000e+00	8.443487e-07	
50	-2.50000e+00	8.144109e-07	
51	-2.55000e+00	7.844837e-07	
52	-2.60000e+00	7.545685e-07	
53	-2.65000e+00	7.246673e-07	
54	-2.70000e+00	6.947822e-07	

Index   v-sweep         rds             
--------------------------------------------------------------------------------
55	-2.75000e+00	6.649160e-07	
56	-2.80000e+00	6.350723e-07	
57	-2.85000e+00	6.052553e-07	
58	-2.90000e+00	5.754707e-07	
59	-2.95000e+00	5.457254e-07	
60	-3.00000e+00	5.160286e-07	
61	-3.05000e+00	4.863921e-07	
62	-3.10000e+00	4.568313e-07	
63	-3.15000e+00	4.273668e-07	
64	-3.20000e+00	3.980261e-07	
65	-3.25000e+00	3.688460e-07	
66	-3.30000e+00	3.398768e-07	
67	-3.35000e+00	3.111869e-07	
68	-3.40000e+00	2.828701e-07	
69	-3.45000e+00	2.550545e-07	
70	-3.50000e+00	2.279137e-07	
71	-3.55000e+00	2.016781e-07	
72	-3.60000e+00	1.766440e-07	
73	-3.65000e+00	1.531713e-07	
74	-3.70000e+00	1.316609e-07	
75	-3.75000e+00	1.125020e-07	
76	-3.80000e+00	9.599257e-08	
77	-3.85000e+00	8.225938e-08	
78	-3.90000e+00	7.121606e-08	
79	-3.95000e+00	6.258586e-08	
80	-4.00000e+00	5.597654e-08	
81	-4.05000e+00	5.096759e-08	
82	-4.10000e+00	4.717520e-08	
83	-4.15000e+00	4.428361e-08	
84	-4.20000e+00	4.205000e-08	
85	-4.25000e+00	4.029532e-08	
86	-4.30000e+00	3.889069e-08	
87	-4.35000e+00	3.774435e-08	
88	-4.40000e+00	3.679110e-08	
89	-4.45000e+00	3.598441e-08	
90	-4.50000e+00	3.529083e-08	
91	-4.55000e+00	3.468599e-08	
92	-4.60000e+00	3.415197e-08	
93	-4.65000e+00	3.367535e-08	
94	-4.70000e+00	3.324598e-08	
95	-4.75000e+00	3.285605e-08	
96	-4.80000e+00	3.249946e-08	
97	-4.85000e+00	3.217139e-08	
98	-4.90000e+00	3.186799e-08	
99	-4.95000e+00	3.158612e-08	
100	-5.00000e+00	3.132322e-08	
101	-5.05000e+00	3.107714e-08	
102	-5.10000e+00	3.084609e-08	
103	-5.15000e+00	3.062857e-08	
104	-5.20000e+00	3.042326e-08	
105	-5.25000e+00	3.022905e-08	
106	-5.30000e+00	3.004497e-08	
107	-5.35000e+00	2.987017e-08	
108	-5.40000e+00	2.970390e-08	
109	-5.45000e+00	2.954551e-08	
110	-5.50000e+00	2.939440e-08	
111	-5.55000e+00	2.925005e-08	
112	-5.60000e+00	2.911199e-08	

Index   v-sweep         rds             
--------------------------------------------------------------------------------
113	-5.65000e+00	2.897979e-08	
114	-5.70000e+00	2.885307e-08	
115	-5.75000e+00	2.873148e-08	
116	-5.80000e+00	2.861469e-08	
117	-5.85000e+00	2.850242e-08	
118	-5.90000e+00	2.839441e-08	
119	-5.95000e+00	2.829040e-08	
120	-6.00000e+00	2.819017e-08	
121	-6.05000e+00	2.809351e-08	
122	-6.10000e+00	2.800024e-08	
123	-6.15000e+00	2.791016e-08	
124	-6.20000e+00	2.782313e-08	
125	-6.25000e+00	2.773897e-08	
126	-6.30000e+00	2.765756e-08	
127	-6.35000e+00	2.757875e-08	
128	-6.40000e+00	2.750242e-08	
129	-6.45000e+00	2.742846e-08	
130	-6.50000e+00	2.735675e-08	
131	-6.55000e+00	2.728720e-08	
132	-6.60000e+00	2.721970e-08	
Reset re-loads circuit ***************************

Circuit: ***************************

Note: No ".plot", ".print", or ".fourier" lines; no simulations run
