
Note: Compatibility modes selected: hs

Warning: m=xx on .subckt line will override multiplier m hierarchy!


Circuit: ***************************

Doing analysis at TEMP = -40.000000 and TNOM = -40.000000


No. of Data Rows : 133
                          ***************************
                          DC transfer characteristic  Mon Jan  9 13:58:52  2023
--------------------------------------------------------------------------------
Index   v-sweep         rds             
--------------------------------------------------------------------------------
0	0.000000e+00	1.056175e-05	
1	-5.00000e-02	3.550044e-06	
2	-1.00000e-01	5.800515e-07	
3	-1.50000e-01	1.536924e-07	
4	-2.00000e-01	8.046332e-08	
5	-2.50000e-01	5.793847e-08	
6	-3.00000e-01	4.753516e-08	
7	-3.50000e-01	4.136789e-08	
8	-4.00000e-01	3.712855e-08	
9	-4.50000e-01	3.394499e-08	
10	-5.00000e-01	3.141920e-08	
11	-5.50000e-01	2.934172e-08	
12	-6.00000e-01	2.758966e-08	
13	-6.50000e-01	2.608476e-08	
14	-7.00000e-01	2.477392e-08	
15	-7.50000e-01	2.361936e-08	
16	-8.00000e-01	2.259314e-08	
17	-8.50000e-01	2.167402e-08	
18	-9.00000e-01	2.084544e-08	
19	-9.50000e-01	2.009422e-08	
20	-1.00000e+00	1.940974e-08	
21	-1.05000e+00	1.878330e-08	
22	-1.10000e+00	1.820769e-08	
23	-1.15000e+00	1.767686e-08	
24	-1.20000e+00	1.718574e-08	
25	-1.25000e+00	1.672998e-08	
26	-1.30000e+00	1.630587e-08	
27	-1.35000e+00	1.591021e-08	
28	-1.40000e+00	1.554021e-08	
29	-1.45000e+00	1.519345e-08	
30	-1.50000e+00	1.486781e-08	
31	-1.55000e+00	1.456140e-08	
32	-1.60000e+00	1.427258e-08	
33	-1.65000e+00	1.399988e-08	
34	-1.70000e+00	1.374198e-08	
35	-1.75000e+00	1.349772e-08	
36	-1.80000e+00	1.326604e-08	
37	-1.85000e+00	1.304601e-08	
38	-1.90000e+00	1.283677e-08	
39	-1.95000e+00	1.263756e-08	
40	-2.00000e+00	1.244766e-08	
41	-2.05000e+00	1.226645e-08	
42	-2.10000e+00	1.209336e-08	
43	-2.15000e+00	1.192784e-08	
44	-2.20000e+00	1.176943e-08	
45	-2.25000e+00	1.161767e-08	
46	-2.30000e+00	1.147216e-08	
47	-2.35000e+00	1.133253e-08	
48	-2.40000e+00	1.119843e-08	
49	-2.45000e+00	1.106954e-08	
50	-2.50000e+00	1.094557e-08	
51	-2.55000e+00	1.082625e-08	
52	-2.60000e+00	1.071132e-08	
53	-2.65000e+00	1.060055e-08	
54	-2.70000e+00	1.049371e-08	

Index   v-sweep         rds             
--------------------------------------------------------------------------------
55	-2.75000e+00	1.039062e-08	
56	-2.80000e+00	1.029107e-08	
57	-2.85000e+00	1.019490e-08	
58	-2.90000e+00	1.010193e-08	
59	-2.95000e+00	1.001201e-08	
60	-3.00000e+00	9.924993e-09	
61	-3.05000e+00	9.840750e-09	
62	-3.10000e+00	9.759152e-09	
63	-3.15000e+00	9.680078e-09	
64	-3.20000e+00	9.603416e-09	
65	-3.25000e+00	9.529059e-09	
66	-3.30000e+00	9.456910e-09	
67	-3.35000e+00	9.386874e-09	
68	-3.40000e+00	9.318862e-09	
69	-3.45000e+00	9.252792e-09	
70	-3.50000e+00	9.188584e-09	
71	-3.55000e+00	9.126164e-09	
72	-3.60000e+00	9.065462e-09	
73	-3.65000e+00	9.006411e-09	
74	-3.70000e+00	8.948948e-09	
75	-3.75000e+00	8.893014e-09	
76	-3.80000e+00	8.838551e-09	
77	-3.85000e+00	8.785506e-09	
78	-3.90000e+00	8.733827e-09	
79	-3.95000e+00	8.683468e-09	
80	-4.00000e+00	8.634381e-09	
81	-4.05000e+00	8.586523e-09	
82	-4.10000e+00	8.539853e-09	
83	-4.15000e+00	8.494331e-09	
84	-4.20000e+00	8.449918e-09	
85	-4.25000e+00	8.406581e-09	
86	-4.30000e+00	8.364284e-09	
87	-4.35000e+00	8.322994e-09	
88	-4.40000e+00	8.282682e-09	
89	-4.45000e+00	8.243317e-09	
90	-4.50000e+00	8.204872e-09	
91	-4.55000e+00	8.167318e-09	
92	-4.60000e+00	8.130631e-09	
93	-4.65000e+00	8.094787e-09	
94	-4.70000e+00	8.059760e-09	
95	-4.75000e+00	8.025530e-09	
96	-4.80000e+00	7.992074e-09	
97	-4.85000e+00	7.959373e-09	
98	-4.90000e+00	7.927405e-09	
99	-4.95000e+00	7.896153e-09	
100	-5.00000e+00	7.865599e-09	
101	-5.05000e+00	7.835725e-09	
102	-5.10000e+00	7.806514e-09	
103	-5.15000e+00	7.777951e-09	
104	-5.20000e+00	7.750020e-09	
105	-5.25000e+00	7.722707e-09	
106	-5.30000e+00	7.695998e-09	
107	-5.35000e+00	7.669878e-09	
108	-5.40000e+00	7.644335e-09	
109	-5.45000e+00	7.619357e-09	
110	-5.50000e+00	7.594931e-09	
111	-5.55000e+00	7.571046e-09	
112	-5.60000e+00	7.547690e-09	

Index   v-sweep         rds             
--------------------------------------------------------------------------------
113	-5.65000e+00	7.524853e-09	
114	-5.70000e+00	7.502524e-09	
115	-5.75000e+00	7.480693e-09	
116	-5.80000e+00	7.459351e-09	
117	-5.85000e+00	7.438488e-09	
118	-5.90000e+00	7.418095e-09	
119	-5.95000e+00	7.398164e-09	
120	-6.00000e+00	7.378685e-09	
121	-6.05000e+00	7.359651e-09	
122	-6.10000e+00	7.341054e-09	
123	-6.15000e+00	7.322886e-09	
124	-6.20000e+00	7.305139e-09	
125	-6.25000e+00	7.287807e-09	
126	-6.30000e+00	7.270883e-09	
127	-6.35000e+00	7.254359e-09	
128	-6.40000e+00	7.238229e-09	
129	-6.45000e+00	7.222487e-09	
130	-6.50000e+00	7.207126e-09	
131	-6.55000e+00	7.192140e-09	
132	-6.60000e+00	7.177524e-09	
Reset re-loads circuit ***************************

Circuit: ***************************

Doing analysis at TEMP = -40.000000 and TNOM = -40.000000


No. of Data Rows : 133
                          ***************************
                          DC transfer characteristic  Mon Jan  9 13:58:52  2023
--------------------------------------------------------------------------------
Index   v-sweep         rds             
--------------------------------------------------------------------------------
0	0.000000e+00	1.844847e-04	
1	-5.00000e-02	1.720429e-04	
2	-1.00000e-01	1.597254e-04	
3	-1.50000e-01	1.475315e-04	
4	-2.00000e-01	1.354609e-04	
5	-2.50000e-01	1.235142e-04	
6	-3.00000e-01	1.116927e-04	
7	-3.50000e-01	1.000001e-04	
8	-4.00000e-01	8.844366e-05	
9	-4.50000e-01	7.703768e-05	
10	-5.00000e-01	6.581113e-05	
11	-5.50000e-01	5.482375e-05	
12	-6.00000e-01	4.420128e-05	
13	-6.50000e-01	3.420383e-05	
14	-7.00000e-01	2.531054e-05	
15	-7.50000e-01	1.816091e-05	
16	-8.00000e-01	1.312958e-05	
17	-8.50000e-01	9.943750e-06	
18	-9.00000e-01	7.978395e-06	
19	-9.50000e-01	6.714079e-06	
20	-1.00000e+00	5.844707e-06	
21	-1.05000e+00	5.208323e-06	
22	-1.10000e+00	4.718770e-06	
23	-1.15000e+00	4.327812e-06	
24	-1.20000e+00	4.006692e-06	
25	-1.25000e+00	3.737203e-06	
26	-1.30000e+00	3.507199e-06	
27	-1.35000e+00	3.308218e-06	
28	-1.40000e+00	3.134144e-06	
29	-1.45000e+00	2.980427e-06	
30	-1.50000e+00	2.843599e-06	
31	-1.55000e+00	2.720957e-06	
32	-1.60000e+00	2.610361e-06	
33	-1.65000e+00	2.510091e-06	
34	-1.70000e+00	2.418745e-06	
35	-1.75000e+00	2.335169e-06	
36	-1.80000e+00	2.258402e-06	
37	-1.85000e+00	2.187638e-06	
38	-1.90000e+00	2.122193e-06	
39	-1.95000e+00	2.061487e-06	
40	-2.00000e+00	2.005019e-06	
41	-2.05000e+00	1.952360e-06	
42	-2.10000e+00	1.903135e-06	
43	-2.15000e+00	1.857018e-06	
44	-2.20000e+00	1.813723e-06	
45	-2.25000e+00	1.772998e-06	
46	-2.30000e+00	1.734621e-06	
47	-2.35000e+00	1.698394e-06	
48	-2.40000e+00	1.664142e-06	
49	-2.45000e+00	1.631707e-06	
50	-2.50000e+00	1.600949e-06	
51	-2.55000e+00	1.571741e-06	
52	-2.60000e+00	1.543968e-06	
53	-2.65000e+00	1.517528e-06	
54	-2.70000e+00	1.492327e-06	

Index   v-sweep         rds             
--------------------------------------------------------------------------------
55	-2.75000e+00	1.468280e-06	
56	-2.80000e+00	1.445310e-06	
57	-2.85000e+00	1.423347e-06	
58	-2.90000e+00	1.402325e-06	
59	-2.95000e+00	1.382185e-06	
60	-3.00000e+00	1.362874e-06	
61	-3.05000e+00	1.344342e-06	
62	-3.10000e+00	1.326542e-06	
63	-3.15000e+00	1.309432e-06	
64	-3.20000e+00	1.292973e-06	
65	-3.25000e+00	1.277128e-06	
66	-3.30000e+00	1.261864e-06	
67	-3.35000e+00	1.247150e-06	
68	-3.40000e+00	1.232957e-06	
69	-3.45000e+00	1.219258e-06	
70	-3.50000e+00	1.206027e-06	
71	-3.55000e+00	1.193241e-06	
72	-3.60000e+00	1.180878e-06	
73	-3.65000e+00	1.168918e-06	
74	-3.70000e+00	1.157341e-06	
75	-3.75000e+00	1.146130e-06	
76	-3.80000e+00	1.135268e-06	
77	-3.85000e+00	1.124738e-06	
78	-3.90000e+00	1.114526e-06	
79	-3.95000e+00	1.104619e-06	
80	-4.00000e+00	1.095002e-06	
81	-4.05000e+00	1.085663e-06	
82	-4.10000e+00	1.076592e-06	
83	-4.15000e+00	1.067776e-06	
84	-4.20000e+00	1.059205e-06	
85	-4.25000e+00	1.050870e-06	
86	-4.30000e+00	1.042761e-06	
87	-4.35000e+00	1.034870e-06	
88	-4.40000e+00	1.027188e-06	
89	-4.45000e+00	1.019707e-06	
90	-4.50000e+00	1.012420e-06	
91	-4.55000e+00	1.005319e-06	
92	-4.60000e+00	9.983993e-07	
93	-4.65000e+00	9.916529e-07	
94	-4.70000e+00	9.850742e-07	
95	-4.75000e+00	9.786575e-07	
96	-4.80000e+00	9.723973e-07	
97	-4.85000e+00	9.662884e-07	
98	-4.90000e+00	9.603260e-07	
99	-4.95000e+00	9.545054e-07	
100	-5.00000e+00	9.488220e-07	
101	-5.05000e+00	9.432716e-07	
102	-5.10000e+00	9.378503e-07	
103	-5.15000e+00	9.325541e-07	
104	-5.20000e+00	9.273793e-07	
105	-5.25000e+00	9.223225e-07	
106	-5.30000e+00	9.173803e-07	
107	-5.35000e+00	9.125496e-07	
108	-5.40000e+00	9.078271e-07	
109	-5.45000e+00	9.032102e-07	
110	-5.50000e+00	8.986958e-07	
111	-5.55000e+00	8.942815e-07	
112	-5.60000e+00	8.899646e-07	

Index   v-sweep         rds             
--------------------------------------------------------------------------------
113	-5.65000e+00	8.857426e-07	
114	-5.70000e+00	8.816133e-07	
115	-5.75000e+00	8.775745e-07	
116	-5.80000e+00	8.736239e-07	
117	-5.85000e+00	8.697594e-07	
118	-5.90000e+00	8.659793e-07	
119	-5.95000e+00	8.622814e-07	
120	-6.00000e+00	8.586640e-07	
121	-6.05000e+00	8.551254e-07	
122	-6.10000e+00	8.516639e-07	
123	-6.15000e+00	8.482778e-07	
124	-6.20000e+00	8.449656e-07	
125	-6.25000e+00	8.417258e-07	
126	-6.30000e+00	8.385570e-07	
127	-6.35000e+00	8.354577e-07	
128	-6.40000e+00	8.324266e-07	
129	-6.45000e+00	8.294625e-07	
130	-6.50000e+00	8.265640e-07	
131	-6.55000e+00	8.237299e-07	
132	-6.60000e+00	8.209592e-07	
Reset re-loads circuit ***************************

Circuit: ***************************

Doing analysis at TEMP = -40.000000 and TNOM = -40.000000


No. of Data Rows : 133
                          ***************************
                          DC transfer characteristic  Mon Jan  9 13:58:52  2023
--------------------------------------------------------------------------------
Index   v-sweep         rds             
--------------------------------------------------------------------------------
0	0.000000e+00	3.158763e-04	
1	-5.00000e-02	3.041288e-04	
2	-1.00000e-01	2.924815e-04	
3	-1.50000e-01	2.809333e-04	
4	-2.00000e-01	2.694835e-04	
5	-2.50000e-01	2.581312e-04	
6	-3.00000e-01	2.468753e-04	
7	-3.50000e-01	2.357152e-04	
8	-4.00000e-01	2.246500e-04	
9	-4.50000e-01	2.136789e-04	
10	-5.00000e-01	2.028014e-04	
11	-5.50000e-01	1.920167e-04	
12	-6.00000e-01	1.813245e-04	
13	-6.50000e-01	1.707244e-04	
14	-7.00000e-01	1.602163e-04	
15	-7.50000e-01	1.498004e-04	
16	-8.00000e-01	1.394777e-04	
17	-8.50000e-01	1.292495e-04	
18	-9.00000e-01	1.191189e-04	
19	-9.50000e-01	1.090905e-04	
20	-1.00000e+00	9.917277e-05	
21	-1.05000e+00	8.937987e-05	
22	-1.10000e+00	7.973645e-05	
23	-1.15000e+00	7.028561e-05	
24	-1.20000e+00	6.110275e-05	
25	-1.25000e+00	5.231618e-05	
26	-1.30000e+00	4.412737e-05	
27	-1.35000e+00	3.680283e-05	
28	-1.40000e+00	3.059613e-05	
29	-1.45000e+00	2.561883e-05	
30	-1.50000e+00	2.178037e-05	
31	-1.55000e+00	1.886122e-05	
32	-1.60000e+00	1.662534e-05	
33	-1.65000e+00	1.488109e-05	
34	-1.70000e+00	1.349055e-05	
35	-1.75000e+00	1.235863e-05	
36	-1.80000e+00	1.142001e-05	
37	-1.85000e+00	1.062912e-05	
38	-1.90000e+00	9.953549e-06	
39	-1.95000e+00	9.369666e-06	
40	-2.00000e+00	8.859900e-06	
41	-2.05000e+00	8.410910e-06	
42	-2.10000e+00	8.012389e-06	
43	-2.15000e+00	7.656247e-06	
44	-2.20000e+00	7.336042e-06	
45	-2.25000e+00	7.046581e-06	
46	-2.30000e+00	6.783628e-06	
47	-2.35000e+00	6.543696e-06	
48	-2.40000e+00	6.323884e-06	
49	-2.45000e+00	6.121760e-06	
50	-2.50000e+00	5.935272e-06	
51	-2.55000e+00	5.762673e-06	
52	-2.60000e+00	5.602466e-06	
53	-2.65000e+00	5.453365e-06	
54	-2.70000e+00	5.314254e-06	

Index   v-sweep         rds             
--------------------------------------------------------------------------------
55	-2.75000e+00	5.184162e-06	
56	-2.80000e+00	5.062241e-06	
57	-2.85000e+00	4.947745e-06	
58	-2.90000e+00	4.840018e-06	
59	-2.95000e+00	4.738478e-06	
60	-3.00000e+00	4.642607e-06	
61	-3.05000e+00	4.551945e-06	
62	-3.10000e+00	4.466080e-06	
63	-3.15000e+00	4.384641e-06	
64	-3.20000e+00	4.307295e-06	
65	-3.25000e+00	4.233744e-06	
66	-3.30000e+00	4.163714e-06	
67	-3.35000e+00	4.096960e-06	
68	-3.40000e+00	4.033258e-06	
69	-3.45000e+00	3.972403e-06	
70	-3.50000e+00	3.914211e-06	
71	-3.55000e+00	3.858510e-06	
72	-3.60000e+00	3.805144e-06	
73	-3.65000e+00	3.753971e-06	
74	-3.70000e+00	3.704858e-06	
75	-3.75000e+00	3.657684e-06	
76	-3.80000e+00	3.612337e-06	
77	-3.85000e+00	3.568713e-06	
78	-3.90000e+00	3.526716e-06	
79	-3.95000e+00	3.486258e-06	
80	-4.00000e+00	3.447256e-06	
81	-4.05000e+00	3.409633e-06	
82	-4.10000e+00	3.373317e-06	
83	-4.15000e+00	3.338243e-06	
84	-4.20000e+00	3.304348e-06	
85	-4.25000e+00	3.271574e-06	
86	-4.30000e+00	3.239866e-06	
87	-4.35000e+00	3.209175e-06	
88	-4.40000e+00	3.179452e-06	
89	-4.45000e+00	3.150653e-06	
90	-4.50000e+00	3.122737e-06	
91	-4.55000e+00	3.095663e-06	
92	-4.60000e+00	3.069395e-06	
93	-4.65000e+00	3.043897e-06	
94	-4.70000e+00	3.019138e-06	
95	-4.75000e+00	2.995087e-06	
96	-4.80000e+00	2.971713e-06	
97	-4.85000e+00	2.948990e-06	
98	-4.90000e+00	2.926892e-06	
99	-4.95000e+00	2.905395e-06	
100	-5.00000e+00	2.884474e-06	
101	-5.05000e+00	2.864109e-06	
102	-5.10000e+00	2.844277e-06	
103	-5.15000e+00	2.824961e-06	
104	-5.20000e+00	2.806141e-06	
105	-5.25000e+00	2.787799e-06	
106	-5.30000e+00	2.769919e-06	
107	-5.35000e+00	2.752484e-06	
108	-5.40000e+00	2.735480e-06	
109	-5.45000e+00	2.718893e-06	
110	-5.50000e+00	2.702708e-06	
111	-5.55000e+00	2.686914e-06	
112	-5.60000e+00	2.671496e-06	

Index   v-sweep         rds             
--------------------------------------------------------------------------------
113	-5.65000e+00	2.656444e-06	
114	-5.70000e+00	2.641747e-06	
115	-5.75000e+00	2.627394e-06	
116	-5.80000e+00	2.613375e-06	
117	-5.85000e+00	2.599680e-06	
118	-5.90000e+00	2.586300e-06	
119	-5.95000e+00	2.573227e-06	
120	-6.00000e+00	2.560451e-06	
121	-6.05000e+00	2.547965e-06	
122	-6.10000e+00	2.535762e-06	
123	-6.15000e+00	2.523833e-06	
124	-6.20000e+00	2.512173e-06	
125	-6.25000e+00	2.500774e-06	
126	-6.30000e+00	2.489630e-06	
127	-6.35000e+00	2.478735e-06	
128	-6.40000e+00	2.468083e-06	
129	-6.45000e+00	2.457669e-06	
130	-6.50000e+00	2.447487e-06	
131	-6.55000e+00	2.437532e-06	
132	-6.60000e+00	2.427799e-06	
Reset re-loads circuit ***************************

Circuit: ***************************

Doing analysis at TEMP = -40.000000 and TNOM = -40.000000


No. of Data Rows : 133
                          ***************************
                          DC transfer characteristic  Mon Jan  9 13:58:52  2023
--------------------------------------------------------------------------------
Index   v-sweep         rds             
--------------------------------------------------------------------------------
0	0.000000e+00	4.181269e-04	
1	-5.00000e-02	4.071849e-04	
2	-1.00000e-01	3.963254e-04	
3	-1.50000e-01	3.855478e-04	
4	-2.00000e-01	3.748513e-04	
5	-2.50000e-01	3.642353e-04	
6	-3.00000e-01	3.536991e-04	
7	-3.50000e-01	3.432420e-04	
8	-4.00000e-01	3.328634e-04	
9	-4.50000e-01	3.225625e-04	
10	-5.00000e-01	3.123387e-04	
11	-5.50000e-01	3.021914e-04	
12	-6.00000e-01	2.921200e-04	
13	-6.50000e-01	2.821238e-04	
14	-7.00000e-01	2.722023e-04	
15	-7.50000e-01	2.623548e-04	
16	-8.00000e-01	2.525808e-04	
17	-8.50000e-01	2.428797e-04	
18	-9.00000e-01	2.332511e-04	
19	-9.50000e-01	2.236944e-04	
20	-1.00000e+00	2.142092e-04	
21	-1.05000e+00	2.047951e-04	
22	-1.10000e+00	1.954518e-04	
23	-1.15000e+00	1.861789e-04	
24	-1.20000e+00	1.769765e-04	
25	-1.25000e+00	1.678444e-04	
26	-1.30000e+00	1.587830e-04	
27	-1.35000e+00	1.497927e-04	
28	-1.40000e+00	1.408747e-04	
29	-1.45000e+00	1.320305e-04	
30	-1.50000e+00	1.232630e-04	
31	-1.55000e+00	1.145763e-04	
32	-1.60000e+00	1.059775e-04	
33	-1.65000e+00	9.747753e-05	
34	-1.70000e+00	8.909447e-05	
35	-1.75000e+00	8.085757e-05	
36	-1.80000e+00	7.281431e-05	
37	-1.85000e+00	6.503957e-05	
38	-1.90000e+00	5.764382e-05	
39	-1.95000e+00	5.077108e-05	
40	-2.00000e+00	4.457384e-05	
41	-2.05000e+00	3.916552e-05	
42	-2.10000e+00	3.457911e-05	
43	-2.15000e+00	3.076386e-05	
44	-2.20000e+00	2.761673e-05	
45	-2.25000e+00	2.501970e-05	
46	-2.30000e+00	2.286368e-05	
47	-2.35000e+00	2.105779e-05	
48	-2.40000e+00	1.952999e-05	
49	-2.45000e+00	1.822444e-05	
50	-2.50000e+00	1.709812e-05	
51	-2.55000e+00	1.611776e-05	
52	-2.60000e+00	1.525750e-05	
53	-2.65000e+00	1.449704e-05	
54	-2.70000e+00	1.382029e-05	

Index   v-sweep         rds             
--------------------------------------------------------------------------------
55	-2.75000e+00	1.321436e-05	
56	-2.80000e+00	1.266883e-05	
57	-2.85000e+00	1.217521e-05	
58	-2.90000e+00	1.172650e-05	
59	-2.95000e+00	1.131690e-05	
60	-3.00000e+00	1.094154e-05	
61	-3.05000e+00	1.059634e-05	
62	-3.10000e+00	1.027783e-05	
63	-3.15000e+00	9.983049e-06	
64	-3.20000e+00	9.709456e-06	
65	-3.25000e+00	9.454860e-06	
66	-3.30000e+00	9.217359e-06	
67	-3.35000e+00	8.995298e-06	
68	-3.40000e+00	8.787226e-06	
69	-3.45000e+00	8.591868e-06	
70	-3.50000e+00	8.408100e-06	
71	-3.55000e+00	8.234924e-06	
72	-3.60000e+00	8.071454e-06	
73	-3.65000e+00	7.916902e-06	
74	-3.70000e+00	7.770560e-06	
75	-3.75000e+00	7.631794e-06	
76	-3.80000e+00	7.500033e-06	
77	-3.85000e+00	7.374762e-06	
78	-3.90000e+00	7.255516e-06	
79	-3.95000e+00	7.141873e-06	
80	-4.00000e+00	7.033447e-06	
81	-4.05000e+00	6.929891e-06	
82	-4.10000e+00	6.830884e-06	
83	-4.15000e+00	6.736135e-06	
84	-4.20000e+00	6.645376e-06	
85	-4.25000e+00	6.558362e-06	
86	-4.30000e+00	6.474866e-06	
87	-4.35000e+00	6.394682e-06	
88	-4.40000e+00	6.317615e-06	
89	-4.45000e+00	6.243490e-06	
90	-4.50000e+00	6.172142e-06	
91	-4.55000e+00	6.103419e-06	
92	-4.60000e+00	6.037179e-06	
93	-4.65000e+00	5.973291e-06	
94	-4.70000e+00	5.911633e-06	
95	-4.75000e+00	5.852091e-06	
96	-4.80000e+00	5.794559e-06	
97	-4.85000e+00	5.738937e-06	
98	-4.90000e+00	5.685134e-06	
99	-4.95000e+00	5.633061e-06	
100	-5.00000e+00	5.582638e-06	
101	-5.05000e+00	5.533789e-06	
102	-5.10000e+00	5.486442e-06	
103	-5.15000e+00	5.440530e-06	
104	-5.20000e+00	5.395990e-06	
105	-5.25000e+00	5.352762e-06	
106	-5.30000e+00	5.310791e-06	
107	-5.35000e+00	5.270024e-06	
108	-5.40000e+00	5.230411e-06	
109	-5.45000e+00	5.191905e-06	
110	-5.50000e+00	5.154463e-06	
111	-5.55000e+00	5.118042e-06	
112	-5.60000e+00	5.082602e-06	

Index   v-sweep         rds             
--------------------------------------------------------------------------------
113	-5.65000e+00	5.048108e-06	
114	-5.70000e+00	5.014522e-06	
115	-5.75000e+00	4.981813e-06	
116	-5.80000e+00	4.949947e-06	
117	-5.85000e+00	4.918896e-06	
118	-5.90000e+00	4.888630e-06	
119	-5.95000e+00	4.859123e-06	
120	-6.00000e+00	4.830349e-06	
121	-6.05000e+00	4.802284e-06	
122	-6.10000e+00	4.774905e-06	
123	-6.15000e+00	4.748189e-06	
124	-6.20000e+00	4.722116e-06	
125	-6.25000e+00	4.696666e-06	
126	-6.30000e+00	4.671820e-06	
127	-6.35000e+00	4.647561e-06	
128	-6.40000e+00	4.623870e-06	
129	-6.45000e+00	4.600733e-06	
130	-6.50000e+00	4.578133e-06	
131	-6.55000e+00	4.556056e-06	
132	-6.60000e+00	4.534487e-06	
Reset re-loads circuit ***************************

Circuit: ***************************

Doing analysis at TEMP = -40.000000 and TNOM = -40.000000


No. of Data Rows : 133
                          ***************************
                          DC transfer characteristic  Mon Jan  9 13:58:52  2023
--------------------------------------------------------------------------------
Index   v-sweep         rds             
--------------------------------------------------------------------------------
0	0.000000e+00	4.995580e-04	
1	-5.00000e-02	4.893874e-04	
2	-1.00000e-01	4.792860e-04	
3	-1.50000e-01	4.692530e-04	
4	-2.00000e-01	4.592880e-04	
5	-2.50000e-01	4.493905e-04	
6	-3.00000e-01	4.395598e-04	
7	-3.50000e-01	4.297956e-04	
8	-4.00000e-01	4.200972e-04	
9	-4.50000e-01	4.104642e-04	
10	-5.00000e-01	4.008961e-04	
11	-5.50000e-01	3.913923e-04	
12	-6.00000e-01	3.819524e-04	
13	-6.50000e-01	3.725759e-04	
14	-7.00000e-01	3.632623e-04	
15	-7.50000e-01	3.540111e-04	
16	-8.00000e-01	3.448218e-04	
17	-8.50000e-01	3.356940e-04	
18	-9.00000e-01	3.266273e-04	
19	-9.50000e-01	3.176210e-04	
20	-1.00000e+00	3.086749e-04	
21	-1.05000e+00	2.997885e-04	
22	-1.10000e+00	2.909613e-04	
23	-1.15000e+00	2.821928e-04	
24	-1.20000e+00	2.734828e-04	
25	-1.25000e+00	2.648307e-04	
26	-1.30000e+00	2.562363e-04	
27	-1.35000e+00	2.476990e-04	
28	-1.40000e+00	2.392186e-04	
29	-1.45000e+00	2.307946e-04	
30	-1.50000e+00	2.224268e-04	
31	-1.55000e+00	2.141148e-04	
32	-1.60000e+00	2.058585e-04	
33	-1.65000e+00	1.976574e-04	
34	-1.70000e+00	1.895115e-04	
35	-1.75000e+00	1.814206e-04	
36	-1.80000e+00	1.733847e-04	
37	-1.85000e+00	1.654037e-04	
38	-1.90000e+00	1.574780e-04	
39	-1.95000e+00	1.496079e-04	
40	-2.00000e+00	1.417940e-04	
41	-2.05000e+00	1.340374e-04	
42	-2.10000e+00	1.263398e-04	
43	-2.15000e+00	1.187037e-04	
44	-2.20000e+00	1.111333e-04	
45	-2.25000e+00	1.036350e-04	
46	-2.30000e+00	9.621914e-05	
47	-2.35000e+00	8.890293e-05	
48	-2.40000e+00	8.171446e-05	
49	-2.45000e+00	7.469878e-05	
50	-2.50000e+00	6.792423e-05	
51	-2.55000e+00	6.148414e-05	
52	-2.60000e+00	5.548715e-05	
53	-2.65000e+00	5.003328e-05	
54	-2.70000e+00	4.518604e-05	

Index   v-sweep         rds             
--------------------------------------------------------------------------------
55	-2.75000e+00	4.095767e-05	
56	-2.80000e+00	3.731437e-05	
57	-2.85000e+00	3.419394e-05	
58	-2.90000e+00	3.152365e-05	
59	-2.95000e+00	2.923250e-05	
60	-3.00000e+00	2.725719e-05	
61	-3.05000e+00	2.554406e-05	
62	-3.10000e+00	2.404877e-05	
63	-3.15000e+00	2.273520e-05	
64	-3.20000e+00	2.157401e-05	
65	-3.25000e+00	2.054138e-05	
66	-3.30000e+00	1.961794e-05	
67	-3.35000e+00	1.878780e-05	
68	-3.40000e+00	1.803793e-05	
69	-3.45000e+00	1.735750e-05	
70	-3.50000e+00	1.673751e-05	
71	-3.55000e+00	1.617040e-05	
72	-3.60000e+00	1.564981e-05	
73	-3.65000e+00	1.517032e-05	
74	-3.70000e+00	1.472732e-05	
75	-3.75000e+00	1.431685e-05	
76	-3.80000e+00	1.393550e-05	
77	-3.85000e+00	1.358032e-05	
78	-3.90000e+00	1.324872e-05	
79	-3.95000e+00	1.293845e-05	
80	-4.00000e+00	1.264755e-05	
81	-4.05000e+00	1.237426e-05	
82	-4.10000e+00	1.211705e-05	
83	-4.15000e+00	1.187456e-05	
84	-4.20000e+00	1.164555e-05	
85	-4.25000e+00	1.142896e-05	
86	-4.30000e+00	1.122379e-05	
87	-4.35000e+00	1.102919e-05	
88	-4.40000e+00	1.084435e-05	
89	-4.45000e+00	1.066856e-05	
90	-4.50000e+00	1.050119e-05	
91	-4.55000e+00	1.034164e-05	
92	-4.60000e+00	1.018939e-05	
93	-4.65000e+00	1.004394e-05	
94	-4.70000e+00	9.904852e-06	
95	-4.75000e+00	9.771723e-06	
96	-4.80000e+00	9.644179e-06	
97	-4.85000e+00	9.521877e-06	
98	-4.90000e+00	9.404504e-06	
99	-4.95000e+00	9.291769e-06	
100	-5.00000e+00	9.183405e-06	
101	-5.05000e+00	9.079163e-06	
102	-5.10000e+00	8.978814e-06	
103	-5.15000e+00	8.882146e-06	
104	-5.20000e+00	8.788962e-06	
105	-5.25000e+00	8.699077e-06	
106	-5.30000e+00	8.612321e-06	
107	-5.35000e+00	8.528536e-06	
108	-5.40000e+00	8.447571e-06	
109	-5.45000e+00	8.369289e-06	
110	-5.50000e+00	8.293560e-06	
111	-5.55000e+00	8.220262e-06	
112	-5.60000e+00	8.149282e-06	

Index   v-sweep         rds             
--------------------------------------------------------------------------------
113	-5.65000e+00	8.080512e-06	
114	-5.70000e+00	8.013854e-06	
115	-5.75000e+00	7.949212e-06	
116	-5.80000e+00	7.886498e-06	
117	-5.85000e+00	7.825630e-06	
118	-5.90000e+00	7.766529e-06	
119	-5.95000e+00	7.709120e-06	
120	-6.00000e+00	7.653335e-06	
121	-6.05000e+00	7.599109e-06	
122	-6.10000e+00	7.546378e-06	
123	-6.15000e+00	7.495084e-06	
124	-6.20000e+00	7.445173e-06	
125	-6.25000e+00	7.396592e-06	
126	-6.30000e+00	7.349291e-06	
127	-6.35000e+00	7.303224e-06	
128	-6.40000e+00	7.258346e-06	
129	-6.45000e+00	7.214615e-06	
130	-6.50000e+00	7.171992e-06	
131	-6.55000e+00	7.130438e-06	
132	-6.60000e+00	7.089919e-06	
Reset re-loads circuit ***************************

Circuit: ***************************

Doing analysis at TEMP = -40.000000 and TNOM = -40.000000


No. of Data Rows : 133
                          ***************************
                          DC transfer characteristic  Mon Jan  9 13:58:52  2023
--------------------------------------------------------------------------------
Index   v-sweep         rds             
--------------------------------------------------------------------------------
0	0.000000e+00	5.637140e-04	
1	-5.00000e-02	5.542672e-04	
2	-1.00000e-01	5.448787e-04	
3	-1.50000e-01	5.355481e-04	
4	-2.00000e-01	5.262750e-04	
5	-2.50000e-01	5.170589e-04	
6	-3.00000e-01	5.078995e-04	
7	-3.50000e-01	4.987964e-04	
8	-4.00000e-01	4.897492e-04	
9	-4.50000e-01	4.807574e-04	
10	-5.00000e-01	4.718207e-04	
11	-5.50000e-01	4.629387e-04	
12	-6.00000e-01	4.541110e-04	
13	-6.50000e-01	4.453372e-04	
14	-7.00000e-01	4.366169e-04	
15	-7.50000e-01	4.279498e-04	
16	-8.00000e-01	4.193355e-04	
17	-8.50000e-01	4.107736e-04	
18	-9.00000e-01	4.022638e-04	
19	-9.50000e-01	3.938056e-04	
20	-1.00000e+00	3.853987e-04	
21	-1.05000e+00	3.770429e-04	
22	-1.10000e+00	3.687376e-04	
23	-1.15000e+00	3.604826e-04	
24	-1.20000e+00	3.522775e-04	
25	-1.25000e+00	3.441220e-04	
26	-1.30000e+00	3.360157e-04	
27	-1.35000e+00	3.279583e-04	
28	-1.40000e+00	3.199495e-04	
29	-1.45000e+00	3.119889e-04	
30	-1.50000e+00	3.040762e-04	
31	-1.55000e+00	2.962112e-04	
32	-1.60000e+00	2.883934e-04	
33	-1.65000e+00	2.806227e-04	
34	-1.70000e+00	2.728986e-04	
35	-1.75000e+00	2.652209e-04	
36	-1.80000e+00	2.575892e-04	
37	-1.85000e+00	2.500035e-04	
38	-1.90000e+00	2.424632e-04	
39	-1.95000e+00	2.349682e-04	
40	-2.00000e+00	2.275183e-04	
41	-2.05000e+00	2.201131e-04	
42	-2.10000e+00	2.127525e-04	
43	-2.15000e+00	2.054361e-04	
44	-2.20000e+00	1.981639e-04	
45	-2.25000e+00	1.909356e-04	
46	-2.30000e+00	1.837510e-04	
47	-2.35000e+00	1.766099e-04	
48	-2.40000e+00	1.695122e-04	
49	-2.45000e+00	1.624578e-04	
50	-2.50000e+00	1.554466e-04	
51	-2.55000e+00	1.484784e-04	
52	-2.60000e+00	1.415532e-04	
53	-2.65000e+00	1.346709e-04	
54	-2.70000e+00	1.278315e-04	

Index   v-sweep         rds             
--------------------------------------------------------------------------------
55	-2.75000e+00	1.210353e-04	
56	-2.80000e+00	1.142829e-04	
57	-2.85000e+00	1.075760e-04	
58	-2.90000e+00	1.009182e-04	
59	-2.95000e+00	9.431772e-05	
60	-3.00000e+00	8.779105e-05	
61	-3.05000e+00	8.136871e-05	
62	-3.10000e+00	7.510161e-05	
63	-3.15000e+00	6.906364e-05	
64	-3.20000e+00	6.334516e-05	
65	-3.25000e+00	5.803568e-05	
66	-3.30000e+00	5.320249e-05	
67	-3.35000e+00	4.887687e-05	
68	-3.40000e+00	4.505342e-05	
69	-3.45000e+00	4.169948e-05	
70	-3.50000e+00	3.876729e-05	
71	-3.55000e+00	3.620416e-05	
72	-3.60000e+00	3.395894e-05	
73	-3.65000e+00	3.198529e-05	
74	-3.70000e+00	3.024287e-05	
75	-3.75000e+00	2.869735e-05	
76	-3.80000e+00	2.731986e-05	
77	-3.85000e+00	2.608626e-05	
78	-3.90000e+00	2.497641e-05	
79	-3.95000e+00	2.397348e-05	
80	-4.00000e+00	2.306338e-05	
81	-4.05000e+00	2.223427e-05	
82	-4.10000e+00	2.147613e-05	
83	-4.15000e+00	2.078049e-05	
84	-4.20000e+00	2.014013e-05	
85	-4.25000e+00	1.954885e-05	
86	-4.30000e+00	1.900133e-05	
87	-4.35000e+00	1.849300e-05	
88	-4.40000e+00	1.801984e-05	
89	-4.45000e+00	1.757841e-05	
90	-4.50000e+00	1.716564e-05	
91	-4.55000e+00	1.677889e-05	
92	-4.60000e+00	1.641580e-05	
93	-4.65000e+00	1.607428e-05	
94	-4.70000e+00	1.575249e-05	
95	-4.75000e+00	1.544880e-05	
96	-4.80000e+00	1.516172e-05	
97	-4.85000e+00	1.488995e-05	
98	-4.90000e+00	1.463231e-05	
99	-4.95000e+00	1.438773e-05	
100	-5.00000e+00	1.415525e-05	
101	-5.05000e+00	1.393401e-05	
102	-5.10000e+00	1.372321e-05	
103	-5.15000e+00	1.352214e-05	
104	-5.20000e+00	1.333015e-05	
105	-5.25000e+00	1.314664e-05	
106	-5.30000e+00	1.297106e-05	
107	-5.35000e+00	1.280292e-05	
108	-5.40000e+00	1.264175e-05	
109	-5.45000e+00	1.248714e-05	
110	-5.50000e+00	1.233869e-05	
111	-5.55000e+00	1.219605e-05	
112	-5.60000e+00	1.205889e-05	

Index   v-sweep         rds             
--------------------------------------------------------------------------------
113	-5.65000e+00	1.192689e-05	
114	-5.70000e+00	1.179978e-05	
115	-5.75000e+00	1.167728e-05	
116	-5.80000e+00	1.155917e-05	
117	-5.85000e+00	1.144519e-05	
118	-5.90000e+00	1.133516e-05	
119	-5.95000e+00	1.122885e-05	
120	-6.00000e+00	1.112610e-05	
121	-6.05000e+00	1.102672e-05	
122	-6.10000e+00	1.093057e-05	
123	-6.15000e+00	1.083747e-05	
124	-6.20000e+00	1.074730e-05	
125	-6.25000e+00	1.065991e-05	
126	-6.30000e+00	1.057519e-05	
127	-6.35000e+00	1.049301e-05	
128	-6.40000e+00	1.041327e-05	
129	-6.45000e+00	1.033586e-05	
130	-6.50000e+00	1.026069e-05	
131	-6.55000e+00	1.018765e-05	
132	-6.60000e+00	1.011667e-05	
Reset re-loads circuit ***************************

Circuit: ***************************

Note: No ".plot", ".print", or ".fourier" lines; no simulations run
