
Note: Compatibility modes selected: hs

Warning: m=xx on .subckt line will override multiplier m hierarchy!


Circuit: ***************************

Doing analysis at TEMP = 125.000000 and TNOM = 125.000000


No. of Data Rows : 133
                          ***************************
                          DC transfer characteristic  Mon Jan  9 13:58:53  2023
--------------------------------------------------------------------------------
Index   v-sweep         rds             
--------------------------------------------------------------------------------
0	0.000000e+00	1.045521e-05	
1	-5.00000e-02	8.622970e-06	
2	-1.00000e-01	6.813114e-06	
3	-1.50000e-01	5.040606e-06	
4	-2.00000e-01	3.353005e-06	
5	-2.50000e-01	1.894574e-06	
6	-3.00000e-01	9.273943e-07	
7	-3.50000e-01	4.968782e-07	
8	-4.00000e-01	3.429775e-07	
9	-4.50000e-01	2.834419e-07	
10	-5.00000e-01	2.550996e-07	
11	-5.50000e-01	2.385189e-07	
12	-6.00000e-01	2.271514e-07	
13	-6.50000e-01	2.184750e-07	
14	-7.00000e-01	2.113847e-07	
15	-7.50000e-01	2.053369e-07	
16	-8.00000e-01	2.000357e-07	
17	-8.50000e-01	1.953043e-07	
18	-9.00000e-01	1.910288e-07	
19	-9.50000e-01	1.871310e-07	
20	-1.00000e+00	1.835536e-07	
21	-1.05000e+00	1.802532e-07	
22	-1.10000e+00	1.771956e-07	
23	-1.15000e+00	1.743532e-07	
24	-1.20000e+00	1.717029e-07	
25	-1.25000e+00	1.692255e-07	
26	-1.30000e+00	1.669045e-07	
27	-1.35000e+00	1.647256e-07	
28	-1.40000e+00	1.626763e-07	
29	-1.45000e+00	1.607458e-07	
30	-1.50000e+00	1.589244e-07	
31	-1.55000e+00	1.572036e-07	
32	-1.60000e+00	1.555755e-07	
33	-1.65000e+00	1.540335e-07	
34	-1.70000e+00	1.525711e-07	
35	-1.75000e+00	1.511830e-07	
36	-1.80000e+00	1.498639e-07	
37	-1.85000e+00	1.486092e-07	
38	-1.90000e+00	1.474148e-07	
39	-1.95000e+00	1.462768e-07	
40	-2.00000e+00	1.451916e-07	
41	-2.05000e+00	1.441561e-07	
42	-2.10000e+00	1.431672e-07	
43	-2.15000e+00	1.422222e-07	
44	-2.20000e+00	1.413186e-07	
45	-2.25000e+00	1.404541e-07	
46	-2.30000e+00	1.396264e-07	
47	-2.35000e+00	1.388336e-07	
48	-2.40000e+00	1.380738e-07	
49	-2.45000e+00	1.373453e-07	
50	-2.50000e+00	1.366464e-07	
51	-2.55000e+00	1.359757e-07	
52	-2.60000e+00	1.353317e-07	
53	-2.65000e+00	1.347131e-07	
54	-2.70000e+00	1.341188e-07	

Index   v-sweep         rds             
--------------------------------------------------------------------------------
55	-2.75000e+00	1.335475e-07	
56	-2.80000e+00	1.329981e-07	
57	-2.85000e+00	1.324697e-07	
58	-2.90000e+00	1.319614e-07	
59	-2.95000e+00	1.314721e-07	
60	-3.00000e+00	1.310011e-07	
61	-3.05000e+00	1.305475e-07	
62	-3.10000e+00	1.301107e-07	
63	-3.15000e+00	1.296899e-07	
64	-3.20000e+00	1.292844e-07	
65	-3.25000e+00	1.288936e-07	
66	-3.30000e+00	1.285170e-07	
67	-3.35000e+00	1.281539e-07	
68	-3.40000e+00	1.278039e-07	
69	-3.45000e+00	1.274663e-07	
70	-3.50000e+00	1.271408e-07	
71	-3.55000e+00	1.268269e-07	
72	-3.60000e+00	1.265242e-07	
73	-3.65000e+00	1.262322e-07	
74	-3.70000e+00	1.259506e-07	
75	-3.75000e+00	1.256789e-07	
76	-3.80000e+00	1.254169e-07	
77	-3.85000e+00	1.251642e-07	
78	-3.90000e+00	1.249205e-07	
79	-3.95000e+00	1.246855e-07	
80	-4.00000e+00	1.244589e-07	
81	-4.05000e+00	1.242404e-07	
82	-4.10000e+00	1.240297e-07	
83	-4.15000e+00	1.238267e-07	
84	-4.20000e+00	1.236311e-07	
85	-4.25000e+00	1.234426e-07	
86	-4.30000e+00	1.232611e-07	
87	-4.35000e+00	1.230864e-07	
88	-4.40000e+00	1.229181e-07	
89	-4.45000e+00	1.227562e-07	
90	-4.50000e+00	1.226005e-07	
91	-4.55000e+00	1.224509e-07	
92	-4.60000e+00	1.223070e-07	
93	-4.65000e+00	1.221689e-07	
94	-4.70000e+00	1.220363e-07	
95	-4.75000e+00	1.219091e-07	
96	-4.80000e+00	1.217872e-07	
97	-4.85000e+00	1.216704e-07	
98	-4.90000e+00	1.215586e-07	
99	-4.95000e+00	1.214517e-07	
100	-5.00000e+00	1.213496e-07	
101	-5.05000e+00	1.212522e-07	
102	-5.10000e+00	1.211594e-07	
103	-5.15000e+00	1.210710e-07	
104	-5.20000e+00	1.209871e-07	
105	-5.25000e+00	1.209074e-07	
106	-5.30000e+00	1.208319e-07	
107	-5.35000e+00	1.207606e-07	
108	-5.40000e+00	1.206933e-07	
109	-5.45000e+00	1.206299e-07	
110	-5.50000e+00	1.205705e-07	
111	-5.55000e+00	1.205148e-07	
112	-5.60000e+00	1.204629e-07	

Index   v-sweep         rds             
--------------------------------------------------------------------------------
113	-5.65000e+00	1.204148e-07	
114	-5.70000e+00	1.203702e-07	
115	-5.75000e+00	1.203292e-07	
116	-5.80000e+00	1.202917e-07	
117	-5.85000e+00	1.202577e-07	
118	-5.90000e+00	1.202271e-07	
119	-5.95000e+00	1.201998e-07	
120	-6.00000e+00	1.201759e-07	
121	-6.05000e+00	1.201551e-07	
122	-6.10000e+00	1.201376e-07	
123	-6.15000e+00	1.201233e-07	
124	-6.20000e+00	1.201121e-07	
125	-6.25000e+00	1.201040e-07	
126	-6.30000e+00	1.200989e-07	
127	-6.35000e+00	1.200968e-07	
128	-6.40000e+00	1.200977e-07	
129	-6.45000e+00	1.201016e-07	
130	-6.50000e+00	1.201083e-07	
131	-6.55000e+00	1.201179e-07	
132	-6.60000e+00	1.201303e-07	
Reset re-loads circuit ***************************

Circuit: ***************************

Doing analysis at TEMP = 125.000000 and TNOM = 125.000000


No. of Data Rows : 133
                          ***************************
                          DC transfer characteristic  Mon Jan  9 13:58:53  2023
--------------------------------------------------------------------------------
Index   v-sweep         rds             
--------------------------------------------------------------------------------
0	0.000000e+00	4.169715e-05	
1	-5.00000e-02	3.969947e-05	
2	-1.00000e-01	3.771274e-05	
3	-1.50000e-01	3.573696e-05	
4	-2.00000e-01	3.377210e-05	
5	-2.50000e-01	3.181819e-05	
6	-3.00000e-01	2.987525e-05	
7	-3.50000e-01	2.794337e-05	
8	-4.00000e-01	2.602268e-05	
9	-4.50000e-01	2.411342e-05	
10	-5.00000e-01	2.221597e-05	
11	-5.50000e-01	2.033097e-05	
12	-6.00000e-01	1.845945e-05	
13	-6.50000e-01	1.660317e-05	
14	-7.00000e-01	1.476519e-05	
15	-7.50000e-01	1.295095e-05	
16	-8.00000e-01	1.117045e-05	
17	-8.50000e-01	9.442329e-06	
18	-9.00000e-01	7.800737e-06	
19	-9.50000e-01	6.303459e-06	
20	-1.00000e+00	5.029948e-06	
21	-1.05000e+00	4.048874e-06	
22	-1.10000e+00	3.366426e-06	
23	-1.15000e+00	2.919858e-06	
24	-1.20000e+00	2.626615e-06	
25	-1.25000e+00	2.423625e-06	
26	-1.30000e+00	2.272993e-06	
27	-1.35000e+00	2.153955e-06	
28	-1.40000e+00	2.055248e-06	
29	-1.45000e+00	1.970559e-06	
30	-1.50000e+00	1.896161e-06	
31	-1.55000e+00	1.829717e-06	
32	-1.60000e+00	1.769672e-06	
33	-1.65000e+00	1.714933e-06	
34	-1.70000e+00	1.664697e-06	
35	-1.75000e+00	1.618347e-06	
36	-1.80000e+00	1.575397e-06	
37	-1.85000e+00	1.535451e-06	
38	-1.90000e+00	1.498182e-06	
39	-1.95000e+00	1.463315e-06	
40	-2.00000e+00	1.430616e-06	
41	-2.05000e+00	1.399880e-06	
42	-2.10000e+00	1.370933e-06	
43	-2.15000e+00	1.343619e-06	
44	-2.20000e+00	1.317803e-06	
45	-2.25000e+00	1.293364e-06	
46	-2.30000e+00	1.270193e-06	
47	-2.35000e+00	1.248194e-06	
48	-2.40000e+00	1.227281e-06	
49	-2.45000e+00	1.207376e-06	
50	-2.50000e+00	1.188407e-06	
51	-2.55000e+00	1.170311e-06	
52	-2.60000e+00	1.153029e-06	
53	-2.65000e+00	1.136509e-06	
54	-2.70000e+00	1.120701e-06	

Index   v-sweep         rds             
--------------------------------------------------------------------------------
55	-2.75000e+00	1.105561e-06	
56	-2.80000e+00	1.091048e-06	
57	-2.85000e+00	1.077125e-06	
58	-2.90000e+00	1.063756e-06	
59	-2.95000e+00	1.050911e-06	
60	-3.00000e+00	1.038559e-06	
61	-3.05000e+00	1.026674e-06	
62	-3.10000e+00	1.015229e-06	
63	-3.15000e+00	1.004201e-06	
64	-3.20000e+00	9.935686e-07	
65	-3.25000e+00	9.833111e-07	
66	-3.30000e+00	9.734096e-07	
67	-3.35000e+00	9.638462e-07	
68	-3.40000e+00	9.546044e-07	
69	-3.45000e+00	9.456687e-07	
70	-3.50000e+00	9.370245e-07	
71	-3.55000e+00	9.286582e-07	
72	-3.60000e+00	9.205570e-07	
73	-3.65000e+00	9.127090e-07	
74	-3.70000e+00	9.051027e-07	
75	-3.75000e+00	8.977277e-07	
76	-3.80000e+00	8.905738e-07	
77	-3.85000e+00	8.836316e-07	
78	-3.90000e+00	8.768922e-07	
79	-3.95000e+00	8.703473e-07	
80	-4.00000e+00	8.639888e-07	
81	-4.05000e+00	8.578092e-07	
82	-4.10000e+00	8.518015e-07	
83	-4.15000e+00	8.459589e-07	
84	-4.20000e+00	8.402751e-07	
85	-4.25000e+00	8.347439e-07	
86	-4.30000e+00	8.293598e-07	
87	-4.35000e+00	8.241171e-07	
88	-4.40000e+00	8.190108e-07	
89	-4.45000e+00	8.140360e-07	
90	-4.50000e+00	8.091880e-07	
91	-4.55000e+00	8.044624e-07	
92	-4.60000e+00	7.998550e-07	
93	-4.65000e+00	7.953618e-07	
94	-4.70000e+00	7.909789e-07	
95	-4.75000e+00	7.867027e-07	
96	-4.80000e+00	7.825298e-07	
97	-4.85000e+00	7.784569e-07	
98	-4.90000e+00	7.744808e-07	
99	-4.95000e+00	7.705985e-07	
100	-5.00000e+00	7.668072e-07	
101	-5.05000e+00	7.631042e-07	
102	-5.10000e+00	7.594868e-07	
103	-5.15000e+00	7.559526e-07	
104	-5.20000e+00	7.524993e-07	
105	-5.25000e+00	7.491244e-07	
106	-5.30000e+00	7.458259e-07	
107	-5.35000e+00	7.426017e-07	
108	-5.40000e+00	7.394499e-07	
109	-5.45000e+00	7.363685e-07	
110	-5.50000e+00	7.333557e-07	
111	-5.55000e+00	7.304098e-07	
112	-5.60000e+00	7.275292e-07	

Index   v-sweep         rds             
--------------------------------------------------------------------------------
113	-5.65000e+00	7.247122e-07	
114	-5.70000e+00	7.219573e-07	
115	-5.75000e+00	7.192632e-07	
116	-5.80000e+00	7.166283e-07	
117	-5.85000e+00	7.140513e-07	
118	-5.90000e+00	7.115310e-07	
119	-5.95000e+00	7.090662e-07	
120	-6.00000e+00	7.066555e-07	
121	-6.05000e+00	7.042980e-07	
122	-6.10000e+00	7.019926e-07	
123	-6.15000e+00	6.997380e-07	
124	-6.20000e+00	6.975335e-07	
125	-6.25000e+00	6.953779e-07	
126	-6.30000e+00	6.932705e-07	
127	-6.35000e+00	6.912101e-07	
128	-6.40000e+00	6.891961e-07	
129	-6.45000e+00	6.872276e-07	
130	-6.50000e+00	6.853037e-07	
131	-6.55000e+00	6.834237e-07	
132	-6.60000e+00	6.815869e-07	
Reset re-loads circuit ***************************

Circuit: ***************************

Doing analysis at TEMP = 125.000000 and TNOM = 125.000000


No. of Data Rows : 133
                          ***************************
                          DC transfer characteristic  Mon Jan  9 13:58:53  2023
--------------------------------------------------------------------------------
Index   v-sweep         rds             
--------------------------------------------------------------------------------
0	0.000000e+00	6.665085e-05	
1	-5.00000e-02	6.473949e-05	
2	-1.00000e-01	6.283714e-05	
3	-1.50000e-01	6.094376e-05	
4	-2.00000e-01	5.905933e-05	
5	-2.50000e-01	5.718381e-05	
6	-3.00000e-01	5.531716e-05	
7	-3.50000e-01	5.345934e-05	
8	-4.00000e-01	5.161034e-05	
9	-4.50000e-01	4.977011e-05	
10	-5.00000e-01	4.793864e-05	
11	-5.50000e-01	4.611591e-05	
12	-6.00000e-01	4.430189e-05	
13	-6.50000e-01	4.249659e-05	
14	-7.00000e-01	4.070000e-05	
15	-7.50000e-01	3.891213e-05	
16	-8.00000e-01	3.713303e-05	
17	-8.50000e-01	3.536273e-05	
18	-9.00000e-01	3.360131e-05	
19	-9.50000e-01	3.184891e-05	
20	-1.00000e+00	3.010570e-05	
21	-1.05000e+00	2.837195e-05	
22	-1.10000e+00	2.664806e-05	
23	-1.15000e+00	2.493460e-05	
24	-1.20000e+00	2.323245e-05	
25	-1.25000e+00	2.154293e-05	
26	-1.30000e+00	1.986809e-05	
27	-1.35000e+00	1.821111e-05	
28	-1.40000e+00	1.657711e-05	
29	-1.45000e+00	1.497427e-05	
30	-1.50000e+00	1.341578e-05	
31	-1.55000e+00	1.192227e-05	
32	-1.60000e+00	1.052408e-05	
33	-1.65000e+00	9.260312e-06	
34	-1.70000e+00	8.170210e-06	
35	-1.75000e+00	7.276788e-06	
36	-1.80000e+00	6.574007e-06	
37	-1.85000e+00	6.030713e-06	
38	-1.90000e+00	5.607010e-06	
39	-1.95000e+00	5.267892e-06	
40	-2.00000e+00	4.987888e-06	
41	-2.05000e+00	4.750017e-06	
42	-2.10000e+00	4.543253e-06	
43	-2.15000e+00	4.360369e-06	
44	-2.20000e+00	4.196477e-06	
45	-2.25000e+00	4.048149e-06	
46	-2.30000e+00	3.912879e-06	
47	-2.35000e+00	3.788770e-06	
48	-2.40000e+00	3.674336e-06	
49	-2.45000e+00	3.568389e-06	
50	-2.50000e+00	3.469952e-06	
51	-2.55000e+00	3.378210e-06	
52	-2.60000e+00	3.292474e-06	
53	-2.65000e+00	3.212153e-06	
54	-2.70000e+00	3.136738e-06	

Index   v-sweep         rds             
--------------------------------------------------------------------------------
55	-2.75000e+00	3.065784e-06	
56	-2.80000e+00	2.998901e-06	
57	-2.85000e+00	2.935745e-06	
58	-2.90000e+00	2.876010e-06	
59	-2.95000e+00	2.819426e-06	
60	-3.00000e+00	2.765748e-06	
61	-3.05000e+00	2.714759e-06	
62	-3.10000e+00	2.666262e-06	
63	-3.15000e+00	2.620079e-06	
64	-3.20000e+00	2.576049e-06	
65	-3.25000e+00	2.534025e-06	
66	-3.30000e+00	2.493875e-06	
67	-3.35000e+00	2.455477e-06	
68	-3.40000e+00	2.418719e-06	
69	-3.45000e+00	2.383501e-06	
70	-3.50000e+00	2.349727e-06	
71	-3.55000e+00	2.317311e-06	
72	-3.60000e+00	2.286175e-06	
73	-3.65000e+00	2.256245e-06	
74	-3.70000e+00	2.227453e-06	
75	-3.75000e+00	2.199735e-06	
76	-3.80000e+00	2.173035e-06	
77	-3.85000e+00	2.147297e-06	
78	-3.90000e+00	2.122472e-06	
79	-3.95000e+00	2.098511e-06	
80	-4.00000e+00	2.075373e-06	
81	-4.05000e+00	2.053015e-06	
82	-4.10000e+00	2.031399e-06	
83	-4.15000e+00	2.010490e-06	
84	-4.20000e+00	1.990254e-06	
85	-4.25000e+00	1.970661e-06	
86	-4.30000e+00	1.951679e-06	
87	-4.35000e+00	1.933282e-06	
88	-4.40000e+00	1.915444e-06	
89	-4.45000e+00	1.898140e-06	
90	-4.50000e+00	1.881347e-06	
91	-4.55000e+00	1.865043e-06	
92	-4.60000e+00	1.849208e-06	
93	-4.65000e+00	1.833823e-06	
94	-4.70000e+00	1.818868e-06	
95	-4.75000e+00	1.804327e-06	
96	-4.80000e+00	1.790184e-06	
97	-4.85000e+00	1.776422e-06	
98	-4.90000e+00	1.763027e-06	
99	-4.95000e+00	1.749986e-06	
100	-5.00000e+00	1.737285e-06	
101	-5.05000e+00	1.724911e-06	
102	-5.10000e+00	1.712852e-06	
103	-5.15000e+00	1.701098e-06	
104	-5.20000e+00	1.689637e-06	
105	-5.25000e+00	1.678460e-06	
106	-5.30000e+00	1.667557e-06	
107	-5.35000e+00	1.656917e-06	
108	-5.40000e+00	1.646534e-06	
109	-5.45000e+00	1.636398e-06	
110	-5.50000e+00	1.626501e-06	
111	-5.55000e+00	1.616835e-06	
112	-5.60000e+00	1.607395e-06	

Index   v-sweep         rds             
--------------------------------------------------------------------------------
113	-5.65000e+00	1.598172e-06	
114	-5.70000e+00	1.589160e-06	
115	-5.75000e+00	1.580353e-06	
116	-5.80000e+00	1.571745e-06	
117	-5.85000e+00	1.563330e-06	
118	-5.90000e+00	1.555103e-06	
119	-5.95000e+00	1.547058e-06	
120	-6.00000e+00	1.539191e-06	
121	-6.05000e+00	1.531496e-06	
122	-6.10000e+00	1.523970e-06	
123	-6.15000e+00	1.516608e-06	
124	-6.20000e+00	1.509406e-06	
125	-6.25000e+00	1.502360e-06	
126	-6.30000e+00	1.495465e-06	
127	-6.35000e+00	1.488719e-06	
128	-6.40000e+00	1.482119e-06	
129	-6.45000e+00	1.475659e-06	
130	-6.50000e+00	1.469339e-06	
131	-6.55000e+00	1.463153e-06	
132	-6.60000e+00	1.457101e-06	
Reset re-loads circuit ***************************

Circuit: ***************************

Doing analysis at TEMP = 125.000000 and TNOM = 125.000000


No. of Data Rows : 133
                          ***************************
                          DC transfer characteristic  Mon Jan  9 13:58:53  2023
--------------------------------------------------------------------------------
Index   v-sweep         rds             
--------------------------------------------------------------------------------
0	0.000000e+00	8.758157e-05	
1	-5.00000e-02	8.576386e-05	
2	-1.00000e-01	8.395384e-05	
3	-1.50000e-01	8.215146e-05	
4	-2.00000e-01	8.035670e-05	
5	-2.50000e-01	7.856953e-05	
6	-3.00000e-01	7.678991e-05	
7	-3.50000e-01	7.501782e-05	
8	-4.00000e-01	7.325323e-05	
9	-4.50000e-01	7.149611e-05	
10	-5.00000e-01	6.974642e-05	
11	-5.50000e-01	6.800415e-05	
12	-6.00000e-01	6.626926e-05	
13	-6.50000e-01	6.454172e-05	
14	-7.00000e-01	6.282151e-05	
15	-7.50000e-01	6.110861e-05	
16	-8.00000e-01	5.940300e-05	
17	-8.50000e-01	5.770464e-05	
18	-9.00000e-01	5.601352e-05	
19	-9.50000e-01	5.432963e-05	
20	-1.00000e+00	5.265294e-05	
21	-1.05000e+00	5.098345e-05	
22	-1.10000e+00	4.932115e-05	
23	-1.15000e+00	4.766603e-05	
24	-1.20000e+00	4.601810e-05	
25	-1.25000e+00	4.437737e-05	
26	-1.30000e+00	4.274386e-05	
27	-1.35000e+00	4.111761e-05	
28	-1.40000e+00	3.949867e-05	
29	-1.45000e+00	3.788712e-05	
30	-1.50000e+00	3.628305e-05	
31	-1.55000e+00	3.468662e-05	
32	-1.60000e+00	3.309804e-05	
33	-1.65000e+00	3.151757e-05	
34	-1.70000e+00	2.994561e-05	
35	-1.75000e+00	2.838272e-05	
36	-1.80000e+00	2.682967e-05	
37	-1.85000e+00	2.528756e-05	
38	-1.90000e+00	2.375801e-05	
39	-1.95000e+00	2.224338e-05	
40	-2.00000e+00	2.074715e-05	
41	-2.05000e+00	1.927451e-05	
42	-2.10000e+00	1.783317e-05	
43	-2.15000e+00	1.643437e-05	
44	-2.20000e+00	1.509390e-05	
45	-2.25000e+00	1.383236e-05	
46	-2.30000e+00	1.267327e-05	
47	-2.35000e+00	1.163804e-05	
48	-2.40000e+00	1.073891e-05	
49	-2.45000e+00	9.974143e-06	
50	-2.50000e+00	9.329503e-06	
51	-2.55000e+00	8.784451e-06	
52	-2.60000e+00	8.318431e-06	
53	-2.65000e+00	7.914245e-06	
54	-2.70000e+00	7.558754e-06	

Index   v-sweep         rds             
--------------------------------------------------------------------------------
55	-2.75000e+00	7.242282e-06	
56	-2.80000e+00	6.957736e-06	
57	-2.85000e+00	6.699836e-06	
58	-2.90000e+00	6.464563e-06	
59	-2.95000e+00	6.248779e-06	
60	-3.00000e+00	6.049978e-06	
61	-3.05000e+00	5.866116e-06	
62	-3.10000e+00	5.695495e-06	
63	-3.15000e+00	5.536688e-06	
64	-3.20000e+00	5.388480e-06	
65	-3.25000e+00	5.249826e-06	
66	-3.30000e+00	5.119818e-06	
67	-3.35000e+00	4.997667e-06	
68	-3.40000e+00	4.882676e-06	
69	-3.45000e+00	4.774234e-06	
70	-3.50000e+00	4.671795e-06	
71	-3.55000e+00	4.574876e-06	
72	-3.60000e+00	4.483042e-06	
73	-3.65000e+00	4.395906e-06	
74	-3.70000e+00	4.313118e-06	
75	-3.75000e+00	4.234361e-06	
76	-3.80000e+00	4.159351e-06	
77	-3.85000e+00	4.087828e-06	
78	-3.90000e+00	4.019555e-06	
79	-3.95000e+00	3.954319e-06	
80	-4.00000e+00	3.891923e-06	
81	-4.05000e+00	3.832186e-06	
82	-4.10000e+00	3.774944e-06	
83	-4.15000e+00	3.720045e-06	
84	-4.20000e+00	3.667350e-06	
85	-4.25000e+00	3.616730e-06	
86	-4.30000e+00	3.568067e-06	
87	-4.35000e+00	3.521249e-06	
88	-4.40000e+00	3.476175e-06	
89	-4.45000e+00	3.432751e-06	
90	-4.50000e+00	3.390889e-06	
91	-4.55000e+00	3.350507e-06	
92	-4.60000e+00	3.311529e-06	
93	-4.65000e+00	3.273884e-06	
94	-4.70000e+00	3.237505e-06	
95	-4.75000e+00	3.202331e-06	
96	-4.80000e+00	3.168304e-06	
97	-4.85000e+00	3.135369e-06	
98	-4.90000e+00	3.103475e-06	
99	-4.95000e+00	3.072575e-06	
100	-5.00000e+00	3.042623e-06	
101	-5.05000e+00	3.013578e-06	
102	-5.10000e+00	2.985400e-06	
103	-5.15000e+00	2.958050e-06	
104	-5.20000e+00	2.931494e-06	
105	-5.25000e+00	2.905699e-06	
106	-5.30000e+00	2.880633e-06	
107	-5.35000e+00	2.856266e-06	
108	-5.40000e+00	2.832570e-06	
109	-5.45000e+00	2.809518e-06	
110	-5.50000e+00	2.787086e-06	
111	-5.55000e+00	2.765250e-06	
112	-5.60000e+00	2.743987e-06	

Index   v-sweep         rds             
--------------------------------------------------------------------------------
113	-5.65000e+00	2.723275e-06	
114	-5.70000e+00	2.703095e-06	
115	-5.75000e+00	2.683427e-06	
116	-5.80000e+00	2.664252e-06	
117	-5.85000e+00	2.645554e-06	
118	-5.90000e+00	2.627315e-06	
119	-5.95000e+00	2.609521e-06	
120	-6.00000e+00	2.592156e-06	
121	-6.05000e+00	2.575206e-06	
122	-6.10000e+00	2.558657e-06	
123	-6.15000e+00	2.542497e-06	
124	-6.20000e+00	2.526714e-06	
125	-6.25000e+00	2.511295e-06	
126	-6.30000e+00	2.496230e-06	
127	-6.35000e+00	2.481507e-06	
128	-6.40000e+00	2.467118e-06	
129	-6.45000e+00	2.453052e-06	
130	-6.50000e+00	2.439300e-06	
131	-6.55000e+00	2.425853e-06	
132	-6.60000e+00	2.412703e-06	
Reset re-loads circuit ***************************

Circuit: ***************************

Doing analysis at TEMP = 125.000000 and TNOM = 125.000000


No. of Data Rows : 133
                          ***************************
                          DC transfer characteristic  Mon Jan  9 13:58:53  2023
--------------------------------------------------------------------------------
Index   v-sweep         rds             
--------------------------------------------------------------------------------
0	0.000000e+00	1.056931e-04	
1	-5.00000e-02	1.039604e-04	
2	-1.00000e-01	1.022345e-04	
3	-1.50000e-01	1.005152e-04	
4	-2.00000e-01	9.880253e-05	
5	-2.50000e-01	9.709649e-05	
6	-3.00000e-01	9.539703e-05	
7	-3.50000e-01	9.370414e-05	
8	-4.00000e-01	9.201778e-05	
9	-4.50000e-01	9.033794e-05	
10	-5.00000e-01	8.866458e-05	
11	-5.50000e-01	8.699769e-05	
12	-6.00000e-01	8.533723e-05	
13	-6.50000e-01	8.368319e-05	
14	-7.00000e-01	8.203554e-05	
15	-7.50000e-01	8.039425e-05	
16	-8.00000e-01	7.875931e-05	
17	-8.50000e-01	7.713069e-05	
18	-9.00000e-01	7.550837e-05	
19	-9.50000e-01	7.389233e-05	
20	-1.00000e+00	7.228254e-05	
21	-1.05000e+00	7.067899e-05	
22	-1.10000e+00	6.908165e-05	
23	-1.15000e+00	6.749051e-05	
24	-1.20000e+00	6.590554e-05	
25	-1.25000e+00	6.432673e-05	
26	-1.30000e+00	6.275406e-05	
27	-1.35000e+00	6.118752e-05	
28	-1.40000e+00	5.962710e-05	
29	-1.45000e+00	5.807277e-05	
30	-1.50000e+00	5.652454e-05	
31	-1.55000e+00	5.498239e-05	
32	-1.60000e+00	5.344633e-05	
33	-1.65000e+00	5.191635e-05	
34	-1.70000e+00	5.039245e-05	
35	-1.75000e+00	4.887465e-05	
36	-1.80000e+00	4.736297e-05	
37	-1.85000e+00	4.585742e-05	
38	-1.90000e+00	4.435806e-05	
39	-1.95000e+00	4.286492e-05	
40	-2.00000e+00	4.137809e-05	
41	-2.05000e+00	3.989765e-05	
42	-2.10000e+00	3.842372e-05	
43	-2.15000e+00	3.695649e-05	
44	-2.20000e+00	3.549615e-05	
45	-2.25000e+00	3.404301e-05	
46	-2.30000e+00	3.259747e-05	
47	-2.35000e+00	3.116004e-05	
48	-2.40000e+00	2.973146e-05	
49	-2.45000e+00	2.831273e-05	
50	-2.50000e+00	2.690521e-05	
51	-2.55000e+00	2.551086e-05	
52	-2.60000e+00	2.413237e-05	
53	-2.65000e+00	2.277357e-05	
54	-2.70000e+00	2.143982e-05	

Index   v-sweep         rds             
--------------------------------------------------------------------------------
55	-2.75000e+00	2.013851e-05	
56	-2.80000e+00	1.887948e-05	
57	-2.85000e+00	1.767514e-05	
58	-2.90000e+00	1.653967e-05	
59	-2.95000e+00	1.548699e-05	
60	-3.00000e+00	1.452769e-05	
61	-3.05000e+00	1.366614e-05	
62	-3.10000e+00	1.289964e-05	
63	-3.15000e+00	1.221999e-05	
64	-3.20000e+00	1.161635e-05	
65	-3.25000e+00	1.107766e-05	
66	-3.30000e+00	1.059405e-05	
67	-3.35000e+00	1.015727e-05	
68	-3.40000e+00	9.760577e-06	
69	-3.45000e+00	9.398495e-06	
70	-3.50000e+00	9.066561e-06	
71	-3.55000e+00	8.761085e-06	
72	-3.60000e+00	8.478987e-06	
73	-3.65000e+00	8.217668e-06	
74	-3.70000e+00	7.974910e-06	
75	-3.75000e+00	7.748807e-06	
76	-3.80000e+00	7.537712e-06	
77	-3.85000e+00	7.340187e-06	
78	-3.90000e+00	7.154975e-06	
79	-3.95000e+00	6.980970e-06	
80	-4.00000e+00	6.817192e-06	
81	-4.05000e+00	6.662776e-06	
82	-4.10000e+00	6.516948e-06	
83	-4.15000e+00	6.379018e-06	
84	-4.20000e+00	6.248369e-06	
85	-4.25000e+00	6.124444e-06	
86	-4.30000e+00	6.006743e-06	
87	-4.35000e+00	5.894812e-06	
88	-4.40000e+00	5.788243e-06	
89	-4.45000e+00	5.686663e-06	
90	-4.50000e+00	5.589733e-06	
91	-4.55000e+00	5.497145e-06	
92	-4.60000e+00	5.408616e-06	
93	-4.65000e+00	5.323888e-06	
94	-4.70000e+00	5.242724e-06	
95	-4.75000e+00	5.164906e-06	
96	-4.80000e+00	5.090234e-06	
97	-4.85000e+00	5.018522e-06	
98	-4.90000e+00	4.949600e-06	
99	-4.95000e+00	4.883311e-06	
100	-5.00000e+00	4.819508e-06	
101	-5.05000e+00	4.758055e-06	
102	-5.10000e+00	4.698826e-06	
103	-5.15000e+00	4.641705e-06	
104	-5.20000e+00	4.586581e-06	
105	-5.25000e+00	4.533354e-06	
106	-5.30000e+00	4.481929e-06	
107	-5.35000e+00	4.432216e-06	
108	-5.40000e+00	4.384133e-06	
109	-5.45000e+00	4.337601e-06	
110	-5.50000e+00	4.292549e-06	
111	-5.55000e+00	4.248908e-06	
112	-5.60000e+00	4.206613e-06	

Index   v-sweep         rds             
--------------------------------------------------------------------------------
113	-5.65000e+00	4.165604e-06	
114	-5.70000e+00	4.125824e-06	
115	-5.75000e+00	4.087220e-06	
116	-5.80000e+00	4.049741e-06	
117	-5.85000e+00	4.013340e-06	
118	-5.90000e+00	3.977973e-06	
119	-5.95000e+00	3.943595e-06	
120	-6.00000e+00	3.910169e-06	
121	-6.05000e+00	3.877654e-06	
122	-6.10000e+00	3.846017e-06	
123	-6.15000e+00	3.815222e-06	
124	-6.20000e+00	3.785239e-06	
125	-6.25000e+00	3.756035e-06	
126	-6.30000e+00	3.727583e-06	
127	-6.35000e+00	3.699855e-06	
128	-6.40000e+00	3.672824e-06	
129	-6.45000e+00	3.646467e-06	
130	-6.50000e+00	3.620760e-06	
131	-6.55000e+00	3.595680e-06	
132	-6.60000e+00	3.571207e-06	
Reset re-loads circuit ***************************

Circuit: ***************************

Doing analysis at TEMP = 125.000000 and TNOM = 125.000000


No. of Data Rows : 133
                          ***************************
                          DC transfer characteristic  Mon Jan  9 13:58:53  2023
--------------------------------------------------------------------------------
Index   v-sweep         rds             
--------------------------------------------------------------------------------
0	0.000000e+00	1.219666e-04	
1	-5.00000e-02	1.203081e-04	
2	-1.00000e-01	1.186555e-04	
3	-1.50000e-01	1.170088e-04	
4	-2.00000e-01	1.153680e-04	
5	-2.50000e-01	1.137331e-04	
6	-3.00000e-01	1.121040e-04	
7	-3.50000e-01	1.104807e-04	
8	-4.00000e-01	1.088632e-04	
9	-4.50000e-01	1.072515e-04	
10	-5.00000e-01	1.056455e-04	
11	-5.50000e-01	1.040453e-04	
12	-6.00000e-01	1.024508e-04	
13	-6.50000e-01	1.008620e-04	
14	-7.00000e-01	9.927892e-05	
15	-7.50000e-01	9.770145e-05	
16	-8.00000e-01	9.612962e-05	
17	-8.50000e-01	9.456340e-05	
18	-9.00000e-01	9.300278e-05	
19	-9.50000e-01	9.144773e-05	
20	-1.00000e+00	8.989824e-05	
21	-1.05000e+00	8.835428e-05	
22	-1.10000e+00	8.681584e-05	
23	-1.15000e+00	8.528290e-05	
24	-1.20000e+00	8.375544e-05	
25	-1.25000e+00	8.223344e-05	
26	-1.30000e+00	8.071688e-05	
27	-1.35000e+00	7.920575e-05	
28	-1.40000e+00	7.770003e-05	
29	-1.45000e+00	7.619970e-05	
30	-1.50000e+00	7.470474e-05	
31	-1.55000e+00	7.321514e-05	
32	-1.60000e+00	7.173089e-05	
33	-1.65000e+00	7.025197e-05	
34	-1.70000e+00	6.877836e-05	
35	-1.75000e+00	6.731006e-05	
36	-1.80000e+00	6.584705e-05	
37	-1.85000e+00	6.438932e-05	
38	-1.90000e+00	6.293686e-05	
39	-1.95000e+00	6.148966e-05	
40	-2.00000e+00	6.004772e-05	
41	-2.05000e+00	5.861104e-05	
42	-2.10000e+00	5.717961e-05	
43	-2.15000e+00	5.575343e-05	
44	-2.20000e+00	5.433252e-05	
45	-2.25000e+00	5.291687e-05	
46	-2.30000e+00	5.150650e-05	
47	-2.35000e+00	5.010144e-05	
48	-2.40000e+00	4.870172e-05	
49	-2.45000e+00	4.730736e-05	
50	-2.50000e+00	4.591842e-05	
51	-2.55000e+00	4.453497e-05	
52	-2.60000e+00	4.315709e-05	
53	-2.65000e+00	4.178489e-05	
54	-2.70000e+00	4.041850e-05	

Index   v-sweep         rds             
--------------------------------------------------------------------------------
55	-2.75000e+00	3.905810e-05	
56	-2.80000e+00	3.770392e-05	
57	-2.85000e+00	3.635626e-05	
58	-2.90000e+00	3.501551e-05	
59	-2.95000e+00	3.368217e-05	
60	-3.00000e+00	3.235690e-05	
61	-3.05000e+00	3.104062e-05	
62	-3.10000e+00	2.973449e-05	
63	-3.15000e+00	2.844013e-05	
64	-3.20000e+00	2.715967e-05	
65	-3.25000e+00	2.589602e-05	
66	-3.30000e+00	2.465302e-05	
67	-3.35000e+00	2.343573e-05	
68	-3.40000e+00	2.225055e-05	
69	-3.45000e+00	2.110523e-05	
70	-3.50000e+00	2.000846e-05	
71	-3.55000e+00	1.896894e-05	
72	-3.60000e+00	1.799402e-05	
73	-3.65000e+00	1.708845e-05	
74	-3.70000e+00	1.625358e-05	
75	-3.75000e+00	1.548766e-05	
76	-3.80000e+00	1.478671e-05	
77	-3.85000e+00	1.414554e-05	
78	-3.90000e+00	1.355859e-05	
79	-3.95000e+00	1.302048e-05	
80	-4.00000e+00	1.252616e-05	
81	-4.05000e+00	1.207109e-05	
82	-4.10000e+00	1.165120e-05	
83	-4.15000e+00	1.126289e-05	
84	-4.20000e+00	1.090295e-05	
85	-4.25000e+00	1.056857e-05	
86	-4.30000e+00	1.025726e-05	
87	-4.35000e+00	9.966808e-06	
88	-4.40000e+00	9.695281e-06	
89	-4.45000e+00	9.440948e-06	
90	-4.50000e+00	9.202279e-06	
91	-4.55000e+00	8.977911e-06	
92	-4.60000e+00	8.766631e-06	
93	-4.65000e+00	8.567353e-06	
94	-4.70000e+00	8.379105e-06	
95	-4.75000e+00	8.201016e-06	
96	-4.80000e+00	8.032300e-06	
97	-4.85000e+00	7.872250e-06	
98	-4.90000e+00	7.720227e-06	
99	-4.95000e+00	7.575651e-06	
100	-5.00000e+00	7.437997e-06	
101	-5.05000e+00	7.306787e-06	
102	-5.10000e+00	7.181586e-06	
103	-5.15000e+00	7.061995e-06	
104	-5.20000e+00	6.947652e-06	
105	-5.25000e+00	6.838222e-06	
106	-5.30000e+00	6.733401e-06	
107	-5.35000e+00	6.632906e-06	
108	-5.40000e+00	6.536479e-06	
109	-5.45000e+00	6.443881e-06	
110	-5.50000e+00	6.354891e-06	
111	-5.55000e+00	6.269305e-06	
112	-5.60000e+00	6.186934e-06	

Index   v-sweep         rds             
--------------------------------------------------------------------------------
113	-5.65000e+00	6.107602e-06	
114	-5.70000e+00	6.031146e-06	
115	-5.75000e+00	5.957415e-06	
116	-5.80000e+00	5.886268e-06	
117	-5.85000e+00	5.817572e-06	
118	-5.90000e+00	5.751204e-06	
119	-5.95000e+00	5.687051e-06	
120	-6.00000e+00	5.625004e-06	
121	-6.05000e+00	5.564963e-06	
122	-6.10000e+00	5.506833e-06	
123	-6.15000e+00	5.450526e-06	
124	-6.20000e+00	5.395959e-06	
125	-6.25000e+00	5.343053e-06	
126	-6.30000e+00	5.291736e-06	
127	-6.35000e+00	5.241937e-06	
128	-6.40000e+00	5.193592e-06	
129	-6.45000e+00	5.146639e-06	
130	-6.50000e+00	5.101020e-06	
131	-6.55000e+00	5.056680e-06	
132	-6.60000e+00	5.013568e-06	
Reset re-loads circuit ***************************

Circuit: ***************************

Note: No ".plot", ".print", or ".fourier" lines; no simulations run
