
Note: Compatibility modes selected: hs

Warning: m=xx on .subckt line will override multiplier m hierarchy!


Circuit: ***************************

Doing analysis at TEMP = 25.000000 and TNOM = 25.000000


No. of Data Rows : 133
                          ***************************
                          DC transfer characteristic  Mon Jan  9 13:58:51  2023
--------------------------------------------------------------------------------
Index   v-sweep         rds             
--------------------------------------------------------------------------------
0	0.000000e+00	4.418980e-05	
1	-5.00000e-02	3.042440e-05	
2	-1.00000e-01	1.751597e-05	
3	-1.50000e-01	7.409988e-06	
4	-2.00000e-01	2.749686e-06	
5	-2.50000e-01	1.481010e-06	
6	-3.00000e-01	1.114740e-06	
7	-3.50000e-01	9.659868e-07	
8	-4.00000e-01	8.846203e-07	
9	-4.50000e-01	8.306321e-07	
10	-5.00000e-01	7.905142e-07	
11	-5.50000e-01	7.586733e-07	
12	-6.00000e-01	7.323727e-07	
13	-6.50000e-01	7.100828e-07	
14	-7.00000e-01	6.908560e-07	
15	-7.50000e-01	6.740574e-07	
16	-8.00000e-01	6.592361e-07	
17	-8.50000e-01	6.460575e-07	
18	-9.00000e-01	6.342645e-07	
19	-9.50000e-01	6.236552e-07	
20	-1.00000e+00	6.140669e-07	
21	-1.05000e+00	6.053672e-07	
22	-1.10000e+00	5.974462e-07	
23	-1.15000e+00	5.902122e-07	
24	-1.20000e+00	5.835874e-07	
25	-1.25000e+00	5.775059e-07	
26	-1.30000e+00	5.719110e-07	
27	-1.35000e+00	5.667535e-07	
28	-1.40000e+00	5.619911e-07	
29	-1.45000e+00	5.575864e-07	
30	-1.50000e+00	5.535068e-07	
31	-1.55000e+00	5.497237e-07	
32	-1.60000e+00	5.462114e-07	
33	-1.65000e+00	5.429475e-07	
34	-1.70000e+00	5.399117e-07	
35	-1.75000e+00	5.370860e-07	
36	-1.80000e+00	5.344542e-07	
37	-1.85000e+00	5.320017e-07	
38	-1.90000e+00	5.297154e-07	
39	-1.95000e+00	5.275833e-07	
40	-2.00000e+00	5.255947e-07	
41	-2.05000e+00	5.237398e-07	
42	-2.10000e+00	5.220095e-07	
43	-2.15000e+00	5.203958e-07	
44	-2.20000e+00	5.188911e-07	
45	-2.25000e+00	5.174886e-07	
46	-2.30000e+00	5.161820e-07	
47	-2.35000e+00	5.149656e-07	
48	-2.40000e+00	5.138339e-07	
49	-2.45000e+00	5.127822e-07	
50	-2.50000e+00	5.118057e-07	
51	-2.55000e+00	5.109003e-07	
52	-2.60000e+00	5.100621e-07	
53	-2.65000e+00	5.092874e-07	
54	-2.70000e+00	5.085730e-07	

Index   v-sweep         rds             
--------------------------------------------------------------------------------
55	-2.75000e+00	5.079156e-07	
56	-2.80000e+00	5.073123e-07	
57	-2.85000e+00	5.067604e-07	
58	-2.90000e+00	5.062574e-07	
59	-2.95000e+00	5.058008e-07	
60	-3.00000e+00	5.053884e-07	
61	-3.05000e+00	5.050182e-07	
62	-3.10000e+00	5.046882e-07	
63	-3.15000e+00	5.043965e-07	
64	-3.20000e+00	5.041415e-07	
65	-3.25000e+00	5.039214e-07	
66	-3.30000e+00	5.037348e-07	
67	-3.35000e+00	5.035803e-07	
68	-3.40000e+00	5.034564e-07	
69	-3.45000e+00	5.033619e-07	
70	-3.50000e+00	5.032957e-07	
71	-3.55000e+00	5.032565e-07	
72	-3.60000e+00	5.032433e-07	
73	-3.65000e+00	5.032550e-07	
74	-3.70000e+00	5.032908e-07	
75	-3.75000e+00	5.033497e-07	
76	-3.80000e+00	5.034309e-07	
77	-3.85000e+00	5.035335e-07	
78	-3.90000e+00	5.036568e-07	
79	-3.95000e+00	5.038001e-07	
80	-4.00000e+00	5.039626e-07	
81	-4.05000e+00	5.041438e-07	
82	-4.10000e+00	5.043429e-07	
83	-4.15000e+00	5.045595e-07	
84	-4.20000e+00	5.047929e-07	
85	-4.25000e+00	5.050426e-07	
86	-4.30000e+00	5.053082e-07	
87	-4.35000e+00	5.055891e-07	
88	-4.40000e+00	5.058849e-07	
89	-4.45000e+00	5.061952e-07	
90	-4.50000e+00	5.065196e-07	
91	-4.55000e+00	5.068576e-07	
92	-4.60000e+00	5.072090e-07	
93	-4.65000e+00	5.075733e-07	
94	-4.70000e+00	5.079503e-07	
95	-4.75000e+00	5.083396e-07	
96	-4.80000e+00	5.087409e-07	
97	-4.85000e+00	5.091540e-07	
98	-4.90000e+00	5.095786e-07	
99	-4.95000e+00	5.100144e-07	
100	-5.00000e+00	5.104612e-07	
101	-5.05000e+00	5.109187e-07	
102	-5.10000e+00	5.113867e-07	
103	-5.15000e+00	5.118651e-07	
104	-5.20000e+00	5.123537e-07	
105	-5.25000e+00	5.128521e-07	
106	-5.30000e+00	5.133604e-07	
107	-5.35000e+00	5.138782e-07	
108	-5.40000e+00	5.144055e-07	
109	-5.45000e+00	5.149420e-07	
110	-5.50000e+00	5.154877e-07	
111	-5.55000e+00	5.160424e-07	
112	-5.60000e+00	5.166059e-07	

Index   v-sweep         rds             
--------------------------------------------------------------------------------
113	-5.65000e+00	5.171782e-07	
114	-5.70000e+00	5.177592e-07	
115	-5.75000e+00	5.183486e-07	
116	-5.80000e+00	5.189464e-07	
117	-5.85000e+00	5.195526e-07	
118	-5.90000e+00	5.201670e-07	
119	-5.95000e+00	5.207894e-07	
120	-6.00000e+00	5.214199e-07	
121	-6.05000e+00	5.220584e-07	
122	-6.10000e+00	5.227047e-07	
123	-6.15000e+00	5.233588e-07	
124	-6.20000e+00	5.240207e-07	
125	-6.25000e+00	5.246901e-07	
126	-6.30000e+00	5.253672e-07	
127	-6.35000e+00	5.260518e-07	
128	-6.40000e+00	5.267438e-07	
129	-6.45000e+00	5.274433e-07	
130	-6.50000e+00	5.281501e-07	
131	-6.55000e+00	5.288642e-07	
132	-6.60000e+00	5.295856e-07	
Reset re-loads circuit ***************************

Circuit: ***************************

Doing analysis at TEMP = 25.000000 and TNOM = 25.000000


No. of Data Rows : 133
                          ***************************
                          DC transfer characteristic  Mon Jan  9 13:58:52  2023
--------------------------------------------------------------------------------
Index   v-sweep         rds             
--------------------------------------------------------------------------------
0	0.000000e+00	2.888415e-04	
1	-5.00000e-02	2.721162e-04	
2	-1.00000e-01	2.555900e-04	
3	-1.50000e-01	2.392610e-04	
4	-2.00000e-01	2.231271e-04	
5	-2.50000e-01	2.071871e-04	
6	-3.00000e-01	1.914400e-04	
7	-3.50000e-01	1.758858e-04	
8	-4.00000e-01	1.605261e-04	
9	-4.50000e-01	1.453648e-04	
10	-5.00000e-01	1.304103e-04	
11	-5.50000e-01	1.156791e-04	
12	-6.00000e-01	1.012036e-04	
13	-6.50000e-01	8.704689e-05	
14	-7.00000e-01	7.333503e-05	
15	-7.50000e-01	6.031501e-05	
16	-8.00000e-01	4.843315e-05	
17	-8.50000e-01	3.833199e-05	
18	-9.00000e-01	3.055673e-05	
19	-9.50000e-01	2.509742e-05	
20	-1.00000e+00	2.140607e-05	
21	-1.05000e+00	1.885213e-05	
22	-1.10000e+00	1.699096e-05	
23	-1.15000e+00	1.556211e-05	
24	-1.20000e+00	1.441870e-05	
25	-1.25000e+00	1.347515e-05	
26	-1.30000e+00	1.267870e-05	
27	-1.35000e+00	1.199484e-05	
28	-1.40000e+00	1.139980e-05	
29	-1.45000e+00	1.087648e-05	
30	-1.50000e+00	1.041216e-05	
31	-1.55000e+00	9.997101e-06	
32	-1.60000e+00	9.623692e-06	
33	-1.65000e+00	9.285859e-06	
34	-1.70000e+00	8.978689e-06	
35	-1.75000e+00	8.698156e-06	
36	-1.80000e+00	8.440923e-06	
37	-1.85000e+00	8.204195e-06	
38	-1.90000e+00	7.985614e-06	
39	-1.95000e+00	7.783176e-06	
40	-2.00000e+00	7.595161e-06	
41	-2.05000e+00	7.420088e-06	
42	-2.10000e+00	7.256675e-06	
43	-2.15000e+00	7.103803e-06	
44	-2.20000e+00	6.960493e-06	
45	-2.25000e+00	6.825884e-06	
46	-2.30000e+00	6.699215e-06	
47	-2.35000e+00	6.579812e-06	
48	-2.40000e+00	6.467076e-06	
49	-2.45000e+00	6.360471e-06	
50	-2.50000e+00	6.259518e-06	
51	-2.55000e+00	6.163786e-06	
52	-2.60000e+00	6.072887e-06	
53	-2.65000e+00	5.986470e-06	
54	-2.70000e+00	5.904218e-06	

Index   v-sweep         rds             
--------------------------------------------------------------------------------
55	-2.75000e+00	5.825843e-06	
56	-2.80000e+00	5.751083e-06	
57	-2.85000e+00	5.679698e-06	
58	-2.90000e+00	5.611470e-06	
59	-2.95000e+00	5.546200e-06	
60	-3.00000e+00	5.483703e-06	
61	-3.05000e+00	5.423810e-06	
62	-3.10000e+00	5.366368e-06	
63	-3.15000e+00	5.311231e-06	
64	-3.20000e+00	5.258269e-06	
65	-3.25000e+00	5.207359e-06	
66	-3.30000e+00	5.158387e-06	
67	-3.35000e+00	5.111249e-06	
68	-3.40000e+00	5.065846e-06	
69	-3.45000e+00	5.022088e-06	
70	-3.50000e+00	4.979891e-06	
71	-3.55000e+00	4.939174e-06	
72	-3.60000e+00	4.899866e-06	
73	-3.65000e+00	4.861896e-06	
74	-3.70000e+00	4.825200e-06	
75	-3.75000e+00	4.789718e-06	
76	-3.80000e+00	4.755394e-06	
77	-3.85000e+00	4.722175e-06	
78	-3.90000e+00	4.690009e-06	
79	-3.95000e+00	4.658852e-06	
80	-4.00000e+00	4.628659e-06	
81	-4.05000e+00	4.599387e-06	
82	-4.10000e+00	4.570999e-06	
83	-4.15000e+00	4.543457e-06	
84	-4.20000e+00	4.516727e-06	
85	-4.25000e+00	4.490776e-06	
86	-4.30000e+00	4.465572e-06	
87	-4.35000e+00	4.441087e-06	
88	-4.40000e+00	4.417293e-06	
89	-4.45000e+00	4.394163e-06	
90	-4.50000e+00	4.371674e-06	
91	-4.55000e+00	4.349800e-06	
92	-4.60000e+00	4.328521e-06	
93	-4.65000e+00	4.307814e-06	
94	-4.70000e+00	4.287661e-06	
95	-4.75000e+00	4.268041e-06	
96	-4.80000e+00	4.248938e-06	
97	-4.85000e+00	4.230333e-06	
98	-4.90000e+00	4.212210e-06	
99	-4.95000e+00	4.194555e-06	
100	-5.00000e+00	4.177352e-06	
101	-5.05000e+00	4.160587e-06	
102	-5.10000e+00	4.144247e-06	
103	-5.15000e+00	4.128320e-06	
104	-5.20000e+00	4.112793e-06	
105	-5.25000e+00	4.097655e-06	
106	-5.30000e+00	4.082896e-06	
107	-5.35000e+00	4.068503e-06	
108	-5.40000e+00	4.054468e-06	
109	-5.45000e+00	4.040782e-06	
110	-5.50000e+00	4.027434e-06	
111	-5.55000e+00	4.014417e-06	
112	-5.60000e+00	4.001723e-06	

Index   v-sweep         rds             
--------------------------------------------------------------------------------
113	-5.65000e+00	3.989342e-06	
114	-5.70000e+00	3.977269e-06	
115	-5.75000e+00	3.965496e-06	
116	-5.80000e+00	3.954015e-06	
117	-5.85000e+00	3.942821e-06	
118	-5.90000e+00	3.931907e-06	
119	-5.95000e+00	3.921267e-06	
120	-6.00000e+00	3.910895e-06	
121	-6.05000e+00	3.900786e-06	
122	-6.10000e+00	3.890934e-06	
123	-6.15000e+00	3.881335e-06	
124	-6.20000e+00	3.871984e-06	
125	-6.25000e+00	3.862876e-06	
126	-6.30000e+00	3.854005e-06	
127	-6.35000e+00	3.845370e-06	
128	-6.40000e+00	3.836964e-06	
129	-6.45000e+00	3.828784e-06	
130	-6.50000e+00	3.820826e-06	
131	-6.55000e+00	3.813086e-06	
132	-6.60000e+00	3.805562e-06	
Reset re-loads circuit ***************************

Circuit: ***************************

Doing analysis at TEMP = 25.000000 and TNOM = 25.000000


No. of Data Rows : 133
                          ***************************
                          DC transfer characteristic  Mon Jan  9 13:58:52  2023
--------------------------------------------------------------------------------
Index   v-sweep         rds             
--------------------------------------------------------------------------------
0	0.000000e+00	4.606166e-04	
1	-5.00000e-02	4.447779e-04	
2	-1.00000e-01	4.290980e-04	
3	-1.50000e-01	4.135749e-04	
4	-2.00000e-01	3.982071e-04	
5	-2.50000e-01	3.829929e-04	
6	-3.00000e-01	3.679306e-04	
7	-3.50000e-01	3.530188e-04	
8	-4.00000e-01	3.382559e-04	
9	-4.50000e-01	3.236404e-04	
10	-5.00000e-01	3.091709e-04	
11	-5.50000e-01	2.948460e-04	
12	-6.00000e-01	2.806646e-04	
13	-6.50000e-01	2.666255e-04	
14	-7.00000e-01	2.527278e-04	
15	-7.50000e-01	2.389708e-04	
16	-8.00000e-01	2.253542e-04	
17	-8.50000e-01	2.118781e-04	
18	-9.00000e-01	1.985433e-04	
19	-9.50000e-01	1.853516e-04	
20	-1.00000e+00	1.723067e-04	
21	-1.05000e+00	1.594147e-04	
22	-1.10000e+00	1.466862e-04	
23	-1.15000e+00	1.341387e-04	
24	-1.20000e+00	1.218024e-04	
25	-1.25000e+00	1.097283e-04	
26	-1.30000e+00	9.800264e-05	
27	-1.35000e+00	8.676692e-05	
28	-1.40000e+00	7.623475e-05	
29	-1.45000e+00	6.667983e-05	
30	-1.50000e+00	5.836055e-05	
31	-1.55000e+00	5.140166e-05	
32	-1.60000e+00	4.573649e-05	
33	-1.65000e+00	4.116580e-05	
34	-1.70000e+00	3.745842e-05	
35	-1.75000e+00	3.441314e-05	
36	-1.80000e+00	3.187483e-05	
37	-1.85000e+00	2.972908e-05	
38	-1.90000e+00	2.789207e-05	
39	-1.95000e+00	2.630182e-05	
40	-2.00000e+00	2.491179e-05	
41	-2.05000e+00	2.368644e-05	
42	-2.10000e+00	2.259815e-05	
43	-2.15000e+00	2.162519e-05	
44	-2.20000e+00	2.075019e-05	
45	-2.25000e+00	1.995909e-05	
46	-2.30000e+00	1.924043e-05	
47	-2.35000e+00	1.858473e-05	
48	-2.40000e+00	1.798409e-05	
49	-2.45000e+00	1.743190e-05	
50	-2.50000e+00	1.692255e-05	
51	-2.55000e+00	1.645127e-05	
52	-2.60000e+00	1.601397e-05	
53	-2.65000e+00	1.560713e-05	
54	-2.70000e+00	1.522769e-05	

Index   v-sweep         rds             
--------------------------------------------------------------------------------
55	-2.75000e+00	1.487301e-05	
56	-2.80000e+00	1.454074e-05	
57	-2.85000e+00	1.422885e-05	
58	-2.90000e+00	1.393553e-05	
59	-2.95000e+00	1.365919e-05	
60	-3.00000e+00	1.339840e-05	
61	-3.05000e+00	1.315191e-05	
62	-3.10000e+00	1.291859e-05	
63	-3.15000e+00	1.269740e-05	
64	-3.20000e+00	1.248745e-05	
65	-3.25000e+00	1.228791e-05	
66	-3.30000e+00	1.209803e-05	
67	-3.35000e+00	1.191713e-05	
68	-3.40000e+00	1.174460e-05	
69	-3.45000e+00	1.157988e-05	
70	-3.50000e+00	1.142246e-05	
71	-3.55000e+00	1.127186e-05	
72	-3.60000e+00	1.112767e-05	
73	-3.65000e+00	1.098949e-05	
74	-3.70000e+00	1.085696e-05	
75	-3.75000e+00	1.072973e-05	
76	-3.80000e+00	1.060752e-05	
77	-3.85000e+00	1.049002e-05	
78	-3.90000e+00	1.037698e-05	
79	-3.95000e+00	1.026815e-05	
80	-4.00000e+00	1.016331e-05	
81	-4.05000e+00	1.006224e-05	
82	-4.10000e+00	9.964756e-06	
83	-4.15000e+00	9.870665e-06	
84	-4.20000e+00	9.779801e-06	
85	-4.25000e+00	9.692004e-06	
86	-4.30000e+00	9.607125e-06	
87	-4.35000e+00	9.525025e-06	
88	-4.40000e+00	9.445573e-06	
89	-4.45000e+00	9.368648e-06	
90	-4.50000e+00	9.294133e-06	
91	-4.55000e+00	9.221922e-06	
92	-4.60000e+00	9.151913e-06	
93	-4.65000e+00	9.084011e-06	
94	-4.70000e+00	9.018125e-06	
95	-4.75000e+00	8.954172e-06	
96	-4.80000e+00	8.892070e-06	
97	-4.85000e+00	8.831746e-06	
98	-4.90000e+00	8.773128e-06	
99	-4.95000e+00	8.716148e-06	
100	-5.00000e+00	8.660744e-06	
101	-5.05000e+00	8.606856e-06	
102	-5.10000e+00	8.554426e-06	
103	-5.15000e+00	8.503401e-06	
104	-5.20000e+00	8.453730e-06	
105	-5.25000e+00	8.405365e-06	
106	-5.30000e+00	8.358260e-06	
107	-5.35000e+00	8.312372e-06	
108	-5.40000e+00	8.267661e-06	
109	-5.45000e+00	8.224086e-06	
110	-5.50000e+00	8.181611e-06	
111	-5.55000e+00	8.140200e-06	
112	-5.60000e+00	8.099821e-06	

Index   v-sweep         rds             
--------------------------------------------------------------------------------
113	-5.65000e+00	8.060442e-06	
114	-5.70000e+00	8.022033e-06	
115	-5.75000e+00	7.984564e-06	
116	-5.80000e+00	7.948009e-06	
117	-5.85000e+00	7.912342e-06	
118	-5.90000e+00	7.877538e-06	
119	-5.95000e+00	7.843574e-06	
120	-6.00000e+00	7.810427e-06	
121	-6.05000e+00	7.778075e-06	
122	-6.10000e+00	7.746499e-06	
123	-6.15000e+00	7.715680e-06	
124	-6.20000e+00	7.685598e-06	
125	-6.25000e+00	7.656236e-06	
126	-6.30000e+00	7.627577e-06	
127	-6.35000e+00	7.599606e-06	
128	-6.40000e+00	7.572306e-06	
129	-6.45000e+00	7.545664e-06	
130	-6.50000e+00	7.519664e-06	
131	-6.55000e+00	7.494294e-06	
132	-6.60000e+00	7.469541e-06	
Reset re-loads circuit ***************************

Circuit: ***************************

Doing analysis at TEMP = 25.000000 and TNOM = 25.000000


No. of Data Rows : 133
                          ***************************
                          DC transfer characteristic  Mon Jan  9 13:58:52  2023
--------------------------------------------------------------------------------
Index   v-sweep         rds             
--------------------------------------------------------------------------------
0	0.000000e+00	6.006254e-04	
1	-5.00000e-02	5.857308e-04	
2	-1.00000e-01	5.709669e-04	
3	-1.50000e-01	5.563322e-04	
4	-2.00000e-01	5.418257e-04	
5	-2.50000e-01	5.274461e-04	
6	-3.00000e-01	5.131921e-04	
7	-3.50000e-01	4.990626e-04	
8	-4.00000e-01	4.850564e-04	
9	-4.50000e-01	4.711723e-04	
10	-5.00000e-01	4.574091e-04	
11	-5.50000e-01	4.437658e-04	
12	-6.00000e-01	4.302412e-04	
13	-6.50000e-01	4.168342e-04	
14	-7.00000e-01	4.035438e-04	
15	-7.50000e-01	3.903687e-04	
16	-8.00000e-01	3.773081e-04	
17	-8.50000e-01	3.643609e-04	
18	-9.00000e-01	3.515261e-04	
19	-9.50000e-01	3.388028e-04	
20	-1.00000e+00	3.261900e-04	
21	-1.05000e+00	3.136870e-04	
22	-1.10000e+00	3.012929e-04	
23	-1.15000e+00	2.890070e-04	
24	-1.20000e+00	2.768286e-04	
25	-1.25000e+00	2.647573e-04	
26	-1.30000e+00	2.527927e-04	
27	-1.35000e+00	2.409346e-04	
28	-1.40000e+00	2.291832e-04	
29	-1.45000e+00	2.175391e-04	
30	-1.50000e+00	2.060032e-04	
31	-1.55000e+00	1.945775e-04	
32	-1.60000e+00	1.832651e-04	
33	-1.65000e+00	1.720710e-04	
34	-1.70000e+00	1.610028e-04	
35	-1.75000e+00	1.500729e-04	
36	-1.80000e+00	1.393005e-04	
37	-1.85000e+00	1.287164e-04	
38	-1.90000e+00	1.183693e-04	
39	-1.95000e+00	1.083346e-04	
40	-2.00000e+00	9.872176e-05	
41	-2.05000e+00	8.967305e-05	
42	-2.10000e+00	8.134219e-05	
43	-2.15000e+00	7.385309e-05	
44	-2.20000e+00	6.726146e-05	
45	-2.25000e+00	6.154566e-05	
46	-2.30000e+00	5.662762e-05	
47	-2.35000e+00	5.240326e-05	
48	-2.40000e+00	4.876596e-05	
49	-2.45000e+00	4.561897e-05	
50	-2.50000e+00	4.287975e-05	
51	-2.55000e+00	4.048005e-05	
52	-2.60000e+00	3.836419e-05	
53	-2.65000e+00	3.648701e-05	
54	-2.70000e+00	3.481182e-05	

Index   v-sweep         rds             
--------------------------------------------------------------------------------
55	-2.75000e+00	3.330871e-05	
56	-2.80000e+00	3.195317e-05	
57	-2.85000e+00	3.072498e-05	
58	-2.90000e+00	2.960735e-05	
59	-2.95000e+00	2.858626e-05	
60	-3.00000e+00	2.764993e-05	
61	-3.05000e+00	2.678837e-05	
62	-3.10000e+00	2.599309e-05	
63	-3.15000e+00	2.525683e-05	
64	-3.20000e+00	2.457333e-05	
65	-3.25000e+00	2.393718e-05	
66	-3.30000e+00	2.334368e-05	
67	-3.35000e+00	2.278872e-05	
68	-3.40000e+00	2.226871e-05	
69	-3.45000e+00	2.178048e-05	
70	-3.50000e+00	2.132124e-05	
71	-3.55000e+00	2.088850e-05	
72	-3.60000e+00	2.048006e-05	
73	-3.65000e+00	2.009395e-05	
74	-3.70000e+00	1.972840e-05	
75	-3.75000e+00	1.938184e-05	
76	-3.80000e+00	1.905283e-05	
77	-3.85000e+00	1.874009e-05	
78	-3.90000e+00	1.844246e-05	
79	-3.95000e+00	1.815888e-05	
80	-4.00000e+00	1.788839e-05	
81	-4.05000e+00	1.763010e-05	
82	-4.10000e+00	1.738324e-05	
83	-4.15000e+00	1.714706e-05	
84	-4.20000e+00	1.692089e-05	
85	-4.25000e+00	1.670411e-05	
86	-4.30000e+00	1.649617e-05	
87	-4.35000e+00	1.629654e-05	
88	-4.40000e+00	1.610474e-05	
89	-4.45000e+00	1.592032e-05	
90	-4.50000e+00	1.574287e-05	
91	-4.55000e+00	1.557201e-05	
92	-4.60000e+00	1.540739e-05	
93	-4.65000e+00	1.524867e-05	
94	-4.70000e+00	1.509554e-05	
95	-4.75000e+00	1.494773e-05	
96	-4.80000e+00	1.480497e-05	
97	-4.85000e+00	1.466701e-05	
98	-4.90000e+00	1.453360e-05	
99	-4.95000e+00	1.440455e-05	
100	-5.00000e+00	1.427963e-05	
101	-5.05000e+00	1.415867e-05	
102	-5.10000e+00	1.404148e-05	
103	-5.15000e+00	1.392789e-05	
104	-5.20000e+00	1.381775e-05	
105	-5.25000e+00	1.371090e-05	
106	-5.30000e+00	1.360720e-05	
107	-5.35000e+00	1.350653e-05	
108	-5.40000e+00	1.340875e-05	
109	-5.45000e+00	1.331376e-05	
110	-5.50000e+00	1.322144e-05	
111	-5.55000e+00	1.313168e-05	
112	-5.60000e+00	1.304438e-05	

Index   v-sweep         rds             
--------------------------------------------------------------------------------
113	-5.65000e+00	1.295946e-05	
114	-5.70000e+00	1.287682e-05	
115	-5.75000e+00	1.279639e-05	
116	-5.80000e+00	1.271807e-05	
117	-5.85000e+00	1.264180e-05	
118	-5.90000e+00	1.256751e-05	
119	-5.95000e+00	1.249512e-05	
120	-6.00000e+00	1.242458e-05	
121	-6.05000e+00	1.235582e-05	
122	-6.10000e+00	1.228878e-05	
123	-6.15000e+00	1.222342e-05	
124	-6.20000e+00	1.215968e-05	
125	-6.25000e+00	1.209751e-05	
126	-6.30000e+00	1.203686e-05	
127	-6.35000e+00	1.197769e-05	
128	-6.40000e+00	1.191997e-05	
129	-6.45000e+00	1.186363e-05	
130	-6.50000e+00	1.180866e-05	
131	-6.55000e+00	1.175501e-05	
132	-6.60000e+00	1.170265e-05	
Reset re-loads circuit ***************************

Circuit: ***************************

Doing analysis at TEMP = 25.000000 and TNOM = 25.000000


No. of Data Rows : 133
                          ***************************
                          DC transfer characteristic  Mon Jan  9 13:58:52  2023
--------------------------------------------------------------------------------
Index   v-sweep         rds             
--------------------------------------------------------------------------------
0	0.000000e+00	7.098950e-04	
1	-5.00000e-02	6.959165e-04	
2	-1.00000e-01	6.820478e-04	
3	-1.50000e-01	6.682878e-04	
4	-2.00000e-01	6.546356e-04	
5	-2.50000e-01	6.410903e-04	
6	-3.00000e-01	6.276510e-04	
7	-3.50000e-01	6.143167e-04	
8	-4.00000e-01	6.010866e-04	
9	-4.50000e-01	5.879598e-04	
10	-5.00000e-01	5.749353e-04	
11	-5.50000e-01	5.620124e-04	
12	-6.00000e-01	5.491900e-04	
13	-6.50000e-01	5.364674e-04	
14	-7.00000e-01	5.238438e-04	
15	-7.50000e-01	5.113182e-04	
16	-8.00000e-01	4.988898e-04	
17	-8.50000e-01	4.865578e-04	
18	-9.00000e-01	4.743214e-04	
19	-9.50000e-01	4.621798e-04	
20	-1.00000e+00	4.501321e-04	
21	-1.05000e+00	4.381777e-04	
22	-1.10000e+00	4.263157e-04	
23	-1.15000e+00	4.145453e-04	
24	-1.20000e+00	4.028659e-04	
25	-1.25000e+00	3.912767e-04	
26	-1.30000e+00	3.797769e-04	
27	-1.35000e+00	3.683660e-04	
28	-1.40000e+00	3.570432e-04	
29	-1.45000e+00	3.458078e-04	
30	-1.50000e+00	3.346592e-04	
31	-1.55000e+00	3.235969e-04	
32	-1.60000e+00	3.126201e-04	
33	-1.65000e+00	3.017285e-04	
34	-1.70000e+00	2.909215e-04	
35	-1.75000e+00	2.801986e-04	
36	-1.80000e+00	2.695594e-04	
37	-1.85000e+00	2.590036e-04	
38	-1.90000e+00	2.485309e-04	
39	-1.95000e+00	2.381411e-04	
40	-2.00000e+00	2.278342e-04	
41	-2.05000e+00	2.176103e-04	
42	-2.10000e+00	2.074694e-04	
43	-2.15000e+00	1.974122e-04	
44	-2.20000e+00	1.874391e-04	
45	-2.25000e+00	1.775514e-04	
46	-2.30000e+00	1.677508e-04	
47	-2.35000e+00	1.580405e-04	
48	-2.40000e+00	1.484269e-04	
49	-2.45000e+00	1.389226e-04	
50	-2.50000e+00	1.295531e-04	
51	-2.55000e+00	1.203671e-04	
52	-2.60000e+00	1.114460e-04	
53	-2.65000e+00	1.029068e-04	
54	-2.70000e+00	9.488485e-05	

Index   v-sweep         rds             
--------------------------------------------------------------------------------
55	-2.75000e+00	8.750011e-05	
56	-2.80000e+00	8.082602e-05	
57	-2.85000e+00	7.487810e-05	
58	-2.90000e+00	6.962372e-05	
59	-2.95000e+00	6.500103e-05	
60	-3.00000e+00	6.093641e-05	
61	-3.05000e+00	5.735590e-05	
62	-3.10000e+00	5.419141e-05	
63	-3.15000e+00	5.138305e-05	
64	-3.20000e+00	4.887953e-05	
65	-3.25000e+00	4.663747e-05	
66	-3.30000e+00	4.462044e-05	
67	-3.35000e+00	4.279789e-05	
68	-3.40000e+00	4.114420e-05	
69	-3.45000e+00	3.963780e-05	
70	-3.50000e+00	3.826046e-05	
71	-3.55000e+00	3.699676e-05	
72	-3.60000e+00	3.583353e-05	
73	-3.65000e+00	3.475953e-05	
74	-3.70000e+00	3.376506e-05	
75	-3.75000e+00	3.284177e-05	
76	-3.80000e+00	3.198243e-05	
77	-3.85000e+00	3.118071e-05	
78	-3.90000e+00	3.043110e-05	
79	-3.95000e+00	2.972874e-05	
80	-4.00000e+00	2.906938e-05	
81	-4.05000e+00	2.844922e-05	
82	-4.10000e+00	2.786493e-05	
83	-4.15000e+00	2.731351e-05	
84	-4.20000e+00	2.679230e-05	
85	-4.25000e+00	2.629892e-05	
86	-4.30000e+00	2.583121e-05	
87	-4.35000e+00	2.538726e-05	
88	-4.40000e+00	2.496531e-05	
89	-4.45000e+00	2.456379e-05	
90	-4.50000e+00	2.418127e-05	
91	-4.55000e+00	2.381644e-05	
92	-4.60000e+00	2.346813e-05	
93	-4.65000e+00	2.313524e-05	
94	-4.70000e+00	2.281679e-05	
95	-4.75000e+00	2.251187e-05	
96	-4.80000e+00	2.221965e-05	
97	-4.85000e+00	2.193935e-05	
98	-4.90000e+00	2.167028e-05	
99	-4.95000e+00	2.141178e-05	
100	-5.00000e+00	2.116324e-05	
101	-5.05000e+00	2.092412e-05	
102	-5.10000e+00	2.069388e-05	
103	-5.15000e+00	2.047206e-05	
104	-5.20000e+00	2.025821e-05	
105	-5.25000e+00	2.005191e-05	
106	-5.30000e+00	1.985278e-05	
107	-5.35000e+00	1.966045e-05	
108	-5.40000e+00	1.947458e-05	
109	-5.45000e+00	1.929488e-05	
110	-5.50000e+00	1.912103e-05	
111	-5.55000e+00	1.895276e-05	
112	-5.60000e+00	1.878982e-05	

Index   v-sweep         rds             
--------------------------------------------------------------------------------
113	-5.65000e+00	1.863195e-05	
114	-5.70000e+00	1.847895e-05	
115	-5.75000e+00	1.833058e-05	
116	-5.80000e+00	1.818665e-05	
117	-5.85000e+00	1.804698e-05	
118	-5.90000e+00	1.791137e-05	
119	-5.95000e+00	1.777967e-05	
120	-6.00000e+00	1.765171e-05	
121	-6.05000e+00	1.752734e-05	
122	-6.10000e+00	1.740643e-05	
123	-6.15000e+00	1.728884e-05	
124	-6.20000e+00	1.717445e-05	
125	-6.25000e+00	1.706313e-05	
126	-6.30000e+00	1.695478e-05	
127	-6.35000e+00	1.684928e-05	
128	-6.40000e+00	1.674653e-05	
129	-6.45000e+00	1.664645e-05	
130	-6.50000e+00	1.654894e-05	
131	-6.55000e+00	1.645391e-05	
132	-6.60000e+00	1.636129e-05	
Reset re-loads circuit ***************************

Circuit: ***************************

Doing analysis at TEMP = 25.000000 and TNOM = 25.000000


No. of Data Rows : 133
                          ***************************
                          DC transfer characteristic  Mon Jan  9 13:58:52  2023
--------------------------------------------------------------------------------
Index   v-sweep         rds             
--------------------------------------------------------------------------------
0	0.000000e+00	8.008636e-04	
1	-5.00000e-02	7.877055e-04	
2	-1.00000e-01	7.746412e-04	
3	-1.50000e-01	7.616701e-04	
4	-2.00000e-01	7.487914e-04	
5	-2.50000e-01	7.360044e-04	
6	-3.00000e-01	7.233084e-04	
7	-3.50000e-01	7.107025e-04	
8	-4.00000e-01	6.981863e-04	
9	-4.50000e-01	6.857588e-04	
10	-5.00000e-01	6.734195e-04	
11	-5.50000e-01	6.611676e-04	
12	-6.00000e-01	6.490025e-04	
13	-6.50000e-01	6.369234e-04	
14	-7.00000e-01	6.249297e-04	
15	-7.50000e-01	6.130207e-04	
16	-8.00000e-01	6.011958e-04	
17	-8.50000e-01	5.894543e-04	
18	-9.00000e-01	5.777956e-04	
19	-9.50000e-01	5.662189e-04	
20	-1.00000e+00	5.547237e-04	
21	-1.05000e+00	5.433092e-04	
22	-1.10000e+00	5.319750e-04	
23	-1.15000e+00	5.207203e-04	
24	-1.20000e+00	5.095446e-04	
25	-1.25000e+00	4.984472e-04	
26	-1.30000e+00	4.874276e-04	
27	-1.35000e+00	4.764850e-04	
28	-1.40000e+00	4.656191e-04	
29	-1.45000e+00	4.548291e-04	
30	-1.50000e+00	4.441145e-04	
31	-1.55000e+00	4.334747e-04	
32	-1.60000e+00	4.229092e-04	
33	-1.65000e+00	4.124175e-04	
34	-1.70000e+00	4.019989e-04	
35	-1.75000e+00	3.916530e-04	
36	-1.80000e+00	3.813793e-04	
37	-1.85000e+00	3.711772e-04	
38	-1.90000e+00	3.610462e-04	
39	-1.95000e+00	3.509858e-04	
40	-2.00000e+00	3.409956e-04	
41	-2.05000e+00	3.310751e-04	
42	-2.10000e+00	3.212238e-04	
43	-2.15000e+00	3.114411e-04	
44	-2.20000e+00	3.017267e-04	
45	-2.25000e+00	2.920801e-04	
46	-2.30000e+00	2.825007e-04	
47	-2.35000e+00	2.729880e-04	
48	-2.40000e+00	2.635415e-04	
49	-2.45000e+00	2.541603e-04	
50	-2.50000e+00	2.448436e-04	
51	-2.55000e+00	2.355904e-04	
52	-2.60000e+00	2.263990e-04	
53	-2.65000e+00	2.172675e-04	
54	-2.70000e+00	2.081929e-04	

Index   v-sweep         rds             
--------------------------------------------------------------------------------
55	-2.75000e+00	1.991712e-04	
56	-2.80000e+00	1.901966e-04	
57	-2.85000e+00	1.812612e-04	
58	-2.90000e+00	1.723552e-04	
59	-2.95000e+00	1.634675e-04	
60	-3.00000e+00	1.545894e-04	
61	-3.05000e+00	1.457220e-04	
62	-3.10000e+00	1.368890e-04	
63	-3.15000e+00	1.281507e-04	
64	-3.20000e+00	1.196106e-04	
65	-3.25000e+00	1.114047e-04	
66	-3.30000e+00	1.036712e-04	
67	-3.35000e+00	9.651809e-05	
68	-3.40000e+00	9.000387e-05	
69	-3.45000e+00	8.413749e-05	
70	-3.50000e+00	7.889076e-05	
71	-3.55000e+00	7.421368e-05	
72	-3.60000e+00	7.004695e-05	
73	-3.65000e+00	6.633033e-05	
74	-3.70000e+00	6.300717e-05	
75	-3.75000e+00	6.002654e-05	
76	-3.80000e+00	5.734375e-05	
77	-3.85000e+00	5.492019e-05	
78	-3.90000e+00	5.272274e-05	
79	-3.95000e+00	5.072309e-05	
80	-4.00000e+00	4.889708e-05	
81	-4.05000e+00	4.722405e-05	
82	-4.10000e+00	4.568630e-05	
83	-4.15000e+00	4.426863e-05	
84	-4.20000e+00	4.295794e-05	
85	-4.25000e+00	4.174289e-05	
86	-4.30000e+00	4.061365e-05	
87	-4.35000e+00	3.956165e-05	
88	-4.40000e+00	3.857940e-05	
89	-4.45000e+00	3.766032e-05	
90	-4.50000e+00	3.679862e-05	
91	-4.55000e+00	3.598918e-05	
92	-4.60000e+00	3.522746e-05	
93	-4.65000e+00	3.450944e-05	
94	-4.70000e+00	3.383151e-05	
95	-4.75000e+00	3.319046e-05	
96	-4.80000e+00	3.258340e-05	
97	-4.85000e+00	3.200774e-05	
98	-4.90000e+00	3.146112e-05	
99	-4.95000e+00	3.094145e-05	
100	-5.00000e+00	3.044679e-05	
101	-5.05000e+00	2.997541e-05	
102	-5.10000e+00	2.952572e-05	
103	-5.15000e+00	2.909628e-05	
104	-5.20000e+00	2.868577e-05	
105	-5.25000e+00	2.829298e-05	
106	-5.30000e+00	2.791680e-05	
107	-5.35000e+00	2.755621e-05	
108	-5.40000e+00	2.721028e-05	
109	-5.45000e+00	2.687814e-05	
110	-5.50000e+00	2.655899e-05	
111	-5.55000e+00	2.625209e-05	
112	-5.60000e+00	2.595677e-05	

Index   v-sweep         rds             
--------------------------------------------------------------------------------
113	-5.65000e+00	2.567239e-05	
114	-5.70000e+00	2.539835e-05	
115	-5.75000e+00	2.513412e-05	
116	-5.80000e+00	2.487919e-05	
117	-5.85000e+00	2.463308e-05	
118	-5.90000e+00	2.439534e-05	
119	-5.95000e+00	2.416557e-05	
120	-6.00000e+00	2.394338e-05	
121	-6.05000e+00	2.372841e-05	
122	-6.10000e+00	2.352031e-05	
123	-6.15000e+00	2.331878e-05	
124	-6.20000e+00	2.312350e-05	
125	-6.25000e+00	2.293422e-05	
126	-6.30000e+00	2.275065e-05	
127	-6.35000e+00	2.257256e-05	
128	-6.40000e+00	2.239970e-05	
129	-6.45000e+00	2.223187e-05	
130	-6.50000e+00	2.206886e-05	
131	-6.55000e+00	2.191046e-05	
132	-6.60000e+00	2.175650e-05	
Reset re-loads circuit ***************************

Circuit: ***************************

Note: No ".plot", ".print", or ".fourier" lines; no simulations run
