
Note: Compatibility modes selected: hs

Warning: m=xx on .subckt line will override multiplier m hierarchy!


Circuit: ***************************

Doing analysis at TEMP = -40.000000 and TNOM = -40.000000


No. of Data Rows : 133
                          ***************************
                          DC transfer characteristic  Mon Jan  9 13:58:52  2023
--------------------------------------------------------------------------------
Index   v-sweep         rds             
--------------------------------------------------------------------------------
0	0.000000e+00	1.256133e-07	
1	-5.00000e-02	3.956091e-08	
2	-1.00000e-01	5.687478e-09	
3	-1.50000e-01	1.198187e-09	
4	-2.00000e-01	4.644005e-10	
5	-2.50000e-01	2.630561e-10	
6	-3.00000e-01	1.847599e-10	
7	-3.50000e-01	1.463725e-10	
8	-4.00000e-01	1.242597e-10	
9	-4.50000e-01	1.099668e-10	
10	-5.00000e-01	9.992394e-11	
11	-5.50000e-01	9.242180e-11	
12	-6.00000e-01	8.655680e-11	
13	-6.50000e-01	8.181159e-11	
14	-7.00000e-01	7.786994e-11	
15	-7.50000e-01	7.452765e-11	
16	-8.00000e-01	7.164678e-11	
17	-8.50000e-01	6.913043e-11	
18	-9.00000e-01	6.690833e-11	
19	-9.50000e-01	6.492804e-11	
20	-1.00000e+00	6.314950e-11	
21	-1.05000e+00	6.154148e-11	
22	-1.10000e+00	6.007919e-11	
23	-1.15000e+00	5.874266e-11	
24	-1.20000e+00	5.751557e-11	
25	-1.25000e+00	5.638442e-11	
26	-1.30000e+00	5.533794e-11	
27	-1.35000e+00	5.436663e-11	
28	-1.40000e+00	5.346241e-11	
29	-1.45000e+00	5.261835e-11	
30	-1.50000e+00	5.182848e-11	
31	-1.55000e+00	5.108761e-11	
32	-1.60000e+00	5.039123e-11	
33	-1.65000e+00	4.973535e-11	
34	-1.70000e+00	4.911648e-11	
35	-1.75000e+00	4.853153e-11	
36	-1.80000e+00	4.797772e-11	
37	-1.85000e+00	4.745262e-11	
38	-1.90000e+00	4.695400e-11	
39	-1.95000e+00	4.647991e-11	
40	-2.00000e+00	4.602854e-11	
41	-2.05000e+00	4.559829e-11	
42	-2.10000e+00	4.518771e-11	
43	-2.15000e+00	4.479545e-11	
44	-2.20000e+00	4.442032e-11	
45	-2.25000e+00	4.406121e-11	
46	-2.30000e+00	4.371711e-11	
47	-2.35000e+00	4.338709e-11	
48	-2.40000e+00	4.307030e-11	
49	-2.45000e+00	4.276597e-11	
50	-2.50000e+00	4.247336e-11	
51	-2.55000e+00	4.219182e-11	
52	-2.60000e+00	4.192072e-11	
53	-2.65000e+00	4.165950e-11	
54	-2.70000e+00	4.140762e-11	

Index   v-sweep         rds             
--------------------------------------------------------------------------------
55	-2.75000e+00	4.116460e-11	
56	-2.80000e+00	4.092997e-11	
57	-2.85000e+00	4.070331e-11	
58	-2.90000e+00	4.048422e-11	
59	-2.95000e+00	4.027233e-11	
60	-3.00000e+00	4.006729e-11	
61	-3.05000e+00	3.986878e-11	
62	-3.10000e+00	3.967649e-11	
63	-3.15000e+00	3.949013e-11	
64	-3.20000e+00	3.930944e-11	
65	-3.25000e+00	3.913416e-11	
66	-3.30000e+00	3.896406e-11	
67	-3.35000e+00	3.879892e-11	
68	-3.40000e+00	3.863852e-11	
69	-3.45000e+00	3.848266e-11	
70	-3.50000e+00	3.833117e-11	
71	-3.55000e+00	3.818385e-11	
72	-3.60000e+00	3.804055e-11	
73	-3.65000e+00	3.790110e-11	
74	-3.70000e+00	3.776537e-11	
75	-3.75000e+00	3.763319e-11	
76	-3.80000e+00	3.750445e-11	
77	-3.85000e+00	3.737901e-11	
78	-3.90000e+00	3.725676e-11	
79	-3.95000e+00	3.713757e-11	
80	-4.00000e+00	3.702135e-11	
81	-4.05000e+00	3.690798e-11	
82	-4.10000e+00	3.679737e-11	
83	-4.15000e+00	3.668942e-11	
84	-4.20000e+00	3.658405e-11	
85	-4.25000e+00	3.648117e-11	
86	-4.30000e+00	3.638070e-11	
87	-4.35000e+00	3.628257e-11	
88	-4.40000e+00	3.618669e-11	
89	-4.45000e+00	3.609300e-11	
90	-4.50000e+00	3.600144e-11	
91	-4.55000e+00	3.591194e-11	
92	-4.60000e+00	3.582443e-11	
93	-4.65000e+00	3.573887e-11	
94	-4.70000e+00	3.565519e-11	
95	-4.75000e+00	3.557334e-11	
96	-4.80000e+00	3.549327e-11	
97	-4.85000e+00	3.541493e-11	
98	-4.90000e+00	3.533828e-11	
99	-4.95000e+00	3.526326e-11	
100	-5.00000e+00	3.518985e-11	
101	-5.05000e+00	3.511798e-11	
102	-5.10000e+00	3.504764e-11	
103	-5.15000e+00	3.497877e-11	
104	-5.20000e+00	3.491134e-11	
105	-5.25000e+00	3.484532e-11	
106	-5.30000e+00	3.478067e-11	
107	-5.35000e+00	3.471736e-11	
108	-5.40000e+00	3.465536e-11	
109	-5.45000e+00	3.459464e-11	
110	-5.50000e+00	3.453517e-11	
111	-5.55000e+00	3.447692e-11	
112	-5.60000e+00	3.441987e-11	

Index   v-sweep         rds             
--------------------------------------------------------------------------------
113	-5.65000e+00	3.436398e-11	
114	-5.70000e+00	3.430924e-11	
115	-5.75000e+00	3.425562e-11	
116	-5.80000e+00	3.420310e-11	
117	-5.85000e+00	3.415165e-11	
118	-5.90000e+00	3.410125e-11	
119	-5.95000e+00	3.405189e-11	
120	-6.00000e+00	3.400353e-11	
121	-6.05000e+00	3.395617e-11	
122	-6.10000e+00	3.390978e-11	
123	-6.15000e+00	3.386435e-11	
124	-6.20000e+00	3.381985e-11	
125	-6.25000e+00	3.377627e-11	
126	-6.30000e+00	3.373359e-11	
127	-6.35000e+00	3.369180e-11	
128	-6.40000e+00	3.365088e-11	
129	-6.45000e+00	3.361081e-11	
130	-6.50000e+00	3.357158e-11	
131	-6.55000e+00	3.353317e-11	
132	-6.60000e+00	3.349558e-11	
Reset re-loads circuit ***************************

Circuit: ***************************

Doing analysis at TEMP = -40.000000 and TNOM = -40.000000


No. of Data Rows : 133
                          ***************************
                          DC transfer characteristic  Mon Jan  9 13:58:52  2023
--------------------------------------------------------------------------------
Index   v-sweep         rds             
--------------------------------------------------------------------------------
0	0.000000e+00	2.190257e-06	
1	-5.00000e-02	2.041136e-06	
2	-1.00000e-01	1.892242e-06	
3	-1.50000e-01	1.743587e-06	
4	-2.00000e-01	1.595189e-06	
5	-2.50000e-01	1.447079e-06	
6	-3.00000e-01	1.299309e-06	
7	-3.50000e-01	1.151965e-06	
8	-4.00000e-01	1.005205e-06	
9	-4.50000e-01	8.593278e-07	
10	-5.00000e-01	7.149224e-07	
11	-5.50000e-01	5.732096e-07	
12	-6.00000e-01	4.367634e-07	
13	-6.50000e-01	3.107771e-07	
14	-7.00000e-01	2.039605e-07	
15	-7.50000e-01	1.253967e-07	
16	-8.00000e-01	7.655120e-08	
17	-8.50000e-01	4.963888e-08	
18	-9.00000e-01	3.526661e-08	
19	-9.50000e-01	2.728405e-08	
20	-1.00000e+00	2.252484e-08	
21	-1.05000e+00	1.946416e-08	
22	-1.10000e+00	1.735668e-08	
23	-1.15000e+00	1.582028e-08	
24	-1.20000e+00	1.464743e-08	
25	-1.25000e+00	1.371872e-08	
26	-1.30000e+00	1.296167e-08	
27	-1.35000e+00	1.233009e-08	
28	-1.40000e+00	1.179328e-08	
29	-1.45000e+00	1.133005e-08	
30	-1.50000e+00	1.092527e-08	
31	-1.55000e+00	1.056785e-08	
32	-1.60000e+00	1.024943e-08	
33	-1.65000e+00	9.963619e-09	
34	-1.70000e+00	9.705375e-09	
35	-1.75000e+00	9.470703e-09	
36	-1.80000e+00	9.256371e-09	
37	-1.85000e+00	9.059736e-09	
38	-1.90000e+00	8.878610e-09	
39	-1.95000e+00	8.711163e-09	
40	-2.00000e+00	8.555853e-09	
41	-2.05000e+00	8.411369e-09	
42	-2.10000e+00	8.276586e-09	
43	-2.15000e+00	8.150535e-09	
44	-2.20000e+00	8.032376e-09	
45	-2.25000e+00	7.921375e-09	
46	-2.30000e+00	7.816888e-09	
47	-2.35000e+00	7.718349e-09	
48	-2.40000e+00	7.625255e-09	
49	-2.45000e+00	7.537161e-09	
50	-2.50000e+00	7.453670e-09	
51	-2.55000e+00	7.374426e-09	
52	-2.60000e+00	7.299108e-09	
53	-2.65000e+00	7.227430e-09	
54	-2.70000e+00	7.159132e-09	

Index   v-sweep         rds             
--------------------------------------------------------------------------------
55	-2.75000e+00	7.093978e-09	
56	-2.80000e+00	7.031753e-09	
57	-2.85000e+00	6.972265e-09	
58	-2.90000e+00	6.915334e-09	
59	-2.95000e+00	6.860799e-09	
60	-3.00000e+00	6.808510e-09	
61	-3.05000e+00	6.758332e-09	
62	-3.10000e+00	6.710138e-09	
63	-3.15000e+00	6.663812e-09	
64	-3.20000e+00	6.619248e-09	
65	-3.25000e+00	6.576347e-09	
66	-3.30000e+00	6.535018e-09	
67	-3.35000e+00	6.495175e-09	
68	-3.40000e+00	6.456740e-09	
69	-3.45000e+00	6.419638e-09	
70	-3.50000e+00	6.383803e-09	
71	-3.55000e+00	6.349171e-09	
72	-3.60000e+00	6.315681e-09	
73	-3.65000e+00	6.283279e-09	
74	-3.70000e+00	6.251913e-09	
75	-3.75000e+00	6.221533e-09	
76	-3.80000e+00	6.192095e-09	
77	-3.85000e+00	6.163555e-09	
78	-3.90000e+00	6.135873e-09	
79	-3.95000e+00	6.109011e-09	
80	-4.00000e+00	6.082935e-09	
81	-4.05000e+00	6.057609e-09	
82	-4.10000e+00	6.033004e-09	
83	-4.15000e+00	6.009088e-09	
84	-4.20000e+00	5.985834e-09	
85	-4.25000e+00	5.963215e-09	
86	-4.30000e+00	5.941206e-09	
87	-4.35000e+00	5.919783e-09	
88	-4.40000e+00	5.898924e-09	
89	-4.45000e+00	5.878607e-09	
90	-4.50000e+00	5.858813e-09	
91	-4.55000e+00	5.839521e-09	
92	-4.60000e+00	5.820715e-09	
93	-4.65000e+00	5.802376e-09	
94	-4.70000e+00	5.784488e-09	
95	-4.75000e+00	5.767036e-09	
96	-4.80000e+00	5.750004e-09	
97	-4.85000e+00	5.733379e-09	
98	-4.90000e+00	5.717147e-09	
99	-4.95000e+00	5.701296e-09	
100	-5.00000e+00	5.685813e-09	
101	-5.05000e+00	5.670686e-09	
102	-5.10000e+00	5.655905e-09	
103	-5.15000e+00	5.641458e-09	
104	-5.20000e+00	5.627337e-09	
105	-5.25000e+00	5.613531e-09	
106	-5.30000e+00	5.600030e-09	
107	-5.35000e+00	5.586827e-09	
108	-5.40000e+00	5.573912e-09	
109	-5.45000e+00	5.561278e-09	
110	-5.50000e+00	5.548917e-09	
111	-5.55000e+00	5.536822e-09	
112	-5.60000e+00	5.524985e-09	

Index   v-sweep         rds             
--------------------------------------------------------------------------------
113	-5.65000e+00	5.513400e-09	
114	-5.70000e+00	5.502059e-09	
115	-5.75000e+00	5.490958e-09	
116	-5.80000e+00	5.480090e-09	
117	-5.85000e+00	5.469448e-09	
118	-5.90000e+00	5.459029e-09	
119	-5.95000e+00	5.448825e-09	
120	-6.00000e+00	5.438833e-09	
121	-6.05000e+00	5.429048e-09	
122	-6.10000e+00	5.419464e-09	
123	-6.15000e+00	5.410076e-09	
124	-6.20000e+00	5.400882e-09	
125	-6.25000e+00	5.391876e-09	
126	-6.30000e+00	5.383054e-09	
127	-6.35000e+00	5.374413e-09	
128	-6.40000e+00	5.365948e-09	
129	-6.45000e+00	5.357656e-09	
130	-6.50000e+00	5.349534e-09	
131	-6.55000e+00	5.341578e-09	
132	-6.60000e+00	5.333784e-09	
Reset re-loads circuit ***************************

Circuit: ***************************

Doing analysis at TEMP = -40.000000 and TNOM = -40.000000


No. of Data Rows : 133
                          ***************************
                          DC transfer characteristic  Mon Jan  9 13:58:52  2023
--------------------------------------------------------------------------------
Index   v-sweep         rds             
--------------------------------------------------------------------------------
0	0.000000e+00	4.008767e-06	
1	-5.00000e-02	3.867678e-06	
2	-1.00000e-01	3.726756e-06	
3	-1.50000e-01	3.586003e-06	
4	-2.00000e-01	3.445418e-06	
5	-2.50000e-01	3.305002e-06	
6	-3.00000e-01	3.164757e-06	
7	-3.50000e-01	3.024684e-06	
8	-4.00000e-01	2.884786e-06	
9	-4.50000e-01	2.745064e-06	
10	-5.00000e-01	2.605523e-06	
11	-5.50000e-01	2.466167e-06	
12	-6.00000e-01	2.327004e-06	
13	-6.50000e-01	2.188042e-06	
14	-7.00000e-01	2.049295e-06	
15	-7.50000e-01	1.910781e-06	
16	-8.00000e-01	1.772527e-06	
17	-8.50000e-01	1.634573e-06	
18	-9.00000e-01	1.496978e-06	
19	-9.50000e-01	1.359834e-06	
20	-1.00000e+00	1.223287e-06	
21	-1.05000e+00	1.087573e-06	
22	-1.10000e+00	9.530844e-07	
23	-1.15000e+00	8.204872e-07	
24	-1.20000e+00	6.909223e-07	
25	-1.25000e+00	5.663188e-07	
26	-1.30000e+00	4.497667e-07	
27	-1.35000e+00	3.456223e-07	
28	-1.40000e+00	2.586357e-07	
29	-1.45000e+00	1.917771e-07	
30	-1.50000e+00	1.443262e-07	
31	-1.55000e+00	1.124118e-07	
32	-1.60000e+00	9.131672e-08	
33	-1.65000e+00	7.718095e-08	
34	-1.70000e+00	6.739932e-08	
35	-1.75000e+00	6.036078e-08	
36	-1.80000e+00	5.509576e-08	
37	-1.85000e+00	5.101727e-08	
38	-1.90000e+00	4.776167e-08	
39	-1.95000e+00	4.509680e-08	
40	-2.00000e+00	4.286950e-08	
41	-2.05000e+00	4.097548e-08	
42	-2.10000e+00	3.934152e-08	
43	-2.15000e+00	3.791481e-08	
44	-2.20000e+00	3.665626e-08	
45	-2.25000e+00	3.553633e-08	
46	-2.30000e+00	3.453223e-08	
47	-2.35000e+00	3.362607e-08	
48	-2.40000e+00	3.280359e-08	
49	-2.45000e+00	3.205325e-08	
50	-2.50000e+00	3.136563e-08	
51	-2.55000e+00	3.073291e-08	
52	-2.60000e+00	3.014856e-08	
53	-2.65000e+00	2.960710e-08	
54	-2.70000e+00	2.910384e-08	

Index   v-sweep         rds             
--------------------------------------------------------------------------------
55	-2.75000e+00	2.863479e-08	
56	-2.80000e+00	2.819649e-08	
57	-2.85000e+00	2.778596e-08	
58	-2.90000e+00	2.740059e-08	
59	-2.95000e+00	2.703811e-08	
60	-3.00000e+00	2.669649e-08	
61	-3.05000e+00	2.637397e-08	
62	-3.10000e+00	2.606897e-08	
63	-3.15000e+00	2.578007e-08	
64	-3.20000e+00	2.550603e-08	
65	-3.25000e+00	2.524572e-08	
66	-3.30000e+00	2.499811e-08	
67	-3.35000e+00	2.476230e-08	
68	-3.40000e+00	2.453746e-08	
69	-3.45000e+00	2.432283e-08	
70	-3.50000e+00	2.411773e-08	
71	-3.55000e+00	2.392154e-08	
72	-3.60000e+00	2.373368e-08	
73	-3.65000e+00	2.355363e-08	
74	-3.70000e+00	2.338091e-08	
75	-3.75000e+00	2.321509e-08	
76	-3.80000e+00	2.305576e-08	
77	-3.85000e+00	2.290254e-08	
78	-3.90000e+00	2.275508e-08	
79	-3.95000e+00	2.261308e-08	
80	-4.00000e+00	2.247622e-08	
81	-4.05000e+00	2.234424e-08	
82	-4.10000e+00	2.221688e-08	
83	-4.15000e+00	2.209391e-08	
84	-4.20000e+00	2.197509e-08	
85	-4.25000e+00	2.186022e-08	
86	-4.30000e+00	2.174911e-08	
87	-4.35000e+00	2.164158e-08	
88	-4.40000e+00	2.153746e-08	
89	-4.45000e+00	2.143659e-08	
90	-4.50000e+00	2.133882e-08	
91	-4.55000e+00	2.124402e-08	
92	-4.60000e+00	2.115204e-08	
93	-4.65000e+00	2.106276e-08	
94	-4.70000e+00	2.097608e-08	
95	-4.75000e+00	2.089188e-08	
96	-4.80000e+00	2.081005e-08	
97	-4.85000e+00	2.073050e-08	
98	-4.90000e+00	2.065314e-08	
99	-4.95000e+00	2.057788e-08	
100	-5.00000e+00	2.050464e-08	
101	-5.05000e+00	2.043333e-08	
102	-5.10000e+00	2.036389e-08	
103	-5.15000e+00	2.029625e-08	
104	-5.20000e+00	2.023034e-08	
105	-5.25000e+00	2.016609e-08	
106	-5.30000e+00	2.010345e-08	
107	-5.35000e+00	2.004235e-08	
108	-5.40000e+00	1.998276e-08	
109	-5.45000e+00	1.992460e-08	
110	-5.50000e+00	1.986785e-08	
111	-5.55000e+00	1.981244e-08	
112	-5.60000e+00	1.975834e-08	

Index   v-sweep         rds             
--------------------------------------------------------------------------------
113	-5.65000e+00	1.970550e-08	
114	-5.70000e+00	1.965388e-08	
115	-5.75000e+00	1.960345e-08	
116	-5.80000e+00	1.955417e-08	
117	-5.85000e+00	1.950600e-08	
118	-5.90000e+00	1.945891e-08	
119	-5.95000e+00	1.941287e-08	
120	-6.00000e+00	1.936785e-08	
121	-6.05000e+00	1.932381e-08	
122	-6.10000e+00	1.928074e-08	
123	-6.15000e+00	1.923860e-08	
124	-6.20000e+00	1.919738e-08	
125	-6.25000e+00	1.915703e-08	
126	-6.30000e+00	1.911755e-08	
127	-6.35000e+00	1.907891e-08	
128	-6.40000e+00	1.904109e-08	
129	-6.45000e+00	1.900406e-08	
130	-6.50000e+00	1.896781e-08	
131	-6.55000e+00	1.893232e-08	
132	-6.60000e+00	1.889757e-08	
Reset re-loads circuit ***************************

Circuit: ***************************

Doing analysis at TEMP = -40.000000 and TNOM = -40.000000


No. of Data Rows : 133
                          ***************************
                          DC transfer characteristic  Mon Jan  9 13:58:53  2023
--------------------------------------------------------------------------------
Index   v-sweep         rds             
--------------------------------------------------------------------------------
0	0.000000e+00	5.601284e-06	
1	-5.00000e-02	5.469111e-06	
2	-1.00000e-01	5.337078e-06	
3	-1.50000e-01	5.205184e-06	
4	-2.00000e-01	5.073429e-06	
5	-2.50000e-01	4.941813e-06	
6	-3.00000e-01	4.810337e-06	
7	-3.50000e-01	4.679000e-06	
8	-4.00000e-01	4.547802e-06	
9	-4.50000e-01	4.416744e-06	
10	-5.00000e-01	4.285825e-06	
11	-5.50000e-01	4.155046e-06	
12	-6.00000e-01	4.024408e-06	
13	-6.50000e-01	3.893911e-06	
14	-7.00000e-01	3.763555e-06	
15	-7.50000e-01	3.633342e-06	
16	-8.00000e-01	3.503272e-06	
17	-8.50000e-01	3.373346e-06	
18	-9.00000e-01	3.243567e-06	
19	-9.50000e-01	3.113936e-06	
20	-1.00000e+00	2.984456e-06	
21	-1.05000e+00	2.855131e-06	
22	-1.10000e+00	2.725964e-06	
23	-1.15000e+00	2.596962e-06	
24	-1.20000e+00	2.468131e-06	
25	-1.25000e+00	2.339482e-06	
26	-1.30000e+00	2.211028e-06	
27	-1.35000e+00	2.082786e-06	
28	-1.40000e+00	1.954781e-06	
29	-1.45000e+00	1.827045e-06	
30	-1.50000e+00	1.699627e-06	
31	-1.55000e+00	1.572593e-06	
32	-1.60000e+00	1.446044e-06	
33	-1.65000e+00	1.320125e-06	
34	-1.70000e+00	1.195057e-06	
35	-1.75000e+00	1.071180e-06	
36	-1.80000e+00	9.490157e-07	
37	-1.85000e+00	8.293758e-07	
38	-1.90000e+00	7.134993e-07	
39	-1.95000e+00	6.032093e-07	
40	-2.00000e+00	5.009857e-07	
41	-2.05000e+00	4.097510e-07	
42	-2.10000e+00	3.321737e-07	
43	-2.15000e+00	2.696473e-07	
44	-2.20000e+00	2.216392e-07	
45	-2.25000e+00	1.859918e-07	
46	-2.30000e+00	1.598810e-07	
47	-2.35000e+00	1.406712e-07	
48	-2.40000e+00	1.262999e-07	
49	-2.45000e+00	1.152982e-07	
50	-2.50000e+00	1.066653e-07	
51	-2.55000e+00	9.972898e-08	
52	-2.60000e+00	9.403540e-08	
53	-2.65000e+00	8.927382e-08	
54	-2.70000e+00	8.522719e-08	

Index   v-sweep         rds             
--------------------------------------------------------------------------------
55	-2.75000e+00	8.174062e-08	
56	-2.80000e+00	7.870112e-08	
57	-2.85000e+00	7.602456e-08	
58	-2.90000e+00	7.364702e-08	
59	-2.95000e+00	7.151911e-08	
60	-3.00000e+00	6.960201e-08	
61	-3.05000e+00	6.786474e-08	
62	-3.10000e+00	6.628230e-08	
63	-3.15000e+00	6.483423e-08	
64	-3.20000e+00	6.350361e-08	
65	-3.25000e+00	6.227634e-08	
66	-3.30000e+00	6.114052e-08	
67	-3.35000e+00	6.008608e-08	
68	-3.40000e+00	5.910439e-08	
69	-3.45000e+00	5.818803e-08	
70	-3.50000e+00	5.733058e-08	
71	-3.55000e+00	5.652644e-08	
72	-3.60000e+00	5.577072e-08	
73	-3.65000e+00	5.505912e-08	
74	-3.70000e+00	5.438784e-08	
75	-3.75000e+00	5.375352e-08	
76	-3.80000e+00	5.315314e-08	
77	-3.85000e+00	5.258403e-08	
78	-3.90000e+00	5.204379e-08	
79	-3.95000e+00	5.153027e-08	
80	-4.00000e+00	5.104151e-08	
81	-4.05000e+00	5.057576e-08	
82	-4.10000e+00	5.013142e-08	
83	-4.15000e+00	4.970704e-08	
84	-4.20000e+00	4.930130e-08	
85	-4.25000e+00	4.891300e-08	
86	-4.30000e+00	4.854102e-08	
87	-4.35000e+00	4.818437e-08	
88	-4.40000e+00	4.784210e-08	
89	-4.45000e+00	4.751337e-08	
90	-4.50000e+00	4.719738e-08	
91	-4.55000e+00	4.689342e-08	
92	-4.60000e+00	4.660080e-08	
93	-4.65000e+00	4.631890e-08	
94	-4.70000e+00	4.604714e-08	
95	-4.75000e+00	4.578499e-08	
96	-4.80000e+00	4.553194e-08	
97	-4.85000e+00	4.528754e-08	
98	-4.90000e+00	4.505134e-08	
99	-4.95000e+00	4.482295e-08	
100	-5.00000e+00	4.460197e-08	
101	-5.05000e+00	4.438807e-08	
102	-5.10000e+00	4.418090e-08	
103	-5.15000e+00	4.398015e-08	
104	-5.20000e+00	4.378554e-08	
105	-5.25000e+00	4.359678e-08	
106	-5.30000e+00	4.341363e-08	
107	-5.35000e+00	4.323583e-08	
108	-5.40000e+00	4.306316e-08	
109	-5.45000e+00	4.289540e-08	
110	-5.50000e+00	4.273235e-08	
111	-5.55000e+00	4.257382e-08	
112	-5.60000e+00	4.241962e-08	

Index   v-sweep         rds             
--------------------------------------------------------------------------------
113	-5.65000e+00	4.226958e-08	
114	-5.70000e+00	4.212355e-08	
115	-5.75000e+00	4.198136e-08	
116	-5.80000e+00	4.184288e-08	
117	-5.85000e+00	4.170796e-08	
118	-5.90000e+00	4.157647e-08	
119	-5.95000e+00	4.144830e-08	
120	-6.00000e+00	4.132331e-08	
121	-6.05000e+00	4.120141e-08	
122	-6.10000e+00	4.108247e-08	
123	-6.15000e+00	4.096641e-08	
124	-6.20000e+00	4.085313e-08	
125	-6.25000e+00	4.074253e-08	
126	-6.30000e+00	4.063452e-08	
127	-6.35000e+00	4.052903e-08	
128	-6.40000e+00	4.042598e-08	
129	-6.45000e+00	4.032528e-08	
130	-6.50000e+00	4.022687e-08	
131	-6.55000e+00	4.013068e-08	
132	-6.60000e+00	4.003664e-08	
Reset re-loads circuit ***************************

Circuit: ***************************

Doing analysis at TEMP = -40.000000 and TNOM = -40.000000


No. of Data Rows : 133
                          ***************************
                          DC transfer characteristic  Mon Jan  9 13:58:53  2023
--------------------------------------------------------------------------------
Index   v-sweep         rds             
--------------------------------------------------------------------------------
0	0.000000e+00	7.004952e-06	
1	-5.00000e-02	6.881230e-06	
2	-1.00000e-01	6.757626e-06	
3	-1.50000e-01	6.634141e-06	
4	-2.00000e-01	6.510773e-06	
5	-2.50000e-01	6.387524e-06	
6	-3.00000e-01	6.264392e-06	
7	-3.50000e-01	6.141379e-06	
8	-4.00000e-01	6.018483e-06	
9	-4.50000e-01	5.895705e-06	
10	-5.00000e-01	5.773044e-06	
11	-5.50000e-01	5.650501e-06	
12	-6.00000e-01	5.528076e-06	
13	-6.50000e-01	5.405768e-06	
14	-7.00000e-01	5.283577e-06	
15	-7.50000e-01	5.161505e-06	
16	-8.00000e-01	5.039549e-06	
17	-8.50000e-01	4.917712e-06	
18	-9.00000e-01	4.795992e-06	
19	-9.50000e-01	4.674390e-06	
20	-1.00000e+00	4.552906e-06	
21	-1.05000e+00	4.431541e-06	
22	-1.10000e+00	4.310294e-06	
23	-1.15000e+00	4.189167e-06	
24	-1.20000e+00	4.068159e-06	
25	-1.25000e+00	3.947272e-06	
26	-1.30000e+00	3.826506e-06	
27	-1.35000e+00	3.705862e-06	
28	-1.40000e+00	3.585342e-06	
29	-1.45000e+00	3.464946e-06	
30	-1.50000e+00	3.344676e-06	
31	-1.55000e+00	3.224535e-06	
32	-1.60000e+00	3.104526e-06	
33	-1.65000e+00	2.984651e-06	
34	-1.70000e+00	2.864915e-06	
35	-1.75000e+00	2.745324e-06	
36	-1.80000e+00	2.625882e-06	
37	-1.85000e+00	2.506601e-06	
38	-1.90000e+00	2.387489e-06	
39	-1.95000e+00	2.268561e-06	
40	-2.00000e+00	2.149836e-06	
41	-2.05000e+00	2.031338e-06	
42	-2.10000e+00	1.913099e-06	
43	-2.15000e+00	1.795166e-06	
44	-2.20000e+00	1.677598e-06	
45	-2.25000e+00	1.560481e-06	
46	-2.30000e+00	1.443935e-06	
47	-2.35000e+00	1.328132e-06	
48	-2.40000e+00	1.213319e-06	
49	-2.45000e+00	1.099856e-06	
50	-2.50000e+00	9.882661e-07	
51	-2.55000e+00	8.793055e-07	
52	-2.60000e+00	7.740421e-07	
53	-2.65000e+00	6.739203e-07	
54	-2.70000e+00	5.807466e-07	

Index   v-sweep         rds             
--------------------------------------------------------------------------------
55	-2.75000e+00	4.965079e-07	
56	-2.80000e+00	4.229661e-07	
57	-2.85000e+00	3.611318e-07	
58	-2.90000e+00	3.109088e-07	
59	-2.95000e+00	2.711580e-07	
60	-3.00000e+00	2.401259e-07	
61	-3.05000e+00	2.159421e-07	
62	-3.10000e+00	1.969500e-07	
63	-3.15000e+00	1.818315e-07	
64	-3.20000e+00	1.695989e-07	
65	-3.25000e+00	1.595336e-07	
66	-3.30000e+00	1.511180e-07	
67	-3.35000e+00	1.439782e-07	
68	-3.40000e+00	1.378415e-07	
69	-3.45000e+00	1.325064e-07	
70	-3.50000e+00	1.278216e-07	
71	-3.55000e+00	1.236718e-07	
72	-3.60000e+00	1.199675e-07	
73	-3.65000e+00	1.166387e-07	
74	-3.70000e+00	1.136292e-07	
75	-3.75000e+00	1.108941e-07	
76	-3.80000e+00	1.083963e-07	
77	-3.85000e+00	1.061056e-07	
78	-3.90000e+00	1.039967e-07	
79	-3.95000e+00	1.020483e-07	
80	-4.00000e+00	1.002423e-07	
81	-4.05000e+00	9.856348e-08	
82	-4.10000e+00	9.699860e-08	
83	-4.15000e+00	9.553628e-08	
84	-4.20000e+00	9.416661e-08	
85	-4.25000e+00	9.288097e-08	
86	-4.30000e+00	9.167175e-08	
87	-4.35000e+00	9.053228e-08	
88	-4.40000e+00	8.945664e-08	
89	-4.45000e+00	8.843956e-08	
90	-4.50000e+00	8.747635e-08	
91	-4.55000e+00	8.656283e-08	
92	-4.60000e+00	8.569521e-08	
93	-4.65000e+00	8.487010e-08	
94	-4.70000e+00	8.408445e-08	
95	-4.75000e+00	8.333547e-08	
96	-4.80000e+00	8.262065e-08	
97	-4.85000e+00	8.193770e-08	
98	-4.90000e+00	8.128452e-08	
99	-4.95000e+00	8.065921e-08	
100	-5.00000e+00	8.006002e-08	
101	-5.05000e+00	7.948534e-08	
102	-5.10000e+00	7.893370e-08	
103	-5.15000e+00	7.840374e-08	
104	-5.20000e+00	7.789421e-08	
105	-5.25000e+00	7.740394e-08	
106	-5.30000e+00	7.693187e-08	
107	-5.35000e+00	7.647701e-08	
108	-5.40000e+00	7.603842e-08	
109	-5.45000e+00	7.561525e-08	
110	-5.50000e+00	7.520672e-08	
111	-5.55000e+00	7.481206e-08	
112	-5.60000e+00	7.443059e-08	

Index   v-sweep         rds             
--------------------------------------------------------------------------------
113	-5.65000e+00	7.406167e-08	
114	-5.70000e+00	7.370468e-08	
115	-5.75000e+00	7.335906e-08	
116	-5.80000e+00	7.302427e-08	
117	-5.85000e+00	7.269982e-08	
118	-5.90000e+00	7.238525e-08	
119	-5.95000e+00	7.208010e-08	
120	-6.00000e+00	7.178398e-08	
121	-6.05000e+00	7.149648e-08	
122	-6.10000e+00	7.121724e-08	
123	-6.15000e+00	7.094592e-08	
124	-6.20000e+00	7.068218e-08	
125	-6.25000e+00	7.042573e-08	
126	-6.30000e+00	7.017626e-08	
127	-6.35000e+00	6.993351e-08	
128	-6.40000e+00	6.969722e-08	
129	-6.45000e+00	6.946713e-08	
130	-6.50000e+00	6.924301e-08	
131	-6.55000e+00	6.902464e-08	
132	-6.60000e+00	6.881181e-08	
Reset re-loads circuit ***************************

Circuit: ***************************

Doing analysis at TEMP = -40.000000 and TNOM = -40.000000


No. of Data Rows : 133
                          ***************************
                          DC transfer characteristic  Mon Jan  9 13:58:53  2023
--------------------------------------------------------------------------------
Index   v-sweep         rds             
--------------------------------------------------------------------------------
0	0.000000e+00	8.231988e-06	
1	-5.00000e-02	8.116146e-06	
2	-1.00000e-01	8.000407e-06	
3	-1.50000e-01	7.884768e-06	
4	-2.00000e-01	7.769231e-06	
5	-2.50000e-01	7.653796e-06	
6	-3.00000e-01	7.538461e-06	
7	-3.50000e-01	7.423228e-06	
8	-4.00000e-01	7.308095e-06	
9	-4.50000e-01	7.193063e-06	
10	-5.00000e-01	7.078132e-06	
11	-5.50000e-01	6.963302e-06	
12	-6.00000e-01	6.848572e-06	
13	-6.50000e-01	6.733943e-06	
14	-7.00000e-01	6.619414e-06	
15	-7.50000e-01	6.504985e-06	
16	-8.00000e-01	6.390656e-06	
17	-8.50000e-01	6.276428e-06	
18	-9.00000e-01	6.162300e-06	
19	-9.50000e-01	6.048272e-06	
20	-1.00000e+00	5.934344e-06	
21	-1.05000e+00	5.820516e-06	
22	-1.10000e+00	5.706788e-06	
23	-1.15000e+00	5.593160e-06	
24	-1.20000e+00	5.479632e-06	
25	-1.25000e+00	5.366204e-06	
26	-1.30000e+00	5.252877e-06	
27	-1.35000e+00	5.139649e-06	
28	-1.40000e+00	5.026522e-06	
29	-1.45000e+00	4.913496e-06	
30	-1.50000e+00	4.800570e-06	
31	-1.55000e+00	4.687745e-06	
32	-1.60000e+00	4.575022e-06	
33	-1.65000e+00	4.462400e-06	
34	-1.70000e+00	4.349880e-06	
35	-1.75000e+00	4.237462e-06	
36	-1.80000e+00	4.125148e-06	
37	-1.85000e+00	4.012937e-06	
38	-1.90000e+00	3.900831e-06	
39	-1.95000e+00	3.788831e-06	
40	-2.00000e+00	3.676937e-06	
41	-2.05000e+00	3.565151e-06	
42	-2.10000e+00	3.453475e-06	
43	-2.15000e+00	3.341912e-06	
44	-2.20000e+00	3.230462e-06	
45	-2.25000e+00	3.119130e-06	
46	-2.30000e+00	3.007919e-06	
47	-2.35000e+00	2.896833e-06	
48	-2.40000e+00	2.785878e-06	
49	-2.45000e+00	2.675061e-06	
50	-2.50000e+00	2.564390e-06	
51	-2.55000e+00	2.453876e-06	
52	-2.60000e+00	2.343531e-06	
53	-2.65000e+00	2.233374e-06	
54	-2.70000e+00	2.123427e-06	

Index   v-sweep         rds             
--------------------------------------------------------------------------------
55	-2.75000e+00	2.013717e-06	
56	-2.80000e+00	1.904284e-06	
57	-2.85000e+00	1.795176e-06	
58	-2.90000e+00	1.686462e-06	
59	-2.95000e+00	1.578231e-06	
60	-3.00000e+00	1.470608e-06	
61	-3.05000e+00	1.363764e-06	
62	-3.10000e+00	1.257937e-06	
63	-3.15000e+00	1.153456e-06	
64	-3.20000e+00	1.050781e-06	
65	-3.25000e+00	9.505409e-07	
66	-3.30000e+00	8.535815e-07	
67	-3.35000e+00	7.609913e-07	
68	-3.40000e+00	6.740815e-07	
69	-3.45000e+00	5.942724e-07	
70	-3.50000e+00	5.228662e-07	
71	-3.55000e+00	4.607474e-07	
72	-3.60000e+00	4.081391e-07	
73	-3.65000e+00	3.645519e-07	
74	-3.70000e+00	3.289525e-07	
75	-3.75000e+00	3.000475e-07	
76	-3.80000e+00	2.765402e-07	
77	-3.85000e+00	2.572862e-07	
78	-3.90000e+00	2.413510e-07	
79	-3.95000e+00	2.280045e-07	
80	-4.00000e+00	2.166898e-07	
81	-4.05000e+00	2.069854e-07	
82	-4.10000e+00	1.985724e-07	
83	-4.15000e+00	1.912078e-07	
84	-4.20000e+00	1.847047e-07	
85	-4.25000e+00	1.789178e-07	
86	-4.30000e+00	1.737327e-07	
87	-4.35000e+00	1.690581e-07	
88	-4.40000e+00	1.648207e-07	
89	-4.45000e+00	1.609606e-07	
90	-4.50000e+00	1.574286e-07	
91	-4.55000e+00	1.541838e-07	
92	-4.60000e+00	1.511920e-07	
93	-4.65000e+00	1.484241e-07	
94	-4.70000e+00	1.458556e-07	
95	-4.75000e+00	1.434655e-07	
96	-4.80000e+00	1.412354e-07	
97	-4.85000e+00	1.391498e-07	
98	-4.90000e+00	1.371948e-07	
99	-4.95000e+00	1.353585e-07	
100	-5.00000e+00	1.336303e-07	
101	-5.05000e+00	1.320009e-07	
102	-5.10000e+00	1.304619e-07	
103	-5.15000e+00	1.290060e-07	
104	-5.20000e+00	1.276266e-07	
105	-5.25000e+00	1.263178e-07	
106	-5.30000e+00	1.250744e-07	
107	-5.35000e+00	1.238914e-07	
108	-5.40000e+00	1.227647e-07	
109	-5.45000e+00	1.216902e-07	
110	-5.50000e+00	1.206645e-07	
111	-5.55000e+00	1.196842e-07	
112	-5.60000e+00	1.187464e-07	

Index   v-sweep         rds             
--------------------------------------------------------------------------------
113	-5.65000e+00	1.178485e-07	
114	-5.70000e+00	1.169878e-07	
115	-5.75000e+00	1.161622e-07	
116	-5.80000e+00	1.153696e-07	
117	-5.85000e+00	1.146079e-07	
118	-5.90000e+00	1.138755e-07	
119	-5.95000e+00	1.131707e-07	
120	-6.00000e+00	1.124920e-07	
121	-6.05000e+00	1.118378e-07	
122	-6.10000e+00	1.112071e-07	
123	-6.15000e+00	1.105984e-07	
124	-6.20000e+00	1.100106e-07	
125	-6.25000e+00	1.094428e-07	
126	-6.30000e+00	1.088939e-07	
127	-6.35000e+00	1.083630e-07	
128	-6.40000e+00	1.078492e-07	
129	-6.45000e+00	1.073517e-07	
130	-6.50000e+00	1.068698e-07	
131	-6.55000e+00	1.064027e-07	
132	-6.60000e+00	1.059498e-07	
Reset re-loads circuit ***************************

Circuit: ***************************

Note: No ".plot", ".print", or ".fourier" lines; no simulations run
