
Note: Compatibility modes selected: hs

Warning: m=xx on .subckt line will override multiplier m hierarchy!


Circuit: ***************************

Doing analysis at TEMP = -40.000000 and TNOM = -40.000000


No. of Data Rows : 133
                          ***************************
                          DC transfer characteristic  Mon Jan  9 13:58:52  2023
--------------------------------------------------------------------------------
Index   v-sweep         rds             
--------------------------------------------------------------------------------
0	0.000000e+00	5.317870e-05	
1	-5.00000e-02	2.108278e-05	
2	-1.00000e-01	4.773045e-06	
3	-1.50000e-01	1.873039e-06	
4	-2.00000e-01	1.361417e-06	
5	-2.50000e-01	1.197488e-06	
6	-3.00000e-01	1.117044e-06	
7	-3.50000e-01	1.067182e-06	
8	-4.00000e-01	1.032274e-06	
9	-4.50000e-01	1.006180e-06	
10	-5.00000e-01	9.859311e-07	
11	-5.50000e-01	9.698637e-07	
12	-6.00000e-01	9.569412e-07	
13	-6.50000e-01	9.464689e-07	
14	-7.00000e-01	9.379554e-07	
15	-7.50000e-01	9.310394e-07	
16	-8.00000e-01	9.254467e-07	
17	-8.50000e-01	9.209648e-07	
18	-9.00000e-01	9.174255e-07	
19	-9.50000e-01	9.146936e-07	
20	-1.00000e+00	9.126591e-07	
21	-1.05000e+00	9.112316e-07	
22	-1.10000e+00	9.103356e-07	
23	-1.15000e+00	9.099079e-07	
24	-1.20000e+00	9.098952e-07	
25	-1.25000e+00	9.102518e-07	
26	-1.30000e+00	9.109388e-07	
27	-1.35000e+00	9.119225e-07	
28	-1.40000e+00	9.131739e-07	
29	-1.45000e+00	9.146675e-07	
30	-1.50000e+00	9.163810e-07	
31	-1.55000e+00	9.182950e-07	
32	-1.60000e+00	9.203923e-07	
33	-1.65000e+00	9.226575e-07	
34	-1.70000e+00	9.250771e-07	
35	-1.75000e+00	9.276389e-07	
36	-1.80000e+00	9.303323e-07	
37	-1.85000e+00	9.331475e-07	
38	-1.90000e+00	9.360756e-07	
39	-1.95000e+00	9.391089e-07	
40	-2.00000e+00	9.422403e-07	
41	-2.05000e+00	9.454632e-07	
42	-2.10000e+00	9.487718e-07	
43	-2.15000e+00	9.521607e-07	
44	-2.20000e+00	9.556251e-07	
45	-2.25000e+00	9.591605e-07	
46	-2.30000e+00	9.627628e-07	
47	-2.35000e+00	9.664283e-07	
48	-2.40000e+00	9.701535e-07	
49	-2.45000e+00	9.739352e-07	
50	-2.50000e+00	9.777705e-07	
51	-2.55000e+00	9.816568e-07	
52	-2.60000e+00	9.855914e-07	
53	-2.65000e+00	9.895721e-07	
54	-2.70000e+00	9.935968e-07	

Index   v-sweep         rds             
--------------------------------------------------------------------------------
55	-2.75000e+00	9.976633e-07	
56	-2.80000e+00	1.001770e-06	
57	-2.85000e+00	1.005915e-06	
58	-2.90000e+00	1.010097e-06	
59	-2.95000e+00	1.014314e-06	
60	-3.00000e+00	1.018564e-06	
61	-3.05000e+00	1.022847e-06	
62	-3.10000e+00	1.027162e-06	
63	-3.15000e+00	1.031506e-06	
64	-3.20000e+00	1.035880e-06	
65	-3.25000e+00	1.040281e-06	
66	-3.30000e+00	1.044710e-06	
67	-3.35000e+00	1.049165e-06	
68	-3.40000e+00	1.053645e-06	
69	-3.45000e+00	1.058149e-06	
70	-3.50000e+00	1.062677e-06	
71	-3.55000e+00	1.067228e-06	
72	-3.60000e+00	1.071802e-06	
73	-3.65000e+00	1.076398e-06	
74	-3.70000e+00	1.081014e-06	
75	-3.75000e+00	1.085651e-06	
76	-3.80000e+00	1.090309e-06	
77	-3.85000e+00	1.094985e-06	
78	-3.90000e+00	1.099681e-06	
79	-3.95000e+00	1.104396e-06	
80	-4.00000e+00	1.109129e-06	
81	-4.05000e+00	1.113880e-06	
82	-4.10000e+00	1.118649e-06	
83	-4.15000e+00	1.123434e-06	
84	-4.20000e+00	1.128237e-06	
85	-4.25000e+00	1.133056e-06	
86	-4.30000e+00	1.137891e-06	
87	-4.35000e+00	1.142742e-06	
88	-4.40000e+00	1.147609e-06	
89	-4.45000e+00	1.152492e-06	
90	-4.50000e+00	1.157389e-06	
91	-4.55000e+00	1.162302e-06	
92	-4.60000e+00	1.167230e-06	
93	-4.65000e+00	1.172172e-06	
94	-4.70000e+00	1.177129e-06	
95	-4.75000e+00	1.182101e-06	
96	-4.80000e+00	1.187086e-06	
97	-4.85000e+00	1.192086e-06	
98	-4.90000e+00	1.197099e-06	
99	-4.95000e+00	1.202126e-06	
100	-5.00000e+00	1.207167e-06	
101	-5.05000e+00	1.212222e-06	
102	-5.10000e+00	1.217290e-06	
103	-5.15000e+00	1.222372e-06	
104	-5.20000e+00	1.227467e-06	
105	-5.25000e+00	1.232575e-06	
106	-5.30000e+00	1.237697e-06	
107	-5.35000e+00	1.242831e-06	
108	-5.40000e+00	1.247979e-06	
109	-5.45000e+00	1.253140e-06	
110	-5.50000e+00	1.258314e-06	
111	-5.55000e+00	1.263501e-06	
112	-5.60000e+00	1.268701e-06	

Index   v-sweep         rds             
--------------------------------------------------------------------------------
113	-5.65000e+00	1.273914e-06	
114	-5.70000e+00	1.279140e-06	
115	-5.75000e+00	1.284379e-06	
116	-5.80000e+00	1.289631e-06	
117	-5.85000e+00	1.294896e-06	
118	-5.90000e+00	1.300173e-06	
119	-5.95000e+00	1.305464e-06	
120	-6.00000e+00	1.310768e-06	
121	-6.05000e+00	1.316084e-06	
122	-6.10000e+00	1.321414e-06	
123	-6.15000e+00	1.326757e-06	
124	-6.20000e+00	1.332112e-06	
125	-6.25000e+00	1.337481e-06	
126	-6.30000e+00	1.342863e-06	
127	-6.35000e+00	1.348258e-06	
128	-6.40000e+00	1.353666e-06	
129	-6.45000e+00	1.359087e-06	
130	-6.50000e+00	1.364521e-06	
131	-6.55000e+00	1.369969e-06	
132	-6.60000e+00	1.375430e-06	
Reset re-loads circuit ***************************

Circuit: ***************************

Doing analysis at TEMP = -40.000000 and TNOM = -40.000000


No. of Data Rows : 133
                          ***************************
                          DC transfer characteristic  Mon Jan  9 13:58:52  2023
--------------------------------------------------------------------------------
Index   v-sweep         rds             
--------------------------------------------------------------------------------
0	0.000000e+00	8.233117e-04	
1	-5.00000e-02	7.666385e-04	
2	-1.00000e-01	7.111871e-04	
3	-1.50000e-01	6.569299e-04	
4	-2.00000e-01	6.038420e-04	
5	-2.50000e-01	5.519011e-04	
6	-3.00000e-01	5.010896e-04	
7	-3.50000e-01	4.513972e-04	
8	-4.00000e-01	4.028262e-04	
9	-4.50000e-01	3.554029e-04	
10	-5.00000e-01	3.092009e-04	
11	-5.50000e-01	2.643915e-04	
12	-6.00000e-01	2.213541e-04	
13	-6.50000e-01	1.808900e-04	
14	-7.00000e-01	1.444930e-04	
15	-7.50000e-01	1.141985e-04	
16	-8.00000e-01	9.131358e-05	
17	-8.50000e-01	7.518682e-05	
18	-9.00000e-01	6.395470e-05	
19	-9.50000e-01	5.590346e-05	
20	-1.00000e+00	4.989711e-05	
21	-1.05000e+00	4.524958e-05	
22	-1.10000e+00	4.154448e-05	
23	-1.15000e+00	3.851928e-05	
24	-1.20000e+00	3.600121e-05	
25	-1.25000e+00	3.387187e-05	
26	-1.30000e+00	3.204739e-05	
27	-1.35000e+00	3.046656e-05	
28	-1.40000e+00	2.908364e-05	
29	-1.45000e+00	2.786372e-05	
30	-1.50000e+00	2.677968e-05	
31	-1.55000e+00	2.581012e-05	
32	-1.60000e+00	2.493792e-05	
33	-1.65000e+00	2.414922e-05	
34	-1.70000e+00	2.343268e-05	
35	-1.75000e+00	2.277891e-05	
36	-1.80000e+00	2.218010e-05	
37	-1.85000e+00	2.162968e-05	
38	-1.90000e+00	2.112208e-05	
39	-1.95000e+00	2.065256e-05	
40	-2.00000e+00	2.021706e-05	
41	-2.05000e+00	1.981205e-05	
42	-2.10000e+00	1.943450e-05	
43	-2.15000e+00	1.908176e-05	
44	-2.20000e+00	1.875150e-05	
45	-2.25000e+00	1.844169e-05	
46	-2.30000e+00	1.815052e-05	
47	-2.35000e+00	1.787640e-05	
48	-2.40000e+00	1.761791e-05	
49	-2.45000e+00	1.737377e-05	
50	-2.50000e+00	1.714287e-05	
51	-2.55000e+00	1.692417e-05	
52	-2.60000e+00	1.671677e-05	
53	-2.65000e+00	1.651984e-05	
54	-2.70000e+00	1.633262e-05	

Index   v-sweep         rds             
--------------------------------------------------------------------------------
55	-2.75000e+00	1.615445e-05	
56	-2.80000e+00	1.598469e-05	
57	-2.85000e+00	1.582280e-05	
58	-2.90000e+00	1.566826e-05	
59	-2.95000e+00	1.552059e-05	
60	-3.00000e+00	1.537937e-05	
61	-3.05000e+00	1.524420e-05	
62	-3.10000e+00	1.511471e-05	
63	-3.15000e+00	1.499058e-05	
64	-3.20000e+00	1.487148e-05	
65	-3.25000e+00	1.475715e-05	
66	-3.30000e+00	1.464730e-05	
67	-3.35000e+00	1.454170e-05	
68	-3.40000e+00	1.444011e-05	
69	-3.45000e+00	1.434233e-05	
70	-3.50000e+00	1.424816e-05	
71	-3.55000e+00	1.415741e-05	
72	-3.60000e+00	1.406991e-05	
73	-3.65000e+00	1.398550e-05	
74	-3.70000e+00	1.390403e-05	
75	-3.75000e+00	1.382537e-05	
76	-3.80000e+00	1.374937e-05	
77	-3.85000e+00	1.367593e-05	
78	-3.90000e+00	1.360491e-05	
79	-3.95000e+00	1.353622e-05	
80	-4.00000e+00	1.346974e-05	
81	-4.05000e+00	1.340540e-05	
82	-4.10000e+00	1.334308e-05	
83	-4.15000e+00	1.328272e-05	
84	-4.20000e+00	1.322423e-05	
85	-4.25000e+00	1.316753e-05	
86	-4.30000e+00	1.311255e-05	
87	-4.35000e+00	1.305923e-05	
88	-4.40000e+00	1.300750e-05	
89	-4.45000e+00	1.295730e-05	
90	-4.50000e+00	1.290858e-05	
91	-4.55000e+00	1.286127e-05	
92	-4.60000e+00	1.281534e-05	
93	-4.65000e+00	1.277073e-05	
94	-4.70000e+00	1.272740e-05	
95	-4.75000e+00	1.268529e-05	
96	-4.80000e+00	1.264438e-05	
97	-4.85000e+00	1.260463e-05	
98	-4.90000e+00	1.256599e-05	
99	-4.95000e+00	1.252843e-05	
100	-5.00000e+00	1.249191e-05	
101	-5.05000e+00	1.245642e-05	
102	-5.10000e+00	1.242191e-05	
103	-5.15000e+00	1.238836e-05	
104	-5.20000e+00	1.235574e-05	
105	-5.25000e+00	1.232402e-05	
106	-5.30000e+00	1.229319e-05	
107	-5.35000e+00	1.226321e-05	
108	-5.40000e+00	1.223407e-05	
109	-5.45000e+00	1.220574e-05	
110	-5.50000e+00	1.217821e-05	
111	-5.55000e+00	1.215145e-05	
112	-5.60000e+00	1.212545e-05	

Index   v-sweep         rds             
--------------------------------------------------------------------------------
113	-5.65000e+00	1.210018e-05	
114	-5.70000e+00	1.207564e-05	
115	-5.75000e+00	1.205181e-05	
116	-5.80000e+00	1.202867e-05	
117	-5.85000e+00	1.200621e-05	
118	-5.90000e+00	1.198441e-05	
119	-5.95000e+00	1.196326e-05	
120	-6.00000e+00	1.194275e-05	
121	-6.05000e+00	1.192286e-05	
122	-6.10000e+00	1.190359e-05	
123	-6.15000e+00	1.188492e-05	
124	-6.20000e+00	1.186685e-05	
125	-6.25000e+00	1.184935e-05	
126	-6.30000e+00	1.183243e-05	
127	-6.35000e+00	1.181608e-05	
128	-6.40000e+00	1.180028e-05	
129	-6.45000e+00	1.178502e-05	
130	-6.50000e+00	1.177030e-05	
131	-6.55000e+00	1.175611e-05	
132	-6.60000e+00	1.174245e-05	
Reset re-loads circuit ***************************

Circuit: ***************************

Doing analysis at TEMP = -40.000000 and TNOM = -40.000000


No. of Data Rows : 133
                          ***************************
                          DC transfer characteristic  Mon Jan  9 13:58:52  2023
--------------------------------------------------------------------------------
Index   v-sweep         rds             
--------------------------------------------------------------------------------
0	0.000000e+00	1.351235e-03	
1	-5.00000e-02	1.296897e-03	
2	-1.00000e-01	1.243506e-03	
3	-1.50000e-01	1.191045e-03	
4	-2.00000e-01	1.139494e-03	
5	-2.50000e-01	1.088837e-03	
6	-3.00000e-01	1.039055e-03	
7	-3.50000e-01	9.901321e-04	
8	-4.00000e-01	9.420515e-04	
9	-4.50000e-01	8.947970e-04	
10	-5.00000e-01	8.483531e-04	
11	-5.50000e-01	8.027047e-04	
12	-6.00000e-01	7.578373e-04	
13	-6.50000e-01	7.137371e-04	
14	-7.00000e-01	6.703909e-04	
15	-7.50000e-01	6.277866e-04	
16	-8.00000e-01	5.859133e-04	
17	-8.50000e-01	5.447620e-04	
18	-9.00000e-01	5.043259e-04	
19	-9.50000e-01	4.646024e-04	
20	-1.00000e+00	4.255958e-04	
21	-1.05000e+00	3.873234e-04	
22	-1.10000e+00	3.498286e-04	
23	-1.15000e+00	3.132103e-04	
24	-1.20000e+00	2.776843e-04	
25	-1.25000e+00	2.436880e-04	
26	-1.30000e+00	2.119757e-04	
27	-1.35000e+00	1.835204e-04	
28	-1.40000e+00	1.591052e-04	
29	-1.45000e+00	1.389239e-04	
30	-1.50000e+00	1.225926e-04	
31	-1.55000e+00	1.094507e-04	
32	-1.60000e+00	9.882472e-05	
33	-1.65000e+00	9.014541e-05	
34	-1.70000e+00	8.296945e-05	
35	-1.75000e+00	7.696240e-05	
36	-1.80000e+00	7.187415e-05	
37	-1.85000e+00	6.751702e-05	
38	-1.90000e+00	6.374894e-05	
39	-1.95000e+00	6.046115e-05	
40	-2.00000e+00	5.756938e-05	
41	-2.05000e+00	5.500755e-05	
42	-2.10000e+00	5.272322e-05	
43	-2.15000e+00	5.067434e-05	
44	-2.20000e+00	4.882683e-05	
45	-2.25000e+00	4.715279e-05	
46	-2.30000e+00	4.562921e-05	
47	-2.35000e+00	4.423693e-05	
48	-2.40000e+00	4.295990e-05	
49	-2.45000e+00	4.178453e-05	
50	-2.50000e+00	4.069932e-05	
51	-2.55000e+00	3.969438e-05	
52	-2.60000e+00	3.876124e-05	
53	-2.65000e+00	3.789256e-05	
54	-2.70000e+00	3.708197e-05	

Index   v-sweep         rds             
--------------------------------------------------------------------------------
55	-2.75000e+00	3.632390e-05	
56	-2.80000e+00	3.561348e-05	
57	-2.85000e+00	3.494641e-05	
58	-2.90000e+00	3.431890e-05	
59	-2.95000e+00	3.372757e-05	
60	-3.00000e+00	3.316943e-05	
61	-3.05000e+00	3.264180e-05	
62	-3.10000e+00	3.214229e-05	
63	-3.15000e+00	3.166875e-05	
64	-3.20000e+00	3.121922e-05	
65	-3.25000e+00	3.079197e-05	
66	-3.30000e+00	3.038540e-05	
67	-3.35000e+00	2.999807e-05	
68	-3.40000e+00	2.962868e-05	
69	-3.45000e+00	2.927604e-05	
70	-3.50000e+00	2.893904e-05	
71	-3.55000e+00	2.861670e-05	
72	-3.60000e+00	2.830810e-05	
73	-3.65000e+00	2.801240e-05	
74	-3.70000e+00	2.772882e-05	
75	-3.75000e+00	2.745666e-05	
76	-3.80000e+00	2.719525e-05	
77	-3.85000e+00	2.694398e-05	
78	-3.90000e+00	2.670229e-05	
79	-3.95000e+00	2.646967e-05	
80	-4.00000e+00	2.624562e-05	
81	-4.05000e+00	2.602969e-05	
82	-4.10000e+00	2.582146e-05	
83	-4.15000e+00	2.562055e-05	
84	-4.20000e+00	2.542658e-05	
85	-4.25000e+00	2.523921e-05	
86	-4.30000e+00	2.505814e-05	
87	-4.35000e+00	2.488305e-05	
88	-4.40000e+00	2.471367e-05	
89	-4.45000e+00	2.454974e-05	
90	-4.50000e+00	2.439101e-05	
91	-4.55000e+00	2.423726e-05	
92	-4.60000e+00	2.408826e-05	
93	-4.65000e+00	2.394381e-05	
94	-4.70000e+00	2.380371e-05	
95	-4.75000e+00	2.366780e-05	
96	-4.80000e+00	2.353590e-05	
97	-4.85000e+00	2.340784e-05	
98	-4.90000e+00	2.328348e-05	
99	-4.95000e+00	2.316268e-05	
100	-5.00000e+00	2.304529e-05	
101	-5.05000e+00	2.293120e-05	
102	-5.10000e+00	2.282028e-05	
103	-5.15000e+00	2.271242e-05	
104	-5.20000e+00	2.260751e-05	
105	-5.25000e+00	2.250545e-05	
106	-5.30000e+00	2.240614e-05	
107	-5.35000e+00	2.230949e-05	
108	-5.40000e+00	2.221542e-05	
109	-5.45000e+00	2.212384e-05	
110	-5.50000e+00	2.203468e-05	
111	-5.55000e+00	2.194787e-05	
112	-5.60000e+00	2.186332e-05	

Index   v-sweep         rds             
--------------------------------------------------------------------------------
113	-5.65000e+00	2.178099e-05	
114	-5.70000e+00	2.170080e-05	
115	-5.75000e+00	2.162269e-05	
116	-5.80000e+00	2.154661e-05	
117	-5.85000e+00	2.147251e-05	
118	-5.90000e+00	2.140033e-05	
119	-5.95000e+00	2.133003e-05	
120	-6.00000e+00	2.126155e-05	
121	-6.05000e+00	2.119487e-05	
122	-6.10000e+00	2.112992e-05	
123	-6.15000e+00	2.106668e-05	
124	-6.20000e+00	2.100511e-05	
125	-6.25000e+00	2.094517e-05	
126	-6.30000e+00	2.088683e-05	
127	-6.35000e+00	2.083004e-05	
128	-6.40000e+00	2.077480e-05	
129	-6.45000e+00	2.072105e-05	
130	-6.50000e+00	2.066878e-05	
131	-6.55000e+00	2.061795e-05	
132	-6.60000e+00	2.056855e-05	
Reset re-loads circuit ***************************

Circuit: ***************************

Doing analysis at TEMP = -40.000000 and TNOM = -40.000000


No. of Data Rows : 133
                          ***************************
                          DC transfer characteristic  Mon Jan  9 13:58:52  2023
--------------------------------------------------------------------------------
Index   v-sweep         rds             
--------------------------------------------------------------------------------
0	0.000000e+00	1.732243e-03	
1	-5.00000e-02	1.681405e-03	
2	-1.00000e-01	1.631319e-03	
3	-1.50000e-01	1.581973e-03	
4	-2.00000e-01	1.533355e-03	
5	-2.50000e-01	1.485452e-03	
6	-3.00000e-01	1.438254e-03	
7	-3.50000e-01	1.391747e-03	
8	-4.00000e-01	1.345922e-03	
9	-4.50000e-01	1.300766e-03	
10	-5.00000e-01	1.256268e-03	
11	-5.50000e-01	1.212417e-03	
12	-6.00000e-01	1.169203e-03	
13	-6.50000e-01	1.126615e-03	
14	-7.00000e-01	1.084642e-03	
15	-7.50000e-01	1.043275e-03	
16	-8.00000e-01	1.002503e-03	
17	-8.50000e-01	9.623158e-04	
18	-9.00000e-01	9.227043e-04	
19	-9.50000e-01	8.836585e-04	
20	-1.00000e+00	8.451685e-04	
21	-1.05000e+00	8.072245e-04	
22	-1.10000e+00	7.698163e-04	
23	-1.15000e+00	7.329334e-04	
24	-1.20000e+00	6.965644e-04	
25	-1.25000e+00	6.606965e-04	
26	-1.30000e+00	6.253148e-04	
27	-1.35000e+00	5.904009e-04	
28	-1.40000e+00	5.559306e-04	
29	-1.45000e+00	5.218712e-04	
30	-1.50000e+00	4.881766e-04	
31	-1.55000e+00	4.547824e-04	
32	-1.60000e+00	4.216024e-04	
33	-1.65000e+00	3.885374e-04	
34	-1.70000e+00	3.555175e-04	
35	-1.75000e+00	3.226110e-04	
36	-1.80000e+00	2.901932e-04	
37	-1.85000e+00	2.590510e-04	
38	-1.90000e+00	2.302167e-04	
39	-1.95000e+00	2.045560e-04	
40	-2.00000e+00	1.824498e-04	
41	-2.05000e+00	1.637934e-04	
42	-2.10000e+00	1.481926e-04	
43	-2.15000e+00	1.351588e-04	
44	-2.20000e+00	1.242240e-04	
45	-2.25000e+00	1.149864e-04	
46	-2.30000e+00	1.071191e-04	
47	-2.35000e+00	1.003621e-04	
48	-2.40000e+00	9.451066e-05	
49	-2.45000e+00	8.940362e-05	
50	-2.50000e+00	8.491360e-05	
51	-2.55000e+00	8.093930e-05	
52	-2.60000e+00	7.739955e-05	
53	-2.65000e+00	7.422880e-05	
54	-2.70000e+00	7.137367e-05	

Index   v-sweep         rds             
--------------------------------------------------------------------------------
55	-2.75000e+00	6.879034e-05	
56	-2.80000e+00	6.644257e-05	
57	-2.85000e+00	6.430017e-05	
58	-2.90000e+00	6.233780e-05	
59	-2.95000e+00	6.053407e-05	
60	-3.00000e+00	5.887081e-05	
61	-3.05000e+00	5.733246e-05	
62	-3.10000e+00	5.590567e-05	
63	-3.15000e+00	5.457891e-05	
64	-3.20000e+00	5.334217e-05	
65	-3.25000e+00	5.218670e-05	
66	-3.30000e+00	5.110486e-05	
67	-3.35000e+00	5.008993e-05	
68	-3.40000e+00	4.913597e-05	
69	-3.45000e+00	4.823773e-05	
70	-3.50000e+00	4.739051e-05	
71	-3.55000e+00	4.659017e-05	
72	-3.60000e+00	4.583295e-05	
73	-3.65000e+00	4.511553e-05	
74	-3.70000e+00	4.443489e-05	
75	-3.75000e+00	4.378831e-05	
76	-3.80000e+00	4.317333e-05	
77	-3.85000e+00	4.258773e-05	
78	-3.90000e+00	4.202949e-05	
79	-3.95000e+00	4.149675e-05	
80	-4.00000e+00	4.098785e-05	
81	-4.05000e+00	4.050124e-05	
82	-4.10000e+00	4.003552e-05	
83	-4.15000e+00	3.958939e-05	
84	-4.20000e+00	3.916166e-05	
85	-4.25000e+00	3.875123e-05	
86	-4.30000e+00	3.835711e-05	
87	-4.35000e+00	3.797836e-05	
88	-4.40000e+00	3.761410e-05	
89	-4.45000e+00	3.726356e-05	
90	-4.50000e+00	3.692597e-05	
91	-4.55000e+00	3.660066e-05	
92	-4.60000e+00	3.628698e-05	
93	-4.65000e+00	3.598433e-05	
94	-4.70000e+00	3.569217e-05	
95	-4.75000e+00	3.540996e-05	
96	-4.80000e+00	3.513723e-05	
97	-4.85000e+00	3.487352e-05	
98	-4.90000e+00	3.461841e-05	
99	-4.95000e+00	3.437150e-05	
100	-5.00000e+00	3.413242e-05	
101	-5.05000e+00	3.390081e-05	
102	-5.10000e+00	3.367635e-05	
103	-5.15000e+00	3.345874e-05	
104	-5.20000e+00	3.324767e-05	
105	-5.25000e+00	3.304288e-05	
106	-5.30000e+00	3.284412e-05	
107	-5.35000e+00	3.265113e-05	
108	-5.40000e+00	3.246369e-05	
109	-5.45000e+00	3.228159e-05	
110	-5.50000e+00	3.210463e-05	
111	-5.55000e+00	3.193260e-05	
112	-5.60000e+00	3.176534e-05	

Index   v-sweep         rds             
--------------------------------------------------------------------------------
113	-5.65000e+00	3.160267e-05	
114	-5.70000e+00	3.144443e-05	
115	-5.75000e+00	3.129046e-05	
116	-5.80000e+00	3.114063e-05	
117	-5.85000e+00	3.099480e-05	
118	-5.90000e+00	3.085284e-05	
119	-5.95000e+00	3.071462e-05	
120	-6.00000e+00	3.058003e-05	
121	-6.05000e+00	3.044897e-05	
122	-6.10000e+00	3.032132e-05	
123	-6.15000e+00	3.019700e-05	
124	-6.20000e+00	3.007591e-05	
125	-6.25000e+00	2.995795e-05	
126	-6.30000e+00	2.984305e-05	
127	-6.35000e+00	2.973113e-05	
128	-6.40000e+00	2.962211e-05	
129	-6.45000e+00	2.951593e-05	
130	-6.50000e+00	2.941251e-05	
131	-6.55000e+00	2.931178e-05	
132	-6.60000e+00	2.921370e-05	
Reset re-loads circuit ***************************

Circuit: ***************************

Doing analysis at TEMP = -40.000000 and TNOM = -40.000000


No. of Data Rows : 133
                          ***************************
                          DC transfer characteristic  Mon Jan  9 13:58:52  2023
--------------------------------------------------------------------------------
Index   v-sweep         rds             
--------------------------------------------------------------------------------
0	0.000000e+00	2.022459e-03	
1	-5.00000e-02	1.975106e-03	
2	-1.00000e-01	1.928365e-03	
3	-1.50000e-01	1.882227e-03	
4	-2.00000e-01	1.836684e-03	
5	-2.50000e-01	1.791726e-03	
6	-3.00000e-01	1.747346e-03	
7	-3.50000e-01	1.703534e-03	
8	-4.00000e-01	1.660284e-03	
9	-4.50000e-01	1.617586e-03	
10	-5.00000e-01	1.575432e-03	
11	-5.50000e-01	1.533816e-03	
12	-6.00000e-01	1.492728e-03	
13	-6.50000e-01	1.452162e-03	
14	-7.00000e-01	1.412109e-03	
15	-7.50000e-01	1.372562e-03	
16	-8.00000e-01	1.333514e-03	
17	-8.50000e-01	1.294957e-03	
18	-9.00000e-01	1.256885e-03	
19	-9.50000e-01	1.219290e-03	
20	-1.00000e+00	1.182165e-03	
21	-1.05000e+00	1.145503e-03	
22	-1.10000e+00	1.109298e-03	
23	-1.15000e+00	1.073542e-03	
24	-1.20000e+00	1.038229e-03	
25	-1.25000e+00	1.003352e-03	
26	-1.30000e+00	9.689034e-04	
27	-1.35000e+00	9.348769e-04	
28	-1.40000e+00	9.012649e-04	
29	-1.45000e+00	8.680597e-04	
30	-1.50000e+00	8.352529e-04	
31	-1.55000e+00	8.028353e-04	
32	-1.60000e+00	7.707962e-04	
33	-1.65000e+00	7.391230e-04	
34	-1.70000e+00	7.078001e-04	
35	-1.75000e+00	6.768073e-04	
36	-1.80000e+00	6.461179e-04	
37	-1.85000e+00	6.156951e-04	
38	-1.90000e+00	5.854874e-04	
39	-1.95000e+00	5.554216e-04	
40	-2.00000e+00	5.253944e-04	
41	-2.05000e+00	4.952635e-04	
42	-2.10000e+00	4.648458e-04	
43	-2.15000e+00	4.339375e-04	
44	-2.20000e+00	4.023836e-04	
45	-2.25000e+00	3.702182e-04	
46	-2.30000e+00	3.378366e-04	
47	-2.35000e+00	3.060608e-04	
48	-2.40000e+00	2.759561e-04	
49	-2.45000e+00	2.484660e-04	
50	-2.50000e+00	2.241315e-04	
51	-2.55000e+00	2.030500e-04	
52	-2.60000e+00	1.850060e-04	
53	-2.65000e+00	1.696323e-04	
54	-2.70000e+00	1.565263e-04	

Index   v-sweep         rds             
--------------------------------------------------------------------------------
55	-2.75000e+00	1.453119e-04	
56	-2.80000e+00	1.356632e-04	
57	-2.85000e+00	1.273089e-04	
58	-2.90000e+00	1.200274e-04	
59	-2.95000e+00	1.136393e-04	
60	-3.00000e+00	1.079995e-04	
61	-3.05000e+00	1.029906e-04	
62	-3.10000e+00	9.851701e-05	
63	-3.15000e+00	9.450058e-05	
64	-3.20000e+00	9.087707e-05	
65	-3.25000e+00	8.759330e-05	
66	-3.30000e+00	8.460496e-05	
67	-3.35000e+00	8.187493e-05	
68	-3.40000e+00	7.937190e-05	
69	-3.45000e+00	7.706929e-05	
70	-3.50000e+00	7.494447e-05	
71	-3.55000e+00	7.297799e-05	
72	-3.60000e+00	7.115313e-05	
73	-3.65000e+00	6.945538e-05	
74	-3.70000e+00	6.787213e-05	
75	-3.75000e+00	6.639237e-05	
76	-3.80000e+00	6.500643e-05	
77	-3.85000e+00	6.370579e-05	
78	-3.90000e+00	6.248295e-05	
79	-3.95000e+00	6.133122e-05	
80	-4.00000e+00	6.024467e-05	
81	-4.05000e+00	5.921799e-05	
82	-4.10000e+00	5.824645e-05	
83	-4.15000e+00	5.732578e-05	
84	-4.20000e+00	5.645215e-05	
85	-4.25000e+00	5.562209e-05	
86	-4.30000e+00	5.483247e-05	
87	-4.35000e+00	5.408045e-05	
88	-4.40000e+00	5.336345e-05	
89	-4.45000e+00	5.267911e-05	
90	-4.50000e+00	5.202529e-05	
91	-4.55000e+00	5.140002e-05	
92	-4.60000e+00	5.080149e-05	
93	-4.65000e+00	5.022807e-05	
94	-4.70000e+00	4.967822e-05	
95	-4.75000e+00	4.915055e-05	
96	-4.80000e+00	4.864377e-05	
97	-4.85000e+00	4.815668e-05	
98	-4.90000e+00	4.768817e-05	
99	-4.95000e+00	4.723724e-05	
100	-5.00000e+00	4.680291e-05	
101	-5.05000e+00	4.638432e-05	
102	-5.10000e+00	4.598064e-05	
103	-5.15000e+00	4.559111e-05	
104	-5.20000e+00	4.521502e-05	
105	-5.25000e+00	4.485170e-05	
106	-5.30000e+00	4.450053e-05	
107	-5.35000e+00	4.416093e-05	
108	-5.40000e+00	4.383236e-05	
109	-5.45000e+00	4.351431e-05	
110	-5.50000e+00	4.320630e-05	
111	-5.55000e+00	4.290788e-05	
112	-5.60000e+00	4.261864e-05	

Index   v-sweep         rds             
--------------------------------------------------------------------------------
113	-5.65000e+00	4.233818e-05	
114	-5.70000e+00	4.206612e-05	
115	-5.75000e+00	4.180213e-05	
116	-5.80000e+00	4.154587e-05	
117	-5.85000e+00	4.129704e-05	
118	-5.90000e+00	4.105533e-05	
119	-5.95000e+00	4.082049e-05	
120	-6.00000e+00	4.059224e-05	
121	-6.05000e+00	4.037035e-05	
122	-6.10000e+00	4.015458e-05	
123	-6.15000e+00	3.994472e-05	
124	-6.20000e+00	3.974057e-05	
125	-6.25000e+00	3.954193e-05	
126	-6.30000e+00	3.934861e-05	
127	-6.35000e+00	3.916045e-05	
128	-6.40000e+00	3.897728e-05	
129	-6.45000e+00	3.879894e-05	
130	-6.50000e+00	3.862530e-05	
131	-6.55000e+00	3.845621e-05	
132	-6.60000e+00	3.829154e-05	
Reset re-loads circuit ***************************

Circuit: ***************************

Doing analysis at TEMP = -40.000000 and TNOM = -40.000000


No. of Data Rows : 133
                          ***************************
                          DC transfer characteristic  Mon Jan  9 13:58:52  2023
--------------------------------------------------------------------------------
Index   v-sweep         rds             
--------------------------------------------------------------------------------
0	0.000000e+00	2.245799e-03	
1	-5.00000e-02	2.201714e-03	
2	-1.00000e-01	2.158136e-03	
3	-1.50000e-01	2.115058e-03	
4	-2.00000e-01	2.072474e-03	
5	-2.50000e-01	2.030379e-03	
6	-3.00000e-01	1.988764e-03	
7	-3.50000e-01	1.947625e-03	
8	-4.00000e-01	1.906956e-03	
9	-4.50000e-01	1.866749e-03	
10	-5.00000e-01	1.827000e-03	
11	-5.50000e-01	1.787702e-03	
12	-6.00000e-01	1.748850e-03	
13	-6.50000e-01	1.710437e-03	
14	-7.00000e-01	1.672459e-03	
15	-7.50000e-01	1.634909e-03	
16	-8.00000e-01	1.597781e-03	
17	-8.50000e-01	1.561072e-03	
18	-9.00000e-01	1.524774e-03	
19	-9.50000e-01	1.488883e-03	
20	-1.00000e+00	1.453393e-03	
21	-1.05000e+00	1.418299e-03	
22	-1.10000e+00	1.383596e-03	
23	-1.15000e+00	1.349279e-03	
24	-1.20000e+00	1.315342e-03	
25	-1.25000e+00	1.281782e-03	
26	-1.30000e+00	1.248592e-03	
27	-1.35000e+00	1.215768e-03	
28	-1.40000e+00	1.183305e-03	
29	-1.45000e+00	1.151199e-03	
30	-1.50000e+00	1.119444e-03	
31	-1.55000e+00	1.088035e-03	
32	-1.60000e+00	1.056968e-03	
33	-1.65000e+00	1.026237e-03	
34	-1.70000e+00	9.958376e-04	
35	-1.75000e+00	9.657635e-04	
36	-1.80000e+00	9.360091e-04	
37	-1.85000e+00	9.065680e-04	
38	-1.90000e+00	8.774331e-04	
39	-1.95000e+00	8.485960e-04	
40	-2.00000e+00	8.200473e-04	
41	-2.05000e+00	7.917750e-04	
42	-2.10000e+00	7.637645e-04	
43	-2.15000e+00	7.359968e-04	
44	-2.20000e+00	7.084468e-04	
45	-2.25000e+00	6.810808e-04	
46	-2.30000e+00	6.538521e-04	
47	-2.35000e+00	6.266964e-04	
48	-2.40000e+00	5.995237e-04	
49	-2.45000e+00	5.722098e-04	
50	-2.50000e+00	5.445875e-04	
51	-2.55000e+00	5.164437e-04	
52	-2.60000e+00	4.875347e-04	
53	-2.65000e+00	4.576396e-04	
54	-2.70000e+00	4.266714e-04	

Index   v-sweep         rds             
--------------------------------------------------------------------------------
55	-2.75000e+00	3.948284e-04	
56	-2.80000e+00	3.627036e-04	
57	-2.85000e+00	3.312281e-04	
58	-2.90000e+00	3.014228e-04	
59	-2.95000e+00	2.741004e-04	
60	-3.00000e+00	2.496993e-04	
61	-3.05000e+00	2.282953e-04	
62	-3.10000e+00	2.097144e-04	
63	-3.15000e+00	1.936557e-04	
64	-3.20000e+00	1.797800e-04	
65	-3.25000e+00	1.677606e-04	
66	-3.30000e+00	1.573064e-04	
67	-3.35000e+00	1.481679e-04	
68	-3.40000e+00	1.401363e-04	
69	-3.45000e+00	1.330389e-04	
70	-3.50000e+00	1.267330e-04	
71	-3.55000e+00	1.211014e-04	
72	-3.60000e+00	1.160470e-04	
73	-3.65000e+00	1.114895e-04	
74	-3.70000e+00	1.073622e-04	
75	-3.75000e+00	1.036091e-04	
76	-3.80000e+00	1.001832e-04	
77	-3.85000e+00	9.704487e-05	
78	-3.90000e+00	9.416036e-05	
79	-3.95000e+00	9.150088e-05	
80	-4.00000e+00	8.904172e-05	
81	-4.05000e+00	8.676158e-05	
82	-4.10000e+00	8.464202e-05	
83	-4.15000e+00	8.266699e-05	
84	-4.20000e+00	8.082250e-05	
85	-4.25000e+00	7.909625e-05	
86	-4.30000e+00	7.747742e-05	
87	-4.35000e+00	7.595648e-05	
88	-4.40000e+00	7.452494e-05	
89	-4.45000e+00	7.317529e-05	
90	-4.50000e+00	7.190080e-05	
91	-4.55000e+00	7.069546e-05	
92	-4.60000e+00	6.955389e-05	
93	-4.65000e+00	6.847122e-05	
94	-4.70000e+00	6.744310e-05	
95	-4.75000e+00	6.646555e-05	
96	-4.80000e+00	6.553499e-05	
97	-4.85000e+00	6.464817e-05	
98	-4.90000e+00	6.380212e-05	
99	-4.95000e+00	6.299414e-05	
100	-5.00000e+00	6.222174e-05	
101	-5.05000e+00	6.148268e-05	
102	-5.10000e+00	6.077486e-05	
103	-5.15000e+00	6.009639e-05	
104	-5.20000e+00	5.944549e-05	
105	-5.25000e+00	5.882057e-05	
106	-5.30000e+00	5.822011e-05	
107	-5.35000e+00	5.764273e-05	
108	-5.40000e+00	5.708715e-05	
109	-5.45000e+00	5.655219e-05	
110	-5.50000e+00	5.603674e-05	
111	-5.55000e+00	5.553977e-05	
112	-5.60000e+00	5.506033e-05	

Index   v-sweep         rds             
--------------------------------------------------------------------------------
113	-5.65000e+00	5.459753e-05	
114	-5.70000e+00	5.415054e-05	
115	-5.75000e+00	5.371859e-05	
116	-5.80000e+00	5.330095e-05	
117	-5.85000e+00	5.289695e-05	
118	-5.90000e+00	5.250595e-05	
119	-5.95000e+00	5.212735e-05	
120	-6.00000e+00	5.176061e-05	
121	-6.05000e+00	5.140519e-05	
122	-6.10000e+00	5.106061e-05	
123	-6.15000e+00	5.072641e-05	
124	-6.20000e+00	5.040215e-05	
125	-6.25000e+00	5.008743e-05	
126	-6.30000e+00	4.978186e-05	
127	-6.35000e+00	4.948509e-05	
128	-6.40000e+00	4.919676e-05	
129	-6.45000e+00	4.891657e-05	
130	-6.50000e+00	4.864421e-05	
131	-6.55000e+00	4.837940e-05	
132	-6.60000e+00	4.812187e-05	
Reset re-loads circuit ***************************

Circuit: ***************************

Note: No ".plot", ".print", or ".fourier" lines; no simulations run
