
Note: Compatibility modes selected: hs

Warning: m=xx on .subckt line will override multiplier m hierarchy!


Circuit: ***************************

Doing analysis at TEMP = 25.000000 and TNOM = 25.000000


No. of Data Rows : 133
                          ***************************
                          DC transfer characteristic  Mon Jan  9 13:58:52  2023
--------------------------------------------------------------------------------
Index   v-sweep         rds             
--------------------------------------------------------------------------------
0	0.000000e+00	3.184314e-06	
1	-5.00000e-02	2.373110e-06	
2	-1.00000e-01	1.589638e-06	
3	-1.50000e-01	8.792763e-07	
4	-2.00000e-01	3.757226e-07	
5	-2.50000e-01	1.633416e-07	
6	-3.00000e-01	1.010011e-07	
7	-3.50000e-01	8.070698e-08	
8	-4.00000e-01	7.188095e-08	
9	-4.50000e-01	6.687133e-08	
10	-5.00000e-01	6.343860e-08	
11	-5.50000e-01	6.079406e-08	
12	-6.00000e-01	5.861066e-08	
13	-6.50000e-01	5.673243e-08	
14	-7.00000e-01	5.507549e-08	
15	-7.50000e-01	5.358979e-08	
16	-8.00000e-01	5.224280e-08	
17	-8.50000e-01	5.101181e-08	
18	-9.00000e-01	4.988004e-08	
19	-9.50000e-01	4.883456e-08	
20	-1.00000e+00	4.786505e-08	
21	-1.05000e+00	4.696306e-08	
22	-1.10000e+00	4.612152e-08	
23	-1.15000e+00	4.533445e-08	
24	-1.20000e+00	4.459669e-08	
25	-1.25000e+00	4.390379e-08	
26	-1.30000e+00	4.325184e-08	
27	-1.35000e+00	4.263740e-08	
28	-1.40000e+00	4.205741e-08	
29	-1.45000e+00	4.150918e-08	
30	-1.50000e+00	4.099026e-08	
31	-1.55000e+00	4.049847e-08	
32	-1.60000e+00	4.003186e-08	
33	-1.65000e+00	3.958864e-08	
34	-1.70000e+00	3.916720e-08	
35	-1.75000e+00	3.876608e-08	
36	-1.80000e+00	3.838394e-08	
37	-1.85000e+00	3.801956e-08	
38	-1.90000e+00	3.767183e-08	
39	-1.95000e+00	3.733972e-08	
40	-2.00000e+00	3.702228e-08	
41	-2.05000e+00	3.671866e-08	
42	-2.10000e+00	3.642804e-08	
43	-2.15000e+00	3.614969e-08	
44	-2.20000e+00	3.588293e-08	
45	-2.25000e+00	3.562712e-08	
46	-2.30000e+00	3.538166e-08	
47	-2.35000e+00	3.514602e-08	
48	-2.40000e+00	3.491967e-08	
49	-2.45000e+00	3.470216e-08	
50	-2.50000e+00	3.449302e-08	
51	-2.55000e+00	3.429185e-08	
52	-2.60000e+00	3.409827e-08	
53	-2.65000e+00	3.391189e-08	
54	-2.70000e+00	3.373240e-08	

Index   v-sweep         rds             
--------------------------------------------------------------------------------
55	-2.75000e+00	3.355946e-08	
56	-2.80000e+00	3.339278e-08	
57	-2.85000e+00	3.323207e-08	
58	-2.90000e+00	3.307707e-08	
59	-2.95000e+00	3.292754e-08	
60	-3.00000e+00	3.278322e-08	
61	-3.05000e+00	3.264391e-08	
62	-3.10000e+00	3.250939e-08	
63	-3.15000e+00	3.237947e-08	
64	-3.20000e+00	3.225395e-08	
65	-3.25000e+00	3.213266e-08	
66	-3.30000e+00	3.201543e-08	
67	-3.35000e+00	3.190211e-08	
68	-3.40000e+00	3.179254e-08	
69	-3.45000e+00	3.168658e-08	
70	-3.50000e+00	3.158409e-08	
71	-3.55000e+00	3.148495e-08	
72	-3.60000e+00	3.138904e-08	
73	-3.65000e+00	3.129623e-08	
74	-3.70000e+00	3.120641e-08	
75	-3.75000e+00	3.111949e-08	
76	-3.80000e+00	3.103536e-08	
77	-3.85000e+00	3.095393e-08	
78	-3.90000e+00	3.087510e-08	
79	-3.95000e+00	3.079879e-08	
80	-4.00000e+00	3.072492e-08	
81	-4.05000e+00	3.065340e-08	
82	-4.10000e+00	3.058417e-08	
83	-4.15000e+00	3.051715e-08	
84	-4.20000e+00	3.045228e-08	
85	-4.25000e+00	3.038948e-08	
86	-4.30000e+00	3.032870e-08	
87	-4.35000e+00	3.026988e-08	
88	-4.40000e+00	3.021296e-08	
89	-4.45000e+00	3.015788e-08	
90	-4.50000e+00	3.010460e-08	
91	-4.55000e+00	3.005306e-08	
92	-4.60000e+00	3.000321e-08	
93	-4.65000e+00	2.995502e-08	
94	-4.70000e+00	2.990844e-08	
95	-4.75000e+00	2.986342e-08	
96	-4.80000e+00	2.981993e-08	
97	-4.85000e+00	2.977792e-08	
98	-4.90000e+00	2.973737e-08	
99	-4.95000e+00	2.969823e-08	
100	-5.00000e+00	2.966047e-08	
101	-5.05000e+00	2.962406e-08	
102	-5.10000e+00	2.958897e-08	
103	-5.15000e+00	2.955517e-08	
104	-5.20000e+00	2.952263e-08	
105	-5.25000e+00	2.949132e-08	
106	-5.30000e+00	2.946122e-08	
107	-5.35000e+00	2.943230e-08	
108	-5.40000e+00	2.940454e-08	
109	-5.45000e+00	2.937790e-08	
110	-5.50000e+00	2.935238e-08	
111	-5.55000e+00	2.932795e-08	
112	-5.60000e+00	2.930459e-08	

Index   v-sweep         rds             
--------------------------------------------------------------------------------
113	-5.65000e+00	2.928227e-08	
114	-5.70000e+00	2.926098e-08	
115	-5.75000e+00	2.924070e-08	
116	-5.80000e+00	2.922142e-08	
117	-5.85000e+00	2.920311e-08	
118	-5.90000e+00	2.918575e-08	
119	-5.95000e+00	2.916934e-08	
120	-6.00000e+00	2.915386e-08	
121	-6.05000e+00	2.913928e-08	
122	-6.10000e+00	2.912560e-08	
123	-6.15000e+00	2.911281e-08	
124	-6.20000e+00	2.910088e-08	
125	-6.25000e+00	2.908981e-08	
126	-6.30000e+00	2.907959e-08	
127	-6.35000e+00	2.907019e-08	
128	-6.40000e+00	2.906161e-08	
129	-6.45000e+00	2.905385e-08	
130	-6.50000e+00	2.904687e-08	
131	-6.55000e+00	2.904069e-08	
132	-6.60000e+00	2.903528e-08	
Reset re-loads circuit ***************************

Circuit: ***************************

Doing analysis at TEMP = 25.000000 and TNOM = 25.000000


No. of Data Rows : 133
                          ***************************
                          DC transfer characteristic  Mon Jan  9 13:58:52  2023
--------------------------------------------------------------------------------
Index   v-sweep         rds             
--------------------------------------------------------------------------------
0	0.000000e+00	1.722456e-05	
1	-5.00000e-02	1.627554e-05	
2	-1.00000e-01	1.533619e-05	
3	-1.50000e-01	1.440644e-05	
4	-2.00000e-01	1.348620e-05	
5	-2.50000e-01	1.257544e-05	
6	-3.00000e-01	1.167414e-05	
7	-3.50000e-01	1.078231e-05	
8	-4.00000e-01	9.900030e-06	
9	-4.50000e-01	9.027488e-06	
10	-5.00000e-01	8.165048e-06	
11	-5.50000e-01	7.313402e-06	
12	-6.00000e-01	6.473839e-06	
13	-6.50000e-01	5.648803e-06	
14	-7.00000e-01	4.843025e-06	
15	-7.50000e-01	4.065747e-06	
16	-8.00000e-01	3.334589e-06	
17	-8.50000e-01	2.679708e-06	
18	-9.00000e-01	2.140350e-06	
19	-9.50000e-01	1.742913e-06	
20	-1.00000e+00	1.476861e-06	
21	-1.05000e+00	1.304230e-06	
22	-1.10000e+00	1.187776e-06	
23	-1.15000e+00	1.103304e-06	
24	-1.20000e+00	1.037545e-06	
25	-1.25000e+00	9.835104e-07	
26	-1.30000e+00	9.374169e-07	
27	-1.35000e+00	8.970960e-07	
28	-1.40000e+00	8.612153e-07	
29	-1.45000e+00	8.288981e-07	
30	-1.50000e+00	7.995317e-07	
31	-1.55000e+00	7.726652e-07	
32	-1.60000e+00	7.479529e-07	
33	-1.65000e+00	7.251210e-07	
34	-1.70000e+00	7.039468e-07	
35	-1.75000e+00	6.842460e-07	
36	-1.80000e+00	6.658631e-07	
37	-1.85000e+00	6.486658e-07	
38	-1.90000e+00	6.325401e-07	
39	-1.95000e+00	6.173869e-07	
40	-2.00000e+00	6.031195e-07	
41	-2.05000e+00	5.896617e-07	
42	-2.10000e+00	5.769460e-07	
43	-2.15000e+00	5.649123e-07	
44	-2.20000e+00	5.535073e-07	
45	-2.25000e+00	5.426827e-07	
46	-2.30000e+00	5.323956e-07	
47	-2.35000e+00	5.226069e-07	
48	-2.40000e+00	5.132815e-07	
49	-2.45000e+00	5.043875e-07	
50	-2.50000e+00	4.958956e-07	
51	-2.55000e+00	4.877796e-07	
52	-2.60000e+00	4.800151e-07	
53	-2.65000e+00	4.725801e-07	
54	-2.70000e+00	4.654542e-07	

Index   v-sweep         rds             
--------------------------------------------------------------------------------
55	-2.75000e+00	4.586187e-07	
56	-2.80000e+00	4.520565e-07	
57	-2.85000e+00	4.457516e-07	
58	-2.90000e+00	4.396895e-07	
59	-2.95000e+00	4.338564e-07	
60	-3.00000e+00	4.282400e-07	
61	-3.05000e+00	4.228284e-07	
62	-3.10000e+00	4.176109e-07	
63	-3.15000e+00	4.125774e-07	
64	-3.20000e+00	4.077184e-07	
65	-3.25000e+00	4.030252e-07	
66	-3.30000e+00	3.984896e-07	
67	-3.35000e+00	3.941040e-07	
68	-3.40000e+00	3.898611e-07	
69	-3.45000e+00	3.857542e-07	
70	-3.50000e+00	3.817770e-07	
71	-3.55000e+00	3.779236e-07	
72	-3.60000e+00	3.741885e-07	
73	-3.65000e+00	3.705663e-07	
74	-3.70000e+00	3.670522e-07	
75	-3.75000e+00	3.636416e-07	
76	-3.80000e+00	3.603299e-07	
77	-3.85000e+00	3.571131e-07	
78	-3.90000e+00	3.539873e-07	
79	-3.95000e+00	3.509488e-07	
80	-4.00000e+00	3.479941e-07	
81	-4.05000e+00	3.451199e-07	
82	-4.10000e+00	3.423230e-07	
83	-4.15000e+00	3.396005e-07	
84	-4.20000e+00	3.369495e-07	
85	-4.25000e+00	3.343675e-07	
86	-4.30000e+00	3.318518e-07	
87	-4.35000e+00	3.294000e-07	
88	-4.40000e+00	3.270099e-07	
89	-4.45000e+00	3.246792e-07	
90	-4.50000e+00	3.224060e-07	
91	-4.55000e+00	3.201882e-07	
92	-4.60000e+00	3.180239e-07	
93	-4.65000e+00	3.159114e-07	
94	-4.70000e+00	3.138489e-07	
95	-4.75000e+00	3.118349e-07	
96	-4.80000e+00	3.098678e-07	
97	-4.85000e+00	3.079460e-07	
98	-4.90000e+00	3.060683e-07	
99	-4.95000e+00	3.042332e-07	
100	-5.00000e+00	3.024394e-07	
101	-5.05000e+00	3.006858e-07	
102	-5.10000e+00	2.989711e-07	
103	-5.15000e+00	2.972942e-07	
104	-5.20000e+00	2.956541e-07	
105	-5.25000e+00	2.940497e-07	
106	-5.30000e+00	2.924801e-07	
107	-5.35000e+00	2.909442e-07	
108	-5.40000e+00	2.894412e-07	
109	-5.45000e+00	2.879702e-07	
110	-5.50000e+00	2.865305e-07	
111	-5.55000e+00	2.851211e-07	
112	-5.60000e+00	2.837413e-07	

Index   v-sweep         rds             
--------------------------------------------------------------------------------
113	-5.65000e+00	2.823905e-07	
114	-5.70000e+00	2.810679e-07	
115	-5.75000e+00	2.797728e-07	
116	-5.80000e+00	2.785045e-07	
117	-5.85000e+00	2.772625e-07	
118	-5.90000e+00	2.760462e-07	
119	-5.95000e+00	2.748550e-07	
120	-6.00000e+00	2.736882e-07	
121	-6.05000e+00	2.725455e-07	
122	-6.10000e+00	2.714263e-07	
123	-6.15000e+00	2.703300e-07	
124	-6.20000e+00	2.692563e-07	
125	-6.25000e+00	2.682046e-07	
126	-6.30000e+00	2.671746e-07	
127	-6.35000e+00	2.661657e-07	
128	-6.40000e+00	2.651776e-07	
129	-6.45000e+00	2.642099e-07	
130	-6.50000e+00	2.632621e-07	
131	-6.55000e+00	2.623340e-07	
132	-6.60000e+00	2.614252e-07	
Reset re-loads circuit ***************************

Circuit: ***************************

Doing analysis at TEMP = 25.000000 and TNOM = 25.000000


No. of Data Rows : 133
                          ***************************
                          DC transfer characteristic  Mon Jan  9 13:58:52  2023
--------------------------------------------------------------------------------
Index   v-sweep         rds             
--------------------------------------------------------------------------------
0	0.000000e+00	2.765904e-05	
1	-5.00000e-02	2.674432e-05	
2	-1.00000e-01	2.583718e-05	
3	-1.50000e-01	2.493758e-05	
4	-2.00000e-01	2.404545e-05	
5	-2.50000e-01	2.316073e-05	
6	-3.00000e-01	2.228337e-05	
7	-3.50000e-01	2.141330e-05	
8	-4.00000e-01	2.055048e-05	
9	-4.50000e-01	1.969486e-05	
10	-5.00000e-01	1.884637e-05	
11	-5.50000e-01	1.800499e-05	
12	-6.00000e-01	1.717067e-05	
13	-6.50000e-01	1.634339e-05	
14	-7.00000e-01	1.552311e-05	
15	-7.50000e-01	1.470983e-05	
16	-8.00000e-01	1.390356e-05	
17	-8.50000e-01	1.310434e-05	
18	-9.00000e-01	1.231226e-05	
19	-9.50000e-01	1.152744e-05	
20	-1.00000e+00	1.075012e-05	
21	-1.05000e+00	9.980685e-06	
22	-1.10000e+00	9.219746e-06	
23	-1.15000e+00	8.468307e-06	
24	-1.20000e+00	7.728022e-06	
25	-1.25000e+00	7.001647e-06	
26	-1.30000e+00	6.293788e-06	
27	-1.35000e+00	5.612045e-06	
28	-1.40000e+00	4.968359e-06	
29	-1.45000e+00	4.379541e-06	
30	-1.50000e+00	3.864578e-06	
31	-1.55000e+00	3.437171e-06	
32	-1.60000e+00	3.097783e-06	
33	-1.65000e+00	2.833541e-06	
34	-1.70000e+00	2.626032e-06	
35	-1.75000e+00	2.458718e-06	
36	-1.80000e+00	2.319608e-06	
37	-1.85000e+00	2.200782e-06	
38	-1.90000e+00	2.097119e-06	
39	-1.95000e+00	2.005251e-06	
40	-2.00000e+00	1.922878e-06	
41	-2.05000e+00	1.848356e-06	
42	-2.10000e+00	1.780468e-06	
43	-2.15000e+00	1.718274e-06	
44	-2.20000e+00	1.661030e-06	
45	-2.25000e+00	1.608132e-06	
46	-2.30000e+00	1.559079e-06	
47	-2.35000e+00	1.513453e-06	
48	-2.40000e+00	1.470897e-06	
49	-2.45000e+00	1.431105e-06	
50	-2.50000e+00	1.393812e-06	
51	-2.55000e+00	1.358787e-06	
52	-2.60000e+00	1.325827e-06	
53	-2.65000e+00	1.294755e-06	
54	-2.70000e+00	1.265412e-06	

Index   v-sweep         rds             
--------------------------------------------------------------------------------
55	-2.75000e+00	1.237658e-06	
56	-2.80000e+00	1.211366e-06	
57	-2.85000e+00	1.186425e-06	
58	-2.90000e+00	1.162733e-06	
59	-2.95000e+00	1.140198e-06	
60	-3.00000e+00	1.118740e-06	
61	-3.05000e+00	1.098281e-06	
62	-3.10000e+00	1.078756e-06	
63	-3.15000e+00	1.060101e-06	
64	-3.20000e+00	1.042260e-06	
65	-3.25000e+00	1.025181e-06	
66	-3.30000e+00	1.008817e-06	
67	-3.35000e+00	9.931238e-07	
68	-3.40000e+00	9.780619e-07	
69	-3.45000e+00	9.635941e-07	
70	-3.50000e+00	9.496861e-07	
71	-3.55000e+00	9.363065e-07	
72	-3.60000e+00	9.234260e-07	
73	-3.65000e+00	9.110174e-07	
74	-3.70000e+00	8.990555e-07	
75	-3.75000e+00	8.875169e-07	
76	-3.80000e+00	8.763798e-07	
77	-3.85000e+00	8.656238e-07	
78	-3.90000e+00	8.552299e-07	
79	-3.95000e+00	8.451804e-07	
80	-4.00000e+00	8.354586e-07	
81	-4.05000e+00	8.260490e-07	
82	-4.10000e+00	8.169370e-07	
83	-4.15000e+00	8.081088e-07	
84	-4.20000e+00	7.995517e-07	
85	-4.25000e+00	7.912535e-07	
86	-4.30000e+00	7.832028e-07	
87	-4.35000e+00	7.753889e-07	
88	-4.40000e+00	7.678017e-07	
89	-4.45000e+00	7.604317e-07	
90	-4.50000e+00	7.532698e-07	
91	-4.55000e+00	7.463075e-07	
92	-4.60000e+00	7.395369e-07	
93	-4.65000e+00	7.329502e-07	
94	-4.70000e+00	7.265402e-07	
95	-4.75000e+00	7.203002e-07	
96	-4.80000e+00	7.142237e-07	
97	-4.85000e+00	7.083045e-07	
98	-4.90000e+00	7.025368e-07	
99	-4.95000e+00	6.969150e-07	
100	-5.00000e+00	6.914340e-07	
101	-5.05000e+00	6.860887e-07	
102	-5.10000e+00	6.808744e-07	
103	-5.15000e+00	6.757865e-07	
104	-5.20000e+00	6.708207e-07	
105	-5.25000e+00	6.659730e-07	
106	-5.30000e+00	6.612395e-07	
107	-5.35000e+00	6.566165e-07	
108	-5.40000e+00	6.521003e-07	
109	-5.45000e+00	6.476876e-07	
110	-5.50000e+00	6.433753e-07	
111	-5.55000e+00	6.391602e-07	
112	-5.60000e+00	6.350394e-07	

Index   v-sweep         rds             
--------------------------------------------------------------------------------
113	-5.65000e+00	6.310101e-07	
114	-5.70000e+00	6.270696e-07	
115	-5.75000e+00	6.232154e-07	
116	-5.80000e+00	6.194450e-07	
117	-5.85000e+00	6.157561e-07	
118	-5.90000e+00	6.121464e-07	
119	-5.95000e+00	6.086138e-07	
120	-6.00000e+00	6.051563e-07	
121	-6.05000e+00	6.017718e-07	
122	-6.10000e+00	5.984586e-07	
123	-6.15000e+00	5.952148e-07	
124	-6.20000e+00	5.920387e-07	
125	-6.25000e+00	5.889286e-07	
126	-6.30000e+00	5.858830e-07	
127	-6.35000e+00	5.829003e-07	
128	-6.40000e+00	5.799790e-07	
129	-6.45000e+00	5.771179e-07	
130	-6.50000e+00	5.743154e-07	
131	-6.55000e+00	5.715704e-07	
132	-6.60000e+00	5.688815e-07	
Reset re-loads circuit ***************************

Circuit: ***************************

Doing analysis at TEMP = 25.000000 and TNOM = 25.000000


No. of Data Rows : 133
                          ***************************
                          DC transfer characteristic  Mon Jan  9 13:58:52  2023
--------------------------------------------------------------------------------
Index   v-sweep         rds             
--------------------------------------------------------------------------------
0	0.000000e+00	3.694534e-05	
1	-5.00000e-02	3.607144e-05	
2	-1.00000e-01	3.520367e-05	
3	-1.50000e-01	3.434197e-05	
4	-2.00000e-01	3.348631e-05	
5	-2.50000e-01	3.263664e-05	
6	-3.00000e-01	3.179293e-05	
7	-3.50000e-01	3.095514e-05	
8	-4.00000e-01	3.012323e-05	
9	-4.50000e-01	2.929715e-05	
10	-5.00000e-01	2.847687e-05	
11	-5.50000e-01	2.766235e-05	
12	-6.00000e-01	2.685355e-05	
13	-6.50000e-01	2.605044e-05	
14	-7.00000e-01	2.525297e-05	
15	-7.50000e-01	2.446111e-05	
16	-8.00000e-01	2.367484e-05	
17	-8.50000e-01	2.289411e-05	
18	-9.00000e-01	2.211889e-05	
19	-9.50000e-01	2.134916e-05	
20	-1.00000e+00	2.058489e-05	
21	-1.05000e+00	1.982606e-05	
22	-1.10000e+00	1.907264e-05	
23	-1.15000e+00	1.832463e-05	
24	-1.20000e+00	1.758202e-05	
25	-1.25000e+00	1.684481e-05	
26	-1.30000e+00	1.611301e-05	
27	-1.35000e+00	1.538667e-05	
28	-1.40000e+00	1.466583e-05	
29	-1.45000e+00	1.395058e-05	
30	-1.50000e+00	1.324107e-05	
31	-1.55000e+00	1.253749e-05	
32	-1.60000e+00	1.184015e-05	
33	-1.65000e+00	1.114952e-05	
34	-1.70000e+00	1.046628e-05	
35	-1.75000e+00	9.791481e-06	
36	-1.80000e+00	9.126721e-06	
37	-1.85000e+00	8.474450e-06	
38	-1.90000e+00	7.838393e-06	
39	-1.95000e+00	7.224066e-06	
40	-2.00000e+00	6.639212e-06	
41	-2.05000e+00	6.093606e-06	
42	-2.10000e+00	5.597536e-06	
43	-2.15000e+00	5.158756e-06	
44	-2.20000e+00	4.779437e-06	
45	-2.25000e+00	4.455541e-06	
46	-2.30000e+00	4.179075e-06	
47	-2.35000e+00	3.941165e-06	
48	-2.40000e+00	3.734010e-06	
49	-2.45000e+00	3.551472e-06	
50	-2.50000e+00	3.388928e-06	
51	-2.55000e+00	3.242919e-06	
52	-2.60000e+00	3.110816e-06	
53	-2.65000e+00	2.990578e-06	
54	-2.70000e+00	2.880588e-06	

Index   v-sweep         rds             
--------------------------------------------------------------------------------
55	-2.75000e+00	2.779535e-06	
56	-2.80000e+00	2.686339e-06	
57	-2.85000e+00	2.600098e-06	
58	-2.90000e+00	2.520051e-06	
59	-2.95000e+00	2.445546e-06	
60	-3.00000e+00	2.376023e-06	
61	-3.05000e+00	2.310997e-06	
62	-3.10000e+00	2.250044e-06	
63	-3.15000e+00	2.192795e-06	
64	-3.20000e+00	2.138921e-06	
65	-3.25000e+00	2.088133e-06	
66	-3.30000e+00	2.040175e-06	
67	-3.35000e+00	1.994818e-06	
68	-3.40000e+00	1.951856e-06	
69	-3.45000e+00	1.911106e-06	
70	-3.50000e+00	1.872402e-06	
71	-3.55000e+00	1.835595e-06	
72	-3.60000e+00	1.800549e-06	
73	-3.65000e+00	1.767142e-06	
74	-3.70000e+00	1.735263e-06	
75	-3.75000e+00	1.704809e-06	
76	-3.80000e+00	1.675688e-06	
77	-3.85000e+00	1.647815e-06	
78	-3.90000e+00	1.621112e-06	
79	-3.95000e+00	1.595508e-06	
80	-4.00000e+00	1.570936e-06	
81	-4.05000e+00	1.547336e-06	
82	-4.10000e+00	1.524652e-06	
83	-4.15000e+00	1.502832e-06	
84	-4.20000e+00	1.481828e-06	
85	-4.25000e+00	1.461595e-06	
86	-4.30000e+00	1.442093e-06	
87	-4.35000e+00	1.423283e-06	
88	-4.40000e+00	1.405128e-06	
89	-4.45000e+00	1.387596e-06	
90	-4.50000e+00	1.370656e-06	
91	-4.55000e+00	1.354278e-06	
92	-4.60000e+00	1.338435e-06	
93	-4.65000e+00	1.323101e-06	
94	-4.70000e+00	1.308254e-06	
95	-4.75000e+00	1.293869e-06	
96	-4.80000e+00	1.279927e-06	
97	-4.85000e+00	1.266408e-06	
98	-4.90000e+00	1.253292e-06	
99	-4.95000e+00	1.240562e-06	
100	-5.00000e+00	1.228202e-06	
101	-5.05000e+00	1.216196e-06	
102	-5.10000e+00	1.204529e-06	
103	-5.15000e+00	1.193188e-06	
104	-5.20000e+00	1.182159e-06	
105	-5.25000e+00	1.171429e-06	
106	-5.30000e+00	1.160988e-06	
107	-5.35000e+00	1.150824e-06	
108	-5.40000e+00	1.140926e-06	
109	-5.45000e+00	1.131284e-06	
110	-5.50000e+00	1.121889e-06	
111	-5.55000e+00	1.112732e-06	
112	-5.60000e+00	1.103804e-06	

Index   v-sweep         rds             
--------------------------------------------------------------------------------
113	-5.65000e+00	1.095097e-06	
114	-5.70000e+00	1.086603e-06	
115	-5.75000e+00	1.078316e-06	
116	-5.80000e+00	1.070227e-06	
117	-5.85000e+00	1.062330e-06	
118	-5.90000e+00	1.054620e-06	
119	-5.95000e+00	1.047089e-06	
120	-6.00000e+00	1.039733e-06	
121	-6.05000e+00	1.032545e-06	
122	-6.10000e+00	1.025520e-06	
123	-6.15000e+00	1.018654e-06	
124	-6.20000e+00	1.011941e-06	
125	-6.25000e+00	1.005378e-06	
126	-6.30000e+00	9.989593e-07	
127	-6.35000e+00	9.926812e-07	
128	-6.40000e+00	9.865399e-07	
129	-6.45000e+00	9.805314e-07	
130	-6.50000e+00	9.746521e-07	
131	-6.55000e+00	9.688987e-07	
132	-6.60000e+00	9.632677e-07	
Reset re-loads circuit ***************************

Circuit: ***************************

Doing analysis at TEMP = 25.000000 and TNOM = 25.000000


No. of Data Rows : 133
                          ***************************
                          DC transfer characteristic  Mon Jan  9 13:58:52  2023
--------------------------------------------------------------------------------
Index   v-sweep         rds             
--------------------------------------------------------------------------------
0	0.000000e+00	4.437441e-05	
1	-5.00000e-02	4.354650e-05	
2	-1.00000e-01	4.272359e-05	
3	-1.50000e-01	4.190567e-05	
4	-2.00000e-01	4.109269e-05	
5	-2.50000e-01	4.028463e-05	
6	-3.00000e-01	3.948147e-05	
7	-3.50000e-01	3.868317e-05	
8	-4.00000e-01	3.788971e-05	
9	-4.50000e-01	3.710106e-05	
10	-5.00000e-01	3.631719e-05	
11	-5.50000e-01	3.553807e-05	
12	-6.00000e-01	3.476367e-05	
13	-6.50000e-01	3.399397e-05	
14	-7.00000e-01	3.322894e-05	
15	-7.50000e-01	3.246856e-05	
16	-8.00000e-01	3.171279e-05	
17	-8.50000e-01	3.096161e-05	
18	-9.00000e-01	3.021500e-05	
19	-9.50000e-01	2.947292e-05	
20	-1.00000e+00	2.873536e-05	
21	-1.05000e+00	2.800229e-05	
22	-1.10000e+00	2.727368e-05	
23	-1.15000e+00	2.654952e-05	
24	-1.20000e+00	2.582977e-05	
25	-1.25000e+00	2.511443e-05	
26	-1.30000e+00	2.440345e-05	
27	-1.35000e+00	2.369684e-05	
28	-1.40000e+00	2.299457e-05	
29	-1.45000e+00	2.229662e-05	
30	-1.50000e+00	2.160299e-05	
31	-1.55000e+00	2.091365e-05	
32	-1.60000e+00	2.022861e-05	
33	-1.65000e+00	1.954786e-05	
34	-1.70000e+00	1.887140e-05	
35	-1.75000e+00	1.819925e-05	
36	-1.80000e+00	1.753142e-05	
37	-1.85000e+00	1.686795e-05	
38	-1.90000e+00	1.620890e-05	
39	-1.95000e+00	1.555432e-05	
40	-2.00000e+00	1.490433e-05	
41	-2.05000e+00	1.425907e-05	
42	-2.10000e+00	1.361875e-05	
43	-2.15000e+00	1.298367e-05	
44	-2.20000e+00	1.235425e-05	
45	-2.25000e+00	1.173108e-05	
46	-2.30000e+00	1.111502e-05	
47	-2.35000e+00	1.050732e-05	
48	-2.40000e+00	9.909754e-06	
49	-2.45000e+00	9.324872e-06	
50	-2.50000e+00	8.756209e-06	
51	-2.55000e+00	8.208453e-06	
52	-2.60000e+00	7.687334e-06	
53	-2.65000e+00	7.198985e-06	
54	-2.70000e+00	6.748712e-06	

Index   v-sweep         rds             
--------------------------------------------------------------------------------
55	-2.75000e+00	6.339608e-06	
56	-2.80000e+00	5.971805e-06	
57	-2.85000e+00	5.642842e-06	
58	-2.90000e+00	5.348757e-06	
59	-2.95000e+00	5.085174e-06	
60	-3.00000e+00	4.847971e-06	
61	-3.05000e+00	4.633546e-06	
62	-3.10000e+00	4.438850e-06	
63	-3.15000e+00	4.261329e-06	
64	-3.20000e+00	4.098845e-06	
65	-3.25000e+00	3.949592e-06	
66	-3.30000e+00	3.812044e-06	
67	-3.35000e+00	3.684896e-06	
68	-3.40000e+00	3.567029e-06	
69	-3.45000e+00	3.457477e-06	
70	-3.50000e+00	3.355403e-06	
71	-3.55000e+00	3.260077e-06	
72	-3.60000e+00	3.170859e-06	
73	-3.65000e+00	3.087189e-06	
74	-3.70000e+00	3.008570e-06	
75	-3.75000e+00	2.934564e-06	
76	-3.80000e+00	2.864781e-06	
77	-3.85000e+00	2.798873e-06	
78	-3.90000e+00	2.736529e-06	
79	-3.95000e+00	2.677472e-06	
80	-4.00000e+00	2.621451e-06	
81	-4.05000e+00	2.568239e-06	
82	-4.10000e+00	2.517632e-06	
83	-4.15000e+00	2.469446e-06	
84	-4.20000e+00	2.423513e-06	
85	-4.25000e+00	2.379680e-06	
86	-4.30000e+00	2.337807e-06	
87	-4.35000e+00	2.297767e-06	
88	-4.40000e+00	2.259443e-06	
89	-4.45000e+00	2.222728e-06	
90	-4.50000e+00	2.187525e-06	
91	-4.55000e+00	2.153742e-06	
92	-4.60000e+00	2.121296e-06	
93	-4.65000e+00	2.090110e-06	
94	-4.70000e+00	2.060112e-06	
95	-4.75000e+00	2.031237e-06	
96	-4.80000e+00	2.003424e-06	
97	-4.85000e+00	1.976615e-06	
98	-4.90000e+00	1.950758e-06	
99	-4.95000e+00	1.925803e-06	
100	-5.00000e+00	1.901704e-06	
101	-5.05000e+00	1.878419e-06	
102	-5.10000e+00	1.855907e-06	
103	-5.15000e+00	1.834132e-06	
104	-5.20000e+00	1.813057e-06	
105	-5.25000e+00	1.792650e-06	
106	-5.30000e+00	1.772880e-06	
107	-5.35000e+00	1.753719e-06	
108	-5.40000e+00	1.735138e-06	
109	-5.45000e+00	1.717112e-06	
110	-5.50000e+00	1.699618e-06	
111	-5.55000e+00	1.682631e-06	
112	-5.60000e+00	1.666132e-06	

Index   v-sweep         rds             
--------------------------------------------------------------------------------
113	-5.65000e+00	1.650098e-06	
114	-5.70000e+00	1.634512e-06	
115	-5.75000e+00	1.619356e-06	
116	-5.80000e+00	1.604611e-06	
117	-5.85000e+00	1.590263e-06	
118	-5.90000e+00	1.576294e-06	
119	-5.95000e+00	1.562692e-06	
120	-6.00000e+00	1.549443e-06	
121	-6.05000e+00	1.536532e-06	
122	-6.10000e+00	1.523948e-06	
123	-6.15000e+00	1.511679e-06	
124	-6.20000e+00	1.499714e-06	
125	-6.25000e+00	1.488041e-06	
126	-6.30000e+00	1.476652e-06	
127	-6.35000e+00	1.465537e-06	
128	-6.40000e+00	1.454685e-06	
129	-6.45000e+00	1.444089e-06	
130	-6.50000e+00	1.433740e-06	
131	-6.55000e+00	1.423631e-06	
132	-6.60000e+00	1.413753e-06	
Reset re-loads circuit ***************************

Circuit: ***************************

Doing analysis at TEMP = 25.000000 and TNOM = 25.000000


No. of Data Rows : 133
                          ***************************
                          DC transfer characteristic  Mon Jan  9 13:58:52  2023
--------------------------------------------------------------------------------
Index   v-sweep         rds             
--------------------------------------------------------------------------------
0	0.000000e+00	5.153965e-05	
1	-5.00000e-02	5.075109e-05	
2	-1.00000e-01	4.996671e-05	
3	-1.50000e-01	4.918648e-05	
4	-2.00000e-01	4.841040e-05	
5	-2.50000e-01	4.763843e-05	
6	-3.00000e-01	4.687055e-05	
7	-3.50000e-01	4.610675e-05	
8	-4.00000e-01	4.534701e-05	
9	-4.50000e-01	4.459129e-05	
10	-5.00000e-01	4.383960e-05	
11	-5.50000e-01	4.309190e-05	
12	-6.00000e-01	4.234817e-05	
13	-6.50000e-01	4.160839e-05	
14	-7.00000e-01	4.087255e-05	
15	-7.50000e-01	4.014062e-05	
16	-8.00000e-01	3.941259e-05	
17	-8.50000e-01	3.868843e-05	
18	-9.00000e-01	3.796812e-05	
19	-9.50000e-01	3.725165e-05	
20	-1.00000e+00	3.653899e-05	
21	-1.05000e+00	3.583014e-05	
22	-1.10000e+00	3.512506e-05	
23	-1.15000e+00	3.442373e-05	
24	-1.20000e+00	3.372615e-05	
25	-1.25000e+00	3.303229e-05	
26	-1.30000e+00	3.234214e-05	
27	-1.35000e+00	3.165567e-05	
28	-1.40000e+00	3.097287e-05	
29	-1.45000e+00	3.029372e-05	
30	-1.50000e+00	2.961820e-05	
31	-1.55000e+00	2.894630e-05	
32	-1.60000e+00	2.827801e-05	
33	-1.65000e+00	2.761331e-05	
34	-1.70000e+00	2.695217e-05	
35	-1.75000e+00	2.629460e-05	
36	-1.80000e+00	2.564057e-05	
37	-1.85000e+00	2.499008e-05	
38	-1.90000e+00	2.434312e-05	
39	-1.95000e+00	2.369967e-05	
40	-2.00000e+00	2.305973e-05	
41	-2.05000e+00	2.242329e-05	
42	-2.10000e+00	2.179036e-05	
43	-2.15000e+00	2.116093e-05	
44	-2.20000e+00	2.053501e-05	
45	-2.25000e+00	1.991261e-05	
46	-2.30000e+00	1.929375e-05	
47	-2.35000e+00	1.867845e-05	
48	-2.40000e+00	1.806675e-05	
49	-2.45000e+00	1.745870e-05	
50	-2.50000e+00	1.685437e-05	
51	-2.55000e+00	1.625385e-05	
52	-2.60000e+00	1.565727e-05	
53	-2.65000e+00	1.506479e-05	
54	-2.70000e+00	1.447665e-05	

Index   v-sweep         rds             
--------------------------------------------------------------------------------
55	-2.75000e+00	1.389314e-05	
56	-2.80000e+00	1.331470e-05	
57	-2.85000e+00	1.274188e-05	
58	-2.90000e+00	1.217547e-05	
59	-2.95000e+00	1.161653e-05	
60	-3.00000e+00	1.106651e-05	
61	-3.05000e+00	1.052732e-05	
62	-3.10000e+00	1.000143e-05	
63	-3.15000e+00	9.491874e-06	
64	-3.20000e+00	9.002120e-06	
65	-3.25000e+00	8.535709e-06	
66	-3.30000e+00	8.095762e-06	
67	-3.35000e+00	7.684483e-06	
68	-3.40000e+00	7.302867e-06	
69	-3.45000e+00	6.950721e-06	
70	-3.50000e+00	6.626915e-06	
71	-3.55000e+00	6.329709e-06	
72	-3.60000e+00	6.057047e-06	
73	-3.65000e+00	5.806770e-06	
74	-3.70000e+00	5.576764e-06	
75	-3.75000e+00	5.365033e-06	
76	-3.80000e+00	5.169747e-06	
77	-3.85000e+00	4.989247e-06	
78	-3.90000e+00	4.822050e-06	
79	-3.95000e+00	4.666834e-06	
80	-4.00000e+00	4.522430e-06	
81	-4.05000e+00	4.387800e-06	
82	-4.10000e+00	4.262023e-06	
83	-4.15000e+00	4.144287e-06	
84	-4.20000e+00	4.033869e-06	
85	-4.25000e+00	3.930125e-06	
86	-4.30000e+00	3.832484e-06	
87	-4.35000e+00	3.740436e-06	
88	-4.40000e+00	3.653522e-06	
89	-4.45000e+00	3.571334e-06	
90	-4.50000e+00	3.493503e-06	
91	-4.55000e+00	3.419697e-06	
92	-4.60000e+00	3.349617e-06	
93	-4.65000e+00	3.282992e-06	
94	-4.70000e+00	3.219576e-06	
95	-4.75000e+00	3.159146e-06	
96	-4.80000e+00	3.101499e-06	
97	-4.85000e+00	3.046449e-06	
98	-4.90000e+00	2.993827e-06	
99	-4.95000e+00	2.943477e-06	
100	-5.00000e+00	2.895257e-06	
101	-5.05000e+00	2.849037e-06	
102	-5.10000e+00	2.804695e-06	
103	-5.15000e+00	2.762122e-06	
104	-5.20000e+00	2.721214e-06	
105	-5.25000e+00	2.681876e-06	
106	-5.30000e+00	2.644022e-06	
107	-5.35000e+00	2.607569e-06	
108	-5.40000e+00	2.572442e-06	
109	-5.45000e+00	2.538570e-06	
110	-5.50000e+00	2.505889e-06	
111	-5.55000e+00	2.474337e-06	
112	-5.60000e+00	2.443858e-06	

Index   v-sweep         rds             
--------------------------------------------------------------------------------
113	-5.65000e+00	2.414397e-06	
114	-5.70000e+00	2.385907e-06	
115	-5.75000e+00	2.358339e-06	
116	-5.80000e+00	2.331651e-06	
117	-5.85000e+00	2.305801e-06	
118	-5.90000e+00	2.280751e-06	
119	-5.95000e+00	2.256465e-06	
120	-6.00000e+00	2.232910e-06	
121	-6.05000e+00	2.210052e-06	
122	-6.10000e+00	2.187862e-06	
123	-6.15000e+00	2.166312e-06	
124	-6.20000e+00	2.145374e-06	
125	-6.25000e+00	2.125024e-06	
126	-6.30000e+00	2.105238e-06	
127	-6.35000e+00	2.085992e-06	
128	-6.40000e+00	2.067266e-06	
129	-6.45000e+00	2.049039e-06	
130	-6.50000e+00	2.031292e-06	
131	-6.55000e+00	2.014006e-06	
132	-6.60000e+00	1.997166e-06	
Reset re-loads circuit ***************************

Circuit: ***************************

Note: No ".plot", ".print", or ".fourier" lines; no simulations run
