
Note: Compatibility modes selected: hs

Warning: m=xx on .subckt line will override multiplier m hierarchy!


Circuit: ***************************

Doing analysis at TEMP = -40.000000 and TNOM = -40.000000


No. of Data Rows : 133
                          ***************************
                          DC transfer characteristic  Mon Jan  9 13:58:52  2023
--------------------------------------------------------------------------------
Index   v-sweep         rds             
--------------------------------------------------------------------------------
0	0.000000e+00	3.152315e-06	
1	-5.00000e-02	8.150281e-07	
2	-1.00000e-01	1.019783e-07	
3	-1.50000e-01	2.262320e-08	
4	-2.00000e-01	9.149202e-09	
5	-2.50000e-01	5.293226e-09	
6	-3.00000e-01	3.756034e-09	
7	-3.50000e-01	2.992876e-09	
8	-4.00000e-01	2.551069e-09	
9	-4.50000e-01	2.265273e-09	
10	-5.00000e-01	2.064700e-09	
11	-5.50000e-01	1.915159e-09	
12	-6.00000e-01	1.798485e-09	
13	-6.50000e-01	1.704252e-09	
14	-7.00000e-01	1.626086e-09	
15	-7.50000e-01	1.559875e-09	
16	-8.00000e-01	1.502846e-09	
17	-8.50000e-01	1.453056e-09	
18	-9.00000e-01	1.409099e-09	
19	-9.50000e-01	1.369928e-09	
20	-1.00000e+00	1.334744e-09	
21	-1.05000e+00	1.302929e-09	
22	-1.10000e+00	1.273989e-09	
23	-1.15000e+00	1.247530e-09	
24	-1.20000e+00	1.223229e-09	
25	-1.25000e+00	1.200819e-09	
26	-1.30000e+00	1.180078e-09	
27	-1.35000e+00	1.160820e-09	
28	-1.40000e+00	1.142883e-09	
29	-1.45000e+00	1.126133e-09	
30	-1.50000e+00	1.110452e-09	
31	-1.55000e+00	1.095737e-09	
32	-1.60000e+00	1.081901e-09	
33	-1.65000e+00	1.068863e-09	
34	-1.70000e+00	1.056557e-09	
35	-1.75000e+00	1.044920e-09	
36	-1.80000e+00	1.033899e-09	
37	-1.85000e+00	1.023445e-09	
38	-1.90000e+00	1.013515e-09	
39	-1.95000e+00	1.004070e-09	
40	-2.00000e+00	9.950745e-10	
41	-2.05000e+00	9.864973e-10	
42	-2.10000e+00	9.783094e-10	
43	-2.15000e+00	9.704848e-10	
44	-2.20000e+00	9.629994e-10	
45	-2.25000e+00	9.558317e-10	
46	-2.30000e+00	9.489616e-10	
47	-2.35000e+00	9.423709e-10	
48	-2.40000e+00	9.360428e-10	
49	-2.45000e+00	9.299620e-10	
50	-2.50000e+00	9.241140e-10	
51	-2.55000e+00	9.184858e-10	
52	-2.60000e+00	9.130652e-10	
53	-2.65000e+00	9.078410e-10	
54	-2.70000e+00	9.028025e-10	

Index   v-sweep         rds             
--------------------------------------------------------------------------------
55	-2.75000e+00	8.979401e-10	
56	-2.80000e+00	8.932448e-10	
57	-2.85000e+00	8.887080e-10	
58	-2.90000e+00	8.843220e-10	
59	-2.95000e+00	8.800793e-10	
60	-3.00000e+00	8.759730e-10	
61	-3.05000e+00	8.719968e-10	
62	-3.10000e+00	8.681446e-10	
63	-3.15000e+00	8.644107e-10	
64	-3.20000e+00	8.607898e-10	
65	-3.25000e+00	8.572769e-10	
66	-3.30000e+00	8.538672e-10	
67	-3.35000e+00	8.505565e-10	
68	-3.40000e+00	8.473405e-10	
69	-3.45000e+00	8.442152e-10	
70	-3.50000e+00	8.411769e-10	
71	-3.55000e+00	8.382222e-10	
72	-3.60000e+00	8.353478e-10	
73	-3.65000e+00	8.325504e-10	
74	-3.70000e+00	8.298271e-10	
75	-3.75000e+00	8.271752e-10	
76	-3.80000e+00	8.245918e-10	
77	-3.85000e+00	8.220747e-10	
78	-3.90000e+00	8.196212e-10	
79	-3.95000e+00	8.172292e-10	
80	-4.00000e+00	8.148965e-10	
81	-4.05000e+00	8.126210e-10	
82	-4.10000e+00	8.104008e-10	
83	-4.15000e+00	8.082340e-10	
84	-4.20000e+00	8.061189e-10	
85	-4.25000e+00	8.040538e-10	
86	-4.30000e+00	8.020371e-10	
87	-4.35000e+00	8.000672e-10	
88	-4.40000e+00	7.981427e-10	
89	-4.45000e+00	7.962622e-10	
90	-4.50000e+00	7.944244e-10	
91	-4.55000e+00	7.926281e-10	
92	-4.60000e+00	7.908719e-10	
93	-4.65000e+00	7.891548e-10	
94	-4.70000e+00	7.874756e-10	
95	-4.75000e+00	7.858333e-10	
96	-4.80000e+00	7.842269e-10	
97	-4.85000e+00	7.826554e-10	
98	-4.90000e+00	7.811179e-10	
99	-4.95000e+00	7.796135e-10	
100	-5.00000e+00	7.781413e-10	
101	-5.05000e+00	7.767006e-10	
102	-5.10000e+00	7.752905e-10	
103	-5.15000e+00	7.739103e-10	
104	-5.20000e+00	7.725592e-10	
105	-5.25000e+00	7.712367e-10	
106	-5.30000e+00	7.699419e-10	
107	-5.35000e+00	7.686743e-10	
108	-5.40000e+00	7.674332e-10	
109	-5.45000e+00	7.662181e-10	
110	-5.50000e+00	7.650284e-10	
111	-5.55000e+00	7.638634e-10	
112	-5.60000e+00	7.627228e-10	

Index   v-sweep         rds             
--------------------------------------------------------------------------------
113	-5.65000e+00	7.616060e-10	
114	-5.70000e+00	7.605124e-10	
115	-5.75000e+00	7.594417e-10	
116	-5.80000e+00	7.583933e-10	
117	-5.85000e+00	7.573668e-10	
118	-5.90000e+00	7.563618e-10	
119	-5.95000e+00	7.553779e-10	
120	-6.00000e+00	7.544146e-10	
121	-6.05000e+00	7.534715e-10	
122	-6.10000e+00	7.525484e-10	
123	-6.15000e+00	7.516447e-10	
124	-6.20000e+00	7.507602e-10	
125	-6.25000e+00	7.498946e-10	
126	-6.30000e+00	7.490474e-10	
127	-6.35000e+00	7.482184e-10	
128	-6.40000e+00	7.474072e-10	
129	-6.45000e+00	7.466136e-10	
130	-6.50000e+00	7.458372e-10	
131	-6.55000e+00	7.450777e-10	
132	-6.60000e+00	7.443349e-10	
Reset re-loads circuit ***************************

Circuit: ***************************

Doing analysis at TEMP = -40.000000 and TNOM = -40.000000


No. of Data Rows : 133
                          ***************************
                          DC transfer characteristic  Mon Jan  9 13:58:52  2023
--------------------------------------------------------------------------------
Index   v-sweep         rds             
--------------------------------------------------------------------------------
0	0.000000e+00	6.672727e-05	
1	-5.00000e-02	6.213089e-05	
2	-1.00000e-01	5.754366e-05	
3	-1.50000e-01	5.296598e-05	
4	-2.00000e-01	4.839843e-05	
5	-2.50000e-01	4.384198e-05	
6	-3.00000e-01	3.929826e-05	
7	-3.50000e-01	3.477007e-05	
8	-4.00000e-01	3.026253e-05	
9	-4.50000e-01	2.578531e-05	
10	-5.00000e-01	2.135775e-05	
11	-5.50000e-01	1.702004e-05	
12	-6.00000e-01	1.285712e-05	
13	-6.50000e-01	9.039087e-06	
14	-7.00000e-01	5.843363e-06	
15	-7.50000e-01	3.538408e-06	
16	-8.00000e-01	2.135290e-06	
17	-8.50000e-01	1.374621e-06	
18	-9.00000e-01	9.725836e-07	
19	-9.50000e-01	7.509656e-07	
20	-1.00000e+00	6.197600e-07	
21	-1.05000e+00	5.359753e-07	
22	-1.10000e+00	4.786780e-07	
23	-1.15000e+00	4.371654e-07	
24	-1.20000e+00	4.056428e-07	
25	-1.25000e+00	3.807888e-07	
26	-1.30000e+00	3.605964e-07	
27	-1.35000e+00	3.437931e-07	
28	-1.40000e+00	3.295372e-07	
29	-1.45000e+00	3.172509e-07	
30	-1.50000e+00	3.065238e-07	
31	-1.55000e+00	2.970565e-07	
32	-1.60000e+00	2.886244e-07	
33	-1.65000e+00	2.810557e-07	
34	-1.70000e+00	2.742163e-07	
35	-1.75000e+00	2.679998e-07	
36	-1.80000e+00	2.623202e-07	
37	-1.85000e+00	2.571076e-07	
38	-1.90000e+00	2.523041e-07	
39	-1.95000e+00	2.478613e-07	
40	-2.00000e+00	2.437387e-07	
41	-2.05000e+00	2.399015e-07	
42	-2.10000e+00	2.363202e-07	
43	-2.15000e+00	2.329693e-07	
44	-2.20000e+00	2.298266e-07	
45	-2.25000e+00	2.268729e-07	
46	-2.30000e+00	2.240912e-07	
47	-2.35000e+00	2.214666e-07	
48	-2.40000e+00	2.189859e-07	
49	-2.45000e+00	2.166374e-07	
50	-2.50000e+00	2.144106e-07	
51	-2.55000e+00	2.122962e-07	
52	-2.60000e+00	2.102858e-07	
53	-2.65000e+00	2.083717e-07	
54	-2.70000e+00	2.065471e-07	

Index   v-sweep         rds             
--------------------------------------------------------------------------------
55	-2.75000e+00	2.048059e-07	
56	-2.80000e+00	2.031424e-07	
57	-2.85000e+00	2.015515e-07	
58	-2.90000e+00	2.000284e-07	
59	-2.95000e+00	1.985689e-07	
60	-3.00000e+00	1.971691e-07	
61	-3.05000e+00	1.958253e-07	
62	-3.10000e+00	1.945343e-07	
63	-3.15000e+00	1.932930e-07	
64	-3.20000e+00	1.920986e-07	
65	-3.25000e+00	1.909484e-07	
66	-3.30000e+00	1.898400e-07	
67	-3.35000e+00	1.887712e-07	
68	-3.40000e+00	1.877399e-07	
69	-3.45000e+00	1.867441e-07	
70	-3.50000e+00	1.857821e-07	
71	-3.55000e+00	1.848521e-07	
72	-3.60000e+00	1.839527e-07	
73	-3.65000e+00	1.830822e-07	
74	-3.70000e+00	1.822394e-07	
75	-3.75000e+00	1.814230e-07	
76	-3.80000e+00	1.806316e-07	
77	-3.85000e+00	1.798643e-07	
78	-3.90000e+00	1.791199e-07	
79	-3.95000e+00	1.783974e-07	
80	-4.00000e+00	1.776959e-07	
81	-4.05000e+00	1.770145e-07	
82	-4.10000e+00	1.763524e-07	
83	-4.15000e+00	1.757087e-07	
84	-4.20000e+00	1.750828e-07	
85	-4.25000e+00	1.744738e-07	
86	-4.30000e+00	1.738812e-07	
87	-4.35000e+00	1.733042e-07	
88	-4.40000e+00	1.727424e-07	
89	-4.45000e+00	1.721952e-07	
90	-4.50000e+00	1.716619e-07	
91	-4.55000e+00	1.711421e-07	
92	-4.60000e+00	1.706354e-07	
93	-4.65000e+00	1.701412e-07	
94	-4.70000e+00	1.696591e-07	
95	-4.75000e+00	1.691887e-07	
96	-4.80000e+00	1.687296e-07	
97	-4.85000e+00	1.682814e-07	
98	-4.90000e+00	1.678438e-07	
99	-4.95000e+00	1.674165e-07	
100	-5.00000e+00	1.669990e-07	
101	-5.05000e+00	1.665912e-07	
102	-5.10000e+00	1.661926e-07	
103	-5.15000e+00	1.658031e-07	
104	-5.20000e+00	1.654224e-07	
105	-5.25000e+00	1.650501e-07	
106	-5.30000e+00	1.646861e-07	
107	-5.35000e+00	1.643301e-07	
108	-5.40000e+00	1.639819e-07	
109	-5.45000e+00	1.636413e-07	
110	-5.50000e+00	1.633080e-07	
111	-5.55000e+00	1.629820e-07	
112	-5.60000e+00	1.626629e-07	

Index   v-sweep         rds             
--------------------------------------------------------------------------------
113	-5.65000e+00	1.623507e-07	
114	-5.70000e+00	1.620451e-07	
115	-5.75000e+00	1.617459e-07	
116	-5.80000e+00	1.614531e-07	
117	-5.85000e+00	1.611664e-07	
118	-5.90000e+00	1.608858e-07	
119	-5.95000e+00	1.606110e-07	
120	-6.00000e+00	1.603420e-07	
121	-6.05000e+00	1.600786e-07	
122	-6.10000e+00	1.598206e-07	
123	-6.15000e+00	1.595680e-07	
124	-6.20000e+00	1.593207e-07	
125	-6.25000e+00	1.590785e-07	
126	-6.30000e+00	1.588413e-07	
127	-6.35000e+00	1.586091e-07	
128	-6.40000e+00	1.583816e-07	
129	-6.45000e+00	1.581589e-07	
130	-6.50000e+00	1.579409e-07	
131	-6.55000e+00	1.577273e-07	
132	-6.60000e+00	1.575182e-07	
Reset re-loads circuit ***************************

Circuit: ***************************

Doing analysis at TEMP = -40.000000 and TNOM = -40.000000


No. of Data Rows : 133
                          ***************************
                          DC transfer characteristic  Mon Jan  9 13:58:52  2023
--------------------------------------------------------------------------------
Index   v-sweep         rds             
--------------------------------------------------------------------------------
0	0.000000e+00	1.200598e-04	
1	-5.00000e-02	1.158283e-04	
2	-1.00000e-01	1.116039e-04	
3	-1.50000e-01	1.073865e-04	
4	-2.00000e-01	1.031762e-04	
5	-2.50000e-01	9.897288e-05	
6	-3.00000e-01	9.477671e-05	
7	-3.50000e-01	9.058767e-05	
8	-4.00000e-01	8.640582e-05	
9	-4.50000e-01	8.223123e-05	
10	-5.00000e-01	7.806399e-05	
11	-5.50000e-01	7.390424e-05	
12	-6.00000e-01	6.975217e-05	
13	-6.50000e-01	6.560804e-05	
14	-7.00000e-01	6.147220e-05	
15	-7.50000e-01	5.734516e-05	
16	-8.00000e-01	5.322768e-05	
17	-8.50000e-01	4.912084e-05	
18	-9.00000e-01	4.502628e-05	
19	-9.50000e-01	4.094652e-05	
20	-1.00000e+00	3.688551e-05	
21	-1.05000e+00	3.284963e-05	
22	-1.10000e+00	2.884942e-05	
23	-1.15000e+00	2.490266e-05	
24	-1.20000e+00	2.103969e-05	
25	-1.25000e+00	1.731196e-05	
26	-1.30000e+00	1.380293e-05	
27	-1.35000e+00	1.063422e-05	
28	-1.40000e+00	7.947839e-06	
29	-1.45000e+00	5.848887e-06	
30	-1.50000e+00	4.340952e-06	
31	-1.55000e+00	3.323947e-06	
32	-1.60000e+00	2.656966e-06	
33	-1.65000e+00	2.217035e-06	
34	-1.70000e+00	1.918595e-06	
35	-1.75000e+00	1.708213e-06	
36	-1.80000e+00	1.553819e-06	
37	-1.85000e+00	1.436194e-06	
38	-1.90000e+00	1.343600e-06	
39	-1.95000e+00	1.268662e-06	
40	-2.00000e+00	1.206596e-06	
41	-2.05000e+00	1.154196e-06	
42	-2.10000e+00	1.109248e-06	
43	-2.15000e+00	1.070177e-06	
44	-2.20000e+00	1.035833e-06	
45	-2.25000e+00	1.005356e-06	
46	-2.30000e+00	9.780910e-07	
47	-2.35000e+00	9.535276e-07	
48	-2.40000e+00	9.312624e-07	
49	-2.45000e+00	9.109717e-07	
50	-2.50000e+00	8.923920e-07	
51	-2.55000e+00	8.753066e-07	
52	-2.60000e+00	8.595352e-07	
53	-2.65000e+00	8.449265e-07	
54	-2.70000e+00	8.313522e-07	

Index   v-sweep         rds             
--------------------------------------------------------------------------------
55	-2.75000e+00	8.187029e-07	
56	-2.80000e+00	8.068846e-07	
57	-2.85000e+00	7.958159e-07	
58	-2.90000e+00	7.854260e-07	
59	-2.95000e+00	7.756530e-07	
60	-3.00000e+00	7.664425e-07	
61	-3.05000e+00	7.577463e-07	
62	-3.10000e+00	7.495220e-07	
63	-3.15000e+00	7.417314e-07	
64	-3.20000e+00	7.343407e-07	
65	-3.25000e+00	7.273195e-07	
66	-3.30000e+00	7.206405e-07	
67	-3.35000e+00	7.142789e-07	
68	-3.40000e+00	7.082124e-07	
69	-3.45000e+00	7.024208e-07	
70	-3.50000e+00	6.968857e-07	
71	-3.55000e+00	6.915903e-07	
72	-3.60000e+00	6.865191e-07	
73	-3.65000e+00	6.816583e-07	
74	-3.70000e+00	6.769949e-07	
75	-3.75000e+00	6.725171e-07	
76	-3.80000e+00	6.682139e-07	
77	-3.85000e+00	6.640753e-07	
78	-3.90000e+00	6.600921e-07	
79	-3.95000e+00	6.562555e-07	
80	-4.00000e+00	6.525577e-07	
81	-4.05000e+00	6.489912e-07	
82	-4.10000e+00	6.455492e-07	
83	-4.15000e+00	6.422252e-07	
84	-4.20000e+00	6.390133e-07	
85	-4.25000e+00	6.359079e-07	
86	-4.30000e+00	6.329039e-07	
87	-4.35000e+00	6.299962e-07	
88	-4.40000e+00	6.271805e-07	
89	-4.45000e+00	6.244524e-07	
90	-4.50000e+00	6.218079e-07	
91	-4.55000e+00	6.192433e-07	
92	-4.60000e+00	6.167550e-07	
93	-4.65000e+00	6.143397e-07	
94	-4.70000e+00	6.119942e-07	
95	-4.75000e+00	6.097157e-07	
96	-4.80000e+00	6.075013e-07	
97	-4.85000e+00	6.053484e-07	
98	-4.90000e+00	6.032546e-07	
99	-4.95000e+00	6.012174e-07	
100	-5.00000e+00	5.992347e-07	
101	-5.05000e+00	5.973044e-07	
102	-5.10000e+00	5.954245e-07	
103	-5.15000e+00	5.935931e-07	
104	-5.20000e+00	5.918084e-07	
105	-5.25000e+00	5.900687e-07	
106	-5.30000e+00	5.883724e-07	
107	-5.35000e+00	5.867181e-07	
108	-5.40000e+00	5.851042e-07	
109	-5.45000e+00	5.835293e-07	
110	-5.50000e+00	5.819922e-07	
111	-5.55000e+00	5.804917e-07	
112	-5.60000e+00	5.790265e-07	

Index   v-sweep         rds             
--------------------------------------------------------------------------------
113	-5.65000e+00	5.775954e-07	
114	-5.70000e+00	5.761975e-07	
115	-5.75000e+00	5.748317e-07	
116	-5.80000e+00	5.734970e-07	
117	-5.85000e+00	5.721925e-07	
118	-5.90000e+00	5.709172e-07	
119	-5.95000e+00	5.696704e-07	
120	-6.00000e+00	5.684513e-07	
121	-6.05000e+00	5.672589e-07	
122	-6.10000e+00	5.660927e-07	
123	-6.15000e+00	5.649519e-07	
124	-6.20000e+00	5.638358e-07	
125	-6.25000e+00	5.627437e-07	
126	-6.30000e+00	5.616750e-07	
127	-6.35000e+00	5.606292e-07	
128	-6.40000e+00	5.596057e-07	
129	-6.45000e+00	5.586039e-07	
130	-6.50000e+00	5.576232e-07	
131	-6.55000e+00	5.566633e-07	
132	-6.60000e+00	5.557235e-07	
Reset re-loads circuit ***************************

Circuit: ***************************

Doing analysis at TEMP = -40.000000 and TNOM = -40.000000


No. of Data Rows : 133
                          ***************************
                          DC transfer characteristic  Mon Jan  9 13:58:52  2023
--------------------------------------------------------------------------------
Index   v-sweep         rds             
--------------------------------------------------------------------------------
0	0.000000e+00	1.630487e-04	
1	-5.00000e-02	1.591958e-04	
2	-1.00000e-01	1.553488e-04	
3	-1.50000e-01	1.515076e-04	
4	-2.00000e-01	1.476723e-04	
5	-2.50000e-01	1.438428e-04	
6	-3.00000e-01	1.400192e-04	
7	-3.50000e-01	1.362014e-04	
8	-4.00000e-01	1.323894e-04	
9	-4.50000e-01	1.285832e-04	
10	-5.00000e-01	1.247829e-04	
11	-5.50000e-01	1.209884e-04	
12	-6.00000e-01	1.171997e-04	
13	-6.50000e-01	1.134169e-04	
14	-7.00000e-01	1.096399e-04	
15	-7.50000e-01	1.058688e-04	
16	-8.00000e-01	1.021035e-04	
17	-8.50000e-01	9.834425e-05	
18	-9.00000e-01	9.459092e-05	
19	-9.50000e-01	9.084360e-05	
20	-1.00000e+00	8.710235e-05	
21	-1.05000e+00	8.336727e-05	
22	-1.10000e+00	7.963846e-05	
23	-1.15000e+00	7.591606e-05	
24	-1.20000e+00	7.220027e-05	
25	-1.25000e+00	6.849132e-05	
26	-1.30000e+00	6.478956e-05	
27	-1.35000e+00	6.109543e-05	
28	-1.40000e+00	5.740953e-05	
29	-1.45000e+00	5.373270e-05	
30	-1.50000e+00	5.006612e-05	
31	-1.55000e+00	4.641145e-05	
32	-1.60000e+00	4.277110e-05	
33	-1.65000e+00	3.914862e-05	
34	-1.70000e+00	3.554929e-05	
35	-1.75000e+00	3.198112e-05	
36	-1.80000e+00	2.845642e-05	
37	-1.85000e+00	2.499418e-05	
38	-1.90000e+00	2.162358e-05	
39	-1.95000e+00	1.838832e-05	
40	-2.00000e+00	1.535031e-05	
41	-2.05000e+00	1.258830e-05	
42	-2.10000e+00	1.018516e-05	
43	-2.15000e+00	8.201844e-06	
44	-2.20000e+00	6.650661e-06	
45	-2.25000e+00	5.489535e-06	
46	-2.30000e+00	4.642474e-06	
47	-2.35000e+00	4.028054e-06	
48	-2.40000e+00	3.577658e-06	
49	-2.45000e+00	3.240605e-06	
50	-2.50000e+00	2.981942e-06	
51	-2.55000e+00	2.778264e-06	
52	-2.60000e+00	2.613970e-06	
53	-2.65000e+00	2.478570e-06	
54	-2.70000e+00	2.364883e-06	

Index   v-sweep         rds             
--------------------------------------------------------------------------------
55	-2.75000e+00	2.267893e-06	
56	-2.80000e+00	2.184015e-06	
57	-2.85000e+00	2.110632e-06	
58	-2.90000e+00	2.045792e-06	
59	-2.95000e+00	1.988009e-06	
60	-3.00000e+00	1.936133e-06	
61	-3.05000e+00	1.889259e-06	
62	-3.10000e+00	1.846664e-06	
63	-3.15000e+00	1.807763e-06	
64	-3.20000e+00	1.772076e-06	
65	-3.25000e+00	1.739205e-06	
66	-3.30000e+00	1.708819e-06	
67	-3.35000e+00	1.680637e-06	
68	-3.40000e+00	1.654420e-06	
69	-3.45000e+00	1.629966e-06	
70	-3.50000e+00	1.607096e-06	
71	-3.55000e+00	1.585660e-06	
72	-3.60000e+00	1.565522e-06	
73	-3.65000e+00	1.546568e-06	
74	-3.70000e+00	1.528693e-06	
75	-3.75000e+00	1.511806e-06	
76	-3.80000e+00	1.495826e-06	
77	-3.85000e+00	1.480682e-06	
78	-3.90000e+00	1.466309e-06	
79	-3.95000e+00	1.452648e-06	
80	-4.00000e+00	1.439648e-06	
81	-4.05000e+00	1.427261e-06	
82	-4.10000e+00	1.415445e-06	
83	-4.15000e+00	1.404160e-06	
84	-4.20000e+00	1.393371e-06	
85	-4.25000e+00	1.383047e-06	
86	-4.30000e+00	1.373157e-06	
87	-4.35000e+00	1.363675e-06	
88	-4.40000e+00	1.354576e-06	
89	-4.45000e+00	1.345837e-06	
90	-4.50000e+00	1.337437e-06	
91	-4.55000e+00	1.329356e-06	
92	-4.60000e+00	1.321578e-06	
93	-4.65000e+00	1.314084e-06	
94	-4.70000e+00	1.306860e-06	
95	-4.75000e+00	1.299891e-06	
96	-4.80000e+00	1.293164e-06	
97	-4.85000e+00	1.286667e-06	
98	-4.90000e+00	1.280388e-06	
99	-4.95000e+00	1.274317e-06	
100	-5.00000e+00	1.268442e-06	
101	-5.05000e+00	1.262756e-06	
102	-5.10000e+00	1.257249e-06	
103	-5.15000e+00	1.251912e-06	
104	-5.20000e+00	1.246738e-06	
105	-5.25000e+00	1.241720e-06	
106	-5.30000e+00	1.236851e-06	
107	-5.35000e+00	1.232124e-06	
108	-5.40000e+00	1.227533e-06	
109	-5.45000e+00	1.223073e-06	
110	-5.50000e+00	1.218738e-06	
111	-5.55000e+00	1.214523e-06	
112	-5.60000e+00	1.210423e-06	

Index   v-sweep         rds             
--------------------------------------------------------------------------------
113	-5.65000e+00	1.206434e-06	
114	-5.70000e+00	1.202551e-06	
115	-5.75000e+00	1.198771e-06	
116	-5.80000e+00	1.195089e-06	
117	-5.85000e+00	1.191502e-06	
118	-5.90000e+00	1.188006e-06	
119	-5.95000e+00	1.184597e-06	
120	-6.00000e+00	1.181274e-06	
121	-6.05000e+00	1.178033e-06	
122	-6.10000e+00	1.174871e-06	
123	-6.15000e+00	1.171785e-06	
124	-6.20000e+00	1.168773e-06	
125	-6.25000e+00	1.165832e-06	
126	-6.30000e+00	1.162961e-06	
127	-6.35000e+00	1.160156e-06	
128	-6.40000e+00	1.157416e-06	
129	-6.45000e+00	1.154739e-06	
130	-6.50000e+00	1.152123e-06	
131	-6.55000e+00	1.149566e-06	
132	-6.60000e+00	1.147066e-06	
Reset re-loads circuit ***************************

Circuit: ***************************

Doing analysis at TEMP = -40.000000 and TNOM = -40.000000


No. of Data Rows : 133
                          ***************************
                          DC transfer characteristic  Mon Jan  9 13:58:52  2023
--------------------------------------------------------------------------------
Index   v-sweep         rds             
--------------------------------------------------------------------------------
0	0.000000e+00	1.975193e-04	
1	-5.00000e-02	1.940160e-04	
2	-1.00000e-01	1.905176e-04	
3	-1.50000e-01	1.870241e-04	
4	-2.00000e-01	1.835355e-04	
5	-2.50000e-01	1.800519e-04	
6	-3.00000e-01	1.765731e-04	
7	-3.50000e-01	1.730992e-04	
8	-4.00000e-01	1.696303e-04	
9	-4.50000e-01	1.661662e-04	
10	-5.00000e-01	1.627069e-04	
11	-5.50000e-01	1.592526e-04	
12	-6.00000e-01	1.558031e-04	
13	-6.50000e-01	1.523584e-04	
14	-7.00000e-01	1.489187e-04	
15	-7.50000e-01	1.454837e-04	
16	-8.00000e-01	1.420536e-04	
17	-8.50000e-01	1.386284e-04	
18	-9.00000e-01	1.352080e-04	
19	-9.50000e-01	1.317925e-04	
20	-1.00000e+00	1.283818e-04	
21	-1.05000e+00	1.249760e-04	
22	-1.10000e+00	1.215750e-04	
23	-1.15000e+00	1.181789e-04	
24	-1.20000e+00	1.147876e-04	
25	-1.25000e+00	1.114013e-04	
26	-1.30000e+00	1.080198e-04	
27	-1.35000e+00	1.046433e-04	
28	-1.40000e+00	1.012717e-04	
29	-1.45000e+00	9.790509e-05	
30	-1.50000e+00	9.454350e-05	
31	-1.55000e+00	9.118699e-05	
32	-1.60000e+00	8.783561e-05	
33	-1.65000e+00	8.448945e-05	
34	-1.70000e+00	8.114861e-05	
35	-1.75000e+00	7.781321e-05	
36	-1.80000e+00	7.448340e-05	
37	-1.85000e+00	7.115940e-05	
38	-1.90000e+00	6.784147e-05	
39	-1.95000e+00	6.452993e-05	
40	-2.00000e+00	6.122522e-05	
41	-2.05000e+00	5.792793e-05	
42	-2.10000e+00	5.463882e-05	
43	-2.15000e+00	5.135891e-05	
44	-2.20000e+00	4.808962e-05	
45	-2.25000e+00	4.483287e-05	
46	-2.30000e+00	4.159137e-05	
47	-2.35000e+00	3.836893e-05	
48	-2.40000e+00	3.517098e-05	
49	-2.45000e+00	3.200536e-05	
50	-2.50000e+00	2.888346e-05	
51	-2.55000e+00	2.582171e-05	
52	-2.60000e+00	2.284366e-05	
53	-2.65000e+00	1.998209e-05	
54	-2.70000e+00	1.728026e-05	

Index   v-sweep         rds             
--------------------------------------------------------------------------------
55	-2.75000e+00	1.479043e-05	
56	-2.80000e+00	1.256696e-05	
57	-2.85000e+00	1.065367e-05	
58	-2.90000e+00	9.069707e-06	
59	-2.95000e+00	7.802543e-06	
60	-3.00000e+00	6.813204e-06	
61	-3.05000e+00	6.049703e-06	
62	-3.10000e+00	5.460176e-06	
63	-3.15000e+00	5.000514e-06	
64	-3.20000e+00	4.636556e-06	
65	-3.25000e+00	4.343188e-06	
66	-3.30000e+00	4.102400e-06	
67	-3.35000e+00	3.901362e-06	
68	-3.40000e+00	3.730897e-06	
69	-3.45000e+00	3.584364e-06	
70	-3.50000e+00	3.456890e-06	
71	-3.55000e+00	3.344840e-06	
72	-3.60000e+00	3.245456e-06	
73	-3.65000e+00	3.156610e-06	
74	-3.70000e+00	3.076638e-06	
75	-3.75000e+00	3.004218e-06	
76	-3.80000e+00	2.938283e-06	
77	-3.85000e+00	2.877968e-06	
78	-3.90000e+00	2.822556e-06	
79	-3.95000e+00	2.771454e-06	
80	-4.00000e+00	2.724162e-06	
81	-4.05000e+00	2.680257e-06	
82	-4.10000e+00	2.639379e-06	
83	-4.15000e+00	2.601217e-06	
84	-4.20000e+00	2.565504e-06	
85	-4.25000e+00	2.532007e-06	
86	-4.30000e+00	2.500521e-06	
87	-4.35000e+00	2.470868e-06	
88	-4.40000e+00	2.442890e-06	
89	-4.45000e+00	2.416447e-06	
90	-4.50000e+00	2.391415e-06	
91	-4.55000e+00	2.367682e-06	
92	-4.60000e+00	2.345149e-06	
93	-4.65000e+00	2.323726e-06	
94	-4.70000e+00	2.303332e-06	
95	-4.75000e+00	2.283895e-06	
96	-4.80000e+00	2.265348e-06	
97	-4.85000e+00	2.247631e-06	
98	-4.90000e+00	2.230689e-06	
99	-4.95000e+00	2.214473e-06	
100	-5.00000e+00	2.198936e-06	
101	-5.05000e+00	2.184037e-06	
102	-5.10000e+00	2.169736e-06	
103	-5.15000e+00	2.155999e-06	
104	-5.20000e+00	2.142793e-06	
105	-5.25000e+00	2.130087e-06	
106	-5.30000e+00	2.117854e-06	
107	-5.35000e+00	2.106067e-06	
108	-5.40000e+00	2.094704e-06	
109	-5.45000e+00	2.083740e-06	
110	-5.50000e+00	2.073156e-06	
111	-5.55000e+00	2.062932e-06	
112	-5.60000e+00	2.053050e-06	

Index   v-sweep         rds             
--------------------------------------------------------------------------------
113	-5.65000e+00	2.043494e-06	
114	-5.70000e+00	2.034247e-06	
115	-5.75000e+00	2.025295e-06	
116	-5.80000e+00	2.016624e-06	
117	-5.85000e+00	2.008221e-06	
118	-5.90000e+00	2.000074e-06	
119	-5.95000e+00	1.992172e-06	
120	-6.00000e+00	1.984503e-06	
121	-6.05000e+00	1.977058e-06	
122	-6.10000e+00	1.969827e-06	
123	-6.15000e+00	1.962801e-06	
124	-6.20000e+00	1.955972e-06	
125	-6.25000e+00	1.949331e-06	
126	-6.30000e+00	1.942872e-06	
127	-6.35000e+00	1.936586e-06	
128	-6.40000e+00	1.930468e-06	
129	-6.45000e+00	1.924511e-06	
130	-6.50000e+00	1.918708e-06	
131	-6.55000e+00	1.913054e-06	
132	-6.60000e+00	1.907544e-06	
Reset re-loads circuit ***************************

Circuit: ***************************

Doing analysis at TEMP = -40.000000 and TNOM = -40.000000


No. of Data Rows : 133
                          ***************************
                          DC transfer characteristic  Mon Jan  9 13:58:52  2023
--------------------------------------------------------------------------------
Index   v-sweep         rds             
--------------------------------------------------------------------------------
0	0.000000e+00	2.250309e-04	
1	-5.00000e-02	2.218434e-04	
2	-1.00000e-01	2.186601e-04	
3	-1.50000e-01	2.154809e-04	
4	-2.00000e-01	2.123059e-04	
5	-2.50000e-01	2.091350e-04	
6	-3.00000e-01	2.059683e-04	
7	-3.50000e-01	2.028057e-04	
8	-4.00000e-01	1.996472e-04	
9	-4.50000e-01	1.964929e-04	
10	-5.00000e-01	1.933427e-04	
11	-5.50000e-01	1.901966e-04	
12	-6.00000e-01	1.870546e-04	
13	-6.50000e-01	1.839167e-04	
14	-7.00000e-01	1.807829e-04	
15	-7.50000e-01	1.776532e-04	
16	-8.00000e-01	1.745276e-04	
17	-8.50000e-01	1.714061e-04	
18	-9.00000e-01	1.682886e-04	
19	-9.50000e-01	1.651752e-04	
20	-1.00000e+00	1.620659e-04	
21	-1.05000e+00	1.589607e-04	
22	-1.10000e+00	1.558595e-04	
23	-1.15000e+00	1.527624e-04	
24	-1.20000e+00	1.496693e-04	
25	-1.25000e+00	1.465803e-04	
26	-1.30000e+00	1.434953e-04	
27	-1.35000e+00	1.404144e-04	
28	-1.40000e+00	1.373376e-04	
29	-1.45000e+00	1.342648e-04	
30	-1.50000e+00	1.311960e-04	
31	-1.55000e+00	1.281313e-04	
32	-1.60000e+00	1.250707e-04	
33	-1.65000e+00	1.220141e-04	
34	-1.70000e+00	1.189617e-04	
35	-1.75000e+00	1.159133e-04	
36	-1.80000e+00	1.128689e-04	
37	-1.85000e+00	1.098287e-04	
38	-1.90000e+00	1.067927e-04	
39	-1.95000e+00	1.037607e-04	
40	-2.00000e+00	1.007330e-04	
41	-2.05000e+00	9.770939e-05	
42	-2.10000e+00	9.469007e-05	
43	-2.15000e+00	9.167503e-05	
44	-2.20000e+00	8.866433e-05	
45	-2.25000e+00	8.565804e-05	
46	-2.30000e+00	8.265625e-05	
47	-2.35000e+00	7.965904e-05	
48	-2.40000e+00	7.666655e-05	
49	-2.45000e+00	7.367893e-05	
50	-2.50000e+00	7.069638e-05	
51	-2.55000e+00	6.771912e-05	
52	-2.60000e+00	6.474747e-05	
53	-2.65000e+00	6.178179e-05	
54	-2.70000e+00	5.882259e-05	

Index   v-sweep         rds             
--------------------------------------------------------------------------------
55	-2.75000e+00	5.587049e-05	
56	-2.80000e+00	5.292630e-05	
57	-2.85000e+00	4.999111e-05	
58	-2.90000e+00	4.706632e-05	
59	-2.95000e+00	4.415385e-05	
60	-3.00000e+00	4.125627e-05	
61	-3.05000e+00	3.837709e-05	
62	-3.10000e+00	3.552114e-05	
63	-3.15000e+00	3.269508e-05	
64	-3.20000e+00	2.990816e-05	
65	-3.25000e+00	2.717317e-05	
66	-3.30000e+00	2.450754e-05	
67	-3.35000e+00	2.193453e-05	
68	-3.40000e+00	1.948387e-05	
69	-3.45000e+00	1.719107e-05	
70	-3.50000e+00	1.509415e-05	
71	-3.55000e+00	1.322750e-05	
72	-3.60000e+00	1.161374e-05	
73	-3.65000e+00	1.025732e-05	
74	-3.70000e+00	9.143397e-06	
75	-3.75000e+00	8.242574e-06	
76	-3.80000e+00	7.518762e-06	
77	-3.85000e+00	6.936201e-06	
78	-3.90000e+00	6.463665e-06	
79	-3.95000e+00	6.075927e-06	
80	-4.00000e+00	5.753517e-06	
81	-4.05000e+00	5.481768e-06	
82	-4.10000e+00	5.249729e-06	
83	-4.15000e+00	5.049222e-06	
84	-4.20000e+00	4.874095e-06	
85	-4.25000e+00	4.719675e-06	
86	-4.30000e+00	4.582367e-06	
87	-4.35000e+00	4.459368e-06	
88	-4.40000e+00	4.348467e-06	
89	-4.45000e+00	4.247893e-06	
90	-4.50000e+00	4.156216e-06	
91	-4.55000e+00	4.072262e-06	
92	-4.60000e+00	3.995065e-06	
93	-4.65000e+00	3.923814e-06	
94	-4.70000e+00	3.857829e-06	
95	-4.75000e+00	3.796531e-06	
96	-4.80000e+00	3.739427e-06	
97	-4.85000e+00	3.686092e-06	
98	-4.90000e+00	3.636156e-06	
99	-4.95000e+00	3.589299e-06	
100	-5.00000e+00	3.545240e-06	
101	-5.05000e+00	3.503732e-06	
102	-5.10000e+00	3.464558e-06	
103	-5.15000e+00	3.427522e-06	
104	-5.20000e+00	3.392454e-06	
105	-5.25000e+00	3.359198e-06	
106	-5.30000e+00	3.327617e-06	
107	-5.35000e+00	3.297587e-06	
108	-5.40000e+00	3.268994e-06	
109	-5.45000e+00	3.241738e-06	
110	-5.50000e+00	3.215727e-06	
111	-5.55000e+00	3.190876e-06	
112	-5.60000e+00	3.167110e-06	

Index   v-sweep         rds             
--------------------------------------------------------------------------------
113	-5.65000e+00	3.144359e-06	
114	-5.70000e+00	3.122558e-06	
115	-5.75000e+00	3.101651e-06	
116	-5.80000e+00	3.081582e-06	
117	-5.85000e+00	3.062302e-06	
118	-5.90000e+00	3.043765e-06	
119	-5.95000e+00	3.025930e-06	
120	-6.00000e+00	3.008757e-06	
121	-6.05000e+00	2.992210e-06	
122	-6.10000e+00	2.976255e-06	
123	-6.15000e+00	2.960862e-06	
124	-6.20000e+00	2.946001e-06	
125	-6.25000e+00	2.931644e-06	
126	-6.30000e+00	2.917768e-06	
127	-6.35000e+00	2.904348e-06	
128	-6.40000e+00	2.891362e-06	
129	-6.45000e+00	2.878790e-06	
130	-6.50000e+00	2.866612e-06	
131	-6.55000e+00	2.854810e-06	
132	-6.60000e+00	2.843367e-06	
Reset re-loads circuit ***************************

Circuit: ***************************

Note: No ".plot", ".print", or ".fourier" lines; no simulations run
