
Note: Compatibility modes selected: hs

Warning: m=xx on .subckt line will override multiplier m hierarchy!


Circuit: ***************************

Doing analysis at TEMP = 25.000000 and TNOM = 25.000000


No. of Data Rows : 133
                          ***************************
                          DC transfer characteristic  Mon Jan  9 13:58:51  2023
--------------------------------------------------------------------------------
Index   v-sweep         rds             
--------------------------------------------------------------------------------
0	0.000000e+00	6.022289e-07	
1	-5.00000e-02	3.513462e-07	
2	-1.00000e-01	1.375623e-07	
3	-1.50000e-01	3.258411e-08	
4	-2.00000e-01	8.562047e-09	
5	-2.50000e-01	3.417605e-09	
6	-3.00000e-01	1.903321e-09	
7	-3.50000e-01	1.312072e-09	
8	-4.00000e-01	1.027973e-09	
9	-4.50000e-01	8.688652e-10	
10	-5.00000e-01	7.688971e-10	
11	-5.50000e-01	7.003693e-10	
12	-6.00000e-01	6.501779e-10	
13	-6.50000e-01	6.115134e-10	
14	-7.00000e-01	5.805540e-10	
15	-7.50000e-01	5.550124e-10	
16	-8.00000e-01	5.334428e-10	
17	-8.50000e-01	5.148883e-10	
18	-9.00000e-01	4.986892e-10	
19	-9.50000e-01	4.843753e-10	
20	-1.00000e+00	4.716008e-10	
21	-1.05000e+00	4.601050e-10	
22	-1.10000e+00	4.496868e-10	
23	-1.15000e+00	4.401882e-10	
24	-1.20000e+00	4.314825e-10	
25	-1.25000e+00	4.234669e-10	
26	-1.30000e+00	4.160568e-10	
27	-1.35000e+00	4.091818e-10	
28	-1.40000e+00	4.027825e-10	
29	-1.45000e+00	3.968086e-10	
30	-1.50000e+00	3.912170e-10	
31	-1.55000e+00	3.859706e-10	
32	-1.60000e+00	3.810369e-10	
33	-1.65000e+00	3.763880e-10	
34	-1.70000e+00	3.719989e-10	
35	-1.75000e+00	3.678478e-10	
36	-1.80000e+00	3.639153e-10	
37	-1.85000e+00	3.601842e-10	
38	-1.90000e+00	3.566390e-10	
39	-1.95000e+00	3.532659e-10	
40	-2.00000e+00	3.500523e-10	
41	-2.05000e+00	3.469871e-10	
42	-2.10000e+00	3.440600e-10	
43	-2.15000e+00	3.412617e-10	
44	-2.20000e+00	3.385838e-10	
45	-2.25000e+00	3.360186e-10	
46	-2.30000e+00	3.335591e-10	
47	-2.35000e+00	3.311988e-10	
48	-2.40000e+00	3.289317e-10	
49	-2.45000e+00	3.267525e-10	
50	-2.50000e+00	3.246560e-10	
51	-2.55000e+00	3.226376e-10	
52	-2.60000e+00	3.206929e-10	
53	-2.65000e+00	3.188181e-10	
54	-2.70000e+00	3.170094e-10	

Index   v-sweep         rds             
--------------------------------------------------------------------------------
55	-2.75000e+00	3.152633e-10	
56	-2.80000e+00	3.135767e-10	
57	-2.85000e+00	3.119465e-10	
58	-2.90000e+00	3.103699e-10	
59	-2.95000e+00	3.088445e-10	
60	-3.00000e+00	3.073676e-10	
61	-3.05000e+00	3.059371e-10	
62	-3.10000e+00	3.045507e-10	
63	-3.15000e+00	3.032066e-10	
64	-3.20000e+00	3.019028e-10	
65	-3.25000e+00	3.006374e-10	
66	-3.30000e+00	2.994090e-10	
67	-3.35000e+00	2.982158e-10	
68	-3.40000e+00	2.970564e-10	
69	-3.45000e+00	2.959294e-10	
70	-3.50000e+00	2.948336e-10	
71	-3.55000e+00	2.937675e-10	
72	-3.60000e+00	2.927301e-10	
73	-3.65000e+00	2.917203e-10	
74	-3.70000e+00	2.907369e-10	
75	-3.75000e+00	2.897791e-10	
76	-3.80000e+00	2.888457e-10	
77	-3.85000e+00	2.879360e-10	
78	-3.90000e+00	2.870492e-10	
79	-3.95000e+00	2.861842e-10	
80	-4.00000e+00	2.853405e-10	
81	-4.05000e+00	2.845173e-10	
82	-4.10000e+00	2.837138e-10	
83	-4.15000e+00	2.829295e-10	
84	-4.20000e+00	2.821637e-10	
85	-4.25000e+00	2.814157e-10	
86	-4.30000e+00	2.806851e-10	
87	-4.35000e+00	2.799712e-10	
88	-4.40000e+00	2.792736e-10	
89	-4.45000e+00	2.785918e-10	
90	-4.50000e+00	2.779252e-10	
91	-4.55000e+00	2.772734e-10	
92	-4.60000e+00	2.766361e-10	
93	-4.65000e+00	2.760127e-10	
94	-4.70000e+00	2.754030e-10	
95	-4.75000e+00	2.748064e-10	
96	-4.80000e+00	2.742227e-10	
97	-4.85000e+00	2.736515e-10	
98	-4.90000e+00	2.730924e-10	
99	-4.95000e+00	2.725453e-10	
100	-5.00000e+00	2.720096e-10	
101	-5.05000e+00	2.714853e-10	
102	-5.10000e+00	2.709719e-10	
103	-5.15000e+00	2.704692e-10	
104	-5.20000e+00	2.699769e-10	
105	-5.25000e+00	2.694949e-10	
106	-5.30000e+00	2.690228e-10	
107	-5.35000e+00	2.685605e-10	
108	-5.40000e+00	2.681077e-10	
109	-5.45000e+00	2.676641e-10	
110	-5.50000e+00	2.672297e-10	
111	-5.55000e+00	2.668041e-10	
112	-5.60000e+00	2.663873e-10	

Index   v-sweep         rds             
--------------------------------------------------------------------------------
113	-5.65000e+00	2.659790e-10	
114	-5.70000e+00	2.655790e-10	
115	-5.75000e+00	2.651872e-10	
116	-5.80000e+00	2.648035e-10	
117	-5.85000e+00	2.644275e-10	
118	-5.90000e+00	2.640593e-10	
119	-5.95000e+00	2.636986e-10	
120	-6.00000e+00	2.633453e-10	
121	-6.05000e+00	2.629993e-10	
122	-6.10000e+00	2.626604e-10	
123	-6.15000e+00	2.623286e-10	
124	-6.20000e+00	2.620035e-10	
125	-6.25000e+00	2.616853e-10	
126	-6.30000e+00	2.613736e-10	
127	-6.35000e+00	2.610685e-10	
128	-6.40000e+00	2.607698e-10	
129	-6.45000e+00	2.604773e-10	
130	-6.50000e+00	2.601911e-10	
131	-6.55000e+00	2.599109e-10	
132	-6.60000e+00	2.596367e-10	
Reset re-loads circuit ***************************

Circuit: ***************************

Doing analysis at TEMP = 25.000000 and TNOM = 25.000000


No. of Data Rows : 133
                          ***************************
                          DC transfer characteristic  Mon Jan  9 13:58:51  2023
--------------------------------------------------------------------------------
Index   v-sweep         rds             
--------------------------------------------------------------------------------
0	0.000000e+00	5.101695e-06	
1	-5.00000e-02	4.784391e-06	
2	-1.00000e-01	4.467449e-06	
3	-1.50000e-01	4.150889e-06	
4	-2.00000e-01	3.834735e-06	
5	-2.50000e-01	3.519029e-06	
6	-3.00000e-01	3.203834e-06	
7	-3.50000e-01	2.889254e-06	
8	-4.00000e-01	2.575462e-06	
9	-4.50000e-01	2.262761e-06	
10	-5.00000e-01	1.951709e-06	
11	-5.50000e-01	1.643366e-06	
12	-6.00000e-01	1.339843e-06	
13	-6.50000e-01	1.045445e-06	
14	-7.00000e-01	7.687563e-07	
15	-7.50000e-01	5.249155e-07	
16	-8.00000e-01	3.331691e-07	
17	-8.50000e-01	2.040018e-07	
18	-9.00000e-01	1.285261e-07	
19	-9.50000e-01	8.755409e-08	
20	-1.00000e+00	6.526133e-08	
21	-1.05000e+00	5.251227e-08	
22	-1.10000e+00	4.470471e-08	
23	-1.15000e+00	3.957778e-08	
24	-1.20000e+00	3.599175e-08	
25	-1.25000e+00	3.334507e-08	
26	-1.30000e+00	3.130337e-08	
27	-1.35000e+00	2.967108e-08	
28	-1.40000e+00	2.832814e-08	
29	-1.45000e+00	2.719758e-08	
30	-1.50000e+00	2.622802e-08	
31	-1.55000e+00	2.538393e-08	
32	-1.60000e+00	2.463994e-08	
33	-1.65000e+00	2.397746e-08	
34	-1.70000e+00	2.338245e-08	
35	-1.75000e+00	2.284415e-08	
36	-1.80000e+00	2.235411e-08	
37	-1.85000e+00	2.190557e-08	
38	-1.90000e+00	2.149308e-08	
39	-1.95000e+00	2.111216e-08	
40	-2.00000e+00	2.075907e-08	
41	-2.05000e+00	2.043071e-08	
42	-2.10000e+00	2.012441e-08	
43	-2.15000e+00	1.983791e-08	
44	-2.20000e+00	1.956927e-08	
45	-2.25000e+00	1.931680e-08	
46	-2.30000e+00	1.907903e-08	
47	-2.35000e+00	1.885466e-08	
48	-2.40000e+00	1.864256e-08	
49	-2.45000e+00	1.844172e-08	
50	-2.50000e+00	1.825124e-08	
51	-2.55000e+00	1.807032e-08	
52	-2.60000e+00	1.789824e-08	
53	-2.65000e+00	1.773436e-08	
54	-2.70000e+00	1.757810e-08	

Index   v-sweep         rds             
--------------------------------------------------------------------------------
55	-2.75000e+00	1.742891e-08	
56	-2.80000e+00	1.728634e-08	
57	-2.85000e+00	1.714994e-08	
58	-2.90000e+00	1.701931e-08	
59	-2.95000e+00	1.689409e-08	
60	-3.00000e+00	1.677395e-08	
61	-3.05000e+00	1.665858e-08	
62	-3.10000e+00	1.654770e-08	
63	-3.15000e+00	1.644106e-08	
64	-3.20000e+00	1.633840e-08	
65	-3.25000e+00	1.623952e-08	
66	-3.30000e+00	1.614420e-08	
67	-3.35000e+00	1.605226e-08	
68	-3.40000e+00	1.596351e-08	
69	-3.45000e+00	1.587780e-08	
70	-3.50000e+00	1.579496e-08	
71	-3.55000e+00	1.571487e-08	
72	-3.60000e+00	1.563738e-08	
73	-3.65000e+00	1.556236e-08	
74	-3.70000e+00	1.548971e-08	
75	-3.75000e+00	1.541931e-08	
76	-3.80000e+00	1.535106e-08	
77	-3.85000e+00	1.528486e-08	
78	-3.90000e+00	1.522063e-08	
79	-3.95000e+00	1.515826e-08	
80	-4.00000e+00	1.509770e-08	
81	-4.05000e+00	1.503886e-08	
82	-4.10000e+00	1.498166e-08	
83	-4.15000e+00	1.492605e-08	
84	-4.20000e+00	1.487195e-08	
85	-4.25000e+00	1.481931e-08	
86	-4.30000e+00	1.476807e-08	
87	-4.35000e+00	1.471818e-08	
88	-4.40000e+00	1.466958e-08	
89	-4.45000e+00	1.462223e-08	
90	-4.50000e+00	1.457608e-08	
91	-4.55000e+00	1.453109e-08	
92	-4.60000e+00	1.448721e-08	
93	-4.65000e+00	1.444441e-08	
94	-4.70000e+00	1.440265e-08	
95	-4.75000e+00	1.436190e-08	
96	-4.80000e+00	1.432211e-08	
97	-4.85000e+00	1.428327e-08	
98	-4.90000e+00	1.424533e-08	
99	-4.95000e+00	1.420827e-08	
100	-5.00000e+00	1.417206e-08	
101	-5.05000e+00	1.413667e-08	
102	-5.10000e+00	1.410209e-08	
103	-5.15000e+00	1.406827e-08	
104	-5.20000e+00	1.403521e-08	
105	-5.25000e+00	1.400288e-08	
106	-5.30000e+00	1.397126e-08	
107	-5.35000e+00	1.394033e-08	
108	-5.40000e+00	1.391007e-08	
109	-5.45000e+00	1.388046e-08	
110	-5.50000e+00	1.385148e-08	
111	-5.55000e+00	1.382312e-08	
112	-5.60000e+00	1.379536e-08	

Index   v-sweep         rds             
--------------------------------------------------------------------------------
113	-5.65000e+00	1.376818e-08	
114	-5.70000e+00	1.374158e-08	
115	-5.75000e+00	1.371553e-08	
116	-5.80000e+00	1.369002e-08	
117	-5.85000e+00	1.366505e-08	
118	-5.90000e+00	1.364059e-08	
119	-5.95000e+00	1.361663e-08	
120	-6.00000e+00	1.359317e-08	
121	-6.05000e+00	1.357019e-08	
122	-6.10000e+00	1.354768e-08	
123	-6.15000e+00	1.352563e-08	
124	-6.20000e+00	1.350403e-08	
125	-6.25000e+00	1.348287e-08	
126	-6.30000e+00	1.346214e-08	
127	-6.35000e+00	1.344184e-08	
128	-6.40000e+00	1.342195e-08	
129	-6.45000e+00	1.340247e-08	
130	-6.50000e+00	1.338338e-08	
131	-6.55000e+00	1.336469e-08	
132	-6.60000e+00	1.334638e-08	
Reset re-loads circuit ***************************

Circuit: ***************************

Doing analysis at TEMP = 25.000000 and TNOM = 25.000000


No. of Data Rows : 133
                          ***************************
                          DC transfer characteristic  Mon Jan  9 13:58:51  2023
--------------------------------------------------------------------------------
Index   v-sweep         rds             
--------------------------------------------------------------------------------
0	0.000000e+00	8.924288e-06	
1	-5.00000e-02	8.627867e-06	
2	-1.00000e-01	8.331723e-06	
3	-1.50000e-01	8.035856e-06	
4	-2.00000e-01	7.740268e-06	
5	-2.50000e-01	7.444960e-06	
6	-3.00000e-01	7.149935e-06	
7	-3.50000e-01	6.855195e-06	
8	-4.00000e-01	6.560742e-06	
9	-4.50000e-01	6.266583e-06	
10	-5.00000e-01	5.972721e-06	
11	-5.50000e-01	5.679165e-06	
12	-6.00000e-01	5.385925e-06	
13	-6.50000e-01	5.093013e-06	
14	-7.00000e-01	4.800448e-06	
15	-7.50000e-01	4.508254e-06	
16	-8.00000e-01	4.216466e-06	
17	-8.50000e-01	3.925133e-06	
18	-9.00000e-01	3.634325e-06	
19	-9.50000e-01	3.344146e-06	
20	-1.00000e+00	3.054754e-06	
21	-1.05000e+00	2.766389e-06	
22	-1.10000e+00	2.479432e-06	
23	-1.15000e+00	2.194501e-06	
24	-1.20000e+00	1.912610e-06	
25	-1.25000e+00	1.635465e-06	
26	-1.30000e+00	1.365928e-06	
27	-1.35000e+00	1.108689e-06	
28	-1.40000e+00	8.709109e-07	
29	-1.45000e+00	6.619832e-07	
30	-1.50000e+00	4.910357e-07	
31	-1.55000e+00	3.623873e-07	
32	-1.60000e+00	2.727268e-07	
33	-1.65000e+00	2.132954e-07	
34	-1.70000e+00	1.745111e-07	
35	-1.75000e+00	1.488515e-07	
36	-1.80000e+00	1.313242e-07	
37	-1.85000e+00	1.188649e-07	
38	-1.90000e+00	1.096401e-07	
39	-1.95000e+00	1.025483e-07	
40	-2.00000e+00	9.691373e-08	
41	-2.05000e+00	9.231064e-08	
42	-2.10000e+00	8.846203e-08	
43	-2.15000e+00	8.518207e-08	
44	-2.20000e+00	8.234229e-08	
45	-2.25000e+00	7.985125e-08	
46	-2.30000e+00	7.764220e-08	
47	-2.35000e+00	7.566519e-08	
48	-2.40000e+00	7.388206e-08	
49	-2.45000e+00	7.226308e-08	
50	-2.50000e+00	7.078465e-08	
51	-2.55000e+00	6.942780e-08	
52	-2.60000e+00	6.817703e-08	
53	-2.65000e+00	6.701952e-08	
54	-2.70000e+00	6.594458e-08	

Index   v-sweep         rds             
--------------------------------------------------------------------------------
55	-2.75000e+00	6.494318e-08	
56	-2.80000e+00	6.400762e-08	
57	-2.85000e+00	6.313132e-08	
58	-2.90000e+00	6.230857e-08	
59	-2.95000e+00	6.153442e-08	
60	-3.00000e+00	6.080453e-08	
61	-3.05000e+00	6.011508e-08	
62	-3.10000e+00	5.946270e-08	
63	-3.15000e+00	5.884441e-08	
64	-3.20000e+00	5.825752e-08	
65	-3.25000e+00	5.769965e-08	
66	-3.30000e+00	5.716866e-08	
67	-3.35000e+00	5.666261e-08	
68	-3.40000e+00	5.617975e-08	
69	-3.45000e+00	5.571850e-08	
70	-3.50000e+00	5.527743e-08	
71	-3.55000e+00	5.485521e-08	
72	-3.60000e+00	5.445065e-08	
73	-3.65000e+00	5.406265e-08	
74	-3.70000e+00	5.369020e-08	
75	-3.75000e+00	5.333239e-08	
76	-3.80000e+00	5.298835e-08	
77	-3.85000e+00	5.265730e-08	
78	-3.90000e+00	5.233852e-08	
79	-3.95000e+00	5.203133e-08	
80	-4.00000e+00	5.173510e-08	
81	-4.05000e+00	5.144926e-08	
82	-4.10000e+00	5.117328e-08	
83	-4.15000e+00	5.090663e-08	
84	-4.20000e+00	5.064887e-08	
85	-4.25000e+00	5.039955e-08	
86	-4.30000e+00	5.015826e-08	
87	-4.35000e+00	4.992462e-08	
88	-4.40000e+00	4.969828e-08	
89	-4.45000e+00	4.947890e-08	
90	-4.50000e+00	4.926616e-08	
91	-4.55000e+00	4.905976e-08	
92	-4.60000e+00	4.885944e-08	
93	-4.65000e+00	4.866492e-08	
94	-4.70000e+00	4.847596e-08	
95	-4.75000e+00	4.829233e-08	
96	-4.80000e+00	4.811381e-08	
97	-4.85000e+00	4.794019e-08	
98	-4.90000e+00	4.777127e-08	
99	-4.95000e+00	4.760688e-08	
100	-5.00000e+00	4.744682e-08	
101	-5.05000e+00	4.729095e-08	
102	-5.10000e+00	4.713910e-08	
103	-5.15000e+00	4.699112e-08	
104	-5.20000e+00	4.684686e-08	
105	-5.25000e+00	4.670621e-08	
106	-5.30000e+00	4.656902e-08	
107	-5.35000e+00	4.643518e-08	
108	-5.40000e+00	4.630458e-08	
109	-5.45000e+00	4.617710e-08	
110	-5.50000e+00	4.605263e-08	
111	-5.55000e+00	4.593109e-08	
112	-5.60000e+00	4.581237e-08	

Index   v-sweep         rds             
--------------------------------------------------------------------------------
113	-5.65000e+00	4.569639e-08	
114	-5.70000e+00	4.558306e-08	
115	-5.75000e+00	4.547230e-08	
116	-5.80000e+00	4.536402e-08	
117	-5.85000e+00	4.525816e-08	
118	-5.90000e+00	4.515465e-08	
119	-5.95000e+00	4.505341e-08	
120	-6.00000e+00	4.495439e-08	
121	-6.05000e+00	4.485751e-08	
122	-6.10000e+00	4.476273e-08	
123	-6.15000e+00	4.466997e-08	
124	-6.20000e+00	4.457920e-08	
125	-6.25000e+00	4.449036e-08	
126	-6.30000e+00	4.440339e-08	
127	-6.35000e+00	4.431825e-08	
128	-6.40000e+00	4.423489e-08	
129	-6.45000e+00	4.415327e-08	
130	-6.50000e+00	4.407335e-08	
131	-6.55000e+00	4.399509e-08	
132	-6.60000e+00	4.391844e-08	
Reset re-loads circuit ***************************

Circuit: ***************************

Doing analysis at TEMP = 25.000000 and TNOM = 25.000000


No. of Data Rows : 133
                          ***************************
                          DC transfer characteristic  Mon Jan  9 13:58:52  2023
--------------------------------------------------------------------------------
Index   v-sweep         rds             
--------------------------------------------------------------------------------
0	0.000000e+00	1.222870e-05	
1	-5.00000e-02	1.195374e-05	
2	-1.00000e-01	1.167902e-05	
3	-1.50000e-01	1.140453e-05	
4	-2.00000e-01	1.113028e-05	
5	-2.50000e-01	1.085627e-05	
6	-3.00000e-01	1.058249e-05	
7	-3.50000e-01	1.030895e-05	
8	-4.00000e-01	1.003565e-05	
9	-4.50000e-01	9.762581e-06	
10	-5.00000e-01	9.489753e-06	
11	-5.50000e-01	9.217163e-06	
12	-6.00000e-01	8.944813e-06	
13	-6.50000e-01	8.672702e-06	
14	-7.00000e-01	8.400833e-06	
15	-7.50000e-01	8.129206e-06	
16	-8.00000e-01	7.857823e-06	
17	-8.50000e-01	7.586686e-06	
18	-9.00000e-01	7.315798e-06	
19	-9.50000e-01	7.045162e-06	
20	-1.00000e+00	6.774782e-06	
21	-1.05000e+00	6.504662e-06	
22	-1.10000e+00	6.234810e-06	
23	-1.15000e+00	5.965233e-06	
24	-1.20000e+00	5.695941e-06	
25	-1.25000e+00	5.426948e-06	
26	-1.30000e+00	5.158269e-06	
27	-1.35000e+00	4.889928e-06	
28	-1.40000e+00	4.621954e-06	
29	-1.45000e+00	4.354386e-06	
30	-1.50000e+00	4.087277e-06	
31	-1.55000e+00	3.820702e-06	
32	-1.60000e+00	3.554764e-06	
33	-1.65000e+00	3.289608e-06	
34	-1.70000e+00	3.025446e-06	
35	-1.75000e+00	2.762587e-06	
36	-1.80000e+00	2.501491e-06	
37	-1.85000e+00	2.242853e-06	
38	-1.90000e+00	1.987733e-06	
39	-1.95000e+00	1.737748e-06	
40	-2.00000e+00	1.495339e-06	
41	-2.05000e+00	1.264075e-06	
42	-2.10000e+00	1.048833e-06	
43	-2.15000e+00	8.554927e-07	
44	-2.20000e+00	6.897621e-07	
45	-2.25000e+00	5.552062e-07	
46	-2.30000e+00	4.516312e-07	
47	-2.35000e+00	3.751766e-07	
48	-2.40000e+00	3.200404e-07	
49	-2.45000e+00	2.804160e-07	
50	-2.50000e+00	2.515812e-07	
51	-2.55000e+00	2.301188e-07	
52	-2.60000e+00	2.137037e-07	
53	-2.65000e+00	2.007948e-07	
54	-2.70000e+00	1.903753e-07	

Index   v-sweep         rds             
--------------------------------------------------------------------------------
55	-2.75000e+00	1.817675e-07	
56	-2.80000e+00	1.745123e-07	
57	-2.85000e+00	1.682921e-07	
58	-2.90000e+00	1.628821e-07	
59	-2.95000e+00	1.581195e-07	
60	-3.00000e+00	1.538838e-07	
61	-3.05000e+00	1.500841e-07	
62	-3.10000e+00	1.466501e-07	
63	-3.15000e+00	1.435267e-07	
64	-3.20000e+00	1.406703e-07	
65	-3.25000e+00	1.380453e-07	
66	-3.30000e+00	1.356226e-07	
67	-3.35000e+00	1.333782e-07	
68	-3.40000e+00	1.312919e-07	
69	-3.45000e+00	1.293466e-07	
70	-3.50000e+00	1.275277e-07	
71	-3.55000e+00	1.258228e-07	
72	-3.60000e+00	1.242211e-07	
73	-3.65000e+00	1.227129e-07	
74	-3.70000e+00	1.212902e-07	
75	-3.75000e+00	1.199456e-07	
76	-3.80000e+00	1.186727e-07	
77	-3.85000e+00	1.174657e-07	
78	-3.90000e+00	1.163195e-07	
79	-3.95000e+00	1.152296e-07	
80	-4.00000e+00	1.141917e-07	
81	-4.05000e+00	1.132023e-07	
82	-4.10000e+00	1.122578e-07	
83	-4.15000e+00	1.113554e-07	
84	-4.20000e+00	1.104921e-07	
85	-4.25000e+00	1.096656e-07	
86	-4.30000e+00	1.088734e-07	
87	-4.35000e+00	1.081134e-07	
88	-4.40000e+00	1.073837e-07	
89	-4.45000e+00	1.066825e-07	
90	-4.50000e+00	1.060082e-07	
91	-4.55000e+00	1.053591e-07	
92	-4.60000e+00	1.047340e-07	
93	-4.65000e+00	1.041316e-07	
94	-4.70000e+00	1.035505e-07	
95	-4.75000e+00	1.029897e-07	
96	-4.80000e+00	1.024481e-07	
97	-4.85000e+00	1.019248e-07	
98	-4.90000e+00	1.014188e-07	
99	-4.95000e+00	1.009294e-07	
100	-5.00000e+00	1.004556e-07	
101	-5.05000e+00	9.999681e-08	
102	-5.10000e+00	9.955228e-08	
103	-5.15000e+00	9.912136e-08	
104	-5.20000e+00	9.870343e-08	
105	-5.25000e+00	9.829793e-08	
106	-5.30000e+00	9.790431e-08	
107	-5.35000e+00	9.752206e-08	
108	-5.40000e+00	9.715069e-08	
109	-5.45000e+00	9.678975e-08	
110	-5.50000e+00	9.643883e-08	
111	-5.55000e+00	9.609750e-08	
112	-5.60000e+00	9.576539e-08	

Index   v-sweep         rds             
--------------------------------------------------------------------------------
113	-5.65000e+00	9.544214e-08	
114	-5.70000e+00	9.512740e-08	
115	-5.75000e+00	9.482085e-08	
116	-5.80000e+00	9.452218e-08	
117	-5.85000e+00	9.423111e-08	
118	-5.90000e+00	9.394735e-08	
119	-5.95000e+00	9.367065e-08	
120	-6.00000e+00	9.340075e-08	
121	-6.05000e+00	9.313742e-08	
122	-6.10000e+00	9.288043e-08	
123	-6.15000e+00	9.262957e-08	
124	-6.20000e+00	9.238463e-08	
125	-6.25000e+00	9.214543e-08	
126	-6.30000e+00	9.191177e-08	
127	-6.35000e+00	9.168349e-08	
128	-6.40000e+00	9.146040e-08	
129	-6.45000e+00	9.124236e-08	
130	-6.50000e+00	9.102921e-08	
131	-6.55000e+00	9.082081e-08	
132	-6.60000e+00	9.061701e-08	
Reset re-loads circuit ***************************

Circuit: ***************************

Doing analysis at TEMP = 25.000000 and TNOM = 25.000000


No. of Data Rows : 133
                          ***************************
                          DC transfer characteristic  Mon Jan  9 13:58:52  2023
--------------------------------------------------------------------------------
Index   v-sweep         rds             
--------------------------------------------------------------------------------
0	0.000000e+00	1.503821e-05	
1	-5.00000e-02	1.478309e-05	
2	-1.00000e-01	1.452817e-05	
3	-1.50000e-01	1.427345e-05	
4	-2.00000e-01	1.401895e-05	
5	-2.50000e-01	1.376464e-05	
6	-3.00000e-01	1.351054e-05	
7	-3.50000e-01	1.325665e-05	
8	-4.00000e-01	1.300296e-05	
9	-4.50000e-01	1.274948e-05	
10	-5.00000e-01	1.249621e-05	
11	-5.50000e-01	1.224313e-05	
12	-6.00000e-01	1.199027e-05	
13	-6.50000e-01	1.173760e-05	
14	-7.00000e-01	1.148515e-05	
15	-7.50000e-01	1.123290e-05	
16	-8.00000e-01	1.098085e-05	
17	-8.50000e-01	1.072901e-05	
18	-9.00000e-01	1.047738e-05	
19	-9.50000e-01	1.022595e-05	
20	-1.00000e+00	9.974726e-06	
21	-1.05000e+00	9.723712e-06	
22	-1.10000e+00	9.472905e-06	
23	-1.15000e+00	9.222307e-06	
24	-1.20000e+00	8.971918e-06	
25	-1.25000e+00	8.721740e-06	
26	-1.30000e+00	8.471773e-06	
27	-1.35000e+00	8.222020e-06	
28	-1.40000e+00	7.972482e-06	
29	-1.45000e+00	7.723161e-06	
30	-1.50000e+00	7.474061e-06	
31	-1.55000e+00	7.225183e-06	
32	-1.60000e+00	6.976533e-06	
33	-1.65000e+00	6.728115e-06	
34	-1.70000e+00	6.479935e-06	
35	-1.75000e+00	6.232000e-06	
36	-1.80000e+00	5.984320e-06	
37	-1.85000e+00	5.736905e-06	
38	-1.90000e+00	5.489769e-06	
39	-1.95000e+00	5.242930e-06	
40	-2.00000e+00	4.996412e-06	
41	-2.05000e+00	4.750241e-06	
42	-2.10000e+00	4.504458e-06	
43	-2.15000e+00	4.259111e-06	
44	-2.20000e+00	4.014265e-06	
45	-2.25000e+00	3.770009e-06	
46	-2.30000e+00	3.526463e-06	
47	-2.35000e+00	3.283790e-06	
48	-2.40000e+00	3.042220e-06	
49	-2.45000e+00	2.802072e-06	
50	-2.50000e+00	2.563803e-06	
51	-2.55000e+00	2.328067e-06	
52	-2.60000e+00	2.095803e-06	
53	-2.65000e+00	1.868359e-06	
54	-2.70000e+00	1.647639e-06	

Index   v-sweep         rds             
--------------------------------------------------------------------------------
55	-2.75000e+00	1.436250e-06	
56	-2.80000e+00	1.237572e-06	
57	-2.85000e+00	1.055581e-06	
58	-2.90000e+00	8.942782e-07	
59	-2.95000e+00	7.567146e-07	
60	-3.00000e+00	6.439845e-07	
61	-3.05000e+00	5.548096e-07	
62	-3.10000e+00	4.860205e-07	
63	-3.15000e+00	4.335910e-07	
64	-3.20000e+00	3.935982e-07	
65	-3.25000e+00	3.627590e-07	
66	-3.30000e+00	3.385654e-07	
67	-3.35000e+00	3.191983e-07	
68	-3.40000e+00	3.033722e-07	
69	-3.45000e+00	2.901852e-07	
70	-3.50000e+00	2.790025e-07	
71	-3.55000e+00	2.693722e-07	
72	-3.60000e+00	2.609680e-07	
73	-3.65000e+00	2.535499e-07	
74	-3.70000e+00	2.469382e-07	
75	-3.75000e+00	2.409963e-07	
76	-3.80000e+00	2.356179e-07	
77	-3.85000e+00	2.307194e-07	
78	-3.90000e+00	2.262340e-07	
79	-3.95000e+00	2.221075e-07	
80	-4.00000e+00	2.182953e-07	
81	-4.05000e+00	2.147605e-07	
82	-4.10000e+00	2.114719e-07	
83	-4.15000e+00	2.084032e-07	
84	-4.20000e+00	2.055321e-07	
85	-4.25000e+00	2.028390e-07	
86	-4.30000e+00	2.003074e-07	
87	-4.35000e+00	1.979224e-07	
88	-4.40000e+00	1.956713e-07	
89	-4.45000e+00	1.935428e-07	
90	-4.50000e+00	1.915268e-07	
91	-4.55000e+00	1.896144e-07	
92	-4.60000e+00	1.877977e-07	
93	-4.65000e+00	1.860695e-07	
94	-4.70000e+00	1.844233e-07	
95	-4.75000e+00	1.828533e-07	
96	-4.80000e+00	1.813544e-07	
97	-4.85000e+00	1.799217e-07	
98	-4.90000e+00	1.785508e-07	
99	-4.95000e+00	1.772378e-07	
100	-5.00000e+00	1.759791e-07	
101	-5.05000e+00	1.747714e-07	
102	-5.10000e+00	1.736115e-07	
103	-5.15000e+00	1.724967e-07	
104	-5.20000e+00	1.714244e-07	
105	-5.25000e+00	1.703921e-07	
106	-5.30000e+00	1.693978e-07	
107	-5.35000e+00	1.684392e-07	
108	-5.40000e+00	1.675145e-07	
109	-5.45000e+00	1.666220e-07	
110	-5.50000e+00	1.657600e-07	
111	-5.55000e+00	1.649269e-07	
112	-5.60000e+00	1.641213e-07	

Index   v-sweep         rds             
--------------------------------------------------------------------------------
113	-5.65000e+00	1.633419e-07	
114	-5.70000e+00	1.625874e-07	
115	-5.75000e+00	1.618566e-07	
116	-5.80000e+00	1.611485e-07	
117	-5.85000e+00	1.604620e-07	
118	-5.90000e+00	1.597961e-07	
119	-5.95000e+00	1.591500e-07	
120	-6.00000e+00	1.585227e-07	
121	-6.05000e+00	1.579135e-07	
122	-6.10000e+00	1.573216e-07	
123	-6.15000e+00	1.567462e-07	
124	-6.20000e+00	1.561868e-07	
125	-6.25000e+00	1.556426e-07	
126	-6.30000e+00	1.551131e-07	
127	-6.35000e+00	1.545976e-07	
128	-6.40000e+00	1.540957e-07	
129	-6.45000e+00	1.536069e-07	
130	-6.50000e+00	1.531305e-07	
131	-6.55000e+00	1.526662e-07	
132	-6.60000e+00	1.522136e-07	
Reset re-loads circuit ***************************

Circuit: ***************************

Doing analysis at TEMP = 25.000000 and TNOM = 25.000000


No. of Data Rows : 133
                          ***************************
                          DC transfer characteristic  Mon Jan  9 13:58:52  2023
--------------------------------------------------------------------------------
Index   v-sweep         rds             
--------------------------------------------------------------------------------
0	0.000000e+00	1.748286e-05	
1	-5.00000e-02	1.724551e-05	
2	-1.00000e-01	1.700834e-05	
3	-1.50000e-01	1.677135e-05	
4	-2.00000e-01	1.653455e-05	
5	-2.50000e-01	1.629792e-05	
6	-3.00000e-01	1.606148e-05	
7	-3.50000e-01	1.582521e-05	
8	-4.00000e-01	1.558913e-05	
9	-4.50000e-01	1.535322e-05	
10	-5.00000e-01	1.511750e-05	
11	-5.50000e-01	1.488195e-05	
12	-6.00000e-01	1.464659e-05	
13	-6.50000e-01	1.441140e-05	
14	-7.00000e-01	1.417640e-05	
15	-7.50000e-01	1.394157e-05	
16	-8.00000e-01	1.370692e-05	
17	-8.50000e-01	1.347245e-05	
18	-9.00000e-01	1.323816e-05	
19	-9.50000e-01	1.300406e-05	
20	-1.00000e+00	1.277013e-05	
21	-1.05000e+00	1.253637e-05	
22	-1.10000e+00	1.230280e-05	
23	-1.15000e+00	1.206941e-05	
24	-1.20000e+00	1.183620e-05	
25	-1.25000e+00	1.160316e-05	
26	-1.30000e+00	1.137031e-05	
27	-1.35000e+00	1.113764e-05	
28	-1.40000e+00	1.090514e-05	
29	-1.45000e+00	1.067283e-05	
30	-1.50000e+00	1.044070e-05	
31	-1.55000e+00	1.020875e-05	
32	-1.60000e+00	9.976978e-06	
33	-1.65000e+00	9.745391e-06	
34	-1.70000e+00	9.513987e-06	
35	-1.75000e+00	9.282766e-06	
36	-1.80000e+00	9.051731e-06	
37	-1.85000e+00	8.820881e-06	
38	-1.90000e+00	8.590218e-06	
39	-1.95000e+00	8.359744e-06	
40	-2.00000e+00	8.129461e-06	
41	-2.05000e+00	7.899370e-06	
42	-2.10000e+00	7.669475e-06	
43	-2.15000e+00	7.439777e-06	
44	-2.20000e+00	7.210281e-06	
45	-2.25000e+00	6.980991e-06	
46	-2.30000e+00	6.751912e-06	
47	-2.35000e+00	6.523049e-06	
48	-2.40000e+00	6.294411e-06	
49	-2.45000e+00	6.066007e-06	
50	-2.50000e+00	5.837846e-06	
51	-2.55000e+00	5.609942e-06	
52	-2.60000e+00	5.382312e-06	
53	-2.65000e+00	5.154975e-06	
54	-2.70000e+00	4.927959e-06	

Index   v-sweep         rds             
--------------------------------------------------------------------------------
55	-2.75000e+00	4.701294e-06	
56	-2.80000e+00	4.475021e-06	
57	-2.85000e+00	4.249194e-06	
58	-2.90000e+00	4.023881e-06	
59	-2.95000e+00	3.799171e-06	
60	-3.00000e+00	3.575180e-06	
61	-3.05000e+00	3.352068e-06	
62	-3.10000e+00	3.130043e-06	
63	-3.15000e+00	2.909393e-06	
64	-3.20000e+00	2.690509e-06	
65	-3.25000e+00	2.473929e-06	
66	-3.30000e+00	2.260392e-06	
67	-3.35000e+00	2.050913e-06	
68	-3.40000e+00	1.846871e-06	
69	-3.45000e+00	1.650086e-06	
70	-3.50000e+00	1.462874e-06	
71	-3.55000e+00	1.287988e-06	
72	-3.60000e+00	1.128375e-06	
73	-3.65000e+00	9.867041e-07	
74	-3.70000e+00	8.647476e-07	
75	-3.75000e+00	7.628750e-07	
76	-3.80000e+00	6.799319e-07	
77	-3.85000e+00	6.135915e-07	
78	-3.90000e+00	5.609670e-07	
79	-3.95000e+00	5.191840e-07	
80	-4.00000e+00	4.857336e-07	
81	-4.05000e+00	4.586011e-07	
82	-4.10000e+00	4.362486e-07	
83	-4.15000e+00	4.175350e-07	
84	-4.20000e+00	4.016233e-07	
85	-4.25000e+00	3.879007e-07	
86	-4.30000e+00	3.759160e-07	
87	-4.35000e+00	3.653328e-07	
88	-4.40000e+00	3.558977e-07	
89	-4.45000e+00	3.474163e-07	
90	-4.50000e+00	3.397378e-07	
91	-4.55000e+00	3.327430e-07	
92	-4.60000e+00	3.263366e-07	
93	-4.65000e+00	3.204414e-07	
94	-4.70000e+00	3.149938e-07	
95	-4.75000e+00	3.099413e-07	
96	-4.80000e+00	3.052396e-07	
97	-4.85000e+00	3.008514e-07	
98	-4.90000e+00	2.967445e-07	
99	-4.95000e+00	2.928916e-07	
100	-5.00000e+00	2.892687e-07	
101	-5.05000e+00	2.858551e-07	
102	-5.10000e+00	2.826325e-07	
103	-5.15000e+00	2.795848e-07	
104	-5.20000e+00	2.766977e-07	
105	-5.25000e+00	2.739587e-07	
106	-5.30000e+00	2.713562e-07	
107	-5.35000e+00	2.688802e-07	
108	-5.40000e+00	2.665214e-07	
109	-5.45000e+00	2.642716e-07	
110	-5.50000e+00	2.621234e-07	
111	-5.55000e+00	2.600698e-07	
112	-5.60000e+00	2.581048e-07	

Index   v-sweep         rds             
--------------------------------------------------------------------------------
113	-5.65000e+00	2.562225e-07	
114	-5.70000e+00	2.544180e-07	
115	-5.75000e+00	2.526863e-07	
116	-5.80000e+00	2.510232e-07	
117	-5.85000e+00	2.494247e-07	
118	-5.90000e+00	2.478870e-07	
119	-5.95000e+00	2.464066e-07	
120	-6.00000e+00	2.449806e-07	
121	-6.05000e+00	2.436058e-07	
122	-6.10000e+00	2.422796e-07	
123	-6.15000e+00	2.409995e-07	
124	-6.20000e+00	2.397630e-07	
125	-6.25000e+00	2.385680e-07	
126	-6.30000e+00	2.374125e-07	
127	-6.35000e+00	2.362944e-07	
128	-6.40000e+00	2.352121e-07	
129	-6.45000e+00	2.341638e-07	
130	-6.50000e+00	2.331480e-07	
131	-6.55000e+00	2.321632e-07	
132	-6.60000e+00	2.312080e-07	
Reset re-loads circuit ***************************

Circuit: ***************************

Note: No ".plot", ".print", or ".fourier" lines; no simulations run
