
Note: Compatibility modes selected: hs

Warning: m=xx on .subckt line will override multiplier m hierarchy!


Circuit: ***************************

Doing analysis at TEMP = -40.000000 and TNOM = -40.000000


No. of Data Rows : 133
                          ***************************
                          DC transfer characteristic  Mon Jan  9 13:58:52  2023
--------------------------------------------------------------------------------
Index   v-sweep         rds             
--------------------------------------------------------------------------------
0	0.000000e+00	8.343032e-06	
1	-5.00000e-02	4.594995e-06	
2	-1.00000e-01	1.677063e-06	
3	-1.50000e-01	5.262411e-07	
4	-2.00000e-01	2.916106e-07	
5	-2.50000e-01	2.319265e-07	
6	-3.00000e-01	2.074645e-07	
7	-3.50000e-01	1.934829e-07	
8	-4.00000e-01	1.838763e-07	
9	-4.50000e-01	1.766013e-07	
10	-5.00000e-01	1.707884e-07	
11	-5.50000e-01	1.659929e-07	
12	-6.00000e-01	1.619541e-07	
13	-6.50000e-01	1.585036e-07	
14	-7.00000e-01	1.555246e-07	
15	-7.50000e-01	1.529319e-07	
16	-8.00000e-01	1.506612e-07	
17	-8.50000e-01	1.486625e-07	
18	-9.00000e-01	1.468959e-07	
19	-9.50000e-01	1.453294e-07	
20	-1.00000e+00	1.439366e-07	
21	-1.05000e+00	1.426959e-07	
22	-1.10000e+00	1.415889e-07	
23	-1.15000e+00	1.406002e-07	
24	-1.20000e+00	1.397167e-07	
25	-1.25000e+00	1.389272e-07	
26	-1.30000e+00	1.382220e-07	
27	-1.35000e+00	1.375927e-07	
28	-1.40000e+00	1.370320e-07	
29	-1.45000e+00	1.365334e-07	
30	-1.50000e+00	1.360914e-07	
31	-1.55000e+00	1.357008e-07	
32	-1.60000e+00	1.353575e-07	
33	-1.65000e+00	1.350573e-07	
34	-1.70000e+00	1.347968e-07	
35	-1.75000e+00	1.345728e-07	
36	-1.80000e+00	1.343826e-07	
37	-1.85000e+00	1.342236e-07	
38	-1.90000e+00	1.340936e-07	
39	-1.95000e+00	1.339903e-07	
40	-2.00000e+00	1.339120e-07	
41	-2.05000e+00	1.338570e-07	
42	-2.10000e+00	1.338237e-07	
43	-2.15000e+00	1.338106e-07	
44	-2.20000e+00	1.338165e-07	
45	-2.25000e+00	1.338401e-07	
46	-2.30000e+00	1.338804e-07	
47	-2.35000e+00	1.339364e-07	
48	-2.40000e+00	1.340072e-07	
49	-2.45000e+00	1.340918e-07	
50	-2.50000e+00	1.341895e-07	
51	-2.55000e+00	1.342995e-07	
52	-2.60000e+00	1.344212e-07	
53	-2.65000e+00	1.345540e-07	
54	-2.70000e+00	1.346972e-07	

Index   v-sweep         rds             
--------------------------------------------------------------------------------
55	-2.75000e+00	1.348504e-07	
56	-2.80000e+00	1.350129e-07	
57	-2.85000e+00	1.351844e-07	
58	-2.90000e+00	1.353643e-07	
59	-2.95000e+00	1.355524e-07	
60	-3.00000e+00	1.357481e-07	
61	-3.05000e+00	1.359512e-07	
62	-3.10000e+00	1.361612e-07	
63	-3.15000e+00	1.363779e-07	
64	-3.20000e+00	1.366010e-07	
65	-3.25000e+00	1.368302e-07	
66	-3.30000e+00	1.370652e-07	
67	-3.35000e+00	1.373058e-07	
68	-3.40000e+00	1.375517e-07	
69	-3.45000e+00	1.378028e-07	
70	-3.50000e+00	1.380587e-07	
71	-3.55000e+00	1.383194e-07	
72	-3.60000e+00	1.385847e-07	
73	-3.65000e+00	1.388543e-07	
74	-3.70000e+00	1.391281e-07	
75	-3.75000e+00	1.394060e-07	
76	-3.80000e+00	1.396877e-07	
77	-3.85000e+00	1.399732e-07	
78	-3.90000e+00	1.402624e-07	
79	-3.95000e+00	1.405550e-07	
80	-4.00000e+00	1.408511e-07	
81	-4.05000e+00	1.411504e-07	
82	-4.10000e+00	1.414529e-07	
83	-4.15000e+00	1.417585e-07	
84	-4.20000e+00	1.420671e-07	
85	-4.25000e+00	1.423785e-07	
86	-4.30000e+00	1.426928e-07	
87	-4.35000e+00	1.430098e-07	
88	-4.40000e+00	1.433294e-07	
89	-4.45000e+00	1.436516e-07	
90	-4.50000e+00	1.439764e-07	
91	-4.55000e+00	1.443036e-07	
92	-4.60000e+00	1.446332e-07	
93	-4.65000e+00	1.449651e-07	
94	-4.70000e+00	1.452993e-07	
95	-4.75000e+00	1.456358e-07	
96	-4.80000e+00	1.459744e-07	
97	-4.85000e+00	1.463152e-07	
98	-4.90000e+00	1.466580e-07	
99	-4.95000e+00	1.470030e-07	
100	-5.00000e+00	1.473499e-07	
101	-5.05000e+00	1.476988e-07	
102	-5.10000e+00	1.480497e-07	
103	-5.15000e+00	1.484025e-07	
104	-5.20000e+00	1.487571e-07	
105	-5.25000e+00	1.491137e-07	
106	-5.30000e+00	1.494720e-07	
107	-5.35000e+00	1.498322e-07	
108	-5.40000e+00	1.501942e-07	
109	-5.45000e+00	1.505579e-07	
110	-5.50000e+00	1.509233e-07	
111	-5.55000e+00	1.512905e-07	
112	-5.60000e+00	1.516594e-07	

Index   v-sweep         rds             
--------------------------------------------------------------------------------
113	-5.65000e+00	1.520300e-07	
114	-5.70000e+00	1.524022e-07	
115	-5.75000e+00	1.527761e-07	
116	-5.80000e+00	1.531517e-07	
117	-5.85000e+00	1.535289e-07	
118	-5.90000e+00	1.539077e-07	
119	-5.95000e+00	1.542881e-07	
120	-6.00000e+00	1.546701e-07	
121	-6.05000e+00	1.550537e-07	
122	-6.10000e+00	1.554389e-07	
123	-6.15000e+00	1.558257e-07	
124	-6.20000e+00	1.562140e-07	
125	-6.25000e+00	1.566039e-07	
126	-6.30000e+00	1.569954e-07	
127	-6.35000e+00	1.573884e-07	
128	-6.40000e+00	1.577829e-07	
129	-6.45000e+00	1.581790e-07	
130	-6.50000e+00	1.585767e-07	
131	-6.55000e+00	1.589758e-07	
132	-6.60000e+00	1.593765e-07	
Reset re-loads circuit ***************************

Circuit: ***************************

Doing analysis at TEMP = -40.000000 and TNOM = -40.000000


No. of Data Rows : 133
                          ***************************
                          DC transfer characteristic  Mon Jan  9 13:58:52  2023
--------------------------------------------------------------------------------
Index   v-sweep         rds             
--------------------------------------------------------------------------------
0	0.000000e+00	7.648674e-05	
1	-5.00000e-02	7.121717e-05	
2	-1.00000e-01	6.606513e-05	
3	-1.50000e-01	6.102784e-05	
4	-2.00000e-01	5.610278e-05	
5	-2.50000e-01	5.128769e-05	
6	-3.00000e-01	4.658075e-05	
7	-3.50000e-01	4.198086e-05	
8	-4.00000e-01	3.748814e-05	
9	-4.50000e-01	3.310495e-05	
10	-5.00000e-01	2.883812e-05	
11	-5.50000e-01	2.470368e-05	
12	-6.00000e-01	2.073696e-05	
13	-6.50000e-01	1.701228e-05	
14	-7.00000e-01	1.366811e-05	
15	-7.50000e-01	1.089452e-05	
16	-8.00000e-01	8.814891e-06	
17	-8.50000e-01	7.364096e-06	
18	-9.00000e-01	6.358925e-06	
19	-9.50000e-01	5.634905e-06	
20	-1.00000e+00	5.087506e-06	
21	-1.05000e+00	4.656379e-06	
22	-1.10000e+00	4.306139e-06	
23	-1.15000e+00	4.014906e-06	
24	-1.20000e+00	3.768354e-06	
25	-1.25000e+00	3.556631e-06	
26	-1.30000e+00	3.372683e-06	
27	-1.35000e+00	3.211298e-06	
28	-1.40000e+00	3.068518e-06	
29	-1.45000e+00	2.941281e-06	
30	-1.50000e+00	2.827170e-06	
31	-1.55000e+00	2.724251e-06	
32	-1.60000e+00	2.630957e-06	
33	-1.65000e+00	2.546000e-06	
34	-1.70000e+00	2.468316e-06	
35	-1.75000e+00	2.397014e-06	
36	-1.80000e+00	2.331345e-06	
37	-1.85000e+00	2.270670e-06	
38	-1.90000e+00	2.214447e-06	
39	-1.95000e+00	2.162208e-06	
40	-2.00000e+00	2.113548e-06	
41	-2.05000e+00	2.068117e-06	
42	-2.10000e+00	2.025606e-06	
43	-2.15000e+00	1.985748e-06	
44	-2.20000e+00	1.948305e-06	
45	-2.25000e+00	1.913067e-06	
46	-2.30000e+00	1.879849e-06	
47	-2.35000e+00	1.848484e-06	
48	-2.40000e+00	1.818825e-06	
49	-2.45000e+00	1.790739e-06	
50	-2.50000e+00	1.764106e-06	
51	-2.55000e+00	1.738818e-06	
52	-2.60000e+00	1.714780e-06	
53	-2.65000e+00	1.691902e-06	
54	-2.70000e+00	1.670104e-06	

Index   v-sweep         rds             
--------------------------------------------------------------------------------
55	-2.75000e+00	1.649314e-06	
56	-2.80000e+00	1.629464e-06	
57	-2.85000e+00	1.610496e-06	
58	-2.90000e+00	1.592352e-06	
59	-2.95000e+00	1.574981e-06	
60	-3.00000e+00	1.558337e-06	
61	-3.05000e+00	1.542377e-06	
62	-3.10000e+00	1.527060e-06	
63	-3.15000e+00	1.512351e-06	
64	-3.20000e+00	1.498213e-06	
65	-3.25000e+00	1.484617e-06	
66	-3.30000e+00	1.471533e-06	
67	-3.35000e+00	1.458933e-06	
68	-3.40000e+00	1.446792e-06	
69	-3.45000e+00	1.435087e-06	
70	-3.50000e+00	1.423795e-06	
71	-3.55000e+00	1.412897e-06	
72	-3.60000e+00	1.402372e-06	
73	-3.65000e+00	1.392203e-06	
74	-3.70000e+00	1.382373e-06	
75	-3.75000e+00	1.372867e-06	
76	-3.80000e+00	1.363669e-06	
77	-3.85000e+00	1.354765e-06	
78	-3.90000e+00	1.346143e-06	
79	-3.95000e+00	1.337791e-06	
80	-4.00000e+00	1.329696e-06	
81	-4.05000e+00	1.321847e-06	
82	-4.10000e+00	1.314235e-06	
83	-4.15000e+00	1.306850e-06	
84	-4.20000e+00	1.299682e-06	
85	-4.25000e+00	1.292723e-06	
86	-4.30000e+00	1.285965e-06	
87	-4.35000e+00	1.279400e-06	
88	-4.40000e+00	1.273021e-06	
89	-4.45000e+00	1.266820e-06	
90	-4.50000e+00	1.260792e-06	
91	-4.55000e+00	1.254929e-06	
92	-4.60000e+00	1.249227e-06	
93	-4.65000e+00	1.243679e-06	
94	-4.70000e+00	1.238281e-06	
95	-4.75000e+00	1.233026e-06	
96	-4.80000e+00	1.227911e-06	
97	-4.85000e+00	1.222931e-06	
98	-4.90000e+00	1.218081e-06	
99	-4.95000e+00	1.213358e-06	
100	-5.00000e+00	1.208757e-06	
101	-5.05000e+00	1.204275e-06	
102	-5.10000e+00	1.199908e-06	
103	-5.15000e+00	1.195652e-06	
104	-5.20000e+00	1.191506e-06	
105	-5.25000e+00	1.187465e-06	
106	-5.30000e+00	1.183527e-06	
107	-5.35000e+00	1.179688e-06	
108	-5.40000e+00	1.175947e-06	
109	-5.45000e+00	1.172300e-06	
110	-5.50000e+00	1.168746e-06	
111	-5.55000e+00	1.165282e-06	
112	-5.60000e+00	1.161905e-06	

Index   v-sweep         rds             
--------------------------------------------------------------------------------
113	-5.65000e+00	1.158614e-06	
114	-5.70000e+00	1.155407e-06	
115	-5.75000e+00	1.152281e-06	
116	-5.80000e+00	1.149235e-06	
117	-5.85000e+00	1.146268e-06	
118	-5.90000e+00	1.143376e-06	
119	-5.95000e+00	1.140560e-06	
120	-6.00000e+00	1.137816e-06	
121	-6.05000e+00	1.135145e-06	
122	-6.10000e+00	1.132543e-06	
123	-6.15000e+00	1.130011e-06	
124	-6.20000e+00	1.127546e-06	
125	-6.25000e+00	1.125148e-06	
126	-6.30000e+00	1.122814e-06	
127	-6.35000e+00	1.120545e-06	
128	-6.40000e+00	1.118339e-06	
129	-6.45000e+00	1.116194e-06	
130	-6.50000e+00	1.114110e-06	
131	-6.55000e+00	1.112085e-06	
132	-6.60000e+00	1.110120e-06	
Reset re-loads circuit ***************************

Circuit: ***************************

Doing analysis at TEMP = -40.000000 and TNOM = -40.000000


No. of Data Rows : 133
                          ***************************
                          DC transfer characteristic  Mon Jan  9 13:58:52  2023
--------------------------------------------------------------------------------
Index   v-sweep         rds             
--------------------------------------------------------------------------------
0	0.000000e+00	1.254501e-04	
1	-5.00000e-02	1.203284e-04	
2	-1.00000e-01	1.152989e-04	
3	-1.50000e-01	1.103600e-04	
4	-2.00000e-01	1.055096e-04	
5	-2.50000e-01	1.007461e-04	
6	-3.00000e-01	9.606769e-05	
7	-3.50000e-01	9.147266e-05	
8	-4.00000e-01	8.695937e-05	
9	-4.50000e-01	8.252622e-05	
10	-5.00000e-01	7.817167e-05	
11	-5.50000e-01	7.389426e-05	
12	-6.00000e-01	6.969257e-05	
13	-6.50000e-01	6.556532e-05	
14	-7.00000e-01	6.151132e-05	
15	-7.50000e-01	5.752955e-05	
16	-8.00000e-01	5.361924e-05	
17	-8.50000e-01	4.977994e-05	
18	-9.00000e-01	4.601177e-05	
19	-9.50000e-01	4.231573e-05	
20	-1.00000e+00	3.869434e-05	
21	-1.05000e+00	3.515281e-05	
22	-1.10000e+00	3.170123e-05	
23	-1.15000e+00	2.835839e-05	
24	-1.20000e+00	2.515781e-05	
25	-1.25000e+00	2.215377e-05	
26	-1.30000e+00	1.941903e-05	
27	-1.35000e+00	1.702302e-05	
28	-1.40000e+00	1.499873e-05	
29	-1.45000e+00	1.332950e-05	
30	-1.50000e+00	1.196568e-05	
31	-1.55000e+00	1.084897e-05	
32	-1.60000e+00	9.926835e-06	
33	-1.65000e+00	9.156972e-06	
34	-1.70000e+00	8.506820e-06	
35	-1.75000e+00	7.951690e-06	
36	-1.80000e+00	7.472856e-06	
37	-1.85000e+00	7.056006e-06	
38	-1.90000e+00	6.690088e-06	
39	-1.95000e+00	6.366469e-06	
40	-2.00000e+00	6.078327e-06	
41	-2.05000e+00	5.820209e-06	
42	-2.10000e+00	5.587711e-06	
43	-2.15000e+00	5.377242e-06	
44	-2.20000e+00	5.185846e-06	
45	-2.25000e+00	5.011068e-06	
46	-2.30000e+00	4.850856e-06	
47	-2.35000e+00	4.703478e-06	
48	-2.40000e+00	4.567467e-06	
49	-2.45000e+00	4.441569e-06	
50	-2.50000e+00	4.324707e-06	
51	-2.55000e+00	4.215951e-06	
52	-2.60000e+00	4.114494e-06	
53	-2.65000e+00	4.019632e-06	
54	-2.70000e+00	3.930750e-06	

Index   v-sweep         rds             
--------------------------------------------------------------------------------
55	-2.75000e+00	3.847304e-06	
56	-2.80000e+00	3.768817e-06	
57	-2.85000e+00	3.694863e-06	
58	-2.90000e+00	3.625066e-06	
59	-2.95000e+00	3.559088e-06	
60	-3.00000e+00	3.496629e-06	
61	-3.05000e+00	3.437416e-06	
62	-3.10000e+00	3.381208e-06	
63	-3.15000e+00	3.327784e-06	
64	-3.20000e+00	3.276944e-06	
65	-3.25000e+00	3.228509e-06	
66	-3.30000e+00	3.182314e-06	
67	-3.35000e+00	3.138209e-06	
68	-3.40000e+00	3.096059e-06	
69	-3.45000e+00	3.055737e-06	
70	-3.50000e+00	3.017130e-06	
71	-3.55000e+00	2.980132e-06	
72	-3.60000e+00	2.944646e-06	
73	-3.65000e+00	2.910584e-06	
74	-3.70000e+00	2.877862e-06	
75	-3.75000e+00	2.846405e-06	
76	-3.80000e+00	2.816142e-06	
77	-3.85000e+00	2.787008e-06	
78	-3.90000e+00	2.758942e-06	
79	-3.95000e+00	2.731889e-06	
80	-4.00000e+00	2.705794e-06	
81	-4.05000e+00	2.680610e-06	
82	-4.10000e+00	2.656291e-06	
83	-4.15000e+00	2.632794e-06	
84	-4.20000e+00	2.610080e-06	
85	-4.25000e+00	2.588110e-06	
86	-4.30000e+00	2.566851e-06	
87	-4.35000e+00	2.546269e-06	
88	-4.40000e+00	2.526334e-06	
89	-4.45000e+00	2.507017e-06	
90	-4.50000e+00	2.488290e-06	
91	-4.55000e+00	2.470128e-06	
92	-4.60000e+00	2.452508e-06	
93	-4.65000e+00	2.435406e-06	
94	-4.70000e+00	2.418801e-06	
95	-4.75000e+00	2.402672e-06	
96	-4.80000e+00	2.387002e-06	
97	-4.85000e+00	2.371772e-06	
98	-4.90000e+00	2.356965e-06	
99	-4.95000e+00	2.342564e-06	
100	-5.00000e+00	2.328555e-06	
101	-5.05000e+00	2.314924e-06	
102	-5.10000e+00	2.301657e-06	
103	-5.15000e+00	2.288740e-06	
104	-5.20000e+00	2.276162e-06	
105	-5.25000e+00	2.263911e-06	
106	-5.30000e+00	2.251976e-06	
107	-5.35000e+00	2.240347e-06	
108	-5.40000e+00	2.229013e-06	
109	-5.45000e+00	2.217966e-06	
110	-5.50000e+00	2.207196e-06	
111	-5.55000e+00	2.196696e-06	
112	-5.60000e+00	2.186456e-06	

Index   v-sweep         rds             
--------------------------------------------------------------------------------
113	-5.65000e+00	2.176469e-06	
114	-5.70000e+00	2.166729e-06	
115	-5.75000e+00	2.157227e-06	
116	-5.80000e+00	2.147958e-06	
117	-5.85000e+00	2.138915e-06	
118	-5.90000e+00	2.130092e-06	
119	-5.95000e+00	2.121483e-06	
120	-6.00000e+00	2.113084e-06	
121	-6.05000e+00	2.104888e-06	
122	-6.10000e+00	2.096891e-06	
123	-6.15000e+00	2.089088e-06	
124	-6.20000e+00	2.081474e-06	
125	-6.25000e+00	2.074046e-06	
126	-6.30000e+00	2.066799e-06	
127	-6.35000e+00	2.059730e-06	
128	-6.40000e+00	2.052833e-06	
129	-6.45000e+00	2.046107e-06	
130	-6.50000e+00	2.039547e-06	
131	-6.55000e+00	2.033149e-06	
132	-6.60000e+00	2.026912e-06	
Reset re-loads circuit ***************************

Circuit: ***************************

Doing analysis at TEMP = -40.000000 and TNOM = -40.000000


No. of Data Rows : 133
                          ***************************
                          DC transfer characteristic  Mon Jan  9 13:58:52  2023
--------------------------------------------------------------------------------
Index   v-sweep         rds             
--------------------------------------------------------------------------------
0	0.000000e+00	1.641695e-04	
1	-5.00000e-02	1.592978e-04	
2	-1.00000e-01	1.545002e-04	
3	-1.50000e-01	1.497755e-04	
4	-2.00000e-01	1.451225e-04	
5	-2.50000e-01	1.405399e-04	
6	-3.00000e-01	1.360265e-04	
7	-3.50000e-01	1.315812e-04	
8	-4.00000e-01	1.272028e-04	
9	-4.50000e-01	1.228901e-04	
10	-5.00000e-01	1.186421e-04	
11	-5.50000e-01	1.144576e-04	
12	-6.00000e-01	1.103355e-04	
13	-6.50000e-01	1.062749e-04	
14	-7.00000e-01	1.022746e-04	
15	-7.50000e-01	9.833370e-05	
16	-8.00000e-01	9.445115e-05	
17	-8.50000e-01	9.062601e-05	
18	-9.00000e-01	8.685731e-05	
19	-9.50000e-01	8.314413e-05	
20	-1.00000e+00	7.948558e-05	
21	-1.05000e+00	7.588075e-05	
22	-1.10000e+00	7.232879e-05	
23	-1.15000e+00	6.882883e-05	
24	-1.20000e+00	6.538004e-05	
25	-1.25000e+00	6.198155e-05	
26	-1.30000e+00	5.863249e-05	
27	-1.35000e+00	5.533191e-05	
28	-1.40000e+00	5.207878e-05	
29	-1.45000e+00	4.887185e-05	
30	-1.50000e+00	4.570962e-05	
31	-1.55000e+00	4.259023e-05	
32	-1.60000e+00	3.951167e-05	
33	-1.65000e+00	3.647283e-05	
34	-1.70000e+00	3.347654e-05	
35	-1.75000e+00	3.053637e-05	
36	-1.80000e+00	2.768592e-05	
37	-1.85000e+00	2.498276e-05	
38	-1.90000e+00	2.249540e-05	
39	-1.95000e+00	2.027708e-05	
40	-2.00000e+00	1.834754e-05	
41	-2.05000e+00	1.669473e-05	
42	-2.10000e+00	1.528795e-05	
43	-2.15000e+00	1.409051e-05	
44	-2.20000e+00	1.306722e-05	
45	-2.25000e+00	1.218744e-05	
46	-2.30000e+00	1.142580e-05	
47	-2.35000e+00	1.076170e-05	
48	-2.40000e+00	1.017861e-05	
49	-2.45000e+00	9.663230e-06	
50	-2.50000e+00	9.204868e-06	
51	-2.55000e+00	8.794861e-06	
52	-2.60000e+00	8.426151e-06	
53	-2.65000e+00	8.092949e-06	
54	-2.70000e+00	7.790469e-06	

Index   v-sweep         rds             
--------------------------------------------------------------------------------
55	-2.75000e+00	7.514732e-06	
56	-2.80000e+00	7.262402e-06	
57	-2.85000e+00	7.030669e-06	
58	-2.90000e+00	6.817145e-06	
59	-2.95000e+00	6.619798e-06	
60	-3.00000e+00	6.436879e-06	
61	-3.05000e+00	6.266882e-06	
62	-3.10000e+00	6.108501e-06	
63	-3.15000e+00	5.960600e-06	
64	-3.20000e+00	5.822184e-06	
65	-3.25000e+00	5.692378e-06	
66	-3.30000e+00	5.570414e-06	
67	-3.35000e+00	5.455609e-06	
68	-3.40000e+00	5.347358e-06	
69	-3.45000e+00	5.245121e-06	
70	-3.50000e+00	5.148417e-06	
71	-3.55000e+00	5.056814e-06	
72	-3.60000e+00	4.969923e-06	
73	-3.65000e+00	4.887393e-06	
74	-3.70000e+00	4.808909e-06	
75	-3.75000e+00	4.734183e-06	
76	-3.80000e+00	4.662956e-06	
77	-3.85000e+00	4.594990e-06	
78	-3.90000e+00	4.530068e-06	
79	-3.95000e+00	4.467995e-06	
80	-4.00000e+00	4.408588e-06	
81	-4.05000e+00	4.351682e-06	
82	-4.10000e+00	4.297125e-06	
83	-4.15000e+00	4.244775e-06	
84	-4.20000e+00	4.194505e-06	
85	-4.25000e+00	4.146193e-06	
86	-4.30000e+00	4.099730e-06	
87	-4.35000e+00	4.055014e-06	
88	-4.40000e+00	4.011948e-06	
89	-4.45000e+00	3.970446e-06	
90	-4.50000e+00	3.930424e-06	
91	-4.55000e+00	3.891808e-06	
92	-4.60000e+00	3.854524e-06	
93	-4.65000e+00	3.818508e-06	
94	-4.70000e+00	3.783697e-06	
95	-4.75000e+00	3.750032e-06	
96	-4.80000e+00	3.717461e-06	
97	-4.85000e+00	3.685930e-06	
98	-4.90000e+00	3.655394e-06	
99	-4.95000e+00	3.625807e-06	
100	-5.00000e+00	3.597127e-06	
101	-5.05000e+00	3.569314e-06	
102	-5.10000e+00	3.542331e-06	
103	-5.15000e+00	3.516144e-06	
104	-5.20000e+00	3.490719e-06	
105	-5.25000e+00	3.466024e-06	
106	-5.30000e+00	3.442032e-06	
107	-5.35000e+00	3.418713e-06	
108	-5.40000e+00	3.396043e-06	
109	-5.45000e+00	3.373995e-06	
110	-5.50000e+00	3.352547e-06	
111	-5.55000e+00	3.331677e-06	
112	-5.60000e+00	3.311363e-06	

Index   v-sweep         rds             
--------------------------------------------------------------------------------
113	-5.65000e+00	3.291587e-06	
114	-5.70000e+00	3.272329e-06	
115	-5.75000e+00	3.253571e-06	
116	-5.80000e+00	3.235297e-06	
117	-5.85000e+00	3.217491e-06	
118	-5.90000e+00	3.200137e-06	
119	-5.95000e+00	3.183222e-06	
120	-6.00000e+00	3.166732e-06	
121	-6.05000e+00	3.150654e-06	
122	-6.10000e+00	3.134975e-06	
123	-6.15000e+00	3.119684e-06	
124	-6.20000e+00	3.104770e-06	
125	-6.25000e+00	3.090223e-06	
126	-6.30000e+00	3.076032e-06	
127	-6.35000e+00	3.062188e-06	
128	-6.40000e+00	3.048681e-06	
129	-6.45000e+00	3.035504e-06	
130	-6.50000e+00	3.022649e-06	
131	-6.55000e+00	3.010106e-06	
132	-6.60000e+00	2.997869e-06	
Reset re-loads circuit ***************************

Circuit: ***************************

Doing analysis at TEMP = -40.000000 and TNOM = -40.000000


No. of Data Rows : 133
                          ***************************
                          DC transfer characteristic  Mon Jan  9 13:58:53  2023
--------------------------------------------------------------------------------
Index   v-sweep         rds             
--------------------------------------------------------------------------------
0	0.000000e+00	1.945860e-04	
1	-5.00000e-02	1.899887e-04	
2	-1.00000e-01	1.854521e-04	
3	-1.50000e-01	1.809754e-04	
4	-2.00000e-01	1.765576e-04	
5	-2.50000e-01	1.721978e-04	
6	-3.00000e-01	1.678953e-04	
7	-3.50000e-01	1.636493e-04	
8	-4.00000e-01	1.594587e-04	
9	-4.50000e-01	1.553229e-04	
10	-5.00000e-01	1.512411e-04	
11	-5.50000e-01	1.472124e-04	
12	-6.00000e-01	1.432360e-04	
13	-6.50000e-01	1.393112e-04	
14	-7.00000e-01	1.354373e-04	
15	-7.50000e-01	1.316134e-04	
16	-8.00000e-01	1.278389e-04	
17	-8.50000e-01	1.241129e-04	
18	-9.00000e-01	1.204349e-04	
19	-9.50000e-01	1.168040e-04	
20	-1.00000e+00	1.132197e-04	
21	-1.05000e+00	1.096811e-04	
22	-1.10000e+00	1.061877e-04	
23	-1.15000e+00	1.027388e-04	
24	-1.20000e+00	9.933372e-05	
25	-1.25000e+00	9.597178e-05	
26	-1.30000e+00	9.265237e-05	
27	-1.35000e+00	8.937484e-05	
28	-1.40000e+00	8.613853e-05	
29	-1.45000e+00	8.294278e-05	
30	-1.50000e+00	7.978690e-05	
31	-1.55000e+00	7.667016e-05	
32	-1.60000e+00	7.359178e-05	
33	-1.65000e+00	7.055085e-05	
34	-1.70000e+00	6.754634e-05	
35	-1.75000e+00	6.457697e-05	
36	-1.80000e+00	6.164107e-05	
37	-1.85000e+00	5.873644e-05	
38	-1.90000e+00	5.586000e-05	
39	-1.95000e+00	5.300743e-05	
40	-2.00000e+00	5.017255e-05	
41	-2.05000e+00	4.734685e-05	
42	-2.10000e+00	4.451930e-05	
43	-2.15000e+00	4.167775e-05	
44	-2.20000e+00	3.881361e-05	
45	-2.25000e+00	3.593142e-05	
46	-2.30000e+00	3.306082e-05	
47	-2.35000e+00	3.026115e-05	
48	-2.40000e+00	2.760890e-05	
49	-2.45000e+00	2.517237e-05	
50	-2.50000e+00	2.299165e-05	
51	-2.55000e+00	2.107513e-05	
52	-2.60000e+00	1.940805e-05	
53	-2.65000e+00	1.796373e-05	
54	-2.70000e+00	1.671200e-05	

Index   v-sweep         rds             
--------------------------------------------------------------------------------
55	-2.75000e+00	1.562388e-05	
56	-2.80000e+00	1.467370e-05	
57	-2.85000e+00	1.383956e-05	
58	-2.90000e+00	1.310323e-05	
59	-2.95000e+00	1.244962e-05	
60	-3.00000e+00	1.186632e-05	
61	-3.05000e+00	1.134311e-05	
62	-3.10000e+00	1.087153e-05	
63	-3.15000e+00	1.044457e-05	
64	-3.20000e+00	1.005637e-05	
65	-3.25000e+00	9.702037e-06	
66	-3.30000e+00	9.377428e-06	
67	-3.35000e+00	9.079037e-06	
68	-3.40000e+00	8.803877e-06	
69	-3.45000e+00	8.549388e-06	
70	-3.50000e+00	8.313365e-06	
71	-3.55000e+00	8.093902e-06	
72	-3.60000e+00	7.889344e-06	
73	-3.65000e+00	7.698243e-06	
74	-3.70000e+00	7.519333e-06	
75	-3.75000e+00	7.351500e-06	
76	-3.80000e+00	7.193760e-06	
77	-3.85000e+00	7.045241e-06	
78	-3.90000e+00	6.905167e-06	
79	-3.95000e+00	6.772846e-06	
80	-4.00000e+00	6.647662e-06	
81	-4.05000e+00	6.529058e-06	
82	-4.10000e+00	6.416535e-06	
83	-4.15000e+00	6.309643e-06	
84	-4.20000e+00	6.207975e-06	
85	-4.25000e+00	6.111161e-06	
86	-4.30000e+00	6.018867e-06	
87	-4.35000e+00	5.930787e-06	
88	-4.40000e+00	5.846642e-06	
89	-4.45000e+00	5.766178e-06	
90	-4.50000e+00	5.689162e-06	
91	-4.55000e+00	5.615379e-06	
92	-4.60000e+00	5.544632e-06	
93	-4.65000e+00	5.476741e-06	
94	-4.70000e+00	5.411539e-06	
95	-4.75000e+00	5.348871e-06	
96	-4.80000e+00	5.288594e-06	
97	-4.85000e+00	5.230576e-06	
98	-4.90000e+00	5.174695e-06	
99	-4.95000e+00	5.120836e-06	
100	-5.00000e+00	5.068893e-06	
101	-5.05000e+00	5.018769e-06	
102	-5.10000e+00	4.970370e-06	
103	-5.15000e+00	4.923610e-06	
104	-5.20000e+00	4.878411e-06	
105	-5.25000e+00	4.834696e-06	
106	-5.30000e+00	4.792395e-06	
107	-5.35000e+00	4.751443e-06	
108	-5.40000e+00	4.711778e-06	
109	-5.45000e+00	4.673342e-06	
110	-5.50000e+00	4.636081e-06	
111	-5.55000e+00	4.599943e-06	
112	-5.60000e+00	4.564880e-06	

Index   v-sweep         rds             
--------------------------------------------------------------------------------
113	-5.65000e+00	4.530848e-06	
114	-5.70000e+00	4.497803e-06	
115	-5.75000e+00	4.465705e-06	
116	-5.80000e+00	4.434517e-06	
117	-5.85000e+00	4.404203e-06	
118	-5.90000e+00	4.374728e-06	
119	-5.95000e+00	4.346062e-06	
120	-6.00000e+00	4.318174e-06	
121	-6.05000e+00	4.291036e-06	
122	-6.10000e+00	4.264620e-06	
123	-6.15000e+00	4.238902e-06	
124	-6.20000e+00	4.213856e-06	
125	-6.25000e+00	4.189461e-06	
126	-6.30000e+00	4.165695e-06	
127	-6.35000e+00	4.142538e-06	
128	-6.40000e+00	4.119969e-06	
129	-6.45000e+00	4.097971e-06	
130	-6.50000e+00	4.076527e-06	
131	-6.55000e+00	4.055619e-06	
132	-6.60000e+00	4.035232e-06	
Reset re-loads circuit ***************************

Circuit: ***************************

Doing analysis at TEMP = -40.000000 and TNOM = -40.000000


No. of Data Rows : 133
                          ***************************
                          DC transfer characteristic  Mon Jan  9 13:58:53  2023
--------------------------------------------------------------------------------
Index   v-sweep         rds             
--------------------------------------------------------------------------------
0	0.000000e+00	2.191709e-04	
1	-5.00000e-02	2.148399e-04	
2	-1.00000e-01	2.105595e-04	
3	-1.50000e-01	2.063290e-04	
4	-2.00000e-01	2.021478e-04	
5	-2.50000e-01	1.980153e-04	
6	-3.00000e-01	1.939309e-04	
7	-3.50000e-01	1.898938e-04	
8	-4.00000e-01	1.859035e-04	
9	-4.50000e-01	1.819595e-04	
10	-5.00000e-01	1.780610e-04	
11	-5.50000e-01	1.742076e-04	
12	-6.00000e-01	1.703985e-04	
13	-6.50000e-01	1.666333e-04	
14	-7.00000e-01	1.629114e-04	
15	-7.50000e-01	1.592321e-04	
16	-8.00000e-01	1.555950e-04	
17	-8.50000e-01	1.519995e-04	
18	-9.00000e-01	1.484451e-04	
19	-9.50000e-01	1.449312e-04	
20	-1.00000e+00	1.414573e-04	
21	-1.05000e+00	1.380228e-04	
22	-1.10000e+00	1.346273e-04	
23	-1.15000e+00	1.312702e-04	
24	-1.20000e+00	1.279511e-04	
25	-1.25000e+00	1.246695e-04	
26	-1.30000e+00	1.214248e-04	
27	-1.35000e+00	1.182166e-04	
28	-1.40000e+00	1.150444e-04	
29	-1.45000e+00	1.119077e-04	
30	-1.50000e+00	1.088062e-04	
31	-1.55000e+00	1.057392e-04	
32	-1.60000e+00	1.027063e-04	
33	-1.65000e+00	9.970710e-05	
34	-1.70000e+00	9.674109e-05	
35	-1.75000e+00	9.380777e-05	
36	-1.80000e+00	9.090663e-05	
37	-1.85000e+00	8.803715e-05	
38	-1.90000e+00	8.519874e-05	
39	-1.95000e+00	8.239077e-05	
40	-2.00000e+00	7.961251e-05	
41	-2.05000e+00	7.686312e-05	
42	-2.10000e+00	7.414155e-05	
43	-2.15000e+00	7.144651e-05	
44	-2.20000e+00	6.877628e-05	
45	-2.25000e+00	6.612859e-05	
46	-2.30000e+00	6.350030e-05	
47	-2.35000e+00	6.088706e-05	
48	-2.40000e+00	5.828271e-05	
49	-2.45000e+00	5.567868e-05	
50	-2.50000e+00	5.306323e-05	
51	-2.55000e+00	5.042114e-05	
52	-2.60000e+00	4.773463e-05	
53	-2.65000e+00	4.498706e-05	
54	-2.70000e+00	4.217102e-05	

Index   v-sweep         rds             
--------------------------------------------------------------------------------
55	-2.75000e+00	3.929987e-05	
56	-2.80000e+00	3.641667e-05	
57	-2.85000e+00	3.359111e-05	
58	-2.90000e+00	3.090174e-05	
59	-2.95000e+00	2.841335e-05	
60	-3.00000e+00	2.616342e-05	
61	-3.05000e+00	2.416162e-05	
62	-3.10000e+00	2.239755e-05	
63	-3.15000e+00	2.084969e-05	
64	-3.20000e+00	1.949241e-05	
65	-3.25000e+00	1.830008e-05	
66	-3.30000e+00	1.724922e-05	
67	-3.35000e+00	1.631923e-05	
68	-3.40000e+00	1.549248e-05	
69	-3.45000e+00	1.475411e-05	
70	-3.50000e+00	1.409164e-05	
71	-3.55000e+00	1.349461e-05	
72	-3.60000e+00	1.295428e-05	
73	-3.65000e+00	1.246327e-05	
74	-3.70000e+00	1.201540e-05	
75	-3.75000e+00	1.160540e-05	
76	-3.80000e+00	1.122882e-05	
77	-3.85000e+00	1.088184e-05	
78	-3.90000e+00	1.056119e-05	
79	-3.95000e+00	1.026405e-05	
80	-4.00000e+00	9.987984e-06	
81	-4.05000e+00	9.730872e-06	
82	-4.10000e+00	9.490863e-06	
83	-4.15000e+00	9.266335e-06	
84	-4.20000e+00	9.055862e-06	
85	-4.25000e+00	8.858186e-06	
86	-4.30000e+00	8.672192e-06	
87	-4.35000e+00	8.496890e-06	
88	-4.40000e+00	8.331396e-06	
89	-4.45000e+00	8.174923e-06	
90	-4.50000e+00	8.026761e-06	
91	-4.55000e+00	7.886275e-06	
92	-4.60000e+00	7.752891e-06	
93	-4.65000e+00	7.626091e-06	
94	-4.70000e+00	7.505406e-06	
95	-4.75000e+00	7.390409e-06	
96	-4.80000e+00	7.280713e-06	
97	-4.85000e+00	7.175964e-06	
98	-4.90000e+00	7.075840e-06	
99	-4.95000e+00	6.980044e-06	
100	-5.00000e+00	6.888305e-06	
101	-5.05000e+00	6.800375e-06	
102	-5.10000e+00	6.716024e-06	
103	-5.15000e+00	6.635041e-06	
104	-5.20000e+00	6.557231e-06	
105	-5.25000e+00	6.482414e-06	
106	-5.30000e+00	6.410423e-06	
107	-5.35000e+00	6.341103e-06	
108	-5.40000e+00	6.274311e-06	
109	-5.45000e+00	6.209912e-06	
110	-5.50000e+00	6.147783e-06	
111	-5.55000e+00	6.087807e-06	
112	-5.60000e+00	6.029878e-06	

Index   v-sweep         rds             
--------------------------------------------------------------------------------
113	-5.65000e+00	5.973893e-06	
114	-5.70000e+00	5.919759e-06	
115	-5.75000e+00	5.867387e-06	
116	-5.80000e+00	5.816695e-06	
117	-5.85000e+00	5.767606e-06	
118	-5.90000e+00	5.720046e-06	
119	-5.95000e+00	5.673948e-06	
120	-6.00000e+00	5.629247e-06	
121	-6.05000e+00	5.585884e-06	
122	-6.10000e+00	5.543801e-06	
123	-6.15000e+00	5.502946e-06	
124	-6.20000e+00	5.463268e-06	
125	-6.25000e+00	5.424719e-06	
126	-6.30000e+00	5.387256e-06	
127	-6.35000e+00	5.350836e-06	
128	-6.40000e+00	5.315419e-06	
129	-6.45000e+00	5.280967e-06	
130	-6.50000e+00	5.247446e-06	
131	-6.55000e+00	5.214821e-06	
132	-6.60000e+00	5.183062e-06	
Reset re-loads circuit ***************************

Circuit: ***************************

Note: No ".plot", ".print", or ".fourier" lines; no simulations run
