
Note: Compatibility modes selected: hs

Warning: m=xx on .subckt line will override multiplier m hierarchy!


Circuit: ***************************

Doing analysis at TEMP = 125.000000 and TNOM = 125.000000


No. of Data Rows : 133
                          ***************************
                          DC transfer characteristic  Mon Jan  9 13:58:53  2023
--------------------------------------------------------------------------------
Index   v-sweep         rds             
--------------------------------------------------------------------------------
0	0.000000e+00	5.007732e-05	
1	-5.00000e-02	3.950555e-05	
2	-1.00000e-01	2.908197e-05	
3	-1.50000e-01	1.903330e-05	
4	-2.00000e-01	1.015366e-05	
5	-2.50000e-01	4.200780e-06	
6	-3.00000e-01	1.695710e-06	
7	-3.50000e-01	8.906746e-07	
8	-4.00000e-01	6.092811e-07	
9	-4.50000e-01	4.871526e-07	
10	-5.00000e-01	4.218238e-07	
11	-5.50000e-01	3.806209e-07	
12	-6.00000e-01	3.513734e-07	
13	-6.50000e-01	3.288672e-07	
14	-7.00000e-01	3.105842e-07	
15	-7.50000e-01	2.951781e-07	
16	-8.00000e-01	2.818634e-07	
17	-8.50000e-01	2.701471e-07	
18	-9.00000e-01	2.596992e-07	
19	-9.50000e-01	2.502879e-07	
20	-1.00000e+00	2.417424e-07	
21	-1.05000e+00	2.339331e-07	
22	-1.10000e+00	2.267584e-07	
23	-1.15000e+00	2.201369e-07	
24	-1.20000e+00	2.140019e-07	
25	-1.25000e+00	2.082983e-07	
26	-1.30000e+00	2.029797e-07	
27	-1.35000e+00	1.980065e-07	
28	-1.40000e+00	1.933448e-07	
29	-1.45000e+00	1.889654e-07	
30	-1.50000e+00	1.848425e-07	
31	-1.55000e+00	1.809537e-07	
32	-1.60000e+00	1.772793e-07	
33	-1.65000e+00	1.738016e-07	
34	-1.70000e+00	1.705051e-07	
35	-1.75000e+00	1.673758e-07	
36	-1.80000e+00	1.644011e-07	
37	-1.85000e+00	1.615698e-07	
38	-1.90000e+00	1.588717e-07	
39	-1.95000e+00	1.562974e-07	
40	-2.00000e+00	1.538388e-07	
41	-2.05000e+00	1.514880e-07	
42	-2.10000e+00	1.492382e-07	
43	-2.15000e+00	1.470830e-07	
44	-2.20000e+00	1.450165e-07	
45	-2.25000e+00	1.430333e-07	
46	-2.30000e+00	1.411286e-07	
47	-2.35000e+00	1.392977e-07	
48	-2.40000e+00	1.375364e-07	
49	-2.45000e+00	1.358410e-07	
50	-2.50000e+00	1.342077e-07	
51	-2.55000e+00	1.326332e-07	
52	-2.60000e+00	1.311145e-07	
53	-2.65000e+00	1.296485e-07	
54	-2.70000e+00	1.282327e-07	

Index   v-sweep         rds             
--------------------------------------------------------------------------------
55	-2.75000e+00	1.268645e-07	
56	-2.80000e+00	1.255416e-07	
57	-2.85000e+00	1.242618e-07	
58	-2.90000e+00	1.230229e-07	
59	-2.95000e+00	1.218232e-07	
60	-3.00000e+00	1.206608e-07	
61	-3.05000e+00	1.195339e-07	
62	-3.10000e+00	1.184411e-07	
63	-3.15000e+00	1.173807e-07	
64	-3.20000e+00	1.163515e-07	
65	-3.25000e+00	1.153520e-07	
66	-3.30000e+00	1.143811e-07	
67	-3.35000e+00	1.134375e-07	
68	-3.40000e+00	1.125200e-07	
69	-3.45000e+00	1.116278e-07	
70	-3.50000e+00	1.107597e-07	
71	-3.55000e+00	1.099148e-07	
72	-3.60000e+00	1.090923e-07	
73	-3.65000e+00	1.082912e-07	
74	-3.70000e+00	1.075108e-07	
75	-3.75000e+00	1.067503e-07	
76	-3.80000e+00	1.060090e-07	
77	-3.85000e+00	1.052862e-07	
78	-3.90000e+00	1.045812e-07	
79	-3.95000e+00	1.038935e-07	
80	-4.00000e+00	1.032224e-07	
81	-4.05000e+00	1.025674e-07	
82	-4.10000e+00	1.019279e-07	
83	-4.15000e+00	1.013035e-07	
84	-4.20000e+00	1.006937e-07	
85	-4.25000e+00	1.000979e-07	
86	-4.30000e+00	9.951575e-08	
87	-4.35000e+00	9.894686e-08	
88	-4.40000e+00	9.839080e-08	
89	-4.45000e+00	9.784720e-08	
90	-4.50000e+00	9.731568e-08	
91	-4.55000e+00	9.679591e-08	
92	-4.60000e+00	9.628754e-08	
93	-4.65000e+00	9.579026e-08	
94	-4.70000e+00	9.530377e-08	
95	-4.75000e+00	9.482777e-08	
96	-4.80000e+00	9.436199e-08	
97	-4.85000e+00	9.390617e-08	
98	-4.90000e+00	9.346004e-08	
99	-4.95000e+00	9.302336e-08	
100	-5.00000e+00	9.259589e-08	
101	-5.05000e+00	9.217743e-08	
102	-5.10000e+00	9.176774e-08	
103	-5.15000e+00	9.136662e-08	
104	-5.20000e+00	9.097387e-08	
105	-5.25000e+00	9.058931e-08	
106	-5.30000e+00	9.021275e-08	
107	-5.35000e+00	8.984401e-08	
108	-5.40000e+00	8.948293e-08	
109	-5.45000e+00	8.912934e-08	
110	-5.50000e+00	8.878309e-08	
111	-5.55000e+00	8.844402e-08	
112	-5.60000e+00	8.811199e-08	

Index   v-sweep         rds             
--------------------------------------------------------------------------------
113	-5.65000e+00	8.778686e-08	
114	-5.70000e+00	8.746850e-08	
115	-5.75000e+00	8.715677e-08	
116	-5.80000e+00	8.685155e-08	
117	-5.85000e+00	8.655272e-08	
118	-5.90000e+00	8.626016e-08	
119	-5.95000e+00	8.597375e-08	
120	-6.00000e+00	8.569340e-08	
121	-6.05000e+00	8.541898e-08	
122	-6.10000e+00	8.515041e-08	
123	-6.15000e+00	8.488757e-08	
124	-6.20000e+00	8.463037e-08	
125	-6.25000e+00	8.437873e-08	
126	-6.30000e+00	8.413254e-08	
127	-6.35000e+00	8.389173e-08	
128	-6.40000e+00	8.365619e-08	
129	-6.45000e+00	8.342586e-08	
130	-6.50000e+00	8.320065e-08	
131	-6.55000e+00	8.298048e-08	
132	-6.60000e+00	8.276528e-08	
Reset re-loads circuit ***************************

Circuit: ***************************

Doing analysis at TEMP = 125.000000 and TNOM = 125.000000


No. of Data Rows : 133
                          ***************************
                          DC transfer characteristic  Mon Jan  9 13:58:53  2023
--------------------------------------------------------------------------------
Index   v-sweep         rds             
--------------------------------------------------------------------------------
0	0.000000e+00	2.244389e-04	
1	-5.00000e-02	2.128729e-04	
2	-1.00000e-01	2.013433e-04	
3	-1.50000e-01	1.898502e-04	
4	-2.00000e-01	1.783939e-04	
5	-2.50000e-01	1.669748e-04	
6	-3.00000e-01	1.555937e-04	
7	-3.50000e-01	1.442515e-04	
8	-4.00000e-01	1.329499e-04	
9	-4.50000e-01	1.216914e-04	
10	-5.00000e-01	1.104801e-04	
11	-5.50000e-01	9.932287e-05	
12	-6.00000e-01	8.823132e-05	
13	-6.50000e-01	7.722598e-05	
14	-7.00000e-01	6.634447e-05	
15	-7.50000e-01	5.565782e-05	
16	-8.00000e-01	4.530208e-05	
17	-8.50000e-01	3.553153e-05	
18	-9.00000e-01	2.677305e-05	
19	-9.50000e-01	1.957560e-05	
20	-1.00000e+00	1.431795e-05	
21	-1.05000e+00	1.088494e-05	
22	-1.10000e+00	8.773818e-06	
23	-1.15000e+00	7.465730e-06	
24	-1.20000e+00	6.610187e-06	
25	-1.25000e+00	6.009927e-06	
26	-1.30000e+00	5.560092e-06	
27	-1.35000e+00	5.204481e-06	
28	-1.40000e+00	4.911765e-06	
29	-1.45000e+00	4.663547e-06	
30	-1.50000e+00	4.448411e-06	
31	-1.55000e+00	4.258888e-06	
32	-1.60000e+00	4.089848e-06	
33	-1.65000e+00	3.937614e-06	
34	-1.70000e+00	3.799454e-06	
35	-1.75000e+00	3.673270e-06	
36	-1.80000e+00	3.557415e-06	
37	-1.85000e+00	3.450561e-06	
38	-1.90000e+00	3.351624e-06	
39	-1.95000e+00	3.259702e-06	
40	-2.00000e+00	3.174036e-06	
41	-2.05000e+00	3.093980e-06	
42	-2.10000e+00	3.018981e-06	
43	-2.15000e+00	2.948558e-06	
44	-2.20000e+00	2.882294e-06	
45	-2.25000e+00	2.819823e-06	
46	-2.30000e+00	2.760821e-06	
47	-2.35000e+00	2.705002e-06	
48	-2.40000e+00	2.652113e-06	
49	-2.45000e+00	2.601924e-06	
50	-2.50000e+00	2.554233e-06	
51	-2.55000e+00	2.508855e-06	
52	-2.60000e+00	2.465625e-06	
53	-2.65000e+00	2.424393e-06	
54	-2.70000e+00	2.385023e-06	

Index   v-sweep         rds             
--------------------------------------------------------------------------------
55	-2.75000e+00	2.347391e-06	
56	-2.80000e+00	2.311384e-06	
57	-2.85000e+00	2.276898e-06	
58	-2.90000e+00	2.243840e-06	
59	-2.95000e+00	2.212121e-06	
60	-3.00000e+00	2.181663e-06	
61	-3.05000e+00	2.152391e-06	
62	-3.10000e+00	2.124238e-06	
63	-3.15000e+00	2.097140e-06	
64	-3.20000e+00	2.071040e-06	
65	-3.25000e+00	2.045883e-06	
66	-3.30000e+00	2.021620e-06	
67	-3.35000e+00	1.998203e-06	
68	-3.40000e+00	1.975589e-06	
69	-3.45000e+00	1.953738e-06	
70	-3.50000e+00	1.932612e-06	
71	-3.55000e+00	1.912175e-06	
72	-3.60000e+00	1.892395e-06	
73	-3.65000e+00	1.873241e-06	
74	-3.70000e+00	1.854683e-06	
75	-3.75000e+00	1.836694e-06	
76	-3.80000e+00	1.819249e-06	
77	-3.85000e+00	1.802323e-06	
78	-3.90000e+00	1.785895e-06	
79	-3.95000e+00	1.769941e-06	
80	-4.00000e+00	1.754444e-06	
81	-4.05000e+00	1.739382e-06	
82	-4.10000e+00	1.724740e-06	
83	-4.15000e+00	1.710499e-06	
84	-4.20000e+00	1.696643e-06	
85	-4.25000e+00	1.683158e-06	
86	-4.30000e+00	1.670029e-06	
87	-4.35000e+00	1.657243e-06	
88	-4.40000e+00	1.644786e-06	
89	-4.45000e+00	1.632647e-06	
90	-4.50000e+00	1.620814e-06	
91	-4.55000e+00	1.609275e-06	
92	-4.60000e+00	1.598021e-06	
93	-4.65000e+00	1.587042e-06	
94	-4.70000e+00	1.576328e-06	
95	-4.75000e+00	1.565870e-06	
96	-4.80000e+00	1.555660e-06	
97	-4.85000e+00	1.545689e-06	
98	-4.90000e+00	1.535951e-06	
99	-4.95000e+00	1.526436e-06	
100	-5.00000e+00	1.517140e-06	
101	-5.05000e+00	1.508054e-06	
102	-5.10000e+00	1.499172e-06	
103	-5.15000e+00	1.490489e-06	
104	-5.20000e+00	1.481999e-06	
105	-5.25000e+00	1.473696e-06	
106	-5.30000e+00	1.465574e-06	
107	-5.35000e+00	1.457629e-06	
108	-5.40000e+00	1.449856e-06	
109	-5.45000e+00	1.442250e-06	
110	-5.50000e+00	1.434807e-06	
111	-5.55000e+00	1.427523e-06	
112	-5.60000e+00	1.420393e-06	

Index   v-sweep         rds             
--------------------------------------------------------------------------------
113	-5.65000e+00	1.413414e-06	
114	-5.70000e+00	1.406582e-06	
115	-5.75000e+00	1.399894e-06	
116	-5.80000e+00	1.393345e-06	
117	-5.85000e+00	1.386934e-06	
118	-5.90000e+00	1.380656e-06	
119	-5.95000e+00	1.374508e-06	
120	-6.00000e+00	1.368489e-06	
121	-6.05000e+00	1.362594e-06	
122	-6.10000e+00	1.356822e-06	
123	-6.15000e+00	1.351170e-06	
124	-6.20000e+00	1.345634e-06	
125	-6.25000e+00	1.340214e-06	
126	-6.30000e+00	1.334907e-06	
127	-6.35000e+00	1.329709e-06	
128	-6.40000e+00	1.324621e-06	
129	-6.45000e+00	1.319638e-06	
130	-6.50000e+00	1.314760e-06	
131	-6.55000e+00	1.309984e-06	
132	-6.60000e+00	1.305309e-06	
Reset re-loads circuit ***************************

Circuit: ***************************

Doing analysis at TEMP = 125.000000 and TNOM = 125.000000


No. of Data Rows : 133
                          ***************************
                          DC transfer characteristic  Mon Jan  9 13:58:53  2023
--------------------------------------------------------------------------------
Index   v-sweep         rds             
--------------------------------------------------------------------------------
0	0.000000e+00	3.649735e-04	
1	-5.00000e-02	3.540882e-04	
2	-1.00000e-01	3.432332e-04	
3	-1.50000e-01	3.324084e-04	
4	-2.00000e-01	3.216138e-04	
5	-2.50000e-01	3.108494e-04	
6	-3.00000e-01	3.001151e-04	
7	-3.50000e-01	2.894108e-04	
8	-4.00000e-01	2.787366e-04	
9	-4.50000e-01	2.680925e-04	
10	-5.00000e-01	2.574784e-04	
11	-5.50000e-01	2.468945e-04	
12	-6.00000e-01	2.363408e-04	
13	-6.50000e-01	2.258174e-04	
14	-7.00000e-01	2.153246e-04	
15	-7.50000e-01	2.048627e-04	
16	-8.00000e-01	1.944320e-04	
17	-8.50000e-01	1.840332e-04	
18	-9.00000e-01	1.736671e-04	
19	-9.50000e-01	1.633349e-04	
20	-1.00000e+00	1.530381e-04	
21	-1.05000e+00	1.427792e-04	
22	-1.10000e+00	1.325618e-04	
23	-1.15000e+00	1.223909e-04	
24	-1.20000e+00	1.122747e-04	
25	-1.25000e+00	1.022255e-04	
26	-1.30000e+00	9.226272e-05	
27	-1.35000e+00	8.241796e-05	
28	-1.40000e+00	7.274262e-05	
29	-1.45000e+00	6.332068e-05	
30	-1.50000e+00	5.428629e-05	
31	-1.55000e+00	4.584081e-05	
32	-1.60000e+00	3.824956e-05	
33	-1.65000e+00	3.178527e-05	
34	-1.70000e+00	2.661332e-05	
35	-1.75000e+00	2.269777e-05	
36	-1.80000e+00	1.982596e-05	
37	-1.85000e+00	1.772337e-05	
38	-1.90000e+00	1.614981e-05	
39	-1.95000e+00	1.493196e-05	
40	-2.00000e+00	1.395578e-05	
41	-2.05000e+00	1.314861e-05	
42	-2.10000e+00	1.246403e-05	
43	-2.15000e+00	1.187168e-05	
44	-2.20000e+00	1.135109e-05	
45	-2.25000e+00	1.088794e-05	
46	-2.30000e+00	1.047187e-05	
47	-2.35000e+00	1.009515e-05	
48	-2.40000e+00	9.751834e-06	
49	-2.45000e+00	9.437258e-06	
50	-2.50000e+00	9.147671e-06	
51	-2.55000e+00	8.880011e-06	
52	-2.60000e+00	8.631736e-06	
53	-2.65000e+00	8.400715e-06	
54	-2.70000e+00	8.185135e-06	

Index   v-sweep         rds             
--------------------------------------------------------------------------------
55	-2.75000e+00	7.983446e-06	
56	-2.80000e+00	7.794309e-06	
57	-2.85000e+00	7.616557e-06	
58	-2.90000e+00	7.449172e-06	
59	-2.95000e+00	7.291256e-06	
60	-3.00000e+00	7.142015e-06	
61	-3.05000e+00	7.000744e-06	
62	-3.10000e+00	6.866815e-06	
63	-3.15000e+00	6.739664e-06	
64	-3.20000e+00	6.618785e-06	
65	-3.25000e+00	6.503723e-06	
66	-3.30000e+00	6.394065e-06	
67	-3.35000e+00	6.289438e-06	
68	-3.40000e+00	6.189501e-06	
69	-3.45000e+00	6.093946e-06	
70	-3.50000e+00	6.002490e-06	
71	-3.55000e+00	5.914874e-06	
72	-3.60000e+00	5.830862e-06	
73	-3.65000e+00	5.750235e-06	
74	-3.70000e+00	5.672793e-06	
75	-3.75000e+00	5.598350e-06	
76	-3.80000e+00	5.526737e-06	
77	-3.85000e+00	5.457795e-06	
78	-3.90000e+00	5.391377e-06	
79	-3.95000e+00	5.327348e-06	
80	-4.00000e+00	5.265582e-06	
81	-4.05000e+00	5.205960e-06	
82	-4.10000e+00	5.148374e-06	
83	-4.15000e+00	5.092722e-06	
84	-4.20000e+00	5.038907e-06	
85	-4.25000e+00	4.986842e-06	
86	-4.30000e+00	4.936441e-06	
87	-4.35000e+00	4.887628e-06	
88	-4.40000e+00	4.840329e-06	
89	-4.45000e+00	4.794475e-06	
90	-4.50000e+00	4.750001e-06	
91	-4.55000e+00	4.706847e-06	
92	-4.60000e+00	4.664954e-06	
93	-4.65000e+00	4.624270e-06	
94	-4.70000e+00	4.584743e-06	
95	-4.75000e+00	4.546325e-06	
96	-4.80000e+00	4.508971e-06	
97	-4.85000e+00	4.472638e-06	
98	-4.90000e+00	4.437285e-06	
99	-4.95000e+00	4.402874e-06	
100	-5.00000e+00	4.369370e-06	
101	-5.05000e+00	4.336736e-06	
102	-5.10000e+00	4.304942e-06	
103	-5.15000e+00	4.273956e-06	
104	-5.20000e+00	4.243748e-06	
105	-5.25000e+00	4.214292e-06	
106	-5.30000e+00	4.185559e-06	
107	-5.35000e+00	4.157527e-06	
108	-5.40000e+00	4.130170e-06	
109	-5.45000e+00	4.103465e-06	
110	-5.50000e+00	4.077393e-06	
111	-5.55000e+00	4.051931e-06	
112	-5.60000e+00	4.027060e-06	

Index   v-sweep         rds             
--------------------------------------------------------------------------------
113	-5.65000e+00	4.002762e-06	
114	-5.70000e+00	3.979019e-06	
115	-5.75000e+00	3.955814e-06	
116	-5.80000e+00	3.933131e-06	
117	-5.85000e+00	3.910954e-06	
118	-5.90000e+00	3.889270e-06	
119	-5.95000e+00	3.868063e-06	
120	-6.00000e+00	3.847321e-06	
121	-6.05000e+00	3.827031e-06	
122	-6.10000e+00	3.807180e-06	
123	-6.15000e+00	3.787758e-06	
124	-6.20000e+00	3.768753e-06	
125	-6.25000e+00	3.750153e-06	
126	-6.30000e+00	3.731950e-06	
127	-6.35000e+00	3.714133e-06	
128	-6.40000e+00	3.696694e-06	
129	-6.45000e+00	3.679622e-06	
130	-6.50000e+00	3.662909e-06	
131	-6.55000e+00	3.646548e-06	
132	-6.60000e+00	3.630531e-06	
Reset re-loads circuit ***************************

Circuit: ***************************

Doing analysis at TEMP = 125.000000 and TNOM = 125.000000


No. of Data Rows : 133
                          ***************************
                          DC transfer characteristic  Mon Jan  9 13:58:53  2023
--------------------------------------------------------------------------------
Index   v-sweep         rds             
--------------------------------------------------------------------------------
0	0.000000e+00	4.843719e-04	
1	-5.00000e-02	4.741386e-04	
2	-1.00000e-01	4.639318e-04	
3	-1.50000e-01	4.537515e-04	
4	-2.00000e-01	4.435976e-04	
5	-2.50000e-01	4.334700e-04	
6	-3.00000e-01	4.233687e-04	
7	-3.50000e-01	4.132936e-04	
8	-4.00000e-01	4.032446e-04	
9	-4.50000e-01	3.932217e-04	
10	-5.00000e-01	3.832249e-04	
11	-5.50000e-01	3.732540e-04	
12	-6.00000e-01	3.633090e-04	
13	-6.50000e-01	3.533899e-04	
14	-7.00000e-01	3.434967e-04	
15	-7.50000e-01	3.336292e-04	
16	-8.00000e-01	3.237875e-04	
17	-8.50000e-01	3.139716e-04	
18	-9.00000e-01	3.041815e-04	
19	-9.50000e-01	2.944171e-04	
20	-1.00000e+00	2.846785e-04	
21	-1.05000e+00	2.749656e-04	
22	-1.10000e+00	2.652787e-04	
23	-1.15000e+00	2.556177e-04	
24	-1.20000e+00	2.459829e-04	
25	-1.25000e+00	2.363743e-04	
26	-1.30000e+00	2.267923e-04	
27	-1.35000e+00	2.172371e-04	
28	-1.40000e+00	2.077093e-04	
29	-1.45000e+00	1.982093e-04	
30	-1.50000e+00	1.887380e-04	
31	-1.55000e+00	1.792965e-04	
32	-1.60000e+00	1.698862e-04	
33	-1.65000e+00	1.605090e-04	
34	-1.70000e+00	1.511678e-04	
35	-1.75000e+00	1.418663e-04	
36	-1.80000e+00	1.326100e-04	
37	-1.85000e+00	1.234068e-04	
38	-1.90000e+00	1.142682e-04	
39	-1.95000e+00	1.052112e-04	
40	-2.00000e+00	9.626139e-05	
41	-2.05000e+00	8.745721e-05	
42	-2.10000e+00	7.885630e-05	
43	-2.15000e+00	7.054332e-05	
44	-2.20000e+00	6.263716e-05	
45	-2.25000e+00	5.529085e-05	
46	-2.30000e+00	4.867397e-05	
47	-2.35000e+00	4.293082e-05	
48	-2.40000e+00	3.812813e-05	
49	-2.45000e+00	3.422768e-05	
50	-2.50000e+00	3.110659e-05	
51	-2.55000e+00	2.860722e-05	
52	-2.60000e+00	2.658049e-05	
53	-2.65000e+00	2.490637e-05	
54	-2.70000e+00	2.349605e-05	

Index   v-sweep         rds             
--------------------------------------------------------------------------------
55	-2.75000e+00	2.228624e-05	
56	-2.80000e+00	2.123218e-05	
57	-2.85000e+00	2.030193e-05	
58	-2.90000e+00	1.947224e-05	
59	-2.95000e+00	1.872579e-05	
60	-3.00000e+00	1.804940e-05	
61	-3.05000e+00	1.743277e-05	
62	-3.10000e+00	1.686772e-05	
63	-3.15000e+00	1.634763e-05	
64	-3.20000e+00	1.586704e-05	
65	-3.25000e+00	1.542141e-05	
66	-3.30000e+00	1.500692e-05	
67	-3.35000e+00	1.462030e-05	
68	-3.40000e+00	1.425878e-05	
69	-3.45000e+00	1.391991e-05	
70	-3.50000e+00	1.360160e-05	
71	-3.55000e+00	1.330200e-05	
72	-3.60000e+00	1.301949e-05	
73	-3.65000e+00	1.275264e-05	
74	-3.70000e+00	1.250015e-05	
75	-3.75000e+00	1.226090e-05	
76	-3.80000e+00	1.203386e-05	
77	-3.85000e+00	1.181812e-05	
78	-3.90000e+00	1.161285e-05	
79	-3.95000e+00	1.141730e-05	
80	-4.00000e+00	1.123080e-05	
81	-4.05000e+00	1.105274e-05	
82	-4.10000e+00	1.088254e-05	
83	-4.15000e+00	1.071971e-05	
84	-4.20000e+00	1.056378e-05	
85	-4.25000e+00	1.041431e-05	
86	-4.30000e+00	1.027091e-05	
87	-4.35000e+00	1.013323e-05	
88	-4.40000e+00	1.000092e-05	
89	-4.45000e+00	9.873675e-06	
90	-4.50000e+00	9.751217e-06	
91	-4.55000e+00	9.633278e-06	
92	-4.60000e+00	9.519614e-06	
93	-4.65000e+00	9.409997e-06	
94	-4.70000e+00	9.304215e-06	
95	-4.75000e+00	9.202071e-06	
96	-4.80000e+00	9.103382e-06	
97	-4.85000e+00	9.007977e-06	
98	-4.90000e+00	8.915694e-06	
99	-4.95000e+00	8.826383e-06	
100	-5.00000e+00	8.739905e-06	
101	-5.05000e+00	8.656128e-06	
102	-5.10000e+00	8.574927e-06	
103	-5.15000e+00	8.496187e-06	
104	-5.20000e+00	8.419798e-06	
105	-5.25000e+00	8.345658e-06	
106	-5.30000e+00	8.273669e-06	
107	-5.35000e+00	8.203742e-06	
108	-5.40000e+00	8.135788e-06	
109	-5.45000e+00	8.069728e-06	
110	-5.50000e+00	8.005485e-06	
111	-5.55000e+00	7.942985e-06	
112	-5.60000e+00	7.882161e-06	

Index   v-sweep         rds             
--------------------------------------------------------------------------------
113	-5.65000e+00	7.822948e-06	
114	-5.70000e+00	7.765283e-06	
115	-5.75000e+00	7.709109e-06	
116	-5.80000e+00	7.654371e-06	
117	-5.85000e+00	7.601016e-06	
118	-5.90000e+00	7.548994e-06	
119	-5.95000e+00	7.498259e-06	
120	-6.00000e+00	7.448765e-06	
121	-6.05000e+00	7.400471e-06	
122	-6.10000e+00	7.353335e-06	
123	-6.15000e+00	7.307319e-06	
124	-6.20000e+00	7.262386e-06	
125	-6.25000e+00	7.218503e-06	
126	-6.30000e+00	7.175634e-06	
127	-6.35000e+00	7.133750e-06	
128	-6.40000e+00	7.092820e-06	
129	-6.45000e+00	7.052815e-06	
130	-6.50000e+00	7.013708e-06	
131	-6.55000e+00	6.975474e-06	
132	-6.60000e+00	6.938086e-06	
Reset re-loads circuit ***************************

Circuit: ***************************

Doing analysis at TEMP = 125.000000 and TNOM = 125.000000


No. of Data Rows : 133
                          ***************************
                          DC transfer characteristic  Mon Jan  9 13:58:53  2023
--------------------------------------------------------------------------------
Index   v-sweep         rds             
--------------------------------------------------------------------------------
0	0.000000e+00	5.885746e-04	
1	-5.00000e-02	5.788954e-04	
2	-1.00000e-01	5.692400e-04	
3	-1.50000e-01	5.596083e-04	
4	-2.00000e-01	5.500003e-04	
5	-2.50000e-01	5.404159e-04	
6	-3.00000e-01	5.308551e-04	
7	-3.50000e-01	5.213177e-04	
8	-4.00000e-01	5.118038e-04	
9	-4.50000e-01	5.023133e-04	
10	-5.00000e-01	4.928460e-04	
11	-5.50000e-01	4.834021e-04	
12	-6.00000e-01	4.739813e-04	
13	-6.50000e-01	4.645836e-04	
14	-7.00000e-01	4.552091e-04	
15	-7.50000e-01	4.458575e-04	
16	-8.00000e-01	4.365290e-04	
17	-8.50000e-01	4.272234e-04	
18	-9.00000e-01	4.179406e-04	
19	-9.50000e-01	4.086807e-04	
20	-1.00000e+00	3.994436e-04	
21	-1.05000e+00	3.902293e-04	
22	-1.10000e+00	3.810376e-04	
23	-1.15000e+00	3.718686e-04	
24	-1.20000e+00	3.627223e-04	
25	-1.25000e+00	3.535986e-04	
26	-1.30000e+00	3.444975e-04	
27	-1.35000e+00	3.354190e-04	
28	-1.40000e+00	3.263630e-04	
29	-1.45000e+00	3.173296e-04	
30	-1.50000e+00	3.083188e-04	
31	-1.55000e+00	2.993307e-04	
32	-1.60000e+00	2.903652e-04	
33	-1.65000e+00	2.814224e-04	
34	-1.70000e+00	2.725024e-04	
35	-1.75000e+00	2.636054e-04	
36	-1.80000e+00	2.547315e-04	
37	-1.85000e+00	2.458808e-04	
38	-1.90000e+00	2.370537e-04	
39	-1.95000e+00	2.282505e-04	
40	-2.00000e+00	2.194716e-04	
41	-2.05000e+00	2.107176e-04	
42	-2.10000e+00	2.019892e-04	
43	-2.15000e+00	1.932873e-04	
44	-2.20000e+00	1.846132e-04	
45	-2.25000e+00	1.759686e-04	
46	-2.30000e+00	1.673555e-04	
47	-2.35000e+00	1.587770e-04	
48	-2.40000e+00	1.502369e-04	
49	-2.45000e+00	1.417408e-04	
50	-2.50000e+00	1.332962e-04	
51	-2.55000e+00	1.249136e-04	
52	-2.60000e+00	1.166082e-04	
53	-2.65000e+00	1.084013e-04	
54	-2.70000e+00	1.003232e-04	

Index   v-sweep         rds             
--------------------------------------------------------------------------------
55	-2.75000e+00	9.241715e-05	
56	-2.80000e+00	8.474266e-05	
57	-2.85000e+00	7.737936e-05	
58	-2.90000e+00	7.042637e-05	
59	-2.95000e+00	6.399425e-05	
60	-3.00000e+00	5.818606e-05	
61	-3.05000e+00	5.307109e-05	
62	-3.10000e+00	4.866382e-05	
63	-3.15000e+00	4.492148e-05	
64	-3.20000e+00	4.176142e-05	
65	-3.25000e+00	3.908605e-05	
66	-3.30000e+00	3.680246e-05	
67	-3.35000e+00	3.483211e-05	
68	-3.40000e+00	3.311269e-05	
69	-3.45000e+00	3.159626e-05	
70	-3.50000e+00	3.024624e-05	
71	-3.55000e+00	2.903457e-05	
72	-3.60000e+00	2.793947e-05	
73	-3.65000e+00	2.694379e-05	
74	-3.70000e+00	2.603380e-05	
75	-3.75000e+00	2.519836e-05	
76	-3.80000e+00	2.442828e-05	
77	-3.85000e+00	2.371594e-05	
78	-3.90000e+00	2.305488e-05	
79	-3.95000e+00	2.243964e-05	
80	-4.00000e+00	2.186552e-05	
81	-4.05000e+00	2.132847e-05	
82	-4.10000e+00	2.082497e-05	
83	-4.15000e+00	2.035193e-05	
84	-4.20000e+00	1.990666e-05	
85	-4.25000e+00	1.948677e-05	
86	-4.30000e+00	1.909012e-05	
87	-4.35000e+00	1.871485e-05	
88	-4.40000e+00	1.835926e-05	
89	-4.45000e+00	1.802184e-05	
90	-4.50000e+00	1.770123e-05	
91	-4.55000e+00	1.739621e-05	
92	-4.60000e+00	1.710567e-05	
93	-4.65000e+00	1.682859e-05	
94	-4.70000e+00	1.656408e-05	
95	-4.75000e+00	1.631129e-05	
96	-4.80000e+00	1.606946e-05	
97	-4.85000e+00	1.583790e-05	
98	-4.90000e+00	1.561596e-05	
99	-4.95000e+00	1.540307e-05	
100	-5.00000e+00	1.519868e-05	
101	-5.05000e+00	1.500230e-05	
102	-5.10000e+00	1.481346e-05	
103	-5.15000e+00	1.463174e-05	
104	-5.20000e+00	1.445675e-05	
105	-5.25000e+00	1.428812e-05	
106	-5.30000e+00	1.412551e-05	
107	-5.35000e+00	1.396861e-05	
108	-5.40000e+00	1.381713e-05	
109	-5.45000e+00	1.367078e-05	
110	-5.50000e+00	1.352931e-05	
111	-5.55000e+00	1.339249e-05	
112	-5.60000e+00	1.326010e-05	

Index   v-sweep         rds             
--------------------------------------------------------------------------------
113	-5.65000e+00	1.313191e-05	
114	-5.70000e+00	1.300774e-05	
115	-5.75000e+00	1.288739e-05	
116	-5.80000e+00	1.277071e-05	
117	-5.85000e+00	1.265752e-05	
118	-5.90000e+00	1.254768e-05	
119	-5.95000e+00	1.244103e-05	
120	-6.00000e+00	1.233744e-05	
121	-6.05000e+00	1.223678e-05	
122	-6.10000e+00	1.213894e-05	
123	-6.15000e+00	1.204380e-05	
124	-6.20000e+00	1.195125e-05	
125	-6.25000e+00	1.186118e-05	
126	-6.30000e+00	1.177351e-05	
127	-6.35000e+00	1.168813e-05	
128	-6.40000e+00	1.160497e-05	
129	-6.45000e+00	1.152394e-05	
130	-6.50000e+00	1.144497e-05	
131	-6.55000e+00	1.136797e-05	
132	-6.60000e+00	1.129288e-05	
Reset re-loads circuit ***************************

Circuit: ***************************

Doing analysis at TEMP = 125.000000 and TNOM = 125.000000


No. of Data Rows : 133
                          ***************************
                          DC transfer characteristic  Mon Jan  9 13:58:53  2023
--------------------------------------------------------------------------------
Index   v-sweep         rds             
--------------------------------------------------------------------------------
0	0.000000e+00	6.816860e-04	
1	-5.00000e-02	6.724693e-04	
2	-1.00000e-01	6.632745e-04	
3	-1.50000e-01	6.541013e-04	
4	-2.00000e-01	6.449497e-04	
5	-2.50000e-01	6.358196e-04	
6	-3.00000e-01	6.267111e-04	
7	-3.50000e-01	6.176240e-04	
8	-4.00000e-01	6.085583e-04	
9	-4.50000e-01	5.995139e-04	
10	-5.00000e-01	5.904908e-04	
11	-5.50000e-01	5.814889e-04	
12	-6.00000e-01	5.725082e-04	
13	-6.50000e-01	5.635487e-04	
14	-7.00000e-01	5.546101e-04	
15	-7.50000e-01	5.456926e-04	
16	-8.00000e-01	5.367961e-04	
17	-8.50000e-01	5.279204e-04	
18	-9.00000e-01	5.190657e-04	
19	-9.50000e-01	5.102317e-04	
20	-1.00000e+00	5.014185e-04	
21	-1.05000e+00	4.926260e-04	
22	-1.10000e+00	4.838541e-04	
23	-1.15000e+00	4.751029e-04	
24	-1.20000e+00	4.663722e-04	
25	-1.25000e+00	4.576620e-04	
26	-1.30000e+00	4.489724e-04	
27	-1.35000e+00	4.403032e-04	
28	-1.40000e+00	4.316543e-04	
29	-1.45000e+00	4.230259e-04	
30	-1.50000e+00	4.144177e-04	
31	-1.55000e+00	4.058299e-04	
32	-1.60000e+00	3.972623e-04	
33	-1.65000e+00	3.887149e-04	
34	-1.70000e+00	3.801877e-04	
35	-1.75000e+00	3.716807e-04	
36	-1.80000e+00	3.631939e-04	
37	-1.85000e+00	3.547273e-04	
38	-1.90000e+00	3.462807e-04	
39	-1.95000e+00	3.378544e-04	
40	-2.00000e+00	3.294482e-04	
41	-2.05000e+00	3.210621e-04	
42	-2.10000e+00	3.126963e-04	
43	-2.15000e+00	3.043508e-04	
44	-2.20000e+00	2.960255e-04	
45	-2.25000e+00	2.877206e-04	
46	-2.30000e+00	2.794363e-04	
47	-2.35000e+00	2.711725e-04	
48	-2.40000e+00	2.629296e-04	
49	-2.45000e+00	2.547077e-04	
50	-2.50000e+00	2.465070e-04	
51	-2.55000e+00	2.383280e-04	
52	-2.60000e+00	2.301709e-04	
53	-2.65000e+00	2.220365e-04	
54	-2.70000e+00	2.139252e-04	

Index   v-sweep         rds             
--------------------------------------------------------------------------------
55	-2.75000e+00	2.058381e-04	
56	-2.80000e+00	1.977761e-04	
57	-2.85000e+00	1.897406e-04	
58	-2.90000e+00	1.817334e-04	
59	-2.95000e+00	1.737568e-04	
60	-3.00000e+00	1.658140e-04	
61	-3.05000e+00	1.579089e-04	
62	-3.10000e+00	1.500470e-04	
63	-3.15000e+00	1.422355e-04	
64	-3.20000e+00	1.344843e-04	
65	-3.25000e+00	1.268070e-04	
66	-3.30000e+00	1.192219e-04	
67	-3.35000e+00	1.117542e-04	
68	-3.40000e+00	1.044379e-04	
69	-3.45000e+00	9.731790e-05	
70	-3.50000e+00	9.045162e-05	
71	-3.55000e+00	8.390795e-05	
72	-3.60000e+00	7.776246e-05	
73	-3.65000e+00	7.208709e-05	
74	-3.70000e+00	6.693620e-05	
75	-3.75000e+00	6.233399e-05	
76	-3.80000e+00	5.826991e-05	
77	-3.85000e+00	5.470416e-05	
78	-3.90000e+00	5.157973e-05	
79	-3.95000e+00	4.883468e-05	
80	-4.00000e+00	4.641054e-05	
81	-4.05000e+00	4.425643e-05	
82	-4.10000e+00	4.232992e-05	
83	-4.15000e+00	4.059631e-05	
84	-4.20000e+00	3.902746e-05	
85	-4.25000e+00	3.760043e-05	
86	-4.30000e+00	3.629644e-05	
87	-4.35000e+00	3.509994e-05	
88	-4.40000e+00	3.399798e-05	
89	-4.45000e+00	3.297966e-05	
90	-4.50000e+00	3.203572e-05	
91	-4.55000e+00	3.115827e-05	
92	-4.60000e+00	3.034047e-05	
93	-4.65000e+00	2.957645e-05	
94	-4.70000e+00	2.886106e-05	
95	-4.75000e+00	2.818981e-05	
96	-4.80000e+00	2.755874e-05	
97	-4.85000e+00	2.696435e-05	
98	-4.90000e+00	2.640355e-05	
99	-4.95000e+00	2.587357e-05	
100	-5.00000e+00	2.537196e-05	
101	-5.05000e+00	2.489650e-05	
102	-5.10000e+00	2.444521e-05	
103	-5.15000e+00	2.401630e-05	
104	-5.20000e+00	2.360815e-05	
105	-5.25000e+00	2.321931e-05	
106	-5.30000e+00	2.284843e-05	
107	-5.35000e+00	2.249431e-05	
108	-5.40000e+00	2.215584e-05	
109	-5.45000e+00	2.183201e-05	
110	-5.50000e+00	2.152191e-05	
111	-5.55000e+00	2.122467e-05	
112	-5.60000e+00	2.093952e-05	

Index   v-sweep         rds             
--------------------------------------------------------------------------------
113	-5.65000e+00	2.066574e-05	
114	-5.70000e+00	2.040267e-05	
115	-5.75000e+00	2.014969e-05	
116	-5.80000e+00	1.990624e-05	
117	-5.85000e+00	1.967179e-05	
118	-5.90000e+00	1.944586e-05	
119	-5.95000e+00	1.922799e-05	
120	-6.00000e+00	1.901776e-05	
121	-6.05000e+00	1.881478e-05	
122	-6.10000e+00	1.861868e-05	
123	-6.15000e+00	1.842913e-05	
124	-6.20000e+00	1.824579e-05	
125	-6.25000e+00	1.806838e-05	
126	-6.30000e+00	1.789660e-05	
127	-6.35000e+00	1.773021e-05	
128	-6.40000e+00	1.756895e-05	
129	-6.45000e+00	1.741259e-05	
130	-6.50000e+00	1.726091e-05	
131	-6.55000e+00	1.711371e-05	
132	-6.60000e+00	1.697080e-05	
Reset re-loads circuit ***************************

Circuit: ***************************

Note: No ".plot", ".print", or ".fourier" lines; no simulations run
