
Note: Compatibility modes selected: hs

Warning: m=xx on .subckt line will override multiplier m hierarchy!


Circuit: ***************************

Doing analysis at TEMP = -40.000000 and TNOM = -40.000000


No. of Data Rows : 133
                          ***************************
                          DC transfer characteristic  Mon Jan  9 13:58:52  2023
--------------------------------------------------------------------------------
Index   v-sweep         rds             
--------------------------------------------------------------------------------
0	0.000000e+00	2.413853e-06	
1	-5.00000e-02	9.361690e-07	
2	-1.00000e-01	1.780675e-07	
3	-1.50000e-01	4.456523e-08	
4	-2.00000e-01	2.224152e-08	
5	-2.50000e-01	1.577305e-08	
6	-3.00000e-01	1.290175e-08	
7	-3.50000e-01	1.123329e-08	
8	-4.00000e-01	1.009511e-08	
9	-4.50000e-01	9.241440e-09	
10	-5.00000e-01	8.562986e-09	
11	-5.50000e-01	8.003318e-09	
12	-6.00000e-01	7.529756e-09	
13	-6.50000e-01	7.121648e-09	
14	-7.00000e-01	6.765043e-09	
15	-7.50000e-01	6.450027e-09	
16	-8.00000e-01	6.169271e-09	
17	-8.50000e-01	5.917188e-09	
18	-9.00000e-01	5.689416e-09	
19	-9.50000e-01	5.482480e-09	
20	-1.00000e+00	5.293565e-09	
21	-1.05000e+00	5.120361e-09	
22	-1.10000e+00	4.960948e-09	
23	-1.15000e+00	4.813717e-09	
24	-1.20000e+00	4.677304e-09	
25	-1.25000e+00	4.550548e-09	
26	-1.30000e+00	4.432449e-09	
27	-1.35000e+00	4.322144e-09	
28	-1.40000e+00	4.218881e-09	
29	-1.45000e+00	4.122006e-09	
30	-1.50000e+00	4.030942e-09	
31	-1.55000e+00	3.945180e-09	
32	-1.60000e+00	3.864270e-09	
33	-1.65000e+00	3.787813e-09	
34	-1.70000e+00	3.715450e-09	
35	-1.75000e+00	3.646862e-09	
36	-1.80000e+00	3.581763e-09	
37	-1.85000e+00	3.519893e-09	
38	-1.90000e+00	3.461020e-09	
39	-1.95000e+00	3.404931e-09	
40	-2.00000e+00	3.351435e-09	
41	-2.05000e+00	3.300356e-09	
42	-2.10000e+00	3.251537e-09	
43	-2.15000e+00	3.204831e-09	
44	-2.20000e+00	3.160105e-09	
45	-2.25000e+00	3.117237e-09	
46	-2.30000e+00	3.076114e-09	
47	-2.35000e+00	3.036633e-09	
48	-2.40000e+00	2.998698e-09	
49	-2.45000e+00	2.962221e-09	
50	-2.50000e+00	2.927121e-09	
51	-2.55000e+00	2.893323e-09	
52	-2.60000e+00	2.860754e-09	
53	-2.65000e+00	2.829352e-09	
54	-2.70000e+00	2.799054e-09	

Index   v-sweep         rds             
--------------------------------------------------------------------------------
55	-2.75000e+00	2.769805e-09	
56	-2.80000e+00	2.741551e-09	
57	-2.85000e+00	2.714244e-09	
58	-2.90000e+00	2.687838e-09	
59	-2.95000e+00	2.662288e-09	
60	-3.00000e+00	2.637556e-09	
61	-3.05000e+00	2.613603e-09	
62	-3.10000e+00	2.590393e-09	
63	-3.15000e+00	2.567894e-09	
64	-3.20000e+00	2.546073e-09	
65	-3.25000e+00	2.524902e-09	
66	-3.30000e+00	2.504352e-09	
67	-3.35000e+00	2.484398e-09	
68	-3.40000e+00	2.465013e-09	
69	-3.45000e+00	2.446176e-09	
70	-3.50000e+00	2.427864e-09	
71	-3.55000e+00	2.410056e-09	
72	-3.60000e+00	2.392733e-09	
73	-3.65000e+00	2.375875e-09	
74	-3.70000e+00	2.359465e-09	
75	-3.75000e+00	2.343486e-09	
76	-3.80000e+00	2.327923e-09	
77	-3.85000e+00	2.312759e-09	
78	-3.90000e+00	2.297981e-09	
79	-3.95000e+00	2.283576e-09	
80	-4.00000e+00	2.269530e-09	
81	-4.05000e+00	2.255830e-09	
82	-4.10000e+00	2.242466e-09	
83	-4.15000e+00	2.229426e-09	
84	-4.20000e+00	2.216699e-09	
85	-4.25000e+00	2.204275e-09	
86	-4.30000e+00	2.192145e-09	
87	-4.35000e+00	2.180300e-09	
88	-4.40000e+00	2.168730e-09	
89	-4.45000e+00	2.157428e-09	
90	-4.50000e+00	2.146384e-09	
91	-4.55000e+00	2.135593e-09	
92	-4.60000e+00	2.125046e-09	
93	-4.65000e+00	2.114736e-09	
94	-4.70000e+00	2.104657e-09	
95	-4.75000e+00	2.094803e-09	
96	-4.80000e+00	2.085167e-09	
97	-4.85000e+00	2.075743e-09	
98	-4.90000e+00	2.066526e-09	
99	-4.95000e+00	2.057510e-09	
100	-5.00000e+00	2.048691e-09	
101	-5.05000e+00	2.040063e-09	
102	-5.10000e+00	2.031622e-09	
103	-5.15000e+00	2.023363e-09	
104	-5.20000e+00	2.015281e-09	
105	-5.25000e+00	2.007373e-09	
106	-5.30000e+00	1.999635e-09	
107	-5.35000e+00	1.992062e-09	
108	-5.40000e+00	1.984651e-09	
109	-5.45000e+00	1.977399e-09	
110	-5.50000e+00	1.970301e-09	
111	-5.55000e+00	1.963355e-09	
112	-5.60000e+00	1.956557e-09	

Index   v-sweep         rds             
--------------------------------------------------------------------------------
113	-5.65000e+00	1.949904e-09	
114	-5.70000e+00	1.943394e-09	
115	-5.75000e+00	1.937023e-09	
116	-5.80000e+00	1.930788e-09	
117	-5.85000e+00	1.924687e-09	
118	-5.90000e+00	1.918718e-09	
119	-5.95000e+00	1.912877e-09	
120	-6.00000e+00	1.907163e-09	
121	-6.05000e+00	1.901572e-09	
122	-6.10000e+00	1.896104e-09	
123	-6.15000e+00	1.890754e-09	
124	-6.20000e+00	1.885523e-09	
125	-6.25000e+00	1.880406e-09	
126	-6.30000e+00	1.875403e-09	
127	-6.35000e+00	1.870511e-09	
128	-6.40000e+00	1.865728e-09	
129	-6.45000e+00	1.861053e-09	
130	-6.50000e+00	1.856484e-09	
131	-6.55000e+00	1.852019e-09	
132	-6.60000e+00	1.847656e-09	
Reset re-loads circuit ***************************

Circuit: ***************************

Doing analysis at TEMP = -40.000000 and TNOM = -40.000000


No. of Data Rows : 133
                          ***************************
                          DC transfer characteristic  Mon Jan  9 13:58:53  2023
--------------------------------------------------------------------------------
Index   v-sweep         rds             
--------------------------------------------------------------------------------
0	0.000000e+00	3.515370e-05	
1	-5.00000e-02	3.278299e-05	
2	-1.00000e-01	3.043570e-05	
3	-1.50000e-01	2.811172e-05	
4	-2.00000e-01	2.581101e-05	
5	-2.50000e-01	2.353367e-05	
6	-3.00000e-01	2.128001e-05	
7	-3.50000e-01	1.905074e-05	
8	-4.00000e-01	1.684729e-05	
9	-4.50000e-01	1.467249e-05	
10	-5.00000e-01	1.253205e-05	
11	-5.50000e-01	1.043772e-05	
12	-6.00000e-01	8.414279e-06	
13	-6.50000e-01	6.512833e-06	
14	-7.00000e-01	4.826860e-06	
15	-7.50000e-01	3.478938e-06	
16	-8.00000e-01	2.536761e-06	
17	-8.50000e-01	1.943037e-06	
18	-9.00000e-01	1.576830e-06	
19	-9.50000e-01	1.340147e-06	
20	-1.00000e+00	1.176103e-06	
21	-1.05000e+00	1.054891e-06	
22	-1.10000e+00	9.607551e-07	
23	-1.15000e+00	8.848991e-07	
24	-1.20000e+00	8.220808e-07	
25	-1.25000e+00	7.689739e-07	
26	-1.30000e+00	7.233505e-07	
27	-1.35000e+00	6.836497e-07	
28	-1.40000e+00	6.487375e-07	
29	-1.45000e+00	6.177643e-07	
30	-1.50000e+00	5.900785e-07	
31	-1.55000e+00	5.651693e-07	
32	-1.60000e+00	5.426300e-07	
33	-1.65000e+00	5.221314e-07	
34	-1.70000e+00	5.034041e-07	
35	-1.75000e+00	4.862252e-07	
36	-1.80000e+00	4.704080e-07	
37	-1.85000e+00	4.557954e-07	
38	-1.90000e+00	4.422538e-07	
39	-1.95000e+00	4.296687e-07	
40	-2.00000e+00	4.179418e-07	
41	-2.05000e+00	4.069878e-07	
42	-2.10000e+00	3.967324e-07	
43	-2.15000e+00	3.871107e-07	
44	-2.20000e+00	3.780655e-07	
45	-2.25000e+00	3.695466e-07	
46	-2.30000e+00	3.615091e-07	
47	-2.35000e+00	3.539133e-07	
48	-2.40000e+00	3.467239e-07	
49	-2.45000e+00	3.399091e-07	
50	-2.50000e+00	3.334403e-07	
51	-2.55000e+00	3.272919e-07	
52	-2.60000e+00	3.214406e-07	
53	-2.65000e+00	3.158655e-07	
54	-2.70000e+00	3.105475e-07	

Index   v-sweep         rds             
--------------------------------------------------------------------------------
55	-2.75000e+00	3.054692e-07	
56	-2.80000e+00	3.006149e-07	
57	-2.85000e+00	2.959701e-07	
58	-2.90000e+00	2.915214e-07	
59	-2.95000e+00	2.872569e-07	
60	-3.00000e+00	2.831653e-07	
61	-3.05000e+00	2.792363e-07	
62	-3.10000e+00	2.754606e-07	
63	-3.15000e+00	2.718292e-07	
64	-3.20000e+00	2.683342e-07	
65	-3.25000e+00	2.649681e-07	
66	-3.30000e+00	2.617238e-07	
67	-3.35000e+00	2.585948e-07	
68	-3.40000e+00	2.555753e-07	
69	-3.45000e+00	2.526596e-07	
70	-3.50000e+00	2.498424e-07	
71	-3.55000e+00	2.471188e-07	
72	-3.60000e+00	2.444844e-07	
73	-3.65000e+00	2.419348e-07	
74	-3.70000e+00	2.394661e-07	
75	-3.75000e+00	2.370744e-07	
76	-3.80000e+00	2.347563e-07	
77	-3.85000e+00	2.325085e-07	
78	-3.90000e+00	2.303278e-07	
79	-3.95000e+00	2.282114e-07	
80	-4.00000e+00	2.261564e-07	
81	-4.05000e+00	2.241604e-07	
82	-4.10000e+00	2.222208e-07	
83	-4.15000e+00	2.203353e-07	
84	-4.20000e+00	2.185017e-07	
85	-4.25000e+00	2.167180e-07	
86	-4.30000e+00	2.149823e-07	
87	-4.35000e+00	2.132926e-07	
88	-4.40000e+00	2.116473e-07	
89	-4.45000e+00	2.100447e-07	
90	-4.50000e+00	2.084831e-07	
91	-4.55000e+00	2.069612e-07	
92	-4.60000e+00	2.054775e-07	
93	-4.65000e+00	2.040307e-07	
94	-4.70000e+00	2.026194e-07	
95	-4.75000e+00	2.012426e-07	
96	-4.80000e+00	1.998989e-07	
97	-4.85000e+00	1.985874e-07	
98	-4.90000e+00	1.973070e-07	
99	-4.95000e+00	1.960567e-07	
100	-5.00000e+00	1.948355e-07	
101	-5.05000e+00	1.936426e-07	
102	-5.10000e+00	1.924770e-07	
103	-5.15000e+00	1.913380e-07	
104	-5.20000e+00	1.902249e-07	
105	-5.25000e+00	1.891367e-07	
106	-5.30000e+00	1.880729e-07	
107	-5.35000e+00	1.870327e-07	
108	-5.40000e+00	1.860155e-07	
109	-5.45000e+00	1.850207e-07	
110	-5.50000e+00	1.840476e-07	
111	-5.55000e+00	1.830958e-07	
112	-5.60000e+00	1.821646e-07	

Index   v-sweep         rds             
--------------------------------------------------------------------------------
113	-5.65000e+00	1.812535e-07	
114	-5.70000e+00	1.803621e-07	
115	-5.75000e+00	1.794898e-07	
116	-5.80000e+00	1.786362e-07	
117	-5.85000e+00	1.778009e-07	
118	-5.90000e+00	1.769833e-07	
119	-5.95000e+00	1.761832e-07	
120	-6.00000e+00	1.754002e-07	
121	-6.05000e+00	1.746337e-07	
122	-6.10000e+00	1.738836e-07	
123	-6.15000e+00	1.731494e-07	
124	-6.20000e+00	1.724308e-07	
125	-6.25000e+00	1.717274e-07	
126	-6.30000e+00	1.710391e-07	
127	-6.35000e+00	1.703654e-07	
128	-6.40000e+00	1.697060e-07	
129	-6.45000e+00	1.690608e-07	
130	-6.50000e+00	1.684294e-07	
131	-6.55000e+00	1.678116e-07	
132	-6.60000e+00	1.672070e-07	
Reset re-loads circuit ***************************

Circuit: ***************************

Doing analysis at TEMP = -40.000000 and TNOM = -40.000000


No. of Data Rows : 133
                          ***************************
                          DC transfer characteristic  Mon Jan  9 13:58:53  2023
--------------------------------------------------------------------------------
Index   v-sweep         rds             
--------------------------------------------------------------------------------
0	0.000000e+00	6.132735e-05	
1	-5.00000e-02	5.906936e-05	
2	-1.00000e-01	5.683026e-05	
3	-1.50000e-01	5.460988e-05	
4	-2.00000e-01	5.240805e-05	
5	-2.50000e-01	5.022460e-05	
6	-3.00000e-01	4.805937e-05	
7	-3.50000e-01	4.591222e-05	
8	-4.00000e-01	4.378299e-05	
9	-4.50000e-01	4.167155e-05	
10	-5.00000e-01	3.957777e-05	
11	-5.50000e-01	3.750155e-05	
12	-6.00000e-01	3.544280e-05	
13	-6.50000e-01	3.340147e-05	
14	-7.00000e-01	3.137754e-05	
15	-7.50000e-01	2.937106e-05	
16	-8.00000e-01	2.738219e-05	
17	-8.50000e-01	2.541122e-05	
18	-9.00000e-01	2.345868e-05	
19	-9.50000e-01	2.152547e-05	
20	-1.00000e+00	1.961312e-05	
21	-1.05000e+00	1.772422e-05	
22	-1.10000e+00	1.586325e-05	
23	-1.15000e+00	1.403798e-05	
24	-1.20000e+00	1.226194e-05	
25	-1.25000e+00	1.055819e-05	
26	-1.30000e+00	8.963256e-06	
27	-1.35000e+00	7.526780e-06	
28	-1.40000e+00	6.298696e-06	
29	-1.45000e+00	5.305028e-06	
30	-1.50000e+00	4.533252e-06	
31	-1.55000e+00	3.943326e-06	
32	-1.60000e+00	3.489634e-06	
33	-1.65000e+00	3.134273e-06	
34	-1.70000e+00	2.849762e-06	
35	-1.75000e+00	2.617137e-06	
36	-1.80000e+00	2.423379e-06	
37	-1.85000e+00	2.259421e-06	
38	-1.90000e+00	2.118803e-06	
39	-1.95000e+00	1.996817e-06	
40	-2.00000e+00	1.889948e-06	
41	-2.05000e+00	1.795525e-06	
42	-2.10000e+00	1.711474e-06	
43	-2.15000e+00	1.636163e-06	
44	-2.20000e+00	1.568288e-06	
45	-2.25000e+00	1.506794e-06	
46	-2.30000e+00	1.450818e-06	
47	-2.35000e+00	1.399648e-06	
48	-2.40000e+00	1.352687e-06	
49	-2.45000e+00	1.309436e-06	
50	-2.50000e+00	1.269472e-06	
51	-2.55000e+00	1.232434e-06	
52	-2.60000e+00	1.198010e-06	
53	-2.65000e+00	1.165935e-06	
54	-2.70000e+00	1.135975e-06	

Index   v-sweep         rds             
--------------------------------------------------------------------------------
55	-2.75000e+00	1.107928e-06	
56	-2.80000e+00	1.081616e-06	
57	-2.85000e+00	1.056885e-06	
58	-2.90000e+00	1.033595e-06	
59	-2.95000e+00	1.011624e-06	
60	-3.00000e+00	9.908641e-07	
61	-3.05000e+00	9.712175e-07	
62	-3.10000e+00	9.525972e-07	
63	-3.15000e+00	9.349251e-07	
64	-3.20000e+00	9.181308e-07	
65	-3.25000e+00	9.021506e-07	
66	-3.30000e+00	8.869268e-07	
67	-3.35000e+00	8.724072e-07	
68	-3.40000e+00	8.585442e-07	
69	-3.45000e+00	8.452943e-07	
70	-3.50000e+00	8.326180e-07	
71	-3.55000e+00	8.204788e-07	
72	-3.60000e+00	8.088435e-07	
73	-3.65000e+00	7.976815e-07	
74	-3.70000e+00	7.869645e-07	
75	-3.75000e+00	7.766667e-07	
76	-3.80000e+00	7.667639e-07	
77	-3.85000e+00	7.572340e-07	
78	-3.90000e+00	7.480564e-07	
79	-3.95000e+00	7.392121e-07	
80	-4.00000e+00	7.306833e-07	
81	-4.05000e+00	7.224534e-07	
82	-4.10000e+00	7.145073e-07	
83	-4.15000e+00	7.068304e-07	
84	-4.20000e+00	6.994096e-07	
85	-4.25000e+00	6.922321e-07	
86	-4.30000e+00	6.852865e-07	
87	-4.35000e+00	6.785617e-07	
88	-4.40000e+00	6.720475e-07	
89	-4.45000e+00	6.657342e-07	
90	-4.50000e+00	6.596128e-07	
91	-4.55000e+00	6.536748e-07	
92	-4.60000e+00	6.479122e-07	
93	-4.65000e+00	6.423174e-07	
94	-4.70000e+00	6.368835e-07	
95	-4.75000e+00	6.316036e-07	
96	-4.80000e+00	6.264715e-07	
97	-4.85000e+00	6.214813e-07	
98	-4.90000e+00	6.166272e-07	
99	-4.95000e+00	6.119039e-07	
100	-5.00000e+00	6.073065e-07	
101	-5.05000e+00	6.028302e-07	
102	-5.10000e+00	5.984704e-07	
103	-5.15000e+00	5.942228e-07	
104	-5.20000e+00	5.900835e-07	
105	-5.25000e+00	5.860486e-07	
106	-5.30000e+00	5.821143e-07	
107	-5.35000e+00	5.782773e-07	
108	-5.40000e+00	5.745342e-07	
109	-5.45000e+00	5.708820e-07	
110	-5.50000e+00	5.673176e-07	
111	-5.55000e+00	5.638382e-07	
112	-5.60000e+00	5.604412e-07	

Index   v-sweep         rds             
--------------------------------------------------------------------------------
113	-5.65000e+00	5.571239e-07	
114	-5.70000e+00	5.538839e-07	
115	-5.75000e+00	5.507189e-07	
116	-5.80000e+00	5.476266e-07	
117	-5.85000e+00	5.446050e-07	
118	-5.90000e+00	5.416521e-07	
119	-5.95000e+00	5.387659e-07	
120	-6.00000e+00	5.359445e-07	
121	-6.05000e+00	5.331862e-07	
122	-6.10000e+00	5.304894e-07	
123	-6.15000e+00	5.278524e-07	
124	-6.20000e+00	5.252737e-07	
125	-6.25000e+00	5.227518e-07	
126	-6.30000e+00	5.202853e-07	
127	-6.35000e+00	5.178729e-07	
128	-6.40000e+00	5.155133e-07	
129	-6.45000e+00	5.132052e-07	
130	-6.50000e+00	5.109475e-07	
131	-6.55000e+00	5.087390e-07	
132	-6.60000e+00	5.065787e-07	
Reset re-loads circuit ***************************

Circuit: ***************************

Doing analysis at TEMP = -40.000000 and TNOM = -40.000000


No. of Data Rows : 133
                          ***************************
                          DC transfer characteristic  Mon Jan  9 13:58:53  2023
--------------------------------------------------------------------------------
Index   v-sweep         rds             
--------------------------------------------------------------------------------
0	0.000000e+00	8.145239e-05	
1	-5.00000e-02	7.933784e-05	
2	-1.00000e-01	7.723883e-05	
3	-1.50000e-01	7.515524e-05	
4	-2.00000e-01	7.308694e-05	
5	-2.50000e-01	7.103380e-05	
6	-3.00000e-01	6.899569e-05	
7	-3.50000e-01	6.697249e-05	
8	-4.00000e-01	6.496408e-05	
9	-4.50000e-01	6.297034e-05	
10	-5.00000e-01	6.099115e-05	
11	-5.50000e-01	5.902640e-05	
12	-6.00000e-01	5.707596e-05	
13	-6.50000e-01	5.513973e-05	
14	-7.00000e-01	5.321761e-05	
15	-7.50000e-01	5.130947e-05	
16	-8.00000e-01	4.941522e-05	
17	-8.50000e-01	4.753477e-05	
18	-9.00000e-01	4.566802e-05	
19	-9.50000e-01	4.381487e-05	
20	-1.00000e+00	4.197527e-05	
21	-1.05000e+00	4.014913e-05	
22	-1.10000e+00	3.833640e-05	
23	-1.15000e+00	3.653704e-05	
24	-1.20000e+00	3.475104e-05	
25	-1.25000e+00	3.297842e-05	
26	-1.30000e+00	3.121924e-05	
27	-1.35000e+00	2.947362e-05	
28	-1.40000e+00	2.774179e-05	
29	-1.45000e+00	2.602410e-05	
30	-1.50000e+00	2.432113e-05	
31	-1.55000e+00	2.263377e-05	
32	-1.60000e+00	2.096344e-05	
33	-1.65000e+00	1.931238e-05	
34	-1.70000e+00	1.768420e-05	
35	-1.75000e+00	1.608471e-05	
36	-1.80000e+00	1.452324e-05	
37	-1.85000e+00	1.301429e-05	
38	-1.90000e+00	1.157902e-05	
39	-1.95000e+00	1.024474e-05	
40	-2.00000e+00	9.040144e-06	
41	-2.05000e+00	7.986464e-06	
42	-2.10000e+00	7.089766e-06	
43	-2.15000e+00	6.340388e-06	
44	-2.20000e+00	5.718854e-06	
45	-2.25000e+00	5.202896e-06	
46	-2.30000e+00	4.771923e-06	
47	-2.35000e+00	4.408750e-06	
48	-2.40000e+00	4.099725e-06	
49	-2.45000e+00	3.834222e-06	
50	-2.50000e+00	3.604016e-06	
51	-2.55000e+00	3.402719e-06	
52	-2.60000e+00	3.225336e-06	
53	-2.65000e+00	3.067926e-06	
54	-2.70000e+00	2.927348e-06	

Index   v-sweep         rds             
--------------------------------------------------------------------------------
55	-2.75000e+00	2.801074e-06	
56	-2.80000e+00	2.687052e-06	
57	-2.85000e+00	2.583598e-06	
58	-2.90000e+00	2.489321e-06	
59	-2.95000e+00	2.403061e-06	
60	-3.00000e+00	2.323844e-06	
61	-3.05000e+00	2.250847e-06	
62	-3.10000e+00	2.183371e-06	
63	-3.15000e+00	2.120814e-06	
64	-3.20000e+00	2.062661e-06	
65	-3.25000e+00	2.008465e-06	
66	-3.30000e+00	1.957838e-06	
67	-3.35000e+00	1.910439e-06	
68	-3.40000e+00	1.865972e-06	
69	-3.45000e+00	1.824173e-06	
70	-3.50000e+00	1.784810e-06	
71	-3.55000e+00	1.747679e-06	
72	-3.60000e+00	1.712594e-06	
73	-3.65000e+00	1.679392e-06	
74	-3.70000e+00	1.647926e-06	
75	-3.75000e+00	1.618064e-06	
76	-3.80000e+00	1.589687e-06	
77	-3.85000e+00	1.562687e-06	
78	-3.90000e+00	1.536967e-06	
79	-3.95000e+00	1.512439e-06	
80	-4.00000e+00	1.489021e-06	
81	-4.05000e+00	1.466641e-06	
82	-4.10000e+00	1.445232e-06	
83	-4.15000e+00	1.424731e-06	
84	-4.20000e+00	1.405083e-06	
85	-4.25000e+00	1.386235e-06	
86	-4.30000e+00	1.368140e-06	
87	-4.35000e+00	1.350754e-06	
88	-4.40000e+00	1.334037e-06	
89	-4.45000e+00	1.317950e-06	
90	-4.50000e+00	1.302459e-06	
91	-4.55000e+00	1.287531e-06	
92	-4.60000e+00	1.273137e-06	
93	-4.65000e+00	1.259249e-06	
94	-4.70000e+00	1.245840e-06	
95	-4.75000e+00	1.232887e-06	
96	-4.80000e+00	1.220366e-06	
97	-4.85000e+00	1.208257e-06	
98	-4.90000e+00	1.196540e-06	
99	-4.95000e+00	1.185196e-06	
100	-5.00000e+00	1.174208e-06	
101	-5.05000e+00	1.163560e-06	
102	-5.10000e+00	1.153236e-06	
103	-5.15000e+00	1.143222e-06	
104	-5.20000e+00	1.133504e-06	
105	-5.25000e+00	1.124070e-06	
106	-5.30000e+00	1.114908e-06	
107	-5.35000e+00	1.106006e-06	
108	-5.40000e+00	1.097354e-06	
109	-5.45000e+00	1.088941e-06	
110	-5.50000e+00	1.080759e-06	
111	-5.55000e+00	1.072797e-06	
112	-5.60000e+00	1.065049e-06	

Index   v-sweep         rds             
--------------------------------------------------------------------------------
113	-5.65000e+00	1.057505e-06	
114	-5.70000e+00	1.050158e-06	
115	-5.75000e+00	1.043001e-06	
116	-5.80000e+00	1.036027e-06	
117	-5.85000e+00	1.029229e-06	
118	-5.90000e+00	1.022601e-06	
119	-5.95000e+00	1.016138e-06	
120	-6.00000e+00	1.009834e-06	
121	-6.05000e+00	1.003683e-06	
122	-6.10000e+00	9.976816e-07	
123	-6.15000e+00	9.918236e-07	
124	-6.20000e+00	9.861049e-07	
125	-6.25000e+00	9.805213e-07	
126	-6.30000e+00	9.750686e-07	
127	-6.35000e+00	9.697430e-07	
128	-6.40000e+00	9.645406e-07	
129	-6.45000e+00	9.594581e-07	
130	-6.50000e+00	9.544919e-07	
131	-6.55000e+00	9.496389e-07	
132	-6.60000e+00	9.448959e-07	
Reset re-loads circuit ***************************

Circuit: ***************************

Doing analysis at TEMP = -40.000000 and TNOM = -40.000000


No. of Data Rows : 133
                          ***************************
                          DC transfer characteristic  Mon Jan  9 13:58:53  2023
--------------------------------------------------------------------------------
Index   v-sweep         rds             
--------------------------------------------------------------------------------
0	0.000000e+00	9.798396e-05	
1	-5.00000e-02	9.600615e-05	
2	-1.00000e-01	9.404133e-05	
3	-1.50000e-01	9.208941e-05	
4	-2.00000e-01	9.015030e-05	
5	-2.50000e-01	8.822389e-05	
6	-3.00000e-01	8.631009e-05	
7	-3.50000e-01	8.440881e-05	
8	-4.00000e-01	8.251996e-05	
9	-4.50000e-01	8.064343e-05	
10	-5.00000e-01	7.877915e-05	
11	-5.50000e-01	7.692702e-05	
12	-6.00000e-01	7.508694e-05	
13	-6.50000e-01	7.325884e-05	
14	-7.00000e-01	7.144262e-05	
15	-7.50000e-01	6.963820e-05	
16	-8.00000e-01	6.784548e-05	
17	-8.50000e-01	6.606439e-05	
18	-9.00000e-01	6.429484e-05	
19	-9.50000e-01	6.253675e-05	
20	-1.00000e+00	6.079004e-05	
21	-1.05000e+00	5.905463e-05	
22	-1.10000e+00	5.733043e-05	
23	-1.15000e+00	5.561738e-05	
24	-1.20000e+00	5.391540e-05	
25	-1.25000e+00	5.222441e-05	
26	-1.30000e+00	5.054434e-05	
27	-1.35000e+00	4.887513e-05	
28	-1.40000e+00	4.721671e-05	
29	-1.45000e+00	4.556903e-05	
30	-1.50000e+00	4.393202e-05	
31	-1.55000e+00	4.230564e-05	
32	-1.60000e+00	4.068983e-05	
33	-1.65000e+00	3.908458e-05	
34	-1.70000e+00	3.748984e-05	
35	-1.75000e+00	3.590562e-05	
36	-1.80000e+00	3.433192e-05	
37	-1.85000e+00	3.276878e-05	
38	-1.90000e+00	3.121626e-05	
39	-1.95000e+00	2.967447e-05	
40	-2.00000e+00	2.814361e-05	
41	-2.05000e+00	2.662393e-05	
42	-2.10000e+00	2.511587e-05	
43	-2.15000e+00	2.362006e-05	
44	-2.20000e+00	2.213745e-05	
45	-2.25000e+00	2.066954e-05	
46	-2.30000e+00	1.921866e-05	
47	-2.35000e+00	1.778852e-05	
48	-2.40000e+00	1.638496e-05	
49	-2.45000e+00	1.501704e-05	
50	-2.50000e+00	1.369800e-05	
51	-2.55000e+00	1.244544e-05	
52	-2.60000e+00	1.127934e-05	
53	-2.65000e+00	1.021772e-05	
54	-2.70000e+00	9.271753e-06	

Index   v-sweep         rds             
--------------------------------------------------------------------------------
55	-2.75000e+00	8.443280e-06	
56	-2.80000e+00	7.725843e-06	
57	-2.85000e+00	7.107874e-06	
58	-2.90000e+00	6.575905e-06	
59	-2.95000e+00	6.116757e-06	
60	-3.00000e+00	5.718634e-06	
61	-3.05000e+00	5.371477e-06	
62	-3.10000e+00	5.066928e-06	
63	-3.15000e+00	4.798129e-06	
64	-3.20000e+00	4.559478e-06	
65	-3.25000e+00	4.346401e-06	
66	-3.30000e+00	4.155151e-06	
67	-3.35000e+00	3.982641e-06	
68	-3.40000e+00	3.826322e-06	
69	-3.45000e+00	3.684070e-06	
70	-3.50000e+00	3.554107e-06	
71	-3.55000e+00	3.434934e-06	
72	-3.60000e+00	3.325284e-06	
73	-3.65000e+00	3.224076e-06	
74	-3.70000e+00	3.130384e-06	
75	-3.75000e+00	3.043411e-06	
76	-3.80000e+00	2.962467e-06	
77	-3.85000e+00	2.886953e-06	
78	-3.90000e+00	2.816345e-06	
79	-3.95000e+00	2.750186e-06	
80	-4.00000e+00	2.688070e-06	
81	-4.05000e+00	2.629642e-06	
82	-4.10000e+00	2.574585e-06	
83	-4.15000e+00	2.522617e-06	
84	-4.20000e+00	2.473489e-06	
85	-4.25000e+00	2.426974e-06	
86	-4.30000e+00	2.382871e-06	
87	-4.35000e+00	2.340998e-06	
88	-4.40000e+00	2.301193e-06	
89	-4.45000e+00	2.263305e-06	
90	-4.50000e+00	2.227201e-06	
91	-4.55000e+00	2.192759e-06	
92	-4.60000e+00	2.159867e-06	
93	-4.65000e+00	2.128423e-06	
94	-4.70000e+00	2.098334e-06	
95	-4.75000e+00	2.069516e-06	
96	-4.80000e+00	2.041889e-06	
97	-4.85000e+00	2.015383e-06	
98	-4.90000e+00	1.989930e-06	
99	-4.95000e+00	1.965469e-06	
100	-5.00000e+00	1.941944e-06	
101	-5.05000e+00	1.919302e-06	
102	-5.10000e+00	1.897496e-06	
103	-5.15000e+00	1.876479e-06	
104	-5.20000e+00	1.856210e-06	
105	-5.25000e+00	1.836650e-06	
106	-5.30000e+00	1.817764e-06	
107	-5.35000e+00	1.799516e-06	
108	-5.40000e+00	1.781875e-06	
109	-5.45000e+00	1.764813e-06	
110	-5.50000e+00	1.748300e-06	
111	-5.55000e+00	1.732312e-06	
112	-5.60000e+00	1.716824e-06	

Index   v-sweep         rds             
--------------------------------------------------------------------------------
113	-5.65000e+00	1.701813e-06	
114	-5.70000e+00	1.687257e-06	
115	-5.75000e+00	1.673138e-06	
116	-5.80000e+00	1.659435e-06	
117	-5.85000e+00	1.646132e-06	
118	-5.90000e+00	1.633210e-06	
119	-5.95000e+00	1.620655e-06	
120	-6.00000e+00	1.608451e-06	
121	-6.05000e+00	1.596585e-06	
122	-6.10000e+00	1.585042e-06	
123	-6.15000e+00	1.573811e-06	
124	-6.20000e+00	1.562880e-06	
125	-6.25000e+00	1.552236e-06	
126	-6.30000e+00	1.541871e-06	
127	-6.35000e+00	1.531773e-06	
128	-6.40000e+00	1.521932e-06	
129	-6.45000e+00	1.512341e-06	
130	-6.50000e+00	1.502990e-06	
131	-6.55000e+00	1.493871e-06	
132	-6.60000e+00	1.484976e-06	
Reset re-loads circuit ***************************

Circuit: ***************************

Doing analysis at TEMP = -40.000000 and TNOM = -40.000000


No. of Data Rows : 133
                          ***************************
                          DC transfer characteristic  Mon Jan  9 13:58:53  2023
--------------------------------------------------------------------------------
Index   v-sweep         rds             
--------------------------------------------------------------------------------
0	0.000000e+00	1.114768e-04	
1	-5.00000e-02	1.096270e-04	
2	-1.00000e-01	1.077883e-04	
3	-1.50000e-01	1.059605e-04	
4	-2.00000e-01	1.041435e-04	
5	-2.50000e-01	1.023373e-04	
6	-3.00000e-01	1.005418e-04	
7	-3.50000e-01	9.875690e-05	
8	-4.00000e-01	9.698257e-05	
9	-4.50000e-01	9.521873e-05	
10	-5.00000e-01	9.346529e-05	
11	-5.50000e-01	9.172220e-05	
12	-6.00000e-01	8.998937e-05	
13	-6.50000e-01	8.826675e-05	
14	-7.00000e-01	8.655425e-05	
15	-7.50000e-01	8.485183e-05	
16	-8.00000e-01	8.315939e-05	
17	-8.50000e-01	8.147689e-05	
18	-9.00000e-01	7.980425e-05	
19	-9.50000e-01	7.814141e-05	
20	-1.00000e+00	7.648830e-05	
21	-1.05000e+00	7.484485e-05	
22	-1.10000e+00	7.321101e-05	
23	-1.15000e+00	7.158671e-05	
24	-1.20000e+00	6.997188e-05	
25	-1.25000e+00	6.836647e-05	
26	-1.30000e+00	6.677042e-05	
27	-1.35000e+00	6.518366e-05	
28	-1.40000e+00	6.360613e-05	
29	-1.45000e+00	6.203777e-05	
30	-1.50000e+00	6.047853e-05	
31	-1.55000e+00	5.892836e-05	
32	-1.60000e+00	5.738718e-05	
33	-1.65000e+00	5.585496e-05	
34	-1.70000e+00	5.433163e-05	
35	-1.75000e+00	5.281714e-05	
36	-1.80000e+00	5.131145e-05	
37	-1.85000e+00	4.981450e-05	
38	-1.90000e+00	4.832625e-05	
39	-1.95000e+00	4.684665e-05	
40	-2.00000e+00	4.537565e-05	
41	-2.05000e+00	4.391323e-05	
42	-2.10000e+00	4.245933e-05	
43	-2.15000e+00	4.101394e-05	
44	-2.20000e+00	3.957701e-05	
45	-2.25000e+00	3.814852e-05	
46	-2.30000e+00	3.672846e-05	
47	-2.35000e+00	3.531682e-05	
48	-2.40000e+00	3.391359e-05	
49	-2.45000e+00	3.251877e-05	
50	-2.50000e+00	3.113240e-05	
51	-2.55000e+00	2.975449e-05	
52	-2.60000e+00	2.838513e-05	
53	-2.65000e+00	2.702438e-05	
54	-2.70000e+00	2.567238e-05	

Index   v-sweep         rds             
--------------------------------------------------------------------------------
55	-2.75000e+00	2.432936e-05	
56	-2.80000e+00	2.299564e-05	
57	-2.85000e+00	2.167184e-05	
58	-2.90000e+00	2.035901e-05	
59	-2.95000e+00	1.905911e-05	
60	-3.00000e+00	1.777568e-05	
61	-3.05000e+00	1.651482e-05	
62	-3.10000e+00	1.528628e-05	
63	-3.15000e+00	1.410379e-05	
64	-3.20000e+00	1.298389e-05	
65	-3.25000e+00	1.194282e-05	
66	-3.30000e+00	1.099272e-05	
67	-3.35000e+00	1.013924e-05	
68	-3.40000e+00	9.381364e-06	
69	-3.45000e+00	8.713132e-06	
70	-3.50000e+00	8.125774e-06	
71	-3.55000e+00	7.609563e-06	
72	-3.60000e+00	7.154990e-06	
73	-3.65000e+00	6.753383e-06	
74	-3.70000e+00	6.397138e-06	
75	-3.75000e+00	6.079740e-06	
76	-3.80000e+00	5.795672e-06	
77	-3.85000e+00	5.540296e-06	
78	-3.90000e+00	5.309715e-06	
79	-3.95000e+00	5.100656e-06	
80	-4.00000e+00	4.910363e-06	
81	-4.05000e+00	4.736506e-06	
82	-4.10000e+00	4.577111e-06	
83	-4.15000e+00	4.430493e-06	
84	-4.20000e+00	4.295214e-06	
85	-4.25000e+00	4.170035e-06	
86	-4.30000e+00	4.053888e-06	
87	-4.35000e+00	3.945849e-06	
88	-4.40000e+00	3.845109e-06	
89	-4.45000e+00	3.750966e-06	
90	-4.50000e+00	3.662800e-06	
91	-4.55000e+00	3.580069e-06	
92	-4.60000e+00	3.502289e-06	
93	-4.65000e+00	3.429036e-06	
94	-4.70000e+00	3.359928e-06	
95	-4.75000e+00	3.294629e-06	
96	-4.80000e+00	3.232834e-06	
97	-4.85000e+00	3.174272e-06	
98	-4.90000e+00	3.118697e-06	
99	-4.95000e+00	3.065889e-06	
100	-5.00000e+00	3.015649e-06	
101	-5.05000e+00	2.967794e-06	
102	-5.10000e+00	2.922160e-06	
103	-5.15000e+00	2.878597e-06	
104	-5.20000e+00	2.836969e-06	
105	-5.25000e+00	2.797151e-06	
106	-5.30000e+00	2.759027e-06	
107	-5.35000e+00	2.722493e-06	
108	-5.40000e+00	2.687452e-06	
109	-5.45000e+00	2.653815e-06	
110	-5.50000e+00	2.621500e-06	
111	-5.55000e+00	2.590431e-06	
112	-5.60000e+00	2.560538e-06	

Index   v-sweep         rds             
--------------------------------------------------------------------------------
113	-5.65000e+00	2.531756e-06	
114	-5.70000e+00	2.504024e-06	
115	-5.75000e+00	2.477287e-06	
116	-5.80000e+00	2.451492e-06	
117	-5.85000e+00	2.426591e-06	
118	-5.90000e+00	2.402539e-06	
119	-5.95000e+00	2.379293e-06	
120	-6.00000e+00	2.356814e-06	
121	-6.05000e+00	2.335065e-06	
122	-6.10000e+00	2.314011e-06	
123	-6.15000e+00	2.293620e-06	
124	-6.20000e+00	2.273862e-06	
125	-6.25000e+00	2.254707e-06	
126	-6.30000e+00	2.236130e-06	
127	-6.35000e+00	2.218105e-06	
128	-6.40000e+00	2.200608e-06	
129	-6.45000e+00	2.183617e-06	
130	-6.50000e+00	2.167110e-06	
131	-6.55000e+00	2.151069e-06	
132	-6.60000e+00	2.135473e-06	
Reset re-loads circuit ***************************

Circuit: ***************************

Note: No ".plot", ".print", or ".fourier" lines; no simulations run
