
Note: Compatibility modes selected: hs

Warning: m=xx on .subckt line will override multiplier m hierarchy!


Circuit: ***************************

Doing analysis at TEMP = 25.000000 and TNOM = 25.000000


No. of Data Rows : 133
                          ***************************
                          DC transfer characteristic  Mon Jan  9 13:58:52  2023
--------------------------------------------------------------------------------
Index   v-sweep         rds             
--------------------------------------------------------------------------------
0	0.000000e+00	9.249606e-06	
1	-5.00000e-02	6.611757e-06	
2	-1.00000e-01	4.099683e-06	
3	-1.50000e-01	1.969087e-06	
4	-2.00000e-01	7.564690e-07	
5	-2.50000e-01	3.678561e-07	
6	-3.00000e-01	2.590590e-07	
7	-3.50000e-01	2.190426e-07	
8	-4.00000e-01	1.988780e-07	
9	-4.50000e-01	1.861078e-07	
10	-5.00000e-01	1.768005e-07	
11	-5.50000e-01	1.694396e-07	
12	-6.00000e-01	1.633318e-07	
13	-6.50000e-01	1.581115e-07	
14	-7.00000e-01	1.535626e-07	
15	-7.50000e-01	1.495451e-07	
16	-8.00000e-01	1.459615e-07	
17	-8.50000e-01	1.427405e-07	
18	-9.00000e-01	1.398277e-07	
19	-9.50000e-01	1.371800e-07	
20	-1.00000e+00	1.347630e-07	
21	-1.05000e+00	1.325484e-07	
22	-1.10000e+00	1.305126e-07	
23	-1.15000e+00	1.286356e-07	
24	-1.20000e+00	1.269005e-07	
25	-1.25000e+00	1.252929e-07	
26	-1.30000e+00	1.238001e-07	
27	-1.35000e+00	1.224113e-07	
28	-1.40000e+00	1.211168e-07	
29	-1.45000e+00	1.199084e-07	
30	-1.50000e+00	1.187785e-07	
31	-1.55000e+00	1.177206e-07	
32	-1.60000e+00	1.167288e-07	
33	-1.65000e+00	1.157978e-07	
34	-1.70000e+00	1.149230e-07	
35	-1.75000e+00	1.141002e-07	
36	-1.80000e+00	1.133255e-07	
37	-1.85000e+00	1.125954e-07	
38	-1.90000e+00	1.119069e-07	
39	-1.95000e+00	1.112571e-07	
40	-2.00000e+00	1.106434e-07	
41	-2.05000e+00	1.100634e-07	
42	-2.10000e+00	1.095150e-07	
43	-2.15000e+00	1.089963e-07	
44	-2.20000e+00	1.085053e-07	
45	-2.25000e+00	1.080404e-07	
46	-2.30000e+00	1.076000e-07	
47	-2.35000e+00	1.071828e-07	
48	-2.40000e+00	1.067874e-07	
49	-2.45000e+00	1.064126e-07	
50	-2.50000e+00	1.060573e-07	
51	-2.55000e+00	1.057204e-07	
52	-2.60000e+00	1.054009e-07	
53	-2.65000e+00	1.050980e-07	
54	-2.70000e+00	1.048107e-07	

Index   v-sweep         rds             
--------------------------------------------------------------------------------
55	-2.75000e+00	1.045383e-07	
56	-2.80000e+00	1.042801e-07	
57	-2.85000e+00	1.040353e-07	
58	-2.90000e+00	1.038033e-07	
59	-2.95000e+00	1.035836e-07	
60	-3.00000e+00	1.033754e-07	
61	-3.05000e+00	1.031784e-07	
62	-3.10000e+00	1.029920e-07	
63	-3.15000e+00	1.028157e-07	
64	-3.20000e+00	1.026492e-07	
65	-3.25000e+00	1.024918e-07	
66	-3.30000e+00	1.023434e-07	
67	-3.35000e+00	1.022035e-07	
68	-3.40000e+00	1.020717e-07	
69	-3.45000e+00	1.019477e-07	
70	-3.50000e+00	1.018313e-07	
71	-3.55000e+00	1.017221e-07	
72	-3.60000e+00	1.016198e-07	
73	-3.65000e+00	1.015241e-07	
74	-3.70000e+00	1.014349e-07	
75	-3.75000e+00	1.013519e-07	
76	-3.80000e+00	1.012748e-07	
77	-3.85000e+00	1.012035e-07	
78	-3.90000e+00	1.011377e-07	
79	-3.95000e+00	1.010772e-07	
80	-4.00000e+00	1.010219e-07	
81	-4.05000e+00	1.009716e-07	
82	-4.10000e+00	1.009261e-07	
83	-4.15000e+00	1.008853e-07	
84	-4.20000e+00	1.008490e-07	
85	-4.25000e+00	1.008170e-07	
86	-4.30000e+00	1.007893e-07	
87	-4.35000e+00	1.007657e-07	
88	-4.40000e+00	1.007461e-07	
89	-4.45000e+00	1.007304e-07	
90	-4.50000e+00	1.007185e-07	
91	-4.55000e+00	1.007101e-07	
92	-4.60000e+00	1.007054e-07	
93	-4.65000e+00	1.007041e-07	
94	-4.70000e+00	1.007062e-07	
95	-4.75000e+00	1.007115e-07	
96	-4.80000e+00	1.007201e-07	
97	-4.85000e+00	1.007318e-07	
98	-4.90000e+00	1.007465e-07	
99	-4.95000e+00	1.007642e-07	
100	-5.00000e+00	1.007848e-07	
101	-5.05000e+00	1.008083e-07	
102	-5.10000e+00	1.008345e-07	
103	-5.15000e+00	1.008634e-07	
104	-5.20000e+00	1.008950e-07	
105	-5.25000e+00	1.009293e-07	
106	-5.30000e+00	1.009660e-07	
107	-5.35000e+00	1.010053e-07	
108	-5.40000e+00	1.010470e-07	
109	-5.45000e+00	1.010912e-07	
110	-5.50000e+00	1.011377e-07	
111	-5.55000e+00	1.011865e-07	
112	-5.60000e+00	1.012377e-07	

Index   v-sweep         rds             
--------------------------------------------------------------------------------
113	-5.65000e+00	1.012910e-07	
114	-5.70000e+00	1.013466e-07	
115	-5.75000e+00	1.014044e-07	
116	-5.80000e+00	1.014644e-07	
117	-5.85000e+00	1.015264e-07	
118	-5.90000e+00	1.015905e-07	
119	-5.95000e+00	1.016567e-07	
120	-6.00000e+00	1.017249e-07	
121	-6.05000e+00	1.017952e-07	
122	-6.10000e+00	1.018674e-07	
123	-6.15000e+00	1.019415e-07	
124	-6.20000e+00	1.020176e-07	
125	-6.25000e+00	1.020956e-07	
126	-6.30000e+00	1.021754e-07	
127	-6.35000e+00	1.022572e-07	
128	-6.40000e+00	1.023408e-07	
129	-6.45000e+00	1.024262e-07	
130	-6.50000e+00	1.025134e-07	
131	-6.55000e+00	1.026024e-07	
132	-6.60000e+00	1.026931e-07	
Reset re-loads circuit ***************************

Circuit: ***************************

Doing analysis at TEMP = 25.000000 and TNOM = 25.000000


No. of Data Rows : 133
                          ***************************
                          DC transfer characteristic  Mon Jan  9 13:58:52  2023
--------------------------------------------------------------------------------
Index   v-sweep         rds             
--------------------------------------------------------------------------------
0	0.000000e+00	5.476991e-05	
1	-5.00000e-02	5.163292e-05	
2	-1.00000e-01	4.853247e-05	
3	-1.50000e-01	4.546819e-05	
4	-2.00000e-01	4.243974e-05	
5	-2.50000e-01	3.944688e-05	
6	-3.00000e-01	3.648943e-05	
7	-3.50000e-01	3.356742e-05	
8	-4.00000e-01	3.068111e-05	
9	-4.50000e-01	2.783120e-05	
10	-5.00000e-01	2.501918e-05	
11	-5.50000e-01	2.224794e-05	
12	-6.00000e-01	1.952309e-05	
13	-6.50000e-01	1.685553e-05	
14	-7.00000e-01	1.426684e-05	
15	-7.50000e-01	1.179940e-05	
16	-8.00000e-01	9.531088e-06	
17	-8.50000e-01	7.579986e-06	
18	-9.00000e-01	6.059939e-06	
19	-9.50000e-01	4.990262e-06	
20	-1.00000e+00	4.276158e-06	
21	-1.05000e+00	3.791613e-06	
22	-1.10000e+00	3.443587e-06	
23	-1.15000e+00	3.177767e-06	
24	-1.20000e+00	2.964459e-06	
25	-1.25000e+00	2.787095e-06	
26	-1.30000e+00	2.635879e-06	
27	-1.35000e+00	2.504622e-06	
28	-1.40000e+00	2.389160e-06	
29	-1.45000e+00	2.286541e-06	
30	-1.50000e+00	2.194580e-06	
31	-1.55000e+00	2.111608e-06	
32	-1.60000e+00	2.036311e-06	
33	-1.65000e+00	1.967638e-06	
34	-1.70000e+00	1.904730e-06	
35	-1.75000e+00	1.846877e-06	
36	-1.80000e+00	1.793486e-06	
37	-1.85000e+00	1.744055e-06	
38	-1.90000e+00	1.698156e-06	
39	-1.95000e+00	1.655424e-06	
40	-2.00000e+00	1.615540e-06	
41	-2.05000e+00	1.578231e-06	
42	-2.10000e+00	1.543254e-06	
43	-2.15000e+00	1.510400e-06	
44	-2.20000e+00	1.479481e-06	
45	-2.25000e+00	1.450333e-06	
46	-2.30000e+00	1.422809e-06	
47	-2.35000e+00	1.396778e-06	
48	-2.40000e+00	1.372123e-06	
49	-2.45000e+00	1.348740e-06	
50	-2.50000e+00	1.326533e-06	
51	-2.55000e+00	1.305417e-06	
52	-2.60000e+00	1.285314e-06	
53	-2.65000e+00	1.266155e-06	
54	-2.70000e+00	1.247876e-06	

Index   v-sweep         rds             
--------------------------------------------------------------------------------
55	-2.75000e+00	1.230418e-06	
56	-2.80000e+00	1.213728e-06	
57	-2.85000e+00	1.197758e-06	
58	-2.90000e+00	1.182462e-06	
59	-2.95000e+00	1.167800e-06	
60	-3.00000e+00	1.153734e-06	
61	-3.05000e+00	1.140229e-06	
62	-3.10000e+00	1.127253e-06	
63	-3.15000e+00	1.114776e-06	
64	-3.20000e+00	1.102771e-06	
65	-3.25000e+00	1.091212e-06	
66	-3.30000e+00	1.080075e-06	
67	-3.35000e+00	1.069338e-06	
68	-3.40000e+00	1.058980e-06	
69	-3.45000e+00	1.048983e-06	
70	-3.50000e+00	1.039328e-06	
71	-3.55000e+00	1.029999e-06	
72	-3.60000e+00	1.020980e-06	
73	-3.65000e+00	1.012256e-06	
74	-3.70000e+00	1.003813e-06	
75	-3.75000e+00	9.956394e-07	
76	-3.80000e+00	9.877218e-07	
77	-3.85000e+00	9.800492e-07	
78	-3.90000e+00	9.726109e-07	
79	-3.95000e+00	9.653968e-07	
80	-4.00000e+00	9.583973e-07	
81	-4.05000e+00	9.516034e-07	
82	-4.10000e+00	9.450066e-07	
83	-4.15000e+00	9.385991e-07	
84	-4.20000e+00	9.323730e-07	
85	-4.25000e+00	9.263214e-07	
86	-4.30000e+00	9.204374e-07	
87	-4.35000e+00	9.147146e-07	
88	-4.40000e+00	9.091470e-07	
89	-4.45000e+00	9.037287e-07	
90	-4.50000e+00	8.984544e-07	
91	-4.55000e+00	8.933188e-07	
92	-4.60000e+00	8.883170e-07	
93	-4.65000e+00	8.834444e-07	
94	-4.70000e+00	8.786964e-07	
95	-4.75000e+00	8.740690e-07	
96	-4.80000e+00	8.695580e-07	
97	-4.85000e+00	8.651597e-07	
98	-4.90000e+00	8.608704e-07	
99	-4.95000e+00	8.566867e-07	
100	-5.00000e+00	8.526053e-07	
101	-5.05000e+00	8.486230e-07	
102	-5.10000e+00	8.447369e-07	
103	-5.15000e+00	8.409441e-07	
104	-5.20000e+00	8.372419e-07	
105	-5.25000e+00	8.336277e-07	
106	-5.30000e+00	8.300990e-07	
107	-5.35000e+00	8.266535e-07	
108	-5.40000e+00	8.232889e-07	
109	-5.45000e+00	8.200030e-07	
110	-5.50000e+00	8.167939e-07	
111	-5.55000e+00	8.136595e-07	
112	-5.60000e+00	8.105979e-07	

Index   v-sweep         rds             
--------------------------------------------------------------------------------
113	-5.65000e+00	8.076074e-07	
114	-5.70000e+00	8.046862e-07	
115	-5.75000e+00	8.018327e-07	
116	-5.80000e+00	7.990453e-07	
117	-5.85000e+00	7.963225e-07	
118	-5.90000e+00	7.936628e-07	
119	-5.95000e+00	7.910648e-07	
120	-6.00000e+00	7.885272e-07	
121	-6.05000e+00	7.860488e-07	
122	-6.10000e+00	7.836282e-07	
123	-6.15000e+00	7.812644e-07	
124	-6.20000e+00	7.789561e-07	
125	-6.25000e+00	7.767023e-07	
126	-6.30000e+00	7.745019e-07	
127	-6.35000e+00	7.723539e-07	
128	-6.40000e+00	7.702574e-07	
129	-6.45000e+00	7.682114e-07	
130	-6.50000e+00	7.662149e-07	
131	-6.55000e+00	7.642672e-07	
132	-6.60000e+00	7.623674e-07	
Reset re-loads circuit ***************************

Circuit: ***************************

Doing analysis at TEMP = 25.000000 and TNOM = 25.000000


No. of Data Rows : 133
                          ***************************
                          DC transfer characteristic  Mon Jan  9 13:58:52  2023
--------------------------------------------------------------------------------
Index   v-sweep         rds             
--------------------------------------------------------------------------------
0	0.000000e+00	8.783647e-05	
1	-5.00000e-02	8.484192e-05	
2	-1.00000e-01	8.187653e-05	
3	-1.50000e-01	7.894000e-05	
4	-2.00000e-01	7.603203e-05	
5	-2.50000e-01	7.315234e-05	
6	-3.00000e-01	7.030064e-05	
7	-3.50000e-01	6.747664e-05	
8	-4.00000e-01	6.468008e-05	
9	-4.50000e-01	6.191069e-05	
10	-5.00000e-01	5.916823e-05	
11	-5.50000e-01	5.645247e-05	
12	-6.00000e-01	5.376319e-05	
13	-6.50000e-01	5.110021e-05	
14	-7.00000e-01	4.846336e-05	
15	-7.50000e-01	4.585256e-05	
16	-8.00000e-01	4.326774e-05	
17	-8.50000e-01	4.070897e-05	
18	-9.00000e-01	3.817645e-05	
19	-9.50000e-01	3.567057e-05	
20	-1.00000e+00	3.319206e-05	
21	-1.05000e+00	3.074218e-05	
22	-1.10000e+00	2.832301e-05	
23	-1.15000e+00	2.593805e-05	
24	-1.20000e+00	2.359315e-05	
25	-1.25000e+00	2.129819e-05	
26	-1.30000e+00	1.906979e-05	
27	-1.35000e+00	1.693505e-05	
28	-1.40000e+00	1.493505e-05	
29	-1.45000e+00	1.312319e-05	
30	-1.50000e+00	1.155114e-05	
31	-1.55000e+00	1.024474e-05	
32	-1.60000e+00	9.190152e-06	
33	-1.65000e+00	8.345144e-06	
34	-1.70000e+00	7.661288e-06	
35	-1.75000e+00	7.097837e-06	
36	-1.80000e+00	6.624762e-06	
37	-1.85000e+00	6.220886e-06	
38	-1.90000e+00	5.871265e-06	
39	-1.95000e+00	5.565131e-06	
40	-2.00000e+00	5.294522e-06	
41	-2.05000e+00	5.053400e-06	
42	-2.10000e+00	4.837075e-06	
43	-2.15000e+00	4.641840e-06	
44	-2.20000e+00	4.464713e-06	
45	-2.25000e+00	4.303263e-06	
46	-2.30000e+00	4.155481e-06	
47	-2.35000e+00	4.019697e-06	
48	-2.40000e+00	3.894503e-06	
49	-2.45000e+00	3.778705e-06	
50	-2.50000e+00	3.671286e-06	
51	-2.55000e+00	3.571368e-06	
52	-2.60000e+00	3.478196e-06	
53	-2.65000e+00	3.391110e-06	
54	-2.70000e+00	3.309536e-06	

Index   v-sweep         rds             
--------------------------------------------------------------------------------
55	-2.75000e+00	3.232969e-06	
56	-2.80000e+00	3.160964e-06	
57	-2.85000e+00	3.093128e-06	
58	-2.90000e+00	3.029112e-06	
59	-2.95000e+00	2.968604e-06	
60	-3.00000e+00	2.911325e-06	
61	-3.05000e+00	2.857026e-06	
62	-3.10000e+00	2.805482e-06	
63	-3.15000e+00	2.756490e-06	
64	-3.20000e+00	2.709868e-06	
65	-3.25000e+00	2.665448e-06	
66	-3.30000e+00	2.623081e-06	
67	-3.35000e+00	2.582628e-06	
68	-3.40000e+00	2.543965e-06	
69	-3.45000e+00	2.506975e-06	
70	-3.50000e+00	2.471555e-06	
71	-3.55000e+00	2.437607e-06	
72	-3.60000e+00	2.405044e-06	
73	-3.65000e+00	2.373782e-06	
74	-3.70000e+00	2.343746e-06	
75	-3.75000e+00	2.314868e-06	
76	-3.80000e+00	2.287081e-06	
77	-3.85000e+00	2.260327e-06	
78	-3.90000e+00	2.234549e-06	
79	-3.95000e+00	2.209696e-06	
80	-4.00000e+00	2.185721e-06	
81	-4.05000e+00	2.162577e-06	
82	-4.10000e+00	2.140223e-06	
83	-4.15000e+00	2.118621e-06	
84	-4.20000e+00	2.097733e-06	
85	-4.25000e+00	2.077527e-06	
86	-4.30000e+00	2.057968e-06	
87	-4.35000e+00	2.039028e-06	
88	-4.40000e+00	2.020679e-06	
89	-4.45000e+00	2.002893e-06	
90	-4.50000e+00	1.985646e-06	
91	-4.55000e+00	1.968914e-06	
92	-4.60000e+00	1.952676e-06	
93	-4.65000e+00	1.936911e-06	
94	-4.70000e+00	1.921598e-06	
95	-4.75000e+00	1.906720e-06	
96	-4.80000e+00	1.892259e-06	
97	-4.85000e+00	1.878198e-06	
98	-4.90000e+00	1.864522e-06	
99	-4.95000e+00	1.851216e-06	
100	-5.00000e+00	1.838266e-06	
101	-5.05000e+00	1.825658e-06	
102	-5.10000e+00	1.813380e-06	
103	-5.15000e+00	1.801421e-06	
104	-5.20000e+00	1.789768e-06	
105	-5.25000e+00	1.778412e-06	
106	-5.30000e+00	1.767341e-06	
107	-5.35000e+00	1.756546e-06	
108	-5.40000e+00	1.746019e-06	
109	-5.45000e+00	1.735750e-06	
110	-5.50000e+00	1.725730e-06	
111	-5.55000e+00	1.715953e-06	
112	-5.60000e+00	1.706410e-06	

Index   v-sweep         rds             
--------------------------------------------------------------------------------
113	-5.65000e+00	1.697094e-06	
114	-5.70000e+00	1.687999e-06	
115	-5.75000e+00	1.679118e-06	
116	-5.80000e+00	1.670445e-06	
117	-5.85000e+00	1.661973e-06	
118	-5.90000e+00	1.653698e-06	
119	-5.95000e+00	1.645614e-06	
120	-6.00000e+00	1.637715e-06	
121	-6.05000e+00	1.629998e-06	
122	-6.10000e+00	1.622456e-06	
123	-6.15000e+00	1.615086e-06	
124	-6.20000e+00	1.607884e-06	
125	-6.25000e+00	1.600845e-06	
126	-6.30000e+00	1.593966e-06	
127	-6.35000e+00	1.587242e-06	
128	-6.40000e+00	1.580670e-06	
129	-6.45000e+00	1.574248e-06	
130	-6.50000e+00	1.567970e-06	
131	-6.55000e+00	1.561835e-06	
132	-6.60000e+00	1.555840e-06	
Reset re-loads circuit ***************************

Circuit: ***************************

Doing analysis at TEMP = 25.000000 and TNOM = 25.000000


No. of Data Rows : 133
                          ***************************
                          DC transfer characteristic  Mon Jan  9 13:58:52  2023
--------------------------------------------------------------------------------
Index   v-sweep         rds             
--------------------------------------------------------------------------------
0	0.000000e+00	1.154774e-04	
1	-5.00000e-02	1.126423e-04	
2	-1.00000e-01	1.098311e-04	
3	-1.50000e-01	1.070437e-04	
4	-2.00000e-01	1.042798e-04	
5	-2.50000e-01	1.015393e-04	
6	-3.00000e-01	9.882185e-05	
7	-3.50000e-01	9.612734e-05	
8	-4.00000e-01	9.345553e-05	
9	-4.50000e-01	9.080621e-05	
10	-5.00000e-01	8.817919e-05	
11	-5.50000e-01	8.557426e-05	
12	-6.00000e-01	8.299122e-05	
13	-6.50000e-01	8.042989e-05	
14	-7.00000e-01	7.789006e-05	
15	-7.50000e-01	7.537157e-05	
16	-8.00000e-01	7.287422e-05	
17	-8.50000e-01	7.039785e-05	
18	-9.00000e-01	6.794227e-05	
19	-9.50000e-01	6.550734e-05	
20	-1.00000e+00	6.309289e-05	
21	-1.05000e+00	6.069879e-05	
22	-1.10000e+00	5.832491e-05	
23	-1.15000e+00	5.597113e-05	
24	-1.20000e+00	5.363737e-05	
25	-1.25000e+00	5.132355e-05	
26	-1.30000e+00	4.902967e-05	
27	-1.35000e+00	4.675573e-05	
28	-1.40000e+00	4.450185e-05	
29	-1.45000e+00	4.226820e-05	
30	-1.50000e+00	4.005513e-05	
31	-1.55000e+00	3.786316e-05	
32	-1.60000e+00	3.569315e-05	
33	-1.65000e+00	3.354637e-05	
34	-1.70000e+00	3.142483e-05	
35	-1.75000e+00	2.933161e-05	
36	-1.80000e+00	2.727148e-05	
37	-1.85000e+00	2.525180e-05	
38	-1.90000e+00	2.328381e-05	
39	-1.95000e+00	2.138403e-05	
40	-2.00000e+00	1.957511e-05	
41	-2.05000e+00	1.788437e-05	
42	-2.10000e+00	1.633872e-05	
43	-2.15000e+00	1.495681e-05	
44	-2.20000e+00	1.374328e-05	
45	-2.25000e+00	1.268919e-05	
46	-2.30000e+00	1.177712e-05	
47	-2.35000e+00	1.098693e-05	
48	-2.40000e+00	1.029935e-05	
49	-2.45000e+00	9.697596e-06	
50	-2.50000e+00	9.167647e-06	
51	-2.55000e+00	8.698018e-06	
52	-2.60000e+00	8.279357e-06	
53	-2.65000e+00	7.904043e-06	
54	-2.70000e+00	7.565838e-06	

Index   v-sweep         rds             
--------------------------------------------------------------------------------
55	-2.75000e+00	7.259611e-06	
56	-2.80000e+00	6.981110e-06	
57	-2.85000e+00	6.726792e-06	
58	-2.90000e+00	6.493681e-06	
59	-2.95000e+00	6.279263e-06	
60	-3.00000e+00	6.081403e-06	
61	-3.05000e+00	5.898276e-06	
62	-3.10000e+00	5.728311e-06	
63	-3.15000e+00	5.570153e-06	
64	-3.20000e+00	5.422624e-06	
65	-3.25000e+00	5.284698e-06	
66	-3.30000e+00	5.155475e-06	
67	-3.35000e+00	5.034164e-06	
68	-3.40000e+00	4.920067e-06	
69	-3.45000e+00	4.812563e-06	
70	-3.50000e+00	4.711104e-06	
71	-3.55000e+00	4.615196e-06	
72	-3.60000e+00	4.524402e-06	
73	-3.65000e+00	4.438326e-06	
74	-3.70000e+00	4.356613e-06	
75	-3.75000e+00	4.278943e-06	
76	-3.80000e+00	4.205026e-06	
77	-3.85000e+00	4.134598e-06	
78	-3.90000e+00	4.067421e-06	
79	-3.95000e+00	4.003277e-06	
80	-4.00000e+00	3.941968e-06	
81	-4.05000e+00	3.883310e-06	
82	-4.10000e+00	3.827139e-06	
83	-4.15000e+00	3.773300e-06	
84	-4.20000e+00	3.721653e-06	
85	-4.25000e+00	3.672068e-06	
86	-4.30000e+00	3.624425e-06	
87	-4.35000e+00	3.578615e-06	
88	-4.40000e+00	3.534534e-06	
89	-4.45000e+00	3.492088e-06	
90	-4.50000e+00	3.451189e-06	
91	-4.55000e+00	3.411754e-06	
92	-4.60000e+00	3.373708e-06	
93	-4.65000e+00	3.336979e-06	
94	-4.70000e+00	3.301501e-06	
95	-4.75000e+00	3.267212e-06	
96	-4.80000e+00	3.234056e-06	
97	-4.85000e+00	3.201976e-06	
98	-4.90000e+00	3.170923e-06	
99	-4.95000e+00	3.140849e-06	
100	-5.00000e+00	3.111709e-06	
101	-5.05000e+00	3.083462e-06	
102	-5.10000e+00	3.056067e-06	
103	-5.15000e+00	3.029489e-06	
104	-5.20000e+00	3.003691e-06	
105	-5.25000e+00	2.978641e-06	
106	-5.30000e+00	2.954309e-06	
107	-5.35000e+00	2.930663e-06	
108	-5.40000e+00	2.907678e-06	
109	-5.45000e+00	2.885326e-06	
110	-5.50000e+00	2.863584e-06	
111	-5.55000e+00	2.842426e-06	
112	-5.60000e+00	2.821833e-06	

Index   v-sweep         rds             
--------------------------------------------------------------------------------
113	-5.65000e+00	2.801781e-06	
114	-5.70000e+00	2.782253e-06	
115	-5.75000e+00	2.763228e-06	
116	-5.80000e+00	2.744689e-06	
117	-5.85000e+00	2.726619e-06	
118	-5.90000e+00	2.709002e-06	
119	-5.95000e+00	2.691823e-06	
120	-6.00000e+00	2.675067e-06	
121	-6.05000e+00	2.658720e-06	
122	-6.10000e+00	2.642770e-06	
123	-6.15000e+00	2.627204e-06	
124	-6.20000e+00	2.612009e-06	
125	-6.25000e+00	2.597176e-06	
126	-6.30000e+00	2.582693e-06	
127	-6.35000e+00	2.568549e-06	
128	-6.40000e+00	2.554736e-06	
129	-6.45000e+00	2.541244e-06	
130	-6.50000e+00	2.528064e-06	
131	-6.55000e+00	2.515187e-06	
132	-6.60000e+00	2.502607e-06	
Reset re-loads circuit ***************************

Circuit: ***************************

Doing analysis at TEMP = 25.000000 and TNOM = 25.000000


No. of Data Rows : 133
                          ***************************
                          DC transfer characteristic  Mon Jan  9 13:58:52  2023
--------------------------------------------------------------------------------
Index   v-sweep         rds             
--------------------------------------------------------------------------------
0	0.000000e+00	1.371328e-04	
1	-5.00000e-02	1.344608e-04	
2	-1.00000e-01	1.318089e-04	
3	-1.50000e-01	1.291768e-04	
4	-2.00000e-01	1.265645e-04	
5	-2.50000e-01	1.239718e-04	
6	-3.00000e-01	1.213985e-04	
7	-3.50000e-01	1.188444e-04	
8	-4.00000e-01	1.163095e-04	
9	-4.50000e-01	1.137935e-04	
10	-5.00000e-01	1.112963e-04	
11	-5.50000e-01	1.088177e-04	
12	-6.00000e-01	1.063576e-04	
13	-6.50000e-01	1.039159e-04	
14	-7.00000e-01	1.014923e-04	
15	-7.50000e-01	9.908685e-05	
16	-8.00000e-01	9.669925e-05	
17	-8.50000e-01	9.432940e-05	
18	-9.00000e-01	9.197718e-05	
19	-9.50000e-01	8.964243e-05	
20	-1.00000e+00	8.732502e-05	
21	-1.05000e+00	8.502482e-05	
22	-1.10000e+00	8.274169e-05	
23	-1.15000e+00	8.047551e-05	
24	-1.20000e+00	7.822614e-05	
25	-1.25000e+00	7.599346e-05	
26	-1.30000e+00	7.377736e-05	
27	-1.35000e+00	7.157772e-05	
28	-1.40000e+00	6.939442e-05	
29	-1.45000e+00	6.722736e-05	
30	-1.50000e+00	6.507644e-05	
31	-1.55000e+00	6.294158e-05	
32	-1.60000e+00	6.082268e-05	
33	-1.65000e+00	5.871968e-05	
34	-1.70000e+00	5.663252e-05	
35	-1.75000e+00	5.456116e-05	
36	-1.80000e+00	5.250559e-05	
37	-1.85000e+00	5.046582e-05	
38	-1.90000e+00	4.844190e-05	
39	-1.95000e+00	4.643393e-05	
40	-2.00000e+00	4.444207e-05	
41	-2.05000e+00	4.246660e-05	
42	-2.10000e+00	4.050790e-05	
43	-2.15000e+00	3.856653e-05	
44	-2.20000e+00	3.664333e-05	
45	-2.25000e+00	3.473949e-05	
46	-2.30000e+00	3.285673e-05	
47	-2.35000e+00	3.099758e-05	
48	-2.40000e+00	2.916576e-05	
49	-2.45000e+00	2.736669e-05	
50	-2.50000e+00	2.560825e-05	
51	-2.55000e+00	2.390151e-05	
52	-2.60000e+00	2.226112e-05	
53	-2.65000e+00	2.070455e-05	
54	-2.70000e+00	1.924953e-05	

Index   v-sweep         rds             
--------------------------------------------------------------------------------
55	-2.75000e+00	1.791033e-05	
56	-2.80000e+00	1.669449e-05	
57	-2.85000e+00	1.560197e-05	
58	-2.90000e+00	1.462645e-05	
59	-2.95000e+00	1.375783e-05	
60	-3.00000e+00	1.298446e-05	
61	-3.05000e+00	1.229469e-05	
62	-3.10000e+00	1.167770e-05	
63	-3.15000e+00	1.112385e-05	
64	-3.20000e+00	1.062478e-05	
65	-3.25000e+00	1.017332e-05	
66	-3.30000e+00	9.763352e-06	
67	-3.35000e+00	9.389673e-06	
68	-3.40000e+00	9.047858e-06	
69	-3.45000e+00	8.734135e-06	
70	-3.50000e+00	8.445278e-06	
71	-3.55000e+00	8.178517e-06	
72	-3.60000e+00	7.931468e-06	
73	-3.65000e+00	7.702066e-06	
74	-3.70000e+00	7.488522e-06	
75	-3.75000e+00	7.289273e-06	
76	-3.80000e+00	7.102953e-06	
77	-3.85000e+00	6.928361e-06	
78	-3.90000e+00	6.764438e-06	
79	-3.95000e+00	6.610249e-06	
80	-4.00000e+00	6.464962e-06	
81	-4.05000e+00	6.327836e-06	
82	-4.10000e+00	6.198212e-06	
83	-4.15000e+00	6.075497e-06	
84	-4.20000e+00	5.959158e-06	
85	-4.25000e+00	5.848718e-06	
86	-4.30000e+00	5.743743e-06	
87	-4.35000e+00	5.643841e-06	
88	-4.40000e+00	5.548658e-06	
89	-4.45000e+00	5.457871e-06	
90	-4.50000e+00	5.371184e-06	
91	-4.55000e+00	5.288330e-06	
92	-4.60000e+00	5.209062e-06	
93	-4.65000e+00	5.133155e-06	
94	-4.70000e+00	5.060402e-06	
95	-4.75000e+00	4.990613e-06	
96	-4.80000e+00	4.923611e-06	
97	-4.85000e+00	4.859236e-06	
98	-4.90000e+00	4.797337e-06	
99	-4.95000e+00	4.737776e-06	
100	-5.00000e+00	4.680425e-06	
101	-5.05000e+00	4.625164e-06	
102	-5.10000e+00	4.571883e-06	
103	-5.15000e+00	4.520477e-06	
104	-5.20000e+00	4.470853e-06	
105	-5.25000e+00	4.422918e-06	
106	-5.30000e+00	4.376591e-06	
107	-5.35000e+00	4.331793e-06	
108	-5.40000e+00	4.288449e-06	
109	-5.45000e+00	4.246493e-06	
110	-5.50000e+00	4.205859e-06	
111	-5.55000e+00	4.166487e-06	
112	-5.60000e+00	4.128320e-06	

Index   v-sweep         rds             
--------------------------------------------------------------------------------
113	-5.65000e+00	4.091306e-06	
114	-5.70000e+00	4.055393e-06	
115	-5.75000e+00	4.020535e-06	
116	-5.80000e+00	3.986687e-06	
117	-5.85000e+00	3.953807e-06	
118	-5.90000e+00	3.921855e-06	
119	-5.95000e+00	3.890794e-06	
120	-6.00000e+00	3.860589e-06	
121	-6.05000e+00	3.831207e-06	
122	-6.10000e+00	3.802615e-06	
123	-6.15000e+00	3.774784e-06	
124	-6.20000e+00	3.747685e-06	
125	-6.25000e+00	3.721293e-06	
126	-6.30000e+00	3.695581e-06	
127	-6.35000e+00	3.670525e-06	
128	-6.40000e+00	3.646102e-06	
129	-6.45000e+00	3.622292e-06	
130	-6.50000e+00	3.599073e-06	
131	-6.55000e+00	3.576426e-06	
132	-6.60000e+00	3.554332e-06	
Reset re-loads circuit ***************************

Circuit: ***************************

Doing analysis at TEMP = 25.000000 and TNOM = 25.000000


No. of Data Rows : 133
                          ***************************
                          DC transfer characteristic  Mon Jan  9 13:58:52  2023
--------------------------------------------------------------------------------
Index   v-sweep         rds             
--------------------------------------------------------------------------------
0	0.000000e+00	1.561540e-04	
1	-5.00000e-02	1.536259e-04	
2	-1.00000e-01	1.511151e-04	
3	-1.50000e-01	1.486211e-04	
4	-2.00000e-01	1.461441e-04	
5	-2.50000e-01	1.436837e-04	
6	-3.00000e-01	1.412400e-04	
7	-3.50000e-01	1.388128e-04	
8	-4.00000e-01	1.364019e-04	
9	-4.50000e-01	1.340073e-04	
10	-5.00000e-01	1.316288e-04	
11	-5.50000e-01	1.292663e-04	
12	-6.00000e-01	1.269197e-04	
13	-6.50000e-01	1.245888e-04	
14	-7.00000e-01	1.222737e-04	
15	-7.50000e-01	1.199740e-04	
16	-8.00000e-01	1.176898e-04	
17	-8.50000e-01	1.154210e-04	
18	-9.00000e-01	1.131673e-04	
19	-9.50000e-01	1.109287e-04	
20	-1.00000e+00	1.087051e-04	
21	-1.05000e+00	1.064964e-04	
22	-1.10000e+00	1.043024e-04	
23	-1.15000e+00	1.021231e-04	
24	-1.20000e+00	9.995837e-05	
25	-1.25000e+00	9.780807e-05	
26	-1.30000e+00	9.567212e-05	
27	-1.35000e+00	9.355041e-05	
28	-1.40000e+00	9.144285e-05	
29	-1.45000e+00	8.934933e-05	
30	-1.50000e+00	8.726977e-05	
31	-1.55000e+00	8.520406e-05	
32	-1.60000e+00	8.315211e-05	
33	-1.65000e+00	8.111383e-05	
34	-1.70000e+00	7.908913e-05	
35	-1.75000e+00	7.707793e-05	
36	-1.80000e+00	7.508014e-05	
37	-1.85000e+00	7.309568e-05	
38	-1.90000e+00	7.112448e-05	
39	-1.95000e+00	6.916645e-05	
40	-2.00000e+00	6.722153e-05	
41	-2.05000e+00	6.528966e-05	
42	-2.10000e+00	6.337078e-05	
43	-2.15000e+00	6.146482e-05	
44	-2.20000e+00	5.957176e-05	
45	-2.25000e+00	5.769156e-05	
46	-2.30000e+00	5.582418e-05	
47	-2.35000e+00	5.396963e-05	
48	-2.40000e+00	5.212790e-05	
49	-2.45000e+00	5.029902e-05	
50	-2.50000e+00	4.848303e-05	
51	-2.55000e+00	4.668000e-05	
52	-2.60000e+00	4.489005e-05	
53	-2.65000e+00	4.311330e-05	
54	-2.70000e+00	4.134993e-05	

Index   v-sweep         rds             
--------------------------------------------------------------------------------
55	-2.75000e+00	3.960018e-05	
56	-2.80000e+00	3.786434e-05	
57	-2.85000e+00	3.614279e-05	
58	-2.90000e+00	3.443603e-05	
59	-2.95000e+00	3.274484e-05	
60	-3.00000e+00	3.107055e-05	
61	-3.05000e+00	2.941562e-05	
62	-3.10000e+00	2.778460e-05	
63	-3.15000e+00	2.618545e-05	
64	-3.20000e+00	2.463044e-05	
65	-3.25000e+00	2.313575e-05	
66	-3.30000e+00	2.171896e-05	
67	-3.35000e+00	2.039526e-05	
68	-3.40000e+00	1.917441e-05	
69	-3.45000e+00	1.805964e-05	
70	-3.50000e+00	1.704858e-05	
71	-3.55000e+00	1.613499e-05	
72	-3.60000e+00	1.531059e-05	
73	-3.65000e+00	1.456639e-05	
74	-3.70000e+00	1.389353e-05	
75	-3.75000e+00	1.328378e-05	
76	-3.80000e+00	1.272973e-05	
77	-3.85000e+00	1.222479e-05	
78	-3.90000e+00	1.176323e-05	
79	-3.95000e+00	1.134004e-05	
80	-4.00000e+00	1.095090e-05	
81	-4.05000e+00	1.059203e-05	
82	-4.10000e+00	1.026019e-05	
83	-4.15000e+00	9.952535e-06	
84	-4.20000e+00	9.666595e-06	
85	-4.25000e+00	9.400214e-06	
86	-4.30000e+00	9.151502e-06	
87	-4.35000e+00	8.918796e-06	
88	-4.40000e+00	8.700631e-06	
89	-4.45000e+00	8.495713e-06	
90	-4.50000e+00	8.302890e-06	
91	-4.55000e+00	8.121141e-06	
92	-4.60000e+00	7.949554e-06	
93	-4.65000e+00	7.787312e-06	
94	-4.70000e+00	7.633683e-06	
95	-4.75000e+00	7.488008e-06	
96	-4.80000e+00	7.349694e-06	
97	-4.85000e+00	7.218203e-06	
98	-4.90000e+00	7.093048e-06	
99	-4.95000e+00	6.973790e-06	
100	-5.00000e+00	6.860024e-06	
101	-5.05000e+00	6.751385e-06	
102	-5.10000e+00	6.647539e-06	
103	-5.15000e+00	6.548177e-06	
104	-5.20000e+00	6.453020e-06	
105	-5.25000e+00	6.361810e-06	
106	-5.30000e+00	6.274308e-06	
107	-5.35000e+00	6.190295e-06	
108	-5.40000e+00	6.109569e-06	
109	-5.45000e+00	6.031944e-06	
110	-5.50000e+00	5.957246e-06	
111	-5.55000e+00	5.885315e-06	
112	-5.60000e+00	5.816001e-06	

Index   v-sweep         rds             
--------------------------------------------------------------------------------
113	-5.65000e+00	5.749166e-06	
114	-5.70000e+00	5.684682e-06	
115	-5.75000e+00	5.622427e-06	
116	-5.80000e+00	5.562290e-06	
117	-5.85000e+00	5.504166e-06	
118	-5.90000e+00	5.447958e-06	
119	-5.95000e+00	5.393572e-06	
120	-6.00000e+00	5.340925e-06	
121	-6.05000e+00	5.289934e-06	
122	-6.10000e+00	5.240524e-06	
123	-6.15000e+00	5.192626e-06	
124	-6.20000e+00	5.146170e-06	
125	-6.25000e+00	5.101096e-06	
126	-6.30000e+00	5.057343e-06	
127	-6.35000e+00	5.014856e-06	
128	-6.40000e+00	4.973583e-06	
129	-6.45000e+00	4.933473e-06	
130	-6.50000e+00	4.894481e-06	
131	-6.55000e+00	4.856561e-06	
132	-6.60000e+00	4.819673e-06	
Reset re-loads circuit ***************************

Circuit: ***************************

Note: No ".plot", ".print", or ".fourier" lines; no simulations run
