
Note: Compatibility modes selected: hs

Warning: m=xx on .subckt line will override multiplier m hierarchy!


Circuit: ***************************

Doing analysis at TEMP = -40.000000 and TNOM = -40.000000


No. of Data Rows : 133
                          ***************************
                          DC transfer characteristic  Mon Jan  9 13:58:53  2023
--------------------------------------------------------------------------------
Index   v-sweep         rds             
--------------------------------------------------------------------------------
0	0.000000e+00	3.226452e-06	
1	-5.00000e-02	2.020672e-06	
2	-1.00000e-01	9.635094e-07	
3	-1.50000e-01	3.309076e-07	
4	-2.00000e-01	1.460469e-07	
5	-2.50000e-01	1.023484e-07	
6	-3.00000e-01	8.745157e-08	
7	-3.50000e-01	7.992778e-08	
8	-4.00000e-01	7.502390e-08	
9	-4.50000e-01	7.134757e-08	
10	-5.00000e-01	6.837858e-08	
11	-5.50000e-01	6.587958e-08	
12	-6.00000e-01	6.372339e-08	
13	-6.50000e-01	6.183275e-08	
14	-7.00000e-01	6.015612e-08	
15	-7.50000e-01	5.865668e-08	
16	-8.00000e-01	5.730678e-08	
17	-8.50000e-01	5.608489e-08	
18	-9.00000e-01	5.497383e-08	
19	-9.50000e-01	5.395956e-08	
20	-1.00000e+00	5.303047e-08	
21	-1.05000e+00	5.217681e-08	
22	-1.10000e+00	5.139030e-08	
23	-1.15000e+00	5.066389e-08	
24	-1.20000e+00	4.999149e-08	
25	-1.25000e+00	4.936781e-08	
26	-1.30000e+00	4.878825e-08	
27	-1.35000e+00	4.824877e-08	
28	-1.40000e+00	4.774582e-08	
29	-1.45000e+00	4.727625e-08	
30	-1.50000e+00	4.683726e-08	
31	-1.55000e+00	4.642636e-08	
32	-1.60000e+00	4.604134e-08	
33	-1.65000e+00	4.568018e-08	
34	-1.70000e+00	4.534109e-08	
35	-1.75000e+00	4.502245e-08	
36	-1.80000e+00	4.472278e-08	
37	-1.85000e+00	4.444077e-08	
38	-1.90000e+00	4.417519e-08	
39	-1.95000e+00	4.392495e-08	
40	-2.00000e+00	4.368903e-08	
41	-2.05000e+00	4.346652e-08	
42	-2.10000e+00	4.325657e-08	
43	-2.15000e+00	4.305840e-08	
44	-2.20000e+00	4.287131e-08	
45	-2.25000e+00	4.269463e-08	
46	-2.30000e+00	4.252776e-08	
47	-2.35000e+00	4.237013e-08	
48	-2.40000e+00	4.222123e-08	
49	-2.45000e+00	4.208058e-08	
50	-2.50000e+00	4.194772e-08	
51	-2.55000e+00	4.182225e-08	
52	-2.60000e+00	4.170377e-08	
53	-2.65000e+00	4.159193e-08	
54	-2.70000e+00	4.148639e-08	

Index   v-sweep         rds             
--------------------------------------------------------------------------------
55	-2.75000e+00	4.138683e-08	
56	-2.80000e+00	4.129297e-08	
57	-2.85000e+00	4.120452e-08	
58	-2.90000e+00	4.112123e-08	
59	-2.95000e+00	4.104285e-08	
60	-3.00000e+00	4.096917e-08	
61	-3.05000e+00	4.089996e-08	
62	-3.10000e+00	4.083503e-08	
63	-3.15000e+00	4.077418e-08	
64	-3.20000e+00	4.071725e-08	
65	-3.25000e+00	4.066406e-08	
66	-3.30000e+00	4.061445e-08	
67	-3.35000e+00	4.056828e-08	
68	-3.40000e+00	4.052541e-08	
69	-3.45000e+00	4.048569e-08	
70	-3.50000e+00	4.044902e-08	
71	-3.55000e+00	4.041526e-08	
72	-3.60000e+00	4.038430e-08	
73	-3.65000e+00	4.035604e-08	
74	-3.70000e+00	4.033037e-08	
75	-3.75000e+00	4.030721e-08	
76	-3.80000e+00	4.028645e-08	
77	-3.85000e+00	4.026801e-08	
78	-3.90000e+00	4.025182e-08	
79	-3.95000e+00	4.023778e-08	
80	-4.00000e+00	4.022583e-08	
81	-4.05000e+00	4.021591e-08	
82	-4.10000e+00	4.020793e-08	
83	-4.15000e+00	4.020183e-08	
84	-4.20000e+00	4.019756e-08	
85	-4.25000e+00	4.019506e-08	
86	-4.30000e+00	4.019428e-08	
87	-4.35000e+00	4.019515e-08	
88	-4.40000e+00	4.019764e-08	
89	-4.45000e+00	4.020168e-08	
90	-4.50000e+00	4.020725e-08	
91	-4.55000e+00	4.021429e-08	
92	-4.60000e+00	4.022276e-08	
93	-4.65000e+00	4.023263e-08	
94	-4.70000e+00	4.024385e-08	
95	-4.75000e+00	4.025640e-08	
96	-4.80000e+00	4.027023e-08	
97	-4.85000e+00	4.028532e-08	
98	-4.90000e+00	4.030163e-08	
99	-4.95000e+00	4.031913e-08	
100	-5.00000e+00	4.033780e-08	
101	-5.05000e+00	4.035760e-08	
102	-5.10000e+00	4.037852e-08	
103	-5.15000e+00	4.040053e-08	
104	-5.20000e+00	4.042359e-08	
105	-5.25000e+00	4.044770e-08	
106	-5.30000e+00	4.047283e-08	
107	-5.35000e+00	4.049896e-08	
108	-5.40000e+00	4.052607e-08	
109	-5.45000e+00	4.055414e-08	
110	-5.50000e+00	4.058315e-08	
111	-5.55000e+00	4.061308e-08	
112	-5.60000e+00	4.064393e-08	

Index   v-sweep         rds             
--------------------------------------------------------------------------------
113	-5.65000e+00	4.067566e-08	
114	-5.70000e+00	4.070827e-08	
115	-5.75000e+00	4.074175e-08	
116	-5.80000e+00	4.077607e-08	
117	-5.85000e+00	4.081123e-08	
118	-5.90000e+00	4.084721e-08	
119	-5.95000e+00	4.088400e-08	
120	-6.00000e+00	4.092159e-08	
121	-6.05000e+00	4.095997e-08	
122	-6.10000e+00	4.099912e-08	
123	-6.15000e+00	4.103904e-08	
124	-6.20000e+00	4.107971e-08	
125	-6.25000e+00	4.112113e-08	
126	-6.30000e+00	4.116329e-08	
127	-6.35000e+00	4.120617e-08	
128	-6.40000e+00	4.124977e-08	
129	-6.45000e+00	4.129409e-08	
130	-6.50000e+00	4.133911e-08	
131	-6.55000e+00	4.138482e-08	
132	-6.60000e+00	4.143122e-08	
Reset re-loads circuit ***************************

Circuit: ***************************

Doing analysis at TEMP = -40.000000 and TNOM = -40.000000


No. of Data Rows : 133
                          ***************************
                          DC transfer characteristic  Mon Jan  9 13:58:53  2023
--------------------------------------------------------------------------------
Index   v-sweep         rds             
--------------------------------------------------------------------------------
0	0.000000e+00	2.332826e-05	
1	-5.00000e-02	2.173613e-05	
2	-1.00000e-01	2.017971e-05	
3	-1.50000e-01	1.865815e-05	
4	-2.00000e-01	1.717071e-05	
5	-2.50000e-01	1.571668e-05	
6	-3.00000e-01	1.429551e-05	
7	-3.50000e-01	1.290683e-05	
8	-4.00000e-01	1.155064e-05	
9	-4.50000e-01	1.022753e-05	
10	-5.00000e-01	8.939334e-06	
11	-5.50000e-01	7.690390e-06	
12	-6.00000e-01	6.490251e-06	
13	-6.50000e-01	5.359140e-06	
14	-7.00000e-01	4.335848e-06	
15	-7.50000e-01	3.477991e-06	
16	-8.00000e-01	2.831610e-06	
17	-8.50000e-01	2.386244e-06	
18	-9.00000e-01	2.084973e-06	
19	-9.50000e-01	1.871693e-06	
20	-1.00000e+00	1.710809e-06	
21	-1.05000e+00	1.582850e-06	
22	-1.10000e+00	1.477185e-06	
23	-1.15000e+00	1.387644e-06	
24	-1.20000e+00	1.310369e-06	
25	-1.25000e+00	1.242771e-06	
26	-1.30000e+00	1.183015e-06	
27	-1.35000e+00	1.129742e-06	
28	-1.40000e+00	1.081912e-06	
29	-1.45000e+00	1.038708e-06	
30	-1.50000e+00	9.994774e-07	
31	-1.55000e+00	9.636882e-07	
32	-1.60000e+00	9.309024e-07	
33	-1.65000e+00	9.007547e-07	
34	-1.70000e+00	8.729379e-07	
35	-1.75000e+00	8.471916e-07	
36	-1.80000e+00	8.232928e-07	
37	-1.85000e+00	8.010502e-07	
38	-1.90000e+00	7.802978e-07	
39	-1.95000e+00	7.608914e-07	
40	-2.00000e+00	7.427049e-07	
41	-2.05000e+00	7.256276e-07	
42	-2.10000e+00	7.095618e-07	
43	-2.15000e+00	6.944208e-07	
44	-2.20000e+00	6.801277e-07	
45	-2.25000e+00	6.666140e-07	
46	-2.30000e+00	6.538183e-07	
47	-2.35000e+00	6.416854e-07	
48	-2.40000e+00	6.301657e-07	
49	-2.45000e+00	6.192145e-07	
50	-2.50000e+00	6.087912e-07	
51	-2.55000e+00	5.988591e-07	
52	-2.60000e+00	5.893846e-07	
53	-2.65000e+00	5.803375e-07	
54	-2.70000e+00	5.716898e-07	

Index   v-sweep         rds             
--------------------------------------------------------------------------------
55	-2.75000e+00	5.634160e-07	
56	-2.80000e+00	5.554929e-07	
57	-2.85000e+00	5.478990e-07	
58	-2.90000e+00	5.406145e-07	
59	-2.95000e+00	5.336212e-07	
60	-3.00000e+00	5.269025e-07	
61	-3.05000e+00	5.204426e-07	
62	-3.10000e+00	5.142273e-07	
63	-3.15000e+00	5.082432e-07	
64	-3.20000e+00	5.024780e-07	
65	-3.25000e+00	4.969200e-07	
66	-3.30000e+00	4.915587e-07	
67	-3.35000e+00	4.863839e-07	
68	-3.40000e+00	4.813864e-07	
69	-3.45000e+00	4.765574e-07	
70	-3.50000e+00	4.718887e-07	
71	-3.55000e+00	4.673728e-07	
72	-3.60000e+00	4.630025e-07	
73	-3.65000e+00	4.587711e-07	
74	-3.70000e+00	4.546722e-07	
75	-3.75000e+00	4.506999e-07	
76	-3.80000e+00	4.468487e-07	
77	-3.85000e+00	4.431132e-07	
78	-3.90000e+00	4.394886e-07	
79	-3.95000e+00	4.359701e-07	
80	-4.00000e+00	4.325534e-07	
81	-4.05000e+00	4.292343e-07	
82	-4.10000e+00	4.260089e-07	
83	-4.15000e+00	4.228734e-07	
84	-4.20000e+00	4.198243e-07	
85	-4.25000e+00	4.168583e-07	
86	-4.30000e+00	4.139723e-07	
87	-4.35000e+00	4.111632e-07	
88	-4.40000e+00	4.084281e-07	
89	-4.45000e+00	4.057645e-07	
90	-4.50000e+00	4.031697e-07	
91	-4.55000e+00	4.006413e-07	
92	-4.60000e+00	3.981771e-07	
93	-4.65000e+00	3.957747e-07	
94	-4.70000e+00	3.934321e-07	
95	-4.75000e+00	3.911474e-07	
96	-4.80000e+00	3.889185e-07	
97	-4.85000e+00	3.867438e-07	
98	-4.90000e+00	3.846215e-07	
99	-4.95000e+00	3.825500e-07	
100	-5.00000e+00	3.805276e-07	
101	-5.05000e+00	3.785530e-07	
102	-5.10000e+00	3.766246e-07	
103	-5.15000e+00	3.747412e-07	
104	-5.20000e+00	3.729014e-07	
105	-5.25000e+00	3.711040e-07	
106	-5.30000e+00	3.693478e-07	
107	-5.35000e+00	3.676316e-07	
108	-5.40000e+00	3.659544e-07	
109	-5.45000e+00	3.643152e-07	
110	-5.50000e+00	3.627129e-07	
111	-5.55000e+00	3.611467e-07	
112	-5.60000e+00	3.596155e-07	

Index   v-sweep         rds             
--------------------------------------------------------------------------------
113	-5.65000e+00	3.581185e-07	
114	-5.70000e+00	3.566549e-07	
115	-5.75000e+00	3.552239e-07	
116	-5.80000e+00	3.538246e-07	
117	-5.85000e+00	3.524565e-07	
118	-5.90000e+00	3.511187e-07	
119	-5.95000e+00	3.498105e-07	
120	-6.00000e+00	3.485314e-07	
121	-6.05000e+00	3.472807e-07	
122	-6.10000e+00	3.460577e-07	
123	-6.15000e+00	3.448620e-07	
124	-6.20000e+00	3.436929e-07	
125	-6.25000e+00	3.425498e-07	
126	-6.30000e+00	3.414324e-07	
127	-6.35000e+00	3.403400e-07	
128	-6.40000e+00	3.392722e-07	
129	-6.45000e+00	3.382285e-07	
130	-6.50000e+00	3.372084e-07	
131	-6.55000e+00	3.362116e-07	
132	-6.60000e+00	3.352376e-07	
Reset re-loads circuit ***************************

Circuit: ***************************

Doing analysis at TEMP = -40.000000 and TNOM = -40.000000


No. of Data Rows : 133
                          ***************************
                          DC transfer characteristic  Mon Jan  9 13:58:53  2023
--------------------------------------------------------------------------------
Index   v-sweep         rds             
--------------------------------------------------------------------------------
0	0.000000e+00	3.957724e-05	
1	-5.00000e-02	3.798262e-05	
2	-1.00000e-01	3.641642e-05	
3	-1.50000e-01	3.487809e-05	
4	-2.00000e-01	3.336709e-05	
5	-2.50000e-01	3.188289e-05	
6	-3.00000e-01	3.042498e-05	
7	-3.50000e-01	2.899286e-05	
8	-4.00000e-01	2.758603e-05	
9	-4.50000e-01	2.620403e-05	
10	-5.00000e-01	2.484640e-05	
11	-5.50000e-01	2.351271e-05	
12	-6.00000e-01	2.220253e-05	
13	-6.50000e-01	2.091550e-05	
14	-7.00000e-01	1.965128e-05	
15	-7.50000e-01	1.840957e-05	
16	-8.00000e-01	1.719019e-05	
17	-8.50000e-01	1.599305e-05	
18	-9.00000e-01	1.481827e-05	
19	-9.50000e-01	1.366628e-05	
20	-1.00000e+00	1.253804e-05	
21	-1.05000e+00	1.143541e-05	
22	-1.10000e+00	1.036189e-05	
23	-1.15000e+00	9.323723e-06	
24	-1.20000e+00	8.331653e-06	
25	-1.25000e+00	7.402565e-06	
26	-1.30000e+00	6.558645e-06	
27	-1.35000e+00	5.820744e-06	
28	-1.40000e+00	5.197950e-06	
29	-1.45000e+00	4.683284e-06	
30	-1.50000e+00	4.259692e-06	
31	-1.55000e+00	3.908480e-06	
32	-1.60000e+00	3.613764e-06	
33	-1.65000e+00	3.363312e-06	
34	-1.70000e+00	3.147970e-06	
35	-1.75000e+00	2.960881e-06	
36	-1.80000e+00	2.796850e-06	
37	-1.85000e+00	2.651875e-06	
38	-1.90000e+00	2.522830e-06	
39	-1.95000e+00	2.407235e-06	
40	-2.00000e+00	2.303101e-06	
41	-2.05000e+00	2.208812e-06	
42	-2.10000e+00	2.123040e-06	
43	-2.15000e+00	2.044688e-06	
44	-2.20000e+00	1.972838e-06	
45	-2.25000e+00	1.906717e-06	
46	-2.30000e+00	1.845669e-06	
47	-2.35000e+00	1.789137e-06	
48	-2.40000e+00	1.736640e-06	
49	-2.45000e+00	1.687763e-06	
50	-2.50000e+00	1.642147e-06	
51	-2.55000e+00	1.599478e-06	
52	-2.60000e+00	1.559482e-06	
53	-2.65000e+00	1.521916e-06	
54	-2.70000e+00	1.486568e-06	

Index   v-sweep         rds             
--------------------------------------------------------------------------------
55	-2.75000e+00	1.453247e-06	
56	-2.80000e+00	1.421787e-06	
57	-2.85000e+00	1.392036e-06	
58	-2.90000e+00	1.363860e-06	
59	-2.95000e+00	1.337138e-06	
60	-3.00000e+00	1.311761e-06	
61	-3.05000e+00	1.287632e-06	
62	-3.10000e+00	1.264661e-06	
63	-3.15000e+00	1.242767e-06	
64	-3.20000e+00	1.221878e-06	
65	-3.25000e+00	1.201926e-06	
66	-3.30000e+00	1.182851e-06	
67	-3.35000e+00	1.164596e-06	
68	-3.40000e+00	1.147110e-06	
69	-3.45000e+00	1.130346e-06	
70	-3.50000e+00	1.114261e-06	
71	-3.55000e+00	1.098815e-06	
72	-3.60000e+00	1.083971e-06	
73	-3.65000e+00	1.069694e-06	
74	-3.70000e+00	1.055954e-06	
75	-3.75000e+00	1.042722e-06	
76	-3.80000e+00	1.029969e-06	
77	-3.85000e+00	1.017671e-06	
78	-3.90000e+00	1.005804e-06	
79	-3.95000e+00	9.943456e-07	
80	-4.00000e+00	9.832763e-07	
81	-4.05000e+00	9.725767e-07	
82	-4.10000e+00	9.622287e-07	
83	-4.15000e+00	9.522156e-07	
84	-4.20000e+00	9.425218e-07	
85	-4.25000e+00	9.331325e-07	
86	-4.30000e+00	9.240338e-07	
87	-4.35000e+00	9.152128e-07	
88	-4.40000e+00	9.066573e-07	
89	-4.45000e+00	8.983557e-07	
90	-4.50000e+00	8.902973e-07	
91	-4.55000e+00	8.824716e-07	
92	-4.60000e+00	8.748693e-07	
93	-4.65000e+00	8.674810e-07	
94	-4.70000e+00	8.602982e-07	
95	-4.75000e+00	8.533129e-07	
96	-4.80000e+00	8.465171e-07	
97	-4.85000e+00	8.399038e-07	
98	-4.90000e+00	8.334660e-07	
99	-4.95000e+00	8.271971e-07	
100	-5.00000e+00	8.210910e-07	
101	-5.05000e+00	8.151418e-07	
102	-5.10000e+00	8.093438e-07	
103	-5.15000e+00	8.036918e-07	
104	-5.20000e+00	7.981808e-07	
105	-5.25000e+00	7.928059e-07	
106	-5.30000e+00	7.875627e-07	
107	-5.35000e+00	7.824468e-07	
108	-5.40000e+00	7.774540e-07	
109	-5.45000e+00	7.725805e-07	
110	-5.50000e+00	7.678225e-07	
111	-5.55000e+00	7.631765e-07	
112	-5.60000e+00	7.586390e-07	

Index   v-sweep         rds             
--------------------------------------------------------------------------------
113	-5.65000e+00	7.542069e-07	
114	-5.70000e+00	7.498771e-07	
115	-5.75000e+00	7.456466e-07	
116	-5.80000e+00	7.415126e-07	
117	-5.85000e+00	7.374724e-07	
118	-5.90000e+00	7.335235e-07	
119	-5.95000e+00	7.296635e-07	
120	-6.00000e+00	7.258899e-07	
121	-6.05000e+00	7.222006e-07	
122	-6.10000e+00	7.185935e-07	
123	-6.15000e+00	7.150664e-07	
124	-6.20000e+00	7.116174e-07	
125	-6.25000e+00	7.082447e-07	
126	-6.30000e+00	7.049464e-07	
127	-6.35000e+00	7.017208e-07	
128	-6.40000e+00	6.985663e-07	
129	-6.45000e+00	6.954812e-07	
130	-6.50000e+00	6.924642e-07	
131	-6.55000e+00	6.895136e-07	
132	-6.60000e+00	6.866281e-07	
Reset re-loads circuit ***************************

Circuit: ***************************

Doing analysis at TEMP = -40.000000 and TNOM = -40.000000


No. of Data Rows : 133
                          ***************************
                          DC transfer characteristic  Mon Jan  9 13:58:53  2023
--------------------------------------------------------------------------------
Index   v-sweep         rds             
--------------------------------------------------------------------------------
0	0.000000e+00	5.164993e-05	
1	-5.00000e-02	5.011658e-05	
2	-1.00000e-01	4.860596e-05	
3	-1.50000e-01	4.711770e-05	
4	-2.00000e-01	4.565146e-05	
5	-2.50000e-01	4.420688e-05	
6	-3.00000e-01	4.278362e-05	
7	-3.50000e-01	4.138134e-05	
8	-4.00000e-01	3.999970e-05	
9	-4.50000e-01	3.863839e-05	
10	-5.00000e-01	3.729708e-05	
11	-5.50000e-01	3.597545e-05	
12	-6.00000e-01	3.467319e-05	
13	-6.50000e-01	3.339000e-05	
14	-7.00000e-01	3.212557e-05	
15	-7.50000e-01	3.087962e-05	
16	-8.00000e-01	2.965187e-05	
17	-8.50000e-01	2.844203e-05	
18	-9.00000e-01	2.724984e-05	
19	-9.50000e-01	2.607504e-05	
20	-1.00000e+00	2.491739e-05	
21	-1.05000e+00	2.377665e-05	
22	-1.10000e+00	2.265261e-05	
23	-1.15000e+00	2.154508e-05	
24	-1.20000e+00	2.045390e-05	
25	-1.25000e+00	1.937892e-05	
26	-1.30000e+00	1.832010e-05	
27	-1.35000e+00	1.727743e-05	
28	-1.40000e+00	1.625102e-05	
29	-1.45000e+00	1.524120e-05	
30	-1.50000e+00	1.424852e-05	
31	-1.55000e+00	1.327402e-05	
32	-1.60000e+00	1.231946e-05	
33	-1.65000e+00	1.138784e-05	
34	-1.70000e+00	1.048409e-05	
35	-1.75000e+00	9.615926e-06	
36	-1.80000e+00	8.794274e-06	
37	-1.85000e+00	8.031993e-06	
38	-1.90000e+00	7.340452e-06	
39	-1.95000e+00	6.725693e-06	
40	-2.00000e+00	6.187023e-06	
41	-2.05000e+00	5.718560e-06	
42	-2.10000e+00	5.311872e-06	
43	-2.15000e+00	4.958074e-06	
44	-2.20000e+00	4.648959e-06	
45	-2.25000e+00	4.377429e-06	
46	-2.30000e+00	4.137535e-06	
47	-2.35000e+00	3.924367e-06	
48	-2.40000e+00	3.733894e-06	
49	-2.45000e+00	3.562803e-06	
50	-2.50000e+00	3.408367e-06	
51	-2.55000e+00	3.268326e-06	
52	-2.60000e+00	3.140800e-06	
53	-2.65000e+00	3.024214e-06	
54	-2.70000e+00	2.917240e-06	

Index   v-sweep         rds             
--------------------------------------------------------------------------------
55	-2.75000e+00	2.818754e-06	
56	-2.80000e+00	2.727799e-06	
57	-2.85000e+00	2.643552e-06	
58	-2.90000e+00	2.565307e-06	
59	-2.95000e+00	2.492451e-06	
60	-3.00000e+00	2.424452e-06	
61	-3.05000e+00	2.360845e-06	
62	-3.10000e+00	2.301221e-06	
63	-3.15000e+00	2.245222e-06	
64	-3.20000e+00	2.192529e-06	
65	-3.25000e+00	2.142861e-06	
66	-3.30000e+00	2.095967e-06	
67	-3.35000e+00	2.051623e-06	
68	-3.40000e+00	2.009628e-06	
69	-3.45000e+00	1.969803e-06	
70	-3.50000e+00	1.931984e-06	
71	-3.55000e+00	1.896025e-06	
72	-3.60000e+00	1.861794e-06	
73	-3.65000e+00	1.829170e-06	
74	-3.70000e+00	1.798044e-06	
75	-3.75000e+00	1.768315e-06	
76	-3.80000e+00	1.739893e-06	
77	-3.85000e+00	1.712694e-06	
78	-3.90000e+00	1.686642e-06	
79	-3.95000e+00	1.661666e-06	
80	-4.00000e+00	1.637701e-06	
81	-4.05000e+00	1.614689e-06	
82	-4.10000e+00	1.592574e-06	
83	-4.15000e+00	1.571305e-06	
84	-4.20000e+00	1.550835e-06	
85	-4.25000e+00	1.531120e-06	
86	-4.30000e+00	1.512120e-06	
87	-4.35000e+00	1.493798e-06	
88	-4.40000e+00	1.476117e-06	
89	-4.45000e+00	1.459045e-06	
90	-4.50000e+00	1.442553e-06	
91	-4.55000e+00	1.426610e-06	
92	-4.60000e+00	1.411191e-06	
93	-4.65000e+00	1.396271e-06	
94	-4.70000e+00	1.381826e-06	
95	-4.75000e+00	1.367834e-06	
96	-4.80000e+00	1.354275e-06	
97	-4.85000e+00	1.341129e-06	
98	-4.90000e+00	1.328378e-06	
99	-4.95000e+00	1.316005e-06	
100	-5.00000e+00	1.303993e-06	
101	-5.05000e+00	1.292328e-06	
102	-5.10000e+00	1.280996e-06	
103	-5.15000e+00	1.269981e-06	
104	-5.20000e+00	1.259273e-06	
105	-5.25000e+00	1.248859e-06	
106	-5.30000e+00	1.238726e-06	
107	-5.35000e+00	1.228865e-06	
108	-5.40000e+00	1.219266e-06	
109	-5.45000e+00	1.209918e-06	
110	-5.50000e+00	1.200812e-06	
111	-5.55000e+00	1.191939e-06	
112	-5.60000e+00	1.183292e-06	

Index   v-sweep         rds             
--------------------------------------------------------------------------------
113	-5.65000e+00	1.174863e-06	
114	-5.70000e+00	1.166643e-06	
115	-5.75000e+00	1.158626e-06	
116	-5.80000e+00	1.150805e-06	
117	-5.85000e+00	1.143174e-06	
118	-5.90000e+00	1.135727e-06	
119	-5.95000e+00	1.128457e-06	
120	-6.00000e+00	1.121360e-06	
121	-6.05000e+00	1.114430e-06	
122	-6.10000e+00	1.107662e-06	
123	-6.15000e+00	1.101051e-06	
124	-6.20000e+00	1.094593e-06	
125	-6.25000e+00	1.088284e-06	
126	-6.30000e+00	1.082119e-06	
127	-6.35000e+00	1.076094e-06	
128	-6.40000e+00	1.070206e-06	
129	-6.45000e+00	1.064451e-06	
130	-6.50000e+00	1.058826e-06	
131	-6.55000e+00	1.053327e-06	
132	-6.60000e+00	1.047951e-06	
Reset re-loads circuit ***************************

Circuit: ***************************

Doing analysis at TEMP = -40.000000 and TNOM = -40.000000


No. of Data Rows : 133
                          ***************************
                          DC transfer characteristic  Mon Jan  9 13:58:53  2023
--------------------------------------------------------------------------------
Index   v-sweep         rds             
--------------------------------------------------------------------------------
0	0.000000e+00	6.415658e-05	
1	-5.00000e-02	6.266793e-05	
2	-1.00000e-01	6.119802e-05	
3	-1.50000e-01	5.974660e-05	
4	-2.00000e-01	5.831342e-05	
5	-2.50000e-01	5.689825e-05	
6	-3.00000e-01	5.550085e-05	
7	-3.50000e-01	5.412098e-05	
8	-4.00000e-01	5.275842e-05	
9	-4.50000e-01	5.141293e-05	
10	-5.00000e-01	5.008429e-05	
11	-5.50000e-01	4.877227e-05	
12	-6.00000e-01	4.747665e-05	
13	-6.50000e-01	4.619721e-05	
14	-7.00000e-01	4.493374e-05	
15	-7.50000e-01	4.368602e-05	
16	-8.00000e-01	4.245385e-05	
17	-8.50000e-01	4.123701e-05	
18	-9.00000e-01	4.003530e-05	
19	-9.50000e-01	3.884853e-05	
20	-1.00000e+00	3.767648e-05	
21	-1.05000e+00	3.651897e-05	
22	-1.10000e+00	3.537581e-05	
23	-1.15000e+00	3.424680e-05	
24	-1.20000e+00	3.313177e-05	
25	-1.25000e+00	3.203052e-05	
26	-1.30000e+00	3.094288e-05	
27	-1.35000e+00	2.986869e-05	
28	-1.40000e+00	2.880775e-05	
29	-1.45000e+00	2.775992e-05	
30	-1.50000e+00	2.672502e-05	
31	-1.55000e+00	2.570288e-05	
32	-1.60000e+00	2.469336e-05	
33	-1.65000e+00	2.369628e-05	
34	-1.70000e+00	2.271149e-05	
35	-1.75000e+00	2.173880e-05	
36	-1.80000e+00	2.077804e-05	
37	-1.85000e+00	1.982899e-05	
38	-1.90000e+00	1.889137e-05	
39	-1.95000e+00	1.796484e-05	
40	-2.00000e+00	1.704892e-05	
41	-2.05000e+00	1.614295e-05	
42	-2.10000e+00	1.524605e-05	
43	-2.15000e+00	1.435725e-05	
44	-2.20000e+00	1.347583e-05	
45	-2.25000e+00	1.260245e-05	
46	-2.30000e+00	1.174096e-05	
47	-2.35000e+00	1.090017e-05	
48	-2.40000e+00	1.009381e-05	
49	-2.45000e+00	9.337213e-06	
50	-2.50000e+00	8.642572e-06	
51	-2.55000e+00	8.015938e-06	
52	-2.60000e+00	7.457255e-06	
53	-2.65000e+00	6.962251e-06	
54	-2.70000e+00	6.524542e-06	

Index   v-sweep         rds             
--------------------------------------------------------------------------------
55	-2.75000e+00	6.137155e-06	
56	-2.80000e+00	5.793394e-06	
57	-2.85000e+00	5.487232e-06	
58	-2.90000e+00	5.213427e-06	
59	-2.95000e+00	4.967504e-06	
60	-3.00000e+00	4.745673e-06	
61	-3.05000e+00	4.544740e-06	
62	-3.10000e+00	4.362009e-06	
63	-3.15000e+00	4.195203e-06	
64	-3.20000e+00	4.042391e-06	
65	-3.25000e+00	3.901931e-06	
66	-3.30000e+00	3.772419e-06	
67	-3.35000e+00	3.652650e-06	
68	-3.40000e+00	3.541586e-06	
69	-3.45000e+00	3.438327e-06	
70	-3.50000e+00	3.342092e-06	
71	-3.55000e+00	3.252199e-06	
72	-3.60000e+00	3.168049e-06	
73	-3.65000e+00	3.089117e-06	
74	-3.70000e+00	3.014938e-06	
75	-3.75000e+00	2.945101e-06	
76	-3.80000e+00	2.879239e-06	
77	-3.85000e+00	2.817026e-06	
78	-3.90000e+00	2.758171e-06	
79	-3.95000e+00	2.702412e-06	
80	-4.00000e+00	2.649513e-06	
81	-4.05000e+00	2.599262e-06	
82	-4.10000e+00	2.551467e-06	
83	-4.15000e+00	2.505954e-06	
84	-4.20000e+00	2.462566e-06	
85	-4.25000e+00	2.421158e-06	
86	-4.30000e+00	2.381599e-06	
87	-4.35000e+00	2.343769e-06	
88	-4.40000e+00	2.307559e-06	
89	-4.45000e+00	2.272867e-06	
90	-4.50000e+00	2.239602e-06	
91	-4.55000e+00	2.207678e-06	
92	-4.60000e+00	2.177015e-06	
93	-4.65000e+00	2.147543e-06	
94	-4.70000e+00	2.119192e-06	
95	-4.75000e+00	2.091902e-06	
96	-4.80000e+00	2.065615e-06	
97	-4.85000e+00	2.040276e-06	
98	-4.90000e+00	2.015837e-06	
99	-4.95000e+00	1.992250e-06	
100	-5.00000e+00	1.969472e-06	
101	-5.05000e+00	1.947464e-06	
102	-5.10000e+00	1.926186e-06	
103	-5.15000e+00	1.905605e-06	
104	-5.20000e+00	1.885686e-06	
105	-5.25000e+00	1.866399e-06	
106	-5.30000e+00	1.847715e-06	
107	-5.35000e+00	1.829606e-06	
108	-5.40000e+00	1.812047e-06	
109	-5.45000e+00	1.795013e-06	
110	-5.50000e+00	1.778483e-06	
111	-5.55000e+00	1.762434e-06	
112	-5.60000e+00	1.746846e-06	

Index   v-sweep         rds             
--------------------------------------------------------------------------------
113	-5.65000e+00	1.731701e-06	
114	-5.70000e+00	1.716980e-06	
115	-5.75000e+00	1.702666e-06	
116	-5.80000e+00	1.688744e-06	
117	-5.85000e+00	1.675198e-06	
118	-5.90000e+00	1.662014e-06	
119	-5.95000e+00	1.649179e-06	
120	-6.00000e+00	1.636679e-06	
121	-6.05000e+00	1.624502e-06	
122	-6.10000e+00	1.612637e-06	
123	-6.15000e+00	1.601072e-06	
124	-6.20000e+00	1.589799e-06	
125	-6.25000e+00	1.578805e-06	
126	-6.30000e+00	1.568084e-06	
127	-6.35000e+00	1.557624e-06	
128	-6.40000e+00	1.547418e-06	
129	-6.45000e+00	1.537458e-06	
130	-6.50000e+00	1.527737e-06	
131	-6.55000e+00	1.518246e-06	
132	-6.60000e+00	1.508980e-06	
Reset re-loads circuit ***************************

Circuit: ***************************

Doing analysis at TEMP = -40.000000 and TNOM = -40.000000


No. of Data Rows : 133
                          ***************************
                          DC transfer characteristic  Mon Jan  9 13:58:53  2023
--------------------------------------------------------------------------------
Index   v-sweep         rds             
--------------------------------------------------------------------------------
0	0.000000e+00	7.207593e-05	
1	-5.00000e-02	7.066699e-05	
2	-1.00000e-01	6.927352e-05	
3	-1.50000e-01	6.789534e-05	
4	-2.00000e-01	6.653228e-05	
5	-2.50000e-01	6.518416e-05	
6	-3.00000e-01	6.385083e-05	
7	-3.50000e-01	6.253210e-05	
8	-4.00000e-01	6.122783e-05	
9	-4.50000e-01	5.993783e-05	
10	-5.00000e-01	5.866195e-05	
11	-5.50000e-01	5.740003e-05	
12	-6.00000e-01	5.615191e-05	
13	-6.50000e-01	5.491743e-05	
14	-7.00000e-01	5.369643e-05	
15	-7.50000e-01	5.248875e-05	
16	-8.00000e-01	5.129424e-05	
17	-8.50000e-01	5.011276e-05	
18	-9.00000e-01	4.894414e-05	
19	-9.50000e-01	4.778825e-05	
20	-1.00000e+00	4.664493e-05	
21	-1.05000e+00	4.551403e-05	
22	-1.10000e+00	4.439542e-05	
23	-1.15000e+00	4.328895e-05	
24	-1.20000e+00	4.219448e-05	
25	-1.25000e+00	4.111187e-05	
26	-1.30000e+00	4.004099e-05	
27	-1.35000e+00	3.898170e-05	
28	-1.40000e+00	3.793387e-05	
29	-1.45000e+00	3.689736e-05	
30	-1.50000e+00	3.587205e-05	
31	-1.55000e+00	3.485781e-05	
32	-1.60000e+00	3.385451e-05	
33	-1.65000e+00	3.286203e-05	
34	-1.70000e+00	3.188025e-05	
35	-1.75000e+00	3.090903e-05	
36	-1.80000e+00	2.994825e-05	
37	-1.85000e+00	2.899780e-05	
38	-1.90000e+00	2.805754e-05	
39	-1.95000e+00	2.712734e-05	
40	-2.00000e+00	2.620707e-05	
41	-2.05000e+00	2.529657e-05	
42	-2.10000e+00	2.439568e-05	
43	-2.15000e+00	2.350418e-05	
44	-2.20000e+00	2.262184e-05	
45	-2.25000e+00	2.174834e-05	
46	-2.30000e+00	2.088325e-05	
47	-2.35000e+00	2.002597e-05	
48	-2.40000e+00	1.917566e-05	
49	-2.45000e+00	1.833111e-05	
50	-2.50000e+00	1.749063e-05	
51	-2.55000e+00	1.665197e-05	
52	-2.60000e+00	1.581243e-05	
53	-2.65000e+00	1.496942e-05	
54	-2.70000e+00	1.412185e-05	

Index   v-sweep         rds             
--------------------------------------------------------------------------------
55	-2.75000e+00	1.327225e-05	
56	-2.80000e+00	1.242882e-05	
57	-2.85000e+00	1.160541e-05	
58	-2.90000e+00	1.081844e-05	
59	-2.95000e+00	1.008243e-05	
60	-3.00000e+00	9.406638e-06	
61	-3.05000e+00	8.794398e-06	
62	-3.10000e+00	8.244343e-06	
63	-3.15000e+00	7.752209e-06	
64	-3.20000e+00	7.312384e-06	
65	-3.25000e+00	6.918935e-06	
66	-3.30000e+00	6.566183e-06	
67	-3.35000e+00	6.248969e-06	
68	-3.40000e+00	5.962745e-06	
69	-3.45000e+00	5.703561e-06	
70	-3.50000e+00	5.468022e-06	
71	-3.55000e+00	5.253220e-06	
72	-3.60000e+00	5.056663e-06	
73	-3.65000e+00	4.876217e-06	
74	-3.70000e+00	4.710051e-06	
75	-3.75000e+00	4.556588e-06	
76	-3.80000e+00	4.414466e-06	
77	-3.85000e+00	4.282503e-06	
78	-3.90000e+00	4.159673e-06	
79	-3.95000e+00	4.045079e-06	
80	-4.00000e+00	3.937936e-06	
81	-4.05000e+00	3.837552e-06	
82	-4.10000e+00	3.743318e-06	
83	-4.15000e+00	3.654695e-06	
84	-4.20000e+00	3.571202e-06	
85	-4.25000e+00	3.492414e-06	
86	-4.30000e+00	3.417950e-06	
87	-4.35000e+00	3.347466e-06	
88	-4.40000e+00	3.280657e-06	
89	-4.45000e+00	3.217245e-06	
90	-4.50000e+00	3.156982e-06	
91	-4.55000e+00	3.099641e-06	
92	-4.60000e+00	3.045016e-06	
93	-4.65000e+00	2.992922e-06	
94	-4.70000e+00	2.943189e-06	
95	-4.75000e+00	2.895661e-06	
96	-4.80000e+00	2.850197e-06	
97	-4.85000e+00	2.806666e-06	
98	-4.90000e+00	2.764949e-06	
99	-4.95000e+00	2.724936e-06	
100	-5.00000e+00	2.686526e-06	
101	-5.05000e+00	2.649626e-06	
102	-5.10000e+00	2.614149e-06	
103	-5.15000e+00	2.580016e-06	
104	-5.20000e+00	2.547151e-06	
105	-5.25000e+00	2.515488e-06	
106	-5.30000e+00	2.484961e-06	
107	-5.35000e+00	2.455512e-06	
108	-5.40000e+00	2.427085e-06	
109	-5.45000e+00	2.399628e-06	
110	-5.50000e+00	2.373094e-06	
111	-5.55000e+00	2.347436e-06	
112	-5.60000e+00	2.322614e-06	

Index   v-sweep         rds             
--------------------------------------------------------------------------------
113	-5.65000e+00	2.298587e-06	
114	-5.70000e+00	2.275319e-06	
115	-5.75000e+00	2.252775e-06	
116	-5.80000e+00	2.230921e-06	
117	-5.85000e+00	2.209729e-06	
118	-5.90000e+00	2.189168e-06	
119	-5.95000e+00	2.169211e-06	
120	-6.00000e+00	2.149833e-06	
121	-6.05000e+00	2.131010e-06	
122	-6.10000e+00	2.112719e-06	
123	-6.15000e+00	2.094938e-06	
124	-6.20000e+00	2.077648e-06	
125	-6.25000e+00	2.060829e-06	
126	-6.30000e+00	2.044463e-06	
127	-6.35000e+00	2.028532e-06	
128	-6.40000e+00	2.013021e-06	
129	-6.45000e+00	1.997914e-06	
130	-6.50000e+00	1.983197e-06	
131	-6.55000e+00	1.968856e-06	
132	-6.60000e+00	1.954877e-06	
Reset re-loads circuit ***************************

Circuit: ***************************

Note: No ".plot", ".print", or ".fourier" lines; no simulations run
