
Note: Compatibility modes selected: hs

Warning: m=xx on .subckt line will override multiplier m hierarchy!


Circuit: ***************************

Doing analysis at TEMP = -40.000000 and TNOM = -40.000000


No. of Data Rows : 133
                          ***************************
                          DC transfer characteristic  Mon Jan  9 13:58:52  2023
--------------------------------------------------------------------------------
Index   v-sweep         rds             
--------------------------------------------------------------------------------
0	0.000000e+00	2.930992e-05	
1	-5.00000e-02	1.250941e-05	
2	-1.00000e-01	3.052522e-06	
3	-1.50000e-01	1.124166e-06	
4	-2.00000e-01	7.867006e-07	
5	-2.50000e-01	6.827773e-07	
6	-3.00000e-01	6.329357e-07	
7	-3.50000e-01	6.022833e-07	
8	-4.00000e-01	5.808126e-07	
9	-4.50000e-01	5.646834e-07	
10	-5.00000e-01	5.520716e-07	
11	-5.50000e-01	5.419668e-07	
12	-6.00000e-01	5.337443e-07	
13	-6.50000e-01	5.269875e-07	
14	-7.00000e-01	5.214023e-07	
15	-7.50000e-01	5.167726e-07	
16	-8.00000e-01	5.129347e-07	
17	-8.50000e-01	5.097617e-07	
18	-9.00000e-01	5.071530e-07	
19	-9.50000e-01	5.050279e-07	
20	-1.00000e+00	5.033205e-07	
21	-1.05000e+00	5.019767e-07	
22	-1.10000e+00	5.009513e-07	
23	-1.15000e+00	5.002066e-07	
24	-1.20000e+00	4.997103e-07	
25	-1.25000e+00	4.994352e-07	
26	-1.30000e+00	4.993580e-07	
27	-1.35000e+00	4.994583e-07	
28	-1.40000e+00	4.997187e-07	
29	-1.45000e+00	5.001240e-07	
30	-1.50000e+00	5.006607e-07	
31	-1.55000e+00	5.013170e-07	
32	-1.60000e+00	5.020827e-07	
33	-1.65000e+00	5.029485e-07	
34	-1.70000e+00	5.039063e-07	
35	-1.75000e+00	5.049487e-07	
36	-1.80000e+00	5.060692e-07	
37	-1.85000e+00	5.072619e-07	
38	-1.90000e+00	5.085217e-07	
39	-1.95000e+00	5.098437e-07	
40	-2.00000e+00	5.112236e-07	
41	-2.05000e+00	5.126575e-07	
42	-2.10000e+00	5.141419e-07	
43	-2.15000e+00	5.156736e-07	
44	-2.20000e+00	5.172495e-07	
45	-2.25000e+00	5.188670e-07	
46	-2.30000e+00	5.205237e-07	
47	-2.35000e+00	5.222172e-07	
48	-2.40000e+00	5.239454e-07	
49	-2.45000e+00	5.257066e-07	
50	-2.50000e+00	5.274987e-07	
51	-2.55000e+00	5.293204e-07	
52	-2.60000e+00	5.311699e-07	
53	-2.65000e+00	5.330460e-07	
54	-2.70000e+00	5.349472e-07	

Index   v-sweep         rds             
--------------------------------------------------------------------------------
55	-2.75000e+00	5.368725e-07	
56	-2.80000e+00	5.388207e-07	
57	-2.85000e+00	5.407906e-07	
58	-2.90000e+00	5.427814e-07	
59	-2.95000e+00	5.447922e-07	
60	-3.00000e+00	5.468221e-07	
61	-3.05000e+00	5.488702e-07	
62	-3.10000e+00	5.509359e-07	
63	-3.15000e+00	5.530184e-07	
64	-3.20000e+00	5.551171e-07	
65	-3.25000e+00	5.572313e-07	
66	-3.30000e+00	5.593606e-07	
67	-3.35000e+00	5.615043e-07	
68	-3.40000e+00	5.636620e-07	
69	-3.45000e+00	5.658331e-07	
70	-3.50000e+00	5.680172e-07	
71	-3.55000e+00	5.702139e-07	
72	-3.60000e+00	5.724228e-07	
73	-3.65000e+00	5.746435e-07	
74	-3.70000e+00	5.768756e-07	
75	-3.75000e+00	5.791189e-07	
76	-3.80000e+00	5.813729e-07	
77	-3.85000e+00	5.836375e-07	
78	-3.90000e+00	5.859123e-07	
79	-3.95000e+00	5.881970e-07	
80	-4.00000e+00	5.904915e-07	
81	-4.05000e+00	5.927954e-07	
82	-4.10000e+00	5.951085e-07	
83	-4.15000e+00	5.974307e-07	
84	-4.20000e+00	5.997618e-07	
85	-4.25000e+00	6.021015e-07	
86	-4.30000e+00	6.044497e-07	
87	-4.35000e+00	6.068062e-07	
88	-4.40000e+00	6.091708e-07	
89	-4.45000e+00	6.115435e-07	
90	-4.50000e+00	6.139241e-07	
91	-4.55000e+00	6.163124e-07	
92	-4.60000e+00	6.187084e-07	
93	-4.65000e+00	6.211119e-07	
94	-4.70000e+00	6.235228e-07	
95	-4.75000e+00	6.259411e-07	
96	-4.80000e+00	6.283665e-07	
97	-4.85000e+00	6.307992e-07	
98	-4.90000e+00	6.332389e-07	
99	-4.95000e+00	6.356856e-07	
100	-5.00000e+00	6.381392e-07	
101	-5.05000e+00	6.405997e-07	
102	-5.10000e+00	6.430670e-07	
103	-5.15000e+00	6.455410e-07	
104	-5.20000e+00	6.480218e-07	
105	-5.25000e+00	6.505092e-07	
106	-5.30000e+00	6.530033e-07	
107	-5.35000e+00	6.555040e-07	
108	-5.40000e+00	6.580112e-07	
109	-5.45000e+00	6.605249e-07	
110	-5.50000e+00	6.630452e-07	
111	-5.55000e+00	6.655719e-07	
112	-5.60000e+00	6.681051e-07	

Index   v-sweep         rds             
--------------------------------------------------------------------------------
113	-5.65000e+00	6.706448e-07	
114	-5.70000e+00	6.731909e-07	
115	-5.75000e+00	6.757434e-07	
116	-5.80000e+00	6.783023e-07	
117	-5.85000e+00	6.808677e-07	
118	-5.90000e+00	6.834394e-07	
119	-5.95000e+00	6.860176e-07	
120	-6.00000e+00	6.886022e-07	
121	-6.05000e+00	6.911932e-07	
122	-6.10000e+00	6.937906e-07	
123	-6.15000e+00	6.963945e-07	
124	-6.20000e+00	6.990047e-07	
125	-6.25000e+00	7.016215e-07	
126	-6.30000e+00	7.042446e-07	
127	-6.35000e+00	7.068743e-07	
128	-6.40000e+00	7.095104e-07	
129	-6.45000e+00	7.121530e-07	
130	-6.50000e+00	7.148022e-07	
131	-6.55000e+00	7.174578e-07	
132	-6.60000e+00	7.201200e-07	
Reset re-loads circuit ***************************

Circuit: ***************************

Doing analysis at TEMP = -40.000000 and TNOM = -40.000000


No. of Data Rows : 133
                          ***************************
                          DC transfer characteristic  Mon Jan  9 13:58:52  2023
--------------------------------------------------------------------------------
Index   v-sweep         rds             
--------------------------------------------------------------------------------
0	0.000000e+00	4.069011e-04	
1	-5.00000e-02	3.788608e-04	
2	-1.00000e-01	3.514275e-04	
3	-1.50000e-01	3.245877e-04	
4	-2.00000e-01	2.983287e-04	
5	-2.50000e-01	2.726396e-04	
6	-3.00000e-01	2.475114e-04	
7	-3.50000e-01	2.229391e-04	
8	-4.00000e-01	1.989239e-04	
9	-4.50000e-01	1.754792e-04	
10	-5.00000e-01	1.526419e-04	
11	-5.50000e-01	1.304984e-04	
12	-6.00000e-01	1.092391e-04	
13	-6.50000e-01	8.926618e-05	
14	-7.00000e-01	7.132602e-05	
15	-7.50000e-01	5.642803e-05	
16	-8.00000e-01	4.520532e-05	
17	-8.50000e-01	3.731316e-05	
18	-9.00000e-01	3.181773e-05	
19	-9.50000e-01	2.787252e-05	
20	-1.00000e+00	2.492173e-05	
21	-1.05000e+00	2.263176e-05	
22	-1.10000e+00	2.080081e-05	
23	-1.15000e+00	1.930180e-05	
24	-1.20000e+00	1.805100e-05	
25	-1.25000e+00	1.699097e-05	
26	-1.30000e+00	1.608093e-05	
27	-1.35000e+00	1.529104e-05	
28	-1.40000e+00	1.459897e-05	
29	-1.45000e+00	1.398761e-05	
30	-1.50000e+00	1.344366e-05	
31	-1.55000e+00	1.295659e-05	
32	-1.60000e+00	1.251798e-05	
33	-1.65000e+00	1.212099e-05	
34	-1.70000e+00	1.176000e-05	
35	-1.75000e+00	1.143037e-05	
36	-1.80000e+00	1.112822e-05	
37	-1.85000e+00	1.085030e-05	
38	-1.90000e+00	1.059384e-05	
39	-1.95000e+00	1.035647e-05	
40	-2.00000e+00	1.013617e-05	
41	-2.05000e+00	9.931195e-06	
42	-2.10000e+00	9.740019e-06	
43	-2.15000e+00	9.561320e-06	
44	-2.20000e+00	9.393938e-06	
45	-2.25000e+00	9.236851e-06	
46	-2.30000e+00	9.089157e-06	
47	-2.35000e+00	8.950056e-06	
48	-2.40000e+00	8.818837e-06	
49	-2.45000e+00	8.694863e-06	
50	-2.50000e+00	8.577567e-06	
51	-2.55000e+00	8.466437e-06	
52	-2.60000e+00	8.361013e-06	
53	-2.65000e+00	8.260878e-06	
54	-2.70000e+00	8.165657e-06	

Index   v-sweep         rds             
--------------------------------------------------------------------------------
55	-2.75000e+00	8.075008e-06	
56	-2.80000e+00	7.988620e-06	
57	-2.85000e+00	7.906209e-06	
58	-2.90000e+00	7.827518e-06	
59	-2.95000e+00	7.752309e-06	
60	-3.00000e+00	7.680365e-06	
61	-3.05000e+00	7.611487e-06	
62	-3.10000e+00	7.545490e-06	
63	-3.15000e+00	7.482206e-06	
64	-3.20000e+00	7.421477e-06	
65	-3.25000e+00	7.363160e-06	
66	-3.30000e+00	7.307121e-06	
67	-3.35000e+00	7.253235e-06	
68	-3.40000e+00	7.201387e-06	
69	-3.45000e+00	7.151470e-06	
70	-3.50000e+00	7.103384e-06	
71	-3.55000e+00	7.057035e-06	
72	-3.60000e+00	7.012338e-06	
73	-3.65000e+00	6.969212e-06	
74	-3.70000e+00	6.927579e-06	
75	-3.75000e+00	6.887369e-06	
76	-3.80000e+00	6.848517e-06	
77	-3.85000e+00	6.810958e-06	
78	-3.90000e+00	6.774636e-06	
79	-3.95000e+00	6.739494e-06	
80	-4.00000e+00	6.705481e-06	
81	-4.05000e+00	6.672549e-06	
82	-4.10000e+00	6.640651e-06	
83	-4.15000e+00	6.609745e-06	
84	-4.20000e+00	6.579790e-06	
85	-4.25000e+00	6.550747e-06	
86	-4.30000e+00	6.522581e-06	
87	-4.35000e+00	6.495256e-06	
88	-4.40000e+00	6.468742e-06	
89	-4.45000e+00	6.443006e-06	
90	-4.50000e+00	6.418021e-06	
91	-4.55000e+00	6.393759e-06	
92	-4.60000e+00	6.370194e-06	
93	-4.65000e+00	6.347302e-06	
94	-4.70000e+00	6.325059e-06	
95	-4.75000e+00	6.303444e-06	
96	-4.80000e+00	6.282435e-06	
97	-4.85000e+00	6.262013e-06	
98	-4.90000e+00	6.242158e-06	
99	-4.95000e+00	6.222854e-06	
100	-5.00000e+00	6.204083e-06	
101	-5.05000e+00	6.185830e-06	
102	-5.10000e+00	6.168078e-06	
103	-5.15000e+00	6.150813e-06	
104	-5.20000e+00	6.134022e-06	
105	-5.25000e+00	6.117692e-06	
106	-5.30000e+00	6.101809e-06	
107	-5.35000e+00	6.086362e-06	
108	-5.40000e+00	6.071340e-06	
109	-5.45000e+00	6.056732e-06	
110	-5.50000e+00	6.042528e-06	
111	-5.55000e+00	6.028718e-06	
112	-5.60000e+00	6.015292e-06	

Index   v-sweep         rds             
--------------------------------------------------------------------------------
113	-5.65000e+00	6.002242e-06	
114	-5.70000e+00	5.989559e-06	
115	-5.75000e+00	5.977235e-06	
116	-5.80000e+00	5.965263e-06	
117	-5.85000e+00	5.953634e-06	
118	-5.90000e+00	5.942343e-06	
119	-5.95000e+00	5.931382e-06	
120	-6.00000e+00	5.920744e-06	
121	-6.05000e+00	5.910424e-06	
122	-6.10000e+00	5.900416e-06	
123	-6.15000e+00	5.890714e-06	
124	-6.20000e+00	5.881312e-06	
125	-6.25000e+00	5.872205e-06	
126	-6.30000e+00	5.863389e-06	
127	-6.35000e+00	5.854859e-06	
128	-6.40000e+00	5.846609e-06	
129	-6.45000e+00	5.838636e-06	
130	-6.50000e+00	5.830935e-06	
131	-6.55000e+00	5.823502e-06	
132	-6.60000e+00	5.816334e-06	
Reset re-loads circuit ***************************

Circuit: ***************************

Doing analysis at TEMP = -40.000000 and TNOM = -40.000000


No. of Data Rows : 133
                          ***************************
                          DC transfer characteristic  Mon Jan  9 13:58:52  2023
--------------------------------------------------------------------------------
Index   v-sweep         rds             
--------------------------------------------------------------------------------
0	0.000000e+00	6.688988e-04	
1	-5.00000e-02	6.419588e-04	
2	-1.00000e-01	6.154905e-04	
3	-1.50000e-01	5.894846e-04	
4	-2.00000e-01	5.639322e-04	
5	-2.50000e-01	5.388243e-04	
6	-3.00000e-01	5.141522e-04	
7	-3.50000e-01	4.899076e-04	
8	-4.00000e-01	4.660821e-04	
9	-4.50000e-01	4.426677e-04	
10	-5.00000e-01	4.196566e-04	
11	-5.50000e-01	3.970413e-04	
12	-6.00000e-01	3.748147e-04	
13	-6.50000e-01	3.529698e-04	
14	-7.00000e-01	3.315002e-04	
15	-7.50000e-01	3.104000e-04	
16	-8.00000e-01	2.896639e-04	
17	-8.50000e-01	2.692878e-04	
18	-9.00000e-01	2.492687e-04	
19	-9.50000e-01	2.296063e-04	
20	-1.00000e+00	2.103041e-04	
21	-1.05000e+00	1.913729e-04	
22	-1.10000e+00	1.728381e-04	
23	-1.15000e+00	1.547544e-04	
24	-1.20000e+00	1.372366e-04	
25	-1.25000e+00	1.205084e-04	
26	-1.30000e+00	1.049433e-04	
27	-1.35000e+00	9.100830e-05	
28	-1.40000e+00	7.906603e-05	
29	-1.45000e+00	6.919188e-05	
30	-1.50000e+00	6.118881e-05	
31	-1.55000e+00	5.473342e-05	
32	-1.60000e+00	4.949963e-05	
33	-1.65000e+00	4.521288e-05	
34	-1.70000e+00	4.165932e-05	
35	-1.75000e+00	3.867736e-05	
36	-1.80000e+00	3.614589e-05	
37	-1.85000e+00	3.397381e-05	
38	-1.90000e+00	3.209198e-05	
39	-1.95000e+00	3.044734e-05	
40	-2.00000e+00	2.899866e-05	
41	-2.05000e+00	2.771356e-05	
42	-2.10000e+00	2.656627e-05	
43	-2.15000e+00	2.553610e-05	
44	-2.20000e+00	2.460624e-05	
45	-2.25000e+00	2.376291e-05	
46	-2.30000e+00	2.299471e-05	
47	-2.35000e+00	2.229217e-05	
48	-2.40000e+00	2.164731e-05	
49	-2.45000e+00	2.105339e-05	
50	-2.50000e+00	2.050468e-05	
51	-2.55000e+00	1.999625e-05	
52	-2.60000e+00	1.952390e-05	
53	-2.65000e+00	1.908394e-05	
54	-2.70000e+00	1.867320e-05	

Index   v-sweep         rds             
--------------------------------------------------------------------------------
55	-2.75000e+00	1.828891e-05	
56	-2.80000e+00	1.792861e-05	
57	-2.85000e+00	1.759016e-05	
58	-2.90000e+00	1.727165e-05	
59	-2.95000e+00	1.697140e-05	
60	-3.00000e+00	1.668790e-05	
61	-3.05000e+00	1.641982e-05	
62	-3.10000e+00	1.616593e-05	
63	-3.15000e+00	1.592517e-05	
64	-3.20000e+00	1.569655e-05	
65	-3.25000e+00	1.547920e-05	
66	-3.30000e+00	1.527232e-05	
67	-3.35000e+00	1.507518e-05	
68	-3.40000e+00	1.488712e-05	
69	-3.45000e+00	1.470754e-05	
70	-3.50000e+00	1.453589e-05	
71	-3.55000e+00	1.437167e-05	
72	-3.60000e+00	1.421442e-05	
73	-3.65000e+00	1.406370e-05	
74	-3.70000e+00	1.391914e-05	
75	-3.75000e+00	1.378037e-05	
76	-3.80000e+00	1.364705e-05	
77	-3.85000e+00	1.351888e-05	
78	-3.90000e+00	1.339558e-05	
79	-3.95000e+00	1.327688e-05	
80	-4.00000e+00	1.316253e-05	
81	-4.05000e+00	1.305231e-05	
82	-4.10000e+00	1.294600e-05	
83	-4.15000e+00	1.284341e-05	
84	-4.20000e+00	1.274436e-05	
85	-4.25000e+00	1.264865e-05	
86	-4.30000e+00	1.255615e-05	
87	-4.35000e+00	1.246669e-05	
88	-4.40000e+00	1.238014e-05	
89	-4.45000e+00	1.229635e-05	
90	-4.50000e+00	1.221522e-05	
91	-4.55000e+00	1.213661e-05	
92	-4.60000e+00	1.206042e-05	
93	-4.65000e+00	1.198655e-05	
94	-4.70000e+00	1.191490e-05	
95	-4.75000e+00	1.184538e-05	
96	-4.80000e+00	1.177789e-05	
97	-4.85000e+00	1.171237e-05	
98	-4.90000e+00	1.164873e-05	
99	-4.95000e+00	1.158689e-05	
100	-5.00000e+00	1.152680e-05	
101	-5.05000e+00	1.146839e-05	
102	-5.10000e+00	1.141159e-05	
103	-5.15000e+00	1.135635e-05	
104	-5.20000e+00	1.130262e-05	
105	-5.25000e+00	1.125033e-05	
106	-5.30000e+00	1.119945e-05	
107	-5.35000e+00	1.114992e-05	
108	-5.40000e+00	1.110170e-05	
109	-5.45000e+00	1.105476e-05	
110	-5.50000e+00	1.100904e-05	
111	-5.55000e+00	1.096452e-05	
112	-5.60000e+00	1.092116e-05	

Index   v-sweep         rds             
--------------------------------------------------------------------------------
113	-5.65000e+00	1.087892e-05	
114	-5.70000e+00	1.083777e-05	
115	-5.75000e+00	1.079768e-05	
116	-5.80000e+00	1.075863e-05	
117	-5.85000e+00	1.072058e-05	
118	-5.90000e+00	1.068351e-05	
119	-5.95000e+00	1.064740e-05	
120	-6.00000e+00	1.061222e-05	
121	-6.05000e+00	1.057794e-05	
122	-6.10000e+00	1.054455e-05	
123	-6.15000e+00	1.051203e-05	
124	-6.20000e+00	1.048036e-05	
125	-6.25000e+00	1.044951e-05	
126	-6.30000e+00	1.041948e-05	
127	-6.35000e+00	1.039024e-05	
128	-6.40000e+00	1.036178e-05	
129	-6.45000e+00	1.033409e-05	
130	-6.50000e+00	1.030714e-05	
131	-6.55000e+00	1.028093e-05	
132	-6.60000e+00	1.025544e-05	
Reset re-loads circuit ***************************

Circuit: ***************************

Doing analysis at TEMP = -40.000000 and TNOM = -40.000000


No. of Data Rows : 133
                          ***************************
                          DC transfer characteristic  Mon Jan  9 13:58:52  2023
--------------------------------------------------------------------------------
Index   v-sweep         rds             
--------------------------------------------------------------------------------
0	0.000000e+00	8.555081e-04	
1	-5.00000e-02	8.303011e-04	
2	-1.00000e-01	8.054688e-04	
3	-1.50000e-01	7.810047e-04	
4	-2.00000e-01	7.569029e-04	
5	-2.50000e-01	7.331572e-04	
6	-3.00000e-01	7.097618e-04	
7	-3.50000e-01	6.867108e-04	
8	-4.00000e-01	6.639985e-04	
9	-4.50000e-01	6.416191e-04	
10	-5.00000e-01	6.195673e-04	
11	-5.50000e-01	5.978375e-04	
12	-6.00000e-01	5.764243e-04	
13	-6.50000e-01	5.553225e-04	
14	-7.00000e-01	5.345268e-04	
15	-7.50000e-01	5.140322e-04	
16	-8.00000e-01	4.938336e-04	
17	-8.50000e-01	4.739262e-04	
18	-9.00000e-01	4.543050e-04	
19	-9.50000e-01	4.349652e-04	
20	-1.00000e+00	4.159020e-04	
21	-1.05000e+00	3.971106e-04	
22	-1.10000e+00	3.785860e-04	
23	-1.15000e+00	3.603230e-04	
24	-1.20000e+00	3.423163e-04	
25	-1.25000e+00	3.245597e-04	
26	-1.30000e+00	3.070464e-04	
27	-1.35000e+00	2.897676e-04	
28	-1.40000e+00	2.727123e-04	
29	-1.45000e+00	2.558656e-04	
30	-1.50000e+00	2.392065e-04	
31	-1.55000e+00	2.227061e-04	
32	-1.60000e+00	2.063264e-04	
33	-1.65000e+00	1.900256e-04	
34	-1.70000e+00	1.737812e-04	
35	-1.75000e+00	1.576437e-04	
36	-1.80000e+00	1.418157e-04	
37	-1.85000e+00	1.266905e-04	
38	-1.90000e+00	1.127567e-04	
39	-1.95000e+00	1.004009e-04	
40	-2.00000e+00	8.977254e-05	
41	-2.05000e+00	8.079883e-05	
42	-2.10000e+00	7.328120e-05	
43	-2.15000e+00	6.698406e-05	
44	-2.20000e+00	6.168520e-05	
45	-2.25000e+00	5.719505e-05	
46	-2.30000e+00	5.335948e-05	
47	-2.35000e+00	5.005589e-05	
48	-2.40000e+00	4.718750e-05	
49	-2.45000e+00	4.467790e-05	
50	-2.50000e+00	4.246657e-05	
51	-2.55000e+00	4.050520e-05	
52	-2.60000e+00	3.875500e-05	
53	-2.65000e+00	3.718453e-05	
54	-2.70000e+00	3.576813e-05	

Index   v-sweep         rds             
--------------------------------------------------------------------------------
55	-2.75000e+00	3.448470e-05	
56	-2.80000e+00	3.331672e-05	
57	-2.85000e+00	3.224957e-05	
58	-2.90000e+00	3.127096e-05	
59	-2.95000e+00	3.037049e-05	
60	-3.00000e+00	2.953932e-05	
61	-3.05000e+00	2.876984e-05	
62	-3.10000e+00	2.805554e-05	
63	-3.15000e+00	2.739078e-05	
64	-3.20000e+00	2.677063e-05	
65	-3.25000e+00	2.619083e-05	
66	-3.30000e+00	2.564759e-05	
67	-3.35000e+00	2.513763e-05	
68	-3.40000e+00	2.465801e-05	
69	-3.45000e+00	2.420613e-05	
70	-3.50000e+00	2.377970e-05	
71	-3.55000e+00	2.337664e-05	
72	-3.60000e+00	2.299512e-05	
73	-3.65000e+00	2.263348e-05	
74	-3.70000e+00	2.229022e-05	
75	-3.75000e+00	2.196400e-05	
76	-3.80000e+00	2.165360e-05	
77	-3.85000e+00	2.135790e-05	
78	-3.90000e+00	2.107592e-05	
79	-3.95000e+00	2.080672e-05	
80	-4.00000e+00	2.054948e-05	
81	-4.05000e+00	2.030342e-05	
82	-4.10000e+00	2.006784e-05	
83	-4.15000e+00	1.984211e-05	
84	-4.20000e+00	1.962562e-05	
85	-4.25000e+00	1.941784e-05	
86	-4.30000e+00	1.921824e-05	
87	-4.35000e+00	1.902638e-05	
88	-4.40000e+00	1.884182e-05	
89	-4.45000e+00	1.866416e-05	
90	-4.50000e+00	1.849302e-05	
91	-4.55000e+00	1.832807e-05	
92	-4.60000e+00	1.816897e-05	
93	-4.65000e+00	1.801544e-05	
94	-4.70000e+00	1.786720e-05	
95	-4.75000e+00	1.772397e-05	
96	-4.80000e+00	1.758553e-05	
97	-4.85000e+00	1.745164e-05	
98	-4.90000e+00	1.732209e-05	
99	-4.95000e+00	1.719667e-05	
100	-5.00000e+00	1.707521e-05	
101	-5.05000e+00	1.695753e-05	
102	-5.10000e+00	1.684346e-05	
103	-5.15000e+00	1.673285e-05	
104	-5.20000e+00	1.662554e-05	
105	-5.25000e+00	1.652141e-05	
106	-5.30000e+00	1.642033e-05	
107	-5.35000e+00	1.632216e-05	
108	-5.40000e+00	1.622681e-05	
109	-5.45000e+00	1.613415e-05	
110	-5.50000e+00	1.604409e-05	
111	-5.55000e+00	1.595653e-05	
112	-5.60000e+00	1.587138e-05	

Index   v-sweep         rds             
--------------------------------------------------------------------------------
113	-5.65000e+00	1.578855e-05	
114	-5.70000e+00	1.570797e-05	
115	-5.75000e+00	1.562955e-05	
116	-5.80000e+00	1.555322e-05	
117	-5.85000e+00	1.547892e-05	
118	-5.90000e+00	1.540657e-05	
119	-5.95000e+00	1.533612e-05	
120	-6.00000e+00	1.526751e-05	
121	-6.05000e+00	1.520068e-05	
122	-6.10000e+00	1.513559e-05	
123	-6.15000e+00	1.507217e-05	
124	-6.20000e+00	1.501039e-05	
125	-6.25000e+00	1.495020e-05	
126	-6.30000e+00	1.489156e-05	
127	-6.35000e+00	1.483442e-05	
128	-6.40000e+00	1.477876e-05	
129	-6.45000e+00	1.472452e-05	
130	-6.50000e+00	1.467169e-05	
131	-6.55000e+00	1.462022e-05	
132	-6.60000e+00	1.457009e-05	
Reset re-loads circuit ***************************

Circuit: ***************************

Doing analysis at TEMP = -40.000000 and TNOM = -40.000000


No. of Data Rows : 133
                          ***************************
                          DC transfer characteristic  Mon Jan  9 13:58:52  2023
--------------------------------------------------------------------------------
Index   v-sweep         rds             
--------------------------------------------------------------------------------
0	0.000000e+00	1.004355e-03	
1	-5.00000e-02	9.808063e-04	
2	-1.00000e-01	9.575633e-04	
3	-1.50000e-01	9.346211e-04	
4	-2.00000e-01	9.119753e-04	
5	-2.50000e-01	8.896217e-04	
6	-3.00000e-01	8.675561e-04	
7	-3.50000e-01	8.457743e-04	
8	-4.00000e-01	8.242720e-04	
9	-4.50000e-01	8.030454e-04	
10	-5.00000e-01	7.820904e-04	
11	-5.50000e-01	7.614030e-04	
12	-6.00000e-01	7.409794e-04	
13	-6.50000e-01	7.208156e-04	
14	-7.00000e-01	7.009079e-04	
15	-7.50000e-01	6.812525e-04	
16	-8.00000e-01	6.618458e-04	
17	-8.50000e-01	6.426842e-04	
18	-9.00000e-01	6.237639e-04	
19	-9.50000e-01	6.050815e-04	
20	-1.00000e+00	5.866335e-04	
21	-1.05000e+00	5.684165e-04	
22	-1.10000e+00	5.504270e-04	
23	-1.15000e+00	5.326616e-04	
24	-1.20000e+00	5.151169e-04	
25	-1.25000e+00	4.977895e-04	
26	-1.30000e+00	4.806761e-04	
27	-1.35000e+00	4.637731e-04	
28	-1.40000e+00	4.470769e-04	
29	-1.45000e+00	4.305838e-04	
30	-1.50000e+00	4.142896e-04	
31	-1.55000e+00	3.981900e-04	
32	-1.60000e+00	3.822797e-04	
33	-1.65000e+00	3.665527e-04	
34	-1.70000e+00	3.510016e-04	
35	-1.75000e+00	3.356169e-04	
36	-1.80000e+00	3.203859e-04	
37	-1.85000e+00	3.052912e-04	
38	-1.90000e+00	2.903085e-04	
39	-1.95000e+00	2.754034e-04	
40	-2.00000e+00	2.605269e-04	
41	-2.05000e+00	2.456118e-04	
42	-2.10000e+00	2.305714e-04	
43	-2.15000e+00	2.153096e-04	
44	-2.20000e+00	1.997538e-04	
45	-2.25000e+00	1.839223e-04	
46	-2.30000e+00	1.680069e-04	
47	-2.35000e+00	1.524035e-04	
48	-2.40000e+00	1.376236e-04	
49	-2.45000e+00	1.241196e-04	
50	-2.50000e+00	1.121506e-04	
51	-2.55000e+00	1.017633e-04	
52	-2.60000e+00	9.285452e-05	
53	-2.65000e+00	8.524774e-05	
54	-2.70000e+00	7.874904e-05	

Index   v-sweep         rds             
--------------------------------------------------------------------------------
55	-2.75000e+00	7.317667e-05	
56	-2.80000e+00	6.837285e-05	
57	-2.85000e+00	6.420584e-05	
58	-2.90000e+00	6.056777e-05	
59	-2.95000e+00	5.737107e-05	
60	-3.00000e+00	5.454478e-05	
61	-3.05000e+00	5.203130e-05	
62	-3.10000e+00	4.978370e-05	
63	-3.15000e+00	4.776352e-05	
64	-3.20000e+00	4.593908e-05	
65	-3.25000e+00	4.428411e-05	
66	-3.30000e+00	4.277670e-05	
67	-3.35000e+00	4.139845e-05	
68	-3.40000e+00	4.013382e-05	
69	-3.45000e+00	3.896963e-05	
70	-3.50000e+00	3.789460e-05	
71	-3.55000e+00	3.689906e-05	
72	-3.60000e+00	3.597467e-05	
73	-3.65000e+00	3.511419e-05	
74	-3.70000e+00	3.431133e-05	
75	-3.75000e+00	3.356058e-05	
76	-3.80000e+00	3.285711e-05	
77	-3.85000e+00	3.219664e-05	
78	-3.90000e+00	3.157542e-05	
79	-3.95000e+00	3.099009e-05	
80	-4.00000e+00	3.043768e-05	
81	-4.05000e+00	2.991553e-05	
82	-4.10000e+00	2.942125e-05	
83	-4.15000e+00	2.895269e-05	
84	-4.20000e+00	2.850794e-05	
85	-4.25000e+00	2.808524e-05	
86	-4.30000e+00	2.768303e-05	
87	-4.35000e+00	2.729986e-05	
88	-4.40000e+00	2.693444e-05	
89	-4.45000e+00	2.658557e-05	
90	-4.50000e+00	2.625219e-05	
91	-4.55000e+00	2.593328e-05	
92	-4.60000e+00	2.562795e-05	
93	-4.65000e+00	2.533536e-05	
94	-4.70000e+00	2.505474e-05	
95	-4.75000e+00	2.478539e-05	
96	-4.80000e+00	2.452664e-05	
97	-4.85000e+00	2.427790e-05	
98	-4.90000e+00	2.403861e-05	
99	-4.95000e+00	2.380825e-05	
100	-5.00000e+00	2.358634e-05	
101	-5.05000e+00	2.337243e-05	
102	-5.10000e+00	2.316611e-05	
103	-5.15000e+00	2.296698e-05	
104	-5.20000e+00	2.277470e-05	
105	-5.25000e+00	2.258892e-05	
106	-5.30000e+00	2.240932e-05	
107	-5.35000e+00	2.223561e-05	
108	-5.40000e+00	2.206752e-05	
109	-5.45000e+00	2.190479e-05	
110	-5.50000e+00	2.174718e-05	
111	-5.55000e+00	2.159445e-05	
112	-5.60000e+00	2.144640e-05	

Index   v-sweep         rds             
--------------------------------------------------------------------------------
113	-5.65000e+00	2.130282e-05	
114	-5.70000e+00	2.116353e-05	
115	-5.75000e+00	2.102835e-05	
116	-5.80000e+00	2.089711e-05	
117	-5.85000e+00	2.076966e-05	
118	-5.90000e+00	2.064584e-05	
119	-5.95000e+00	2.052552e-05	
120	-6.00000e+00	2.040857e-05	
121	-6.05000e+00	2.029485e-05	
122	-6.10000e+00	2.018426e-05	
123	-6.15000e+00	2.007669e-05	
124	-6.20000e+00	1.997202e-05	
125	-6.25000e+00	1.987017e-05	
126	-6.30000e+00	1.977103e-05	
127	-6.35000e+00	1.967452e-05	
128	-6.40000e+00	1.958055e-05	
129	-6.45000e+00	1.948905e-05	
130	-6.50000e+00	1.939995e-05	
131	-6.55000e+00	1.931316e-05	
132	-6.60000e+00	1.922863e-05	
Reset re-loads circuit ***************************

Circuit: ***************************

Doing analysis at TEMP = -40.000000 and TNOM = -40.000000


No. of Data Rows : 133
                          ***************************
                          DC transfer characteristic  Mon Jan  9 13:58:52  2023
--------------------------------------------------------------------------------
Index   v-sweep         rds             
--------------------------------------------------------------------------------
0	0.000000e+00	1.118789e-03	
1	-5.00000e-02	1.096819e-03	
2	-1.00000e-01	1.075102e-03	
3	-1.50000e-01	1.053636e-03	
4	-2.00000e-01	1.032416e-03	
5	-2.50000e-01	1.011440e-03	
6	-3.00000e-01	9.907038e-04	
7	-3.50000e-01	9.702056e-04	
8	-4.00000e-01	9.499418e-04	
9	-4.50000e-01	9.299093e-04	
10	-5.00000e-01	9.101052e-04	
11	-5.50000e-01	8.905266e-04	
12	-6.00000e-01	8.711705e-04	
13	-6.50000e-01	8.520340e-04	
14	-7.00000e-01	8.331143e-04	
15	-7.50000e-01	8.144086e-04	
16	-8.00000e-01	7.959141e-04	
17	-8.50000e-01	7.776280e-04	
18	-9.00000e-01	7.595476e-04	
19	-9.50000e-01	7.416703e-04	
20	-1.00000e+00	7.239934e-04	
21	-1.05000e+00	7.065142e-04	
22	-1.10000e+00	6.892303e-04	
23	-1.15000e+00	6.721391e-04	
24	-1.20000e+00	6.552380e-04	
25	-1.25000e+00	6.385246e-04	
26	-1.30000e+00	6.219964e-04	
27	-1.35000e+00	6.056509e-04	
28	-1.40000e+00	5.894857e-04	
29	-1.45000e+00	5.734985e-04	
30	-1.50000e+00	5.576868e-04	
31	-1.55000e+00	5.420481e-04	
32	-1.60000e+00	5.265800e-04	
33	-1.65000e+00	5.112799e-04	
34	-1.70000e+00	4.961454e-04	
35	-1.75000e+00	4.811736e-04	
36	-1.80000e+00	4.663617e-04	
37	-1.85000e+00	4.517066e-04	
38	-1.90000e+00	4.372048e-04	
39	-1.95000e+00	4.228523e-04	
40	-2.00000e+00	4.086445e-04	
41	-2.05000e+00	3.945758e-04	
42	-2.10000e+00	3.806392e-04	
43	-2.15000e+00	3.668256e-04	
44	-2.20000e+00	3.531231e-04	
45	-2.25000e+00	3.395159e-04	
46	-2.30000e+00	3.259817e-04	
47	-2.35000e+00	3.124902e-04	
48	-2.40000e+00	2.989986e-04	
49	-2.45000e+00	2.854480e-04	
50	-2.50000e+00	2.717587e-04	
51	-2.55000e+00	2.578285e-04	
52	-2.60000e+00	2.435399e-04	
53	-2.65000e+00	2.287842e-04	
54	-2.70000e+00	2.135147e-04	

Index   v-sweep         rds             
--------------------------------------------------------------------------------
55	-2.75000e+00	1.978194e-04	
56	-2.80000e+00	1.819764e-04	
57	-2.85000e+00	1.664315e-04	
58	-2.90000e+00	1.516809e-04	
59	-2.95000e+00	1.381266e-04	
60	-3.00000e+00	1.259916e-04	
61	-3.05000e+00	1.153217e-04	
62	-3.10000e+00	1.060386e-04	
63	-3.15000e+00	9.799928e-05	
64	-3.20000e+00	9.104007e-05	
65	-3.25000e+00	8.500188e-05	
66	-3.30000e+00	7.974204e-05	
67	-3.35000e+00	7.513791e-05	
68	-3.40000e+00	7.108646e-05	
69	-3.45000e+00	6.750216e-05	
70	-3.50000e+00	6.431433e-05	
71	-3.55000e+00	6.146463e-05	
72	-3.60000e+00	5.890480e-05	
73	-3.65000e+00	5.659479e-05	
74	-3.70000e+00	5.450125e-05	
75	-3.75000e+00	5.259622e-05	
76	-3.80000e+00	5.085618e-05	
77	-3.85000e+00	4.926124e-05	
78	-3.90000e+00	4.779448e-05	
79	-3.95000e+00	4.644145e-05	
80	-4.00000e+00	4.518972e-05	
81	-4.05000e+00	4.402858e-05	
82	-4.10000e+00	4.294875e-05	
83	-4.15000e+00	4.194215e-05	
84	-4.20000e+00	4.100172e-05	
85	-4.25000e+00	4.012126e-05	
86	-4.30000e+00	3.929531e-05	
87	-4.35000e+00	3.851904e-05	
88	-4.40000e+00	3.778818e-05	
89	-4.45000e+00	3.709893e-05	
90	-4.50000e+00	3.644787e-05	
91	-4.55000e+00	3.583198e-05	
92	-4.60000e+00	3.524852e-05	
93	-4.65000e+00	3.469504e-05	
94	-4.70000e+00	3.416931e-05	
95	-4.75000e+00	3.366934e-05	
96	-4.80000e+00	3.319329e-05	
97	-4.85000e+00	3.273953e-05	
98	-4.90000e+00	3.230654e-05	
99	-4.95000e+00	3.189295e-05	
100	-5.00000e+00	3.149751e-05	
101	-5.05000e+00	3.111907e-05	
102	-5.10000e+00	3.075656e-05	
103	-5.15000e+00	3.040902e-05	
104	-5.20000e+00	3.007556e-05	
105	-5.25000e+00	2.975535e-05	
106	-5.30000e+00	2.944763e-05	
107	-5.35000e+00	2.915170e-05	
108	-5.40000e+00	2.886690e-05	
109	-5.45000e+00	2.859263e-05	
110	-5.50000e+00	2.832832e-05	
111	-5.55000e+00	2.807346e-05	
112	-5.60000e+00	2.782756e-05	

Index   v-sweep         rds             
--------------------------------------------------------------------------------
113	-5.65000e+00	2.759016e-05	
114	-5.70000e+00	2.736085e-05	
115	-5.75000e+00	2.713922e-05	
116	-5.80000e+00	2.692491e-05	
117	-5.85000e+00	2.671757e-05	
118	-5.90000e+00	2.651689e-05	
119	-5.95000e+00	2.632254e-05	
120	-6.00000e+00	2.613426e-05	
121	-6.05000e+00	2.595178e-05	
122	-6.10000e+00	2.577484e-05	
123	-6.15000e+00	2.560321e-05	
124	-6.20000e+00	2.543667e-05	
125	-6.25000e+00	2.527501e-05	
126	-6.30000e+00	2.511803e-05	
127	-6.35000e+00	2.496555e-05	
128	-6.40000e+00	2.481740e-05	
129	-6.45000e+00	2.467341e-05	
130	-6.50000e+00	2.453343e-05	
131	-6.55000e+00	2.439731e-05	
132	-6.60000e+00	2.426492e-05	
Reset re-loads circuit ***************************

Circuit: ***************************

Note: No ".plot", ".print", or ".fourier" lines; no simulations run
