
Note: Compatibility modes selected: hs

Warning: m=xx on .subckt line will override multiplier m hierarchy!


Circuit: ***************************

Doing analysis at TEMP = 25.000000 and TNOM = 25.000000


No. of Data Rows : 133
                          ***************************
                          DC transfer characteristic  Mon Jan  9 13:58:51  2023
--------------------------------------------------------------------------------
Index   v-sweep         rds             
--------------------------------------------------------------------------------
0	0.000000e+00	8.245633e-05	
1	-5.00000e-02	5.525952e-05	
2	-1.00000e-01	3.009158e-05	
3	-1.50000e-01	1.168207e-05	
4	-2.00000e-01	4.347062e-06	
5	-2.50000e-01	2.497316e-06	
6	-3.00000e-01	1.946830e-06	
7	-3.50000e-01	1.711786e-06	
8	-4.00000e-01	1.578434e-06	
9	-4.50000e-01	1.488069e-06	
10	-5.00000e-01	1.420187e-06	
11	-5.50000e-01	1.366029e-06	
12	-6.00000e-01	1.321196e-06	
13	-6.50000e-01	1.283179e-06	
14	-7.00000e-01	1.250396e-06	
15	-7.50000e-01	1.221780e-06	
16	-8.00000e-01	1.196562e-06	
17	-8.50000e-01	1.174172e-06	
18	-9.00000e-01	1.154168e-06	
19	-9.50000e-01	1.136204e-06	
20	-1.00000e+00	1.119999e-06	
21	-1.05000e+00	1.105326e-06	
22	-1.10000e+00	1.091994e-06	
23	-1.15000e+00	1.079846e-06	
24	-1.20000e+00	1.068747e-06	
25	-1.25000e+00	1.058584e-06	
26	-1.30000e+00	1.049258e-06	
27	-1.35000e+00	1.040686e-06	
28	-1.40000e+00	1.032793e-06	
29	-1.45000e+00	1.025516e-06	
30	-1.50000e+00	1.018798e-06	
31	-1.55000e+00	1.012589e-06	
32	-1.60000e+00	1.006846e-06	
33	-1.65000e+00	1.001531e-06	
34	-1.70000e+00	9.966068e-07	
35	-1.75000e+00	9.920439e-07	
36	-1.80000e+00	9.878141e-07	
37	-1.85000e+00	9.838923e-07	
38	-1.90000e+00	9.802559e-07	
39	-1.95000e+00	9.768842e-07	
40	-2.00000e+00	9.737589e-07	
41	-2.05000e+00	9.708629e-07	
42	-2.10000e+00	9.681810e-07	
43	-2.15000e+00	9.656990e-07	
44	-2.20000e+00	9.634041e-07	
45	-2.25000e+00	9.612845e-07	
46	-2.30000e+00	9.593295e-07	
47	-2.35000e+00	9.575290e-07	
48	-2.40000e+00	9.558740e-07	
49	-2.45000e+00	9.543558e-07	
50	-2.50000e+00	9.529669e-07	
51	-2.55000e+00	9.516998e-07	
52	-2.60000e+00	9.505479e-07	
53	-2.65000e+00	9.495049e-07	
54	-2.70000e+00	9.485652e-07	

Index   v-sweep         rds             
--------------------------------------------------------------------------------
55	-2.75000e+00	9.477232e-07	
56	-2.80000e+00	9.469740e-07	
57	-2.85000e+00	9.463129e-07	
58	-2.90000e+00	9.457355e-07	
59	-2.95000e+00	9.452377e-07	
60	-3.00000e+00	9.448158e-07	
61	-3.05000e+00	9.444661e-07	
62	-3.10000e+00	9.441852e-07	
63	-3.15000e+00	9.439701e-07	
64	-3.20000e+00	9.438178e-07	
65	-3.25000e+00	9.437254e-07	
66	-3.30000e+00	9.436905e-07	
67	-3.35000e+00	9.437104e-07	
68	-3.40000e+00	9.437829e-07	
69	-3.45000e+00	9.439059e-07	
70	-3.50000e+00	9.440772e-07	
71	-3.55000e+00	9.442950e-07	
72	-3.60000e+00	9.445573e-07	
73	-3.65000e+00	9.448624e-07	
74	-3.70000e+00	9.452088e-07	
75	-3.75000e+00	9.455949e-07	
76	-3.80000e+00	9.460191e-07	
77	-3.85000e+00	9.464802e-07	
78	-3.90000e+00	9.469768e-07	
79	-3.95000e+00	9.475077e-07	
80	-4.00000e+00	9.480717e-07	
81	-4.05000e+00	9.486676e-07	
82	-4.10000e+00	9.492945e-07	
83	-4.15000e+00	9.499514e-07	
84	-4.20000e+00	9.506372e-07	
85	-4.25000e+00	9.513511e-07	
86	-4.30000e+00	9.520922e-07	
87	-4.35000e+00	9.528598e-07	
88	-4.40000e+00	9.536531e-07	
89	-4.45000e+00	9.544713e-07	
90	-4.50000e+00	9.553138e-07	
91	-4.55000e+00	9.561799e-07	
92	-4.60000e+00	9.570690e-07	
93	-4.65000e+00	9.579804e-07	
94	-4.70000e+00	9.589138e-07	
95	-4.75000e+00	9.598684e-07	
96	-4.80000e+00	9.608438e-07	
97	-4.85000e+00	9.618396e-07	
98	-4.90000e+00	9.628553e-07	
99	-4.95000e+00	9.638904e-07	
100	-5.00000e+00	9.649446e-07	
101	-5.05000e+00	9.660175e-07	
102	-5.10000e+00	9.671087e-07	
103	-5.15000e+00	9.682178e-07	
104	-5.20000e+00	9.693445e-07	
105	-5.25000e+00	9.704886e-07	
106	-5.30000e+00	9.716497e-07	
107	-5.35000e+00	9.728275e-07	
108	-5.40000e+00	9.740218e-07	
109	-5.45000e+00	9.752323e-07	
110	-5.50000e+00	9.764588e-07	
111	-5.55000e+00	9.777010e-07	
112	-5.60000e+00	9.789588e-07	

Index   v-sweep         rds             
--------------------------------------------------------------------------------
113	-5.65000e+00	9.802319e-07	
114	-5.70000e+00	9.815201e-07	
115	-5.75000e+00	9.828233e-07	
116	-5.80000e+00	9.841413e-07	
117	-5.85000e+00	9.854739e-07	
118	-5.90000e+00	9.868210e-07	
119	-5.95000e+00	9.881824e-07	
120	-6.00000e+00	9.895579e-07	
121	-6.05000e+00	9.909475e-07	
122	-6.10000e+00	9.923510e-07	
123	-6.15000e+00	9.937683e-07	
124	-6.20000e+00	9.951993e-07	
125	-6.25000e+00	9.966438e-07	
126	-6.30000e+00	9.981018e-07	
127	-6.35000e+00	9.995732e-07	
128	-6.40000e+00	1.001058e-06	
129	-6.45000e+00	1.002556e-06	
130	-6.50000e+00	1.004067e-06	
131	-6.55000e+00	1.005590e-06	
132	-6.60000e+00	1.007127e-06	
Reset re-loads circuit ***************************

Circuit: ***************************

Doing analysis at TEMP = 25.000000 and TNOM = 25.000000


No. of Data Rows : 133
                          ***************************
                          DC transfer characteristic  Mon Jan  9 13:58:51  2023
--------------------------------------------------------------------------------
Index   v-sweep         rds             
--------------------------------------------------------------------------------
0	0.000000e+00	5.747095e-04	
1	-5.00000e-02	5.409954e-04	
2	-1.00000e-01	5.076838e-04	
3	-1.50000e-01	4.747707e-04	
4	-2.00000e-01	4.422524e-04	
5	-2.50000e-01	4.101262e-04	
6	-3.00000e-01	3.783905e-04	
7	-3.50000e-01	3.470458e-04	
8	-4.00000e-01	3.160957e-04	
9	-4.50000e-01	2.855498e-04	
10	-5.00000e-01	2.554273e-04	
11	-5.50000e-01	2.257665e-04	
12	-6.00000e-01	1.966421e-04	
13	-6.50000e-01	1.682024e-04	
14	-7.00000e-01	1.407430e-04	
15	-7.50000e-01	1.148418e-04	
16	-8.00000e-01	9.151244e-05	
17	-8.50000e-01	7.210396e-05	
18	-9.00000e-01	5.754356e-05	
19	-9.50000e-01	4.750115e-05	
20	-1.00000e+00	4.073051e-05	
21	-1.05000e+00	3.601189e-05	
22	-1.10000e+00	3.254047e-05	
23	-1.15000e+00	2.985492e-05	
24	-1.20000e+00	2.769457e-05	
25	-1.25000e+00	2.590584e-05	
26	-1.30000e+00	2.439279e-05	
27	-1.35000e+00	2.309190e-05	
28	-1.40000e+00	2.195901e-05	
29	-1.45000e+00	2.096213e-05	
30	-1.50000e+00	2.007733e-05	
31	-1.55000e+00	1.928623e-05	
32	-1.60000e+00	1.857441e-05	
33	-1.65000e+00	1.793034e-05	
34	-1.70000e+00	1.734470e-05	
35	-1.75000e+00	1.680984e-05	
36	-1.80000e+00	1.631939e-05	
37	-1.85000e+00	1.586804e-05	
38	-1.90000e+00	1.545130e-05	
39	-1.95000e+00	1.506535e-05	
40	-2.00000e+00	1.470690e-05	
41	-2.05000e+00	1.437314e-05	
42	-2.10000e+00	1.406162e-05	
43	-2.15000e+00	1.377021e-05	
44	-2.20000e+00	1.349704e-05	
45	-2.25000e+00	1.324046e-05	
46	-2.30000e+00	1.299903e-05	
47	-2.35000e+00	1.277147e-05	
48	-2.40000e+00	1.255661e-05	
49	-2.45000e+00	1.235346e-05	
50	-2.50000e+00	1.216108e-05	
51	-2.55000e+00	1.197867e-05	
52	-2.60000e+00	1.180547e-05	
53	-2.65000e+00	1.164083e-05	
54	-2.70000e+00	1.148412e-05	

Index   v-sweep         rds             
--------------------------------------------------------------------------------
55	-2.75000e+00	1.133482e-05	
56	-2.80000e+00	1.119241e-05	
57	-2.85000e+00	1.105643e-05	
58	-2.90000e+00	1.092648e-05	
59	-2.95000e+00	1.080217e-05	
60	-3.00000e+00	1.068315e-05	
61	-3.05000e+00	1.056910e-05	
62	-3.10000e+00	1.045972e-05	
63	-3.15000e+00	1.035474e-05	
64	-3.20000e+00	1.025390e-05	
65	-3.25000e+00	1.015698e-05	
66	-3.30000e+00	1.006376e-05	
67	-3.35000e+00	9.974034e-06	
68	-3.40000e+00	9.887619e-06	
69	-3.45000e+00	9.804340e-06	
70	-3.50000e+00	9.724037e-06	
71	-3.55000e+00	9.646559e-06	
72	-3.60000e+00	9.571766e-06	
73	-3.65000e+00	9.499527e-06	
74	-3.70000e+00	9.429717e-06	
75	-3.75000e+00	9.362224e-06	
76	-3.80000e+00	9.296937e-06	
77	-3.85000e+00	9.233758e-06	
78	-3.90000e+00	9.172589e-06	
79	-3.95000e+00	9.113343e-06	
80	-4.00000e+00	9.055935e-06	
81	-4.05000e+00	9.000286e-06	
82	-4.10000e+00	8.946322e-06	
83	-4.15000e+00	8.893972e-06	
84	-4.20000e+00	8.843170e-06	
85	-4.25000e+00	8.793853e-06	
86	-4.30000e+00	8.745964e-06	
87	-4.35000e+00	8.699444e-06	
88	-4.40000e+00	8.654243e-06	
89	-4.45000e+00	8.610310e-06	
90	-4.50000e+00	8.567597e-06	
91	-4.55000e+00	8.526060e-06	
92	-4.60000e+00	8.485657e-06	
93	-4.65000e+00	8.446347e-06	
94	-4.70000e+00	8.408093e-06	
95	-4.75000e+00	8.370857e-06	
96	-4.80000e+00	8.334606e-06	
97	-4.85000e+00	8.299307e-06	
98	-4.90000e+00	8.264929e-06	
99	-4.95000e+00	8.231443e-06	
100	-5.00000e+00	8.198821e-06	
101	-5.05000e+00	8.167035e-06	
102	-5.10000e+00	8.136062e-06	
103	-5.15000e+00	8.105876e-06	
104	-5.20000e+00	8.076455e-06	
105	-5.25000e+00	8.047778e-06	
106	-5.30000e+00	8.019822e-06	
107	-5.35000e+00	7.992569e-06	
108	-5.40000e+00	7.966000e-06	
109	-5.45000e+00	7.940096e-06	
110	-5.50000e+00	7.914841e-06	
111	-5.55000e+00	7.890218e-06	
112	-5.60000e+00	7.866211e-06	

Index   v-sweep         rds             
--------------------------------------------------------------------------------
113	-5.65000e+00	7.842806e-06	
114	-5.70000e+00	7.819988e-06	
115	-5.75000e+00	7.797744e-06	
116	-5.80000e+00	7.776061e-06	
117	-5.85000e+00	7.754926e-06	
118	-5.90000e+00	7.734327e-06	
119	-5.95000e+00	7.714254e-06	
120	-6.00000e+00	7.694694e-06	
121	-6.05000e+00	7.675638e-06	
122	-6.10000e+00	7.657076e-06	
123	-6.15000e+00	7.638997e-06	
124	-6.20000e+00	7.621394e-06	
125	-6.25000e+00	7.604256e-06	
126	-6.30000e+00	7.587576e-06	
127	-6.35000e+00	7.571345e-06	
128	-6.40000e+00	7.555555e-06	
129	-6.45000e+00	7.540199e-06	
130	-6.50000e+00	7.525270e-06	
131	-6.55000e+00	7.510760e-06	
132	-6.60000e+00	7.496663e-06	
Reset re-loads circuit ***************************

Circuit: ***************************

Doing analysis at TEMP = 25.000000 and TNOM = 25.000000


No. of Data Rows : 133
                          ***************************
                          DC transfer characteristic  Mon Jan  9 13:58:51  2023
--------------------------------------------------------------------------------
Index   v-sweep         rds             
--------------------------------------------------------------------------------
0	0.000000e+00	9.335819e-04	
1	-5.00000e-02	9.015692e-04	
2	-1.00000e-01	8.698780e-04	
3	-1.50000e-01	8.385048e-04	
4	-2.00000e-01	8.074461e-04	
5	-2.50000e-01	7.766987e-04	
6	-3.00000e-01	7.462591e-04	
7	-3.50000e-01	7.161243e-04	
8	-4.00000e-01	6.862911e-04	
9	-4.50000e-01	6.567565e-04	
10	-5.00000e-01	6.275177e-04	
11	-5.50000e-01	5.985718e-04	
12	-6.00000e-01	5.699163e-04	
13	-6.50000e-01	5.415490e-04	
14	-7.00000e-01	5.134680e-04	
15	-7.50000e-01	4.856716e-04	
16	-8.00000e-01	4.581592e-04	
17	-8.50000e-01	4.309307e-04	
18	-9.00000e-01	4.039876e-04	
19	-9.50000e-01	3.773332e-04	
20	-1.00000e+00	3.509742e-04	
21	-1.05000e+00	3.249220e-04	
22	-1.10000e+00	2.991962e-04	
23	-1.15000e+00	2.738300e-04	
24	-1.20000e+00	2.488797e-04	
25	-1.25000e+00	2.244407e-04	
26	-1.30000e+00	2.006753e-04	
27	-1.35000e+00	1.778509e-04	
28	-1.40000e+00	1.563765e-04	
29	-1.45000e+00	1.367902e-04	
30	-1.50000e+00	1.196250e-04	
31	-1.55000e+00	1.051764e-04	
32	-1.60000e+00	9.336239e-05	
33	-1.65000e+00	8.381417e-05	
34	-1.70000e+00	7.607355e-05	
35	-1.75000e+00	6.972807e-05	
36	-1.80000e+00	6.445352e-05	
37	-1.85000e+00	6.000817e-05	
38	-1.90000e+00	5.621397e-05	
39	-1.95000e+00	5.293897e-05	
40	-2.00000e+00	5.008408e-05	
41	-2.05000e+00	4.757371e-05	
42	-2.10000e+00	4.534929e-05	
43	-2.15000e+00	4.336480e-05	
44	-2.20000e+00	4.158356e-05	
45	-2.25000e+00	3.997600e-05	
46	-2.30000e+00	3.851801e-05	
47	-2.35000e+00	3.718976e-05	
48	-2.40000e+00	3.597474e-05	
49	-2.45000e+00	3.485916e-05	
50	-2.50000e+00	3.383136e-05	
51	-2.55000e+00	3.288143e-05	
52	-2.60000e+00	3.200091e-05	
53	-2.65000e+00	3.118250e-05	
54	-2.70000e+00	3.041992e-05	

Index   v-sweep         rds             
--------------------------------------------------------------------------------
55	-2.75000e+00	2.970767e-05	
56	-2.80000e+00	2.904097e-05	
57	-2.85000e+00	2.841563e-05	
58	-2.90000e+00	2.782795e-05	
59	-2.95000e+00	2.727465e-05	
60	-3.00000e+00	2.675283e-05	
61	-3.05000e+00	2.625990e-05	
62	-3.10000e+00	2.579356e-05	
63	-3.15000e+00	2.535173e-05	
64	-3.20000e+00	2.493256e-05	
65	-3.25000e+00	2.453435e-05	
66	-3.30000e+00	2.415560e-05	
67	-3.35000e+00	2.379494e-05	
68	-3.40000e+00	2.345110e-05	
69	-3.45000e+00	2.312297e-05	
70	-3.50000e+00	2.280949e-05	
71	-3.55000e+00	2.250973e-05	
72	-3.60000e+00	2.222282e-05	
73	-3.65000e+00	2.194796e-05	
74	-3.70000e+00	2.168441e-05	
75	-3.75000e+00	2.143152e-05	
76	-3.80000e+00	2.118864e-05	
77	-3.85000e+00	2.095522e-05	
78	-3.90000e+00	2.073072e-05	
79	-3.95000e+00	2.051464e-05	
80	-4.00000e+00	2.030653e-05	
81	-4.05000e+00	2.010597e-05	
82	-4.10000e+00	1.991257e-05	
83	-4.15000e+00	1.972594e-05	
84	-4.20000e+00	1.954576e-05	
85	-4.25000e+00	1.937171e-05	
86	-4.30000e+00	1.920347e-05	
87	-4.35000e+00	1.904078e-05	
88	-4.40000e+00	1.888337e-05	
89	-4.45000e+00	1.873100e-05	
90	-4.50000e+00	1.858343e-05	
91	-4.55000e+00	1.844046e-05	
92	-4.60000e+00	1.830187e-05	
93	-4.65000e+00	1.816747e-05	
94	-4.70000e+00	1.803709e-05	
95	-4.75000e+00	1.791056e-05	
96	-4.80000e+00	1.778771e-05	
97	-4.85000e+00	1.766841e-05	
98	-4.90000e+00	1.755249e-05	
99	-4.95000e+00	1.743983e-05	
100	-5.00000e+00	1.733031e-05	
101	-5.05000e+00	1.722380e-05	
102	-5.10000e+00	1.712019e-05	
103	-5.15000e+00	1.701938e-05	
104	-5.20000e+00	1.692125e-05	
105	-5.25000e+00	1.682572e-05	
106	-5.30000e+00	1.673269e-05	
107	-5.35000e+00	1.664208e-05	
108	-5.40000e+00	1.655381e-05	
109	-5.45000e+00	1.646780e-05	
110	-5.50000e+00	1.638396e-05	
111	-5.55000e+00	1.630225e-05	
112	-5.60000e+00	1.622258e-05	

Index   v-sweep         rds             
--------------------------------------------------------------------------------
113	-5.65000e+00	1.614489e-05	
114	-5.70000e+00	1.606914e-05	
115	-5.75000e+00	1.599524e-05	
116	-5.80000e+00	1.592317e-05	
117	-5.85000e+00	1.585285e-05	
118	-5.90000e+00	1.578425e-05	
119	-5.95000e+00	1.571731e-05	
120	-6.00000e+00	1.565200e-05	
121	-6.05000e+00	1.558826e-05	
122	-6.10000e+00	1.552607e-05	
123	-6.15000e+00	1.546538e-05	
124	-6.20000e+00	1.540615e-05	
125	-6.25000e+00	1.534835e-05	
126	-6.30000e+00	1.529194e-05	
127	-6.35000e+00	1.523690e-05	
128	-6.40000e+00	1.518320e-05	
129	-6.45000e+00	1.513079e-05	
130	-6.50000e+00	1.507967e-05	
131	-6.55000e+00	1.502980e-05	
132	-6.60000e+00	1.498115e-05	
Reset re-loads circuit ***************************

Circuit: ***************************

Doing analysis at TEMP = 25.000000 and TNOM = 25.000000


No. of Data Rows : 133
                          ***************************
                          DC transfer characteristic  Mon Jan  9 13:58:51  2023
--------------------------------------------------------------------------------
Index   v-sweep         rds             
--------------------------------------------------------------------------------
0	0.000000e+00	1.211090e-03	
1	-5.00000e-02	1.181040e-03	
2	-1.00000e-01	1.151256e-03	
3	-1.50000e-01	1.121733e-03	
4	-2.00000e-01	1.092470e-03	
5	-2.50000e-01	1.063463e-03	
6	-3.00000e-01	1.034711e-03	
7	-3.50000e-01	1.006210e-03	
8	-4.00000e-01	9.779596e-04	
9	-4.50000e-01	9.499560e-04	
10	-5.00000e-01	9.221973e-04	
11	-5.50000e-01	8.946810e-04	
12	-6.00000e-01	8.674050e-04	
13	-6.50000e-01	8.403669e-04	
14	-7.00000e-01	8.135646e-04	
15	-7.50000e-01	7.869959e-04	
16	-8.00000e-01	7.606588e-04	
17	-8.50000e-01	7.345510e-04	
18	-9.00000e-01	7.086707e-04	
19	-9.50000e-01	6.830158e-04	
20	-1.00000e+00	6.575846e-04	
21	-1.05000e+00	6.323753e-04	
22	-1.10000e+00	6.073862e-04	
23	-1.15000e+00	5.826159e-04	
24	-1.20000e+00	5.580629e-04	
25	-1.25000e+00	5.337263e-04	
26	-1.30000e+00	5.096051e-04	
27	-1.35000e+00	4.856991e-04	
28	-1.40000e+00	4.620083e-04	
29	-1.45000e+00	4.385335e-04	
30	-1.50000e+00	4.152768e-04	
31	-1.55000e+00	3.922415e-04	
32	-1.60000e+00	3.694333e-04	
33	-1.65000e+00	3.468613e-04	
34	-1.70000e+00	3.245398e-04	
35	-1.75000e+00	3.024916e-04	
36	-1.80000e+00	2.807529e-04	
37	-1.85000e+00	2.593820e-04	
38	-1.90000e+00	2.384720e-04	
39	-1.95000e+00	2.181693e-04	
40	-2.00000e+00	1.986904e-04	
41	-2.05000e+00	1.803230e-04	
42	-2.10000e+00	1.633852e-04	
43	-2.15000e+00	1.481413e-04	
44	-2.20000e+00	1.347190e-04	
45	-2.25000e+00	1.230853e-04	
46	-2.30000e+00	1.130864e-04	
47	-2.35000e+00	1.045114e-04	
48	-2.40000e+00	9.714162e-05	
49	-2.45000e+00	9.077760e-05	
50	-2.50000e+00	8.524885e-05	
51	-2.55000e+00	8.041432e-05	
52	-2.60000e+00	7.615911e-05	
53	-2.65000e+00	7.239010e-05	
54	-2.70000e+00	6.903176e-05	

Index   v-sweep         rds             
--------------------------------------------------------------------------------
55	-2.75000e+00	6.602265e-05	
56	-2.80000e+00	6.331249e-05	
57	-2.85000e+00	6.085990e-05	
58	-2.90000e+00	5.863059e-05	
59	-2.95000e+00	5.659595e-05	
60	-3.00000e+00	5.473198e-05	
61	-3.05000e+00	5.301839e-05	
62	-3.10000e+00	5.143794e-05	
63	-3.15000e+00	4.997591e-05	
64	-3.20000e+00	4.861962e-05	
65	-3.25000e+00	4.735814e-05	
66	-3.30000e+00	4.618199e-05	
67	-3.35000e+00	4.508287e-05	
68	-3.40000e+00	4.405355e-05	
69	-3.45000e+00	4.308765e-05	
70	-3.50000e+00	4.217954e-05	
71	-3.55000e+00	4.132425e-05	
72	-3.60000e+00	4.051735e-05	
73	-3.65000e+00	3.975489e-05	
74	-3.70000e+00	3.903332e-05	
75	-3.75000e+00	3.834949e-05	
76	-3.80000e+00	3.770054e-05	
77	-3.85000e+00	3.708390e-05	
78	-3.90000e+00	3.649724e-05	
79	-3.95000e+00	3.593845e-05	
80	-4.00000e+00	3.540561e-05	
81	-4.05000e+00	3.489698e-05	
82	-4.10000e+00	3.441096e-05	
83	-4.15000e+00	3.394611e-05	
84	-4.20000e+00	3.350107e-05	
85	-4.25000e+00	3.307464e-05	
86	-4.30000e+00	3.266567e-05	
87	-4.35000e+00	3.227314e-05	
88	-4.40000e+00	3.189609e-05	
89	-4.45000e+00	3.153363e-05	
90	-4.50000e+00	3.118494e-05	
91	-4.55000e+00	3.084927e-05	
92	-4.60000e+00	3.052591e-05	
93	-4.65000e+00	3.021421e-05	
94	-4.70000e+00	2.991356e-05	
95	-4.75000e+00	2.962339e-05	
96	-4.80000e+00	2.934317e-05	
97	-4.85000e+00	2.907242e-05	
98	-4.90000e+00	2.881067e-05	
99	-4.95000e+00	2.855748e-05	
100	-5.00000e+00	2.831246e-05	
101	-5.05000e+00	2.807523e-05	
102	-5.10000e+00	2.784542e-05	
103	-5.15000e+00	2.762271e-05	
104	-5.20000e+00	2.740679e-05	
105	-5.25000e+00	2.719736e-05	
106	-5.30000e+00	2.699413e-05	
107	-5.35000e+00	2.679686e-05	
108	-5.40000e+00	2.660529e-05	
109	-5.45000e+00	2.641920e-05	
110	-5.50000e+00	2.623835e-05	
111	-5.55000e+00	2.606256e-05	
112	-5.60000e+00	2.589161e-05	

Index   v-sweep         rds             
--------------------------------------------------------------------------------
113	-5.65000e+00	2.572534e-05	
114	-5.70000e+00	2.556355e-05	
115	-5.75000e+00	2.540609e-05	
116	-5.80000e+00	2.525280e-05	
117	-5.85000e+00	2.510354e-05	
118	-5.90000e+00	2.495816e-05	
119	-5.95000e+00	2.481653e-05	
120	-6.00000e+00	2.467853e-05	
121	-6.05000e+00	2.454403e-05	
122	-6.10000e+00	2.441293e-05	
123	-6.15000e+00	2.428512e-05	
124	-6.20000e+00	2.416048e-05	
125	-6.25000e+00	2.403894e-05	
126	-6.30000e+00	2.392039e-05	
127	-6.35000e+00	2.380475e-05	
128	-6.40000e+00	2.369194e-05	
129	-6.45000e+00	2.358188e-05	
130	-6.50000e+00	2.347449e-05	
131	-6.55000e+00	2.336970e-05	
132	-6.60000e+00	2.326745e-05	
Reset re-loads circuit ***************************

Circuit: ***************************

Doing analysis at TEMP = 25.000000 and TNOM = 25.000000


No. of Data Rows : 133
                          ***************************
                          DC transfer characteristic  Mon Jan  9 13:58:51  2023
--------------------------------------------------------------------------------
Index   v-sweep         rds             
--------------------------------------------------------------------------------
0	0.000000e+00	1.426495e-03	
1	-5.00000e-02	1.398338e-03	
2	-1.00000e-01	1.370403e-03	
3	-1.50000e-01	1.342688e-03	
4	-2.00000e-01	1.315191e-03	
5	-2.50000e-01	1.287910e-03	
6	-3.00000e-01	1.260844e-03	
7	-3.50000e-01	1.233990e-03	
8	-4.00000e-01	1.207347e-03	
9	-4.50000e-01	1.180913e-03	
10	-5.00000e-01	1.154685e-03	
11	-5.50000e-01	1.128663e-03	
12	-6.00000e-01	1.102845e-03	
13	-6.50000e-01	1.077228e-03	
14	-7.00000e-01	1.051812e-03	
15	-7.50000e-01	1.026593e-03	
16	-8.00000e-01	1.001571e-03	
17	-8.50000e-01	9.767444e-04	
18	-9.00000e-01	9.521107e-04	
19	-9.50000e-01	9.276685e-04	
20	-1.00000e+00	9.034164e-04	
21	-1.05000e+00	8.793527e-04	
22	-1.10000e+00	8.554757e-04	
23	-1.15000e+00	8.317841e-04	
24	-1.20000e+00	8.082761e-04	
25	-1.25000e+00	7.849505e-04	
26	-1.30000e+00	7.618057e-04	
27	-1.35000e+00	7.388403e-04	
28	-1.40000e+00	7.160528e-04	
29	-1.45000e+00	6.934421e-04	
30	-1.50000e+00	6.710067e-04	
31	-1.55000e+00	6.487453e-04	
32	-1.60000e+00	6.266569e-04	
33	-1.65000e+00	6.047403e-04	
34	-1.70000e+00	5.829943e-04	
35	-1.75000e+00	5.614180e-04	
36	-1.80000e+00	5.400105e-04	
37	-1.85000e+00	5.187710e-04	
38	-1.90000e+00	4.976988e-04	
39	-1.95000e+00	4.767933e-04	
40	-2.00000e+00	4.560540e-04	
41	-2.05000e+00	4.354809e-04	
42	-2.10000e+00	4.150736e-04	
43	-2.15000e+00	3.948322e-04	
44	-2.20000e+00	3.747571e-04	
45	-2.25000e+00	3.548488e-04	
46	-2.30000e+00	3.351089e-04	
47	-2.35000e+00	3.155413e-04	
48	-2.40000e+00	2.961554e-04	
49	-2.45000e+00	2.769742e-04	
50	-2.50000e+00	2.580485e-04	
51	-2.55000e+00	2.394800e-04	
52	-2.60000e+00	2.214438e-04	
53	-2.65000e+00	2.041911e-04	
54	-2.70000e+00	1.880089e-04	

Index   v-sweep         rds             
--------------------------------------------------------------------------------
55	-2.75000e+00	1.731462e-04	
56	-2.80000e+00	1.597488e-04	
57	-2.85000e+00	1.478400e-04	
58	-2.90000e+00	1.373451e-04	
59	-2.95000e+00	1.281317e-04	
60	-3.00000e+00	1.200457e-04	
61	-3.05000e+00	1.129347e-04	
62	-3.10000e+00	1.066590e-04	
63	-3.15000e+00	1.010969e-04	
64	-3.20000e+00	9.614419e-05	
65	-3.25000e+00	9.171340e-05	
66	-3.30000e+00	8.773110e-05	
67	-3.35000e+00	8.413587e-05	
68	-3.40000e+00	8.087631e-05	
69	-3.45000e+00	7.790921e-05	
70	-3.50000e+00	7.519814e-05	
71	-3.55000e+00	7.271227e-05	
72	-3.60000e+00	7.042534e-05	
73	-3.65000e+00	6.831495e-05	
74	-3.70000e+00	6.636181e-05	
75	-3.75000e+00	6.454931e-05	
76	-3.80000e+00	6.286307e-05	
77	-3.85000e+00	6.129053e-05	
78	-3.90000e+00	5.982076e-05	
79	-3.95000e+00	5.844415e-05	
80	-4.00000e+00	5.715222e-05	
81	-4.05000e+00	5.593752e-05	
82	-4.10000e+00	5.479340e-05	
83	-4.15000e+00	5.371396e-05	
84	-4.20000e+00	5.269394e-05	
85	-4.25000e+00	5.172862e-05	
86	-4.30000e+00	5.081378e-05	
87	-4.35000e+00	4.994559e-05	
88	-4.40000e+00	4.912062e-05	
89	-4.45000e+00	4.833577e-05	
90	-4.50000e+00	4.758820e-05	
91	-4.55000e+00	4.687536e-05	
92	-4.60000e+00	4.619490e-05	
93	-4.65000e+00	4.554471e-05	
94	-4.70000e+00	4.492282e-05	
95	-4.75000e+00	4.432745e-05	
96	-4.80000e+00	4.375697e-05	
97	-4.85000e+00	4.320986e-05	
98	-4.90000e+00	4.268473e-05	
99	-4.95000e+00	4.218030e-05	
100	-5.00000e+00	4.169539e-05	
101	-5.05000e+00	4.122891e-05	
102	-5.10000e+00	4.077983e-05	
103	-5.15000e+00	4.034722e-05	
104	-5.20000e+00	3.993020e-05	
105	-5.25000e+00	3.952796e-05	
106	-5.30000e+00	3.913973e-05	
107	-5.35000e+00	3.876481e-05	
108	-5.40000e+00	3.840254e-05	
109	-5.45000e+00	3.805230e-05	
110	-5.50000e+00	3.771351e-05	
111	-5.55000e+00	3.738564e-05	
112	-5.60000e+00	3.706818e-05	

Index   v-sweep         rds             
--------------------------------------------------------------------------------
113	-5.65000e+00	3.676065e-05	
114	-5.70000e+00	3.646260e-05	
115	-5.75000e+00	3.617362e-05	
116	-5.80000e+00	3.589332e-05	
117	-5.85000e+00	3.562131e-05	
118	-5.90000e+00	3.535726e-05	
119	-5.95000e+00	3.510084e-05	
120	-6.00000e+00	3.485173e-05	
121	-6.05000e+00	3.460963e-05	
122	-6.10000e+00	3.437429e-05	
123	-6.15000e+00	3.414543e-05	
124	-6.20000e+00	3.392281e-05	
125	-6.25000e+00	3.370620e-05	
126	-6.30000e+00	3.349537e-05	
127	-6.35000e+00	3.329012e-05	
128	-6.40000e+00	3.309025e-05	
129	-6.45000e+00	3.289558e-05	
130	-6.50000e+00	3.270592e-05	
131	-6.55000e+00	3.252112e-05	
132	-6.60000e+00	3.234101e-05	
Reset re-loads circuit ***************************

Circuit: ***************************

Doing analysis at TEMP = 25.000000 and TNOM = 25.000000


No. of Data Rows : 133
                          ***************************
                          DC transfer characteristic  Mon Jan  9 13:58:51  2023
--------------------------------------------------------------------------------
Index   v-sweep         rds             
--------------------------------------------------------------------------------
0	0.000000e+00	1.607224e-03	
1	-5.00000e-02	1.580741e-03	
2	-1.00000e-01	1.554448e-03	
3	-1.50000e-01	1.528344e-03	
4	-2.00000e-01	1.502427e-03	
5	-2.50000e-01	1.476695e-03	
6	-3.00000e-01	1.451147e-03	
7	-3.50000e-01	1.425782e-03	
8	-4.00000e-01	1.400598e-03	
9	-4.50000e-01	1.375593e-03	
10	-5.00000e-01	1.350767e-03	
11	-5.50000e-01	1.326117e-03	
12	-6.00000e-01	1.301643e-03	
13	-6.50000e-01	1.277344e-03	
14	-7.00000e-01	1.253216e-03	
15	-7.50000e-01	1.229260e-03	
16	-8.00000e-01	1.205474e-03	
17	-8.50000e-01	1.181857e-03	
18	-9.00000e-01	1.158407e-03	
19	-9.50000e-01	1.135123e-03	
20	-1.00000e+00	1.112003e-03	
21	-1.05000e+00	1.089047e-03	
22	-1.10000e+00	1.066253e-03	
23	-1.15000e+00	1.043620e-03	
24	-1.20000e+00	1.021146e-03	
25	-1.25000e+00	9.988309e-04	
26	-1.30000e+00	9.766726e-04	
27	-1.35000e+00	9.546702e-04	
28	-1.40000e+00	9.328225e-04	
29	-1.45000e+00	9.111283e-04	
30	-1.50000e+00	8.895864e-04	
31	-1.55000e+00	8.681956e-04	
32	-1.60000e+00	8.469550e-04	
33	-1.65000e+00	8.258632e-04	
34	-1.70000e+00	8.049193e-04	
35	-1.75000e+00	7.841221e-04	
36	-1.80000e+00	7.634706e-04	
37	-1.85000e+00	7.429637e-04	
38	-1.90000e+00	7.226004e-04	
39	-1.95000e+00	7.023797e-04	
40	-2.00000e+00	6.823005e-04	
41	-2.05000e+00	6.623618e-04	
42	-2.10000e+00	6.425626e-04	
43	-2.15000e+00	6.229020e-04	
44	-2.20000e+00	6.033788e-04	
45	-2.25000e+00	5.839920e-04	
46	-2.30000e+00	5.647405e-04	
47	-2.35000e+00	5.456230e-04	
48	-2.40000e+00	5.266380e-04	
49	-2.45000e+00	5.077839e-04	
50	-2.50000e+00	4.890586e-04	
51	-2.55000e+00	4.704591e-04	
52	-2.60000e+00	4.519819e-04	
53	-2.65000e+00	4.336217e-04	
54	-2.70000e+00	4.153712e-04	

Index   v-sweep         rds             
--------------------------------------------------------------------------------
55	-2.75000e+00	3.972204e-04	
56	-2.80000e+00	3.791550e-04	
57	-2.85000e+00	3.611559e-04	
58	-2.90000e+00	3.431993e-04	
59	-2.95000e+00	3.252589e-04	
60	-3.00000e+00	3.073147e-04	
61	-3.05000e+00	2.893706e-04	
62	-3.10000e+00	2.714830e-04	
63	-3.15000e+00	2.537905e-04	
64	-3.20000e+00	2.365237e-04	
65	-3.25000e+00	2.199747e-04	
66	-3.30000e+00	2.044300e-04	
67	-3.35000e+00	1.901028e-04	
68	-3.40000e+00	1.770994e-04	
69	-3.45000e+00	1.654242e-04	
70	-3.50000e+00	1.550090e-04	
71	-3.55000e+00	1.457444e-04	
72	-3.60000e+00	1.375056e-04	
73	-3.65000e+00	1.301678e-04	
74	-3.70000e+00	1.236153e-04	
75	-3.75000e+00	1.177447e-04	
76	-3.80000e+00	1.124659e-04	
77	-3.85000e+00	1.077012e-04	
78	-3.90000e+00	1.033843e-04	
79	-3.95000e+00	9.945865e-05	
80	-4.00000e+00	9.587614e-05	
81	-4.05000e+00	9.259562e-05	
82	-4.10000e+00	8.958193e-05	
83	-4.15000e+00	8.680490e-05	
84	-4.20000e+00	8.423856e-05	
85	-4.25000e+00	8.186047e-05	
86	-4.30000e+00	7.965117e-05	
87	-4.35000e+00	7.759373e-05	
88	-4.40000e+00	7.567333e-05	
89	-4.45000e+00	7.387699e-05	
90	-4.50000e+00	7.219331e-05	
91	-4.55000e+00	7.061218e-05	
92	-4.60000e+00	6.912466e-05	
93	-4.65000e+00	6.772282e-05	
94	-4.70000e+00	6.639958e-05	
95	-4.75000e+00	6.514859e-05	
96	-4.80000e+00	6.396419e-05	
97	-4.85000e+00	6.284127e-05	
98	-4.90000e+00	6.177523e-05	
99	-4.95000e+00	6.076190e-05	
100	-5.00000e+00	5.979754e-05	
101	-5.05000e+00	5.887871e-05	
102	-5.10000e+00	5.800230e-05	
103	-5.15000e+00	5.716549e-05	
104	-5.20000e+00	5.636569e-05	
105	-5.25000e+00	5.560052e-05	
106	-5.30000e+00	5.486780e-05	
107	-5.35000e+00	5.416555e-05	
108	-5.40000e+00	5.349193e-05	
109	-5.45000e+00	5.284525e-05	
110	-5.50000e+00	5.222393e-05	
111	-5.55000e+00	5.162655e-05	
112	-5.60000e+00	5.105175e-05	

Index   v-sweep         rds             
--------------------------------------------------------------------------------
113	-5.65000e+00	5.049831e-05	
114	-5.70000e+00	4.996506e-05	
115	-5.75000e+00	4.945095e-05	
116	-5.80000e+00	4.895497e-05	
117	-5.85000e+00	4.847620e-05	
118	-5.90000e+00	4.801377e-05	
119	-5.95000e+00	4.756688e-05	
120	-6.00000e+00	4.713476e-05	
121	-6.05000e+00	4.671672e-05	
122	-6.10000e+00	4.631209e-05	
123	-6.15000e+00	4.592026e-05	
124	-6.20000e+00	4.554063e-05	
125	-6.25000e+00	4.517267e-05	
126	-6.30000e+00	4.481585e-05	
127	-6.35000e+00	4.446971e-05	
128	-6.40000e+00	4.413377e-05	
129	-6.45000e+00	4.380763e-05	
130	-6.50000e+00	4.349086e-05	
131	-6.55000e+00	4.318310e-05	
132	-6.60000e+00	4.288399e-05	
Reset re-loads circuit ***************************

Circuit: ***************************

Note: No ".plot", ".print", or ".fourier" lines; no simulations run
