
Note: Compatibility modes selected: hs

Warning: m=xx on .subckt line will override multiplier m hierarchy!


Circuit: ***************************

Doing analysis at TEMP = -40.000000 and TNOM = -40.000000


No. of Data Rows : 133
                          ***************************
                          DC transfer characteristic  Mon Jan  9 13:58:52  2023
--------------------------------------------------------------------------------
Index   v-sweep         rds             
--------------------------------------------------------------------------------
0	0.000000e+00	2.317010e-05	
1	-5.00000e-02	8.980647e-06	
2	-1.00000e-01	1.906976e-06	
3	-1.50000e-01	6.823839e-07	
4	-2.00000e-01	4.668703e-07	
5	-2.50000e-01	3.976760e-07	
6	-3.00000e-01	3.635035e-07	
7	-3.50000e-01	3.420448e-07	
8	-4.00000e-01	3.267374e-07	
9	-4.50000e-01	3.150244e-07	
10	-5.00000e-01	3.056817e-07	
11	-5.50000e-01	2.980293e-07	
12	-6.00000e-01	2.916469e-07	
13	-6.50000e-01	2.862537e-07	
14	-7.00000e-01	2.816519e-07	
15	-7.50000e-01	2.776962e-07	
16	-8.00000e-01	2.742765e-07	
17	-8.50000e-01	2.713072e-07	
18	-9.00000e-01	2.687206e-07	
19	-9.50000e-01	2.664624e-07	
20	-1.00000e+00	2.644881e-07	
21	-1.05000e+00	2.627612e-07	
22	-1.10000e+00	2.612510e-07	
23	-1.15000e+00	2.599321e-07	
24	-1.20000e+00	2.587826e-07	
25	-1.25000e+00	2.577841e-07	
26	-1.30000e+00	2.569206e-07	
27	-1.35000e+00	2.561785e-07	
28	-1.40000e+00	2.555458e-07	
29	-1.45000e+00	2.550120e-07	
30	-1.50000e+00	2.545681e-07	
31	-1.55000e+00	2.542060e-07	
32	-1.60000e+00	2.539187e-07	
33	-1.65000e+00	2.536998e-07	
34	-1.70000e+00	2.535437e-07	
35	-1.75000e+00	2.534455e-07	
36	-1.80000e+00	2.534006e-07	
37	-1.85000e+00	2.534051e-07	
38	-1.90000e+00	2.534552e-07	
39	-1.95000e+00	2.535478e-07	
40	-2.00000e+00	2.536798e-07	
41	-2.05000e+00	2.538486e-07	
42	-2.10000e+00	2.540517e-07	
43	-2.15000e+00	2.542868e-07	
44	-2.20000e+00	2.545520e-07	
45	-2.25000e+00	2.548454e-07	
46	-2.30000e+00	2.551652e-07	
47	-2.35000e+00	2.555099e-07	
48	-2.40000e+00	2.558780e-07	
49	-2.45000e+00	2.562683e-07	
50	-2.50000e+00	2.566794e-07	
51	-2.55000e+00	2.571103e-07	
52	-2.60000e+00	2.575598e-07	
53	-2.65000e+00	2.580271e-07	
54	-2.70000e+00	2.585111e-07	

Index   v-sweep         rds             
--------------------------------------------------------------------------------
55	-2.75000e+00	2.590112e-07	
56	-2.80000e+00	2.595264e-07	
57	-2.85000e+00	2.600560e-07	
58	-2.90000e+00	2.605995e-07	
59	-2.95000e+00	2.611560e-07	
60	-3.00000e+00	2.617251e-07	
61	-3.05000e+00	2.623062e-07	
62	-3.10000e+00	2.628988e-07	
63	-3.15000e+00	2.635023e-07	
64	-3.20000e+00	2.641163e-07	
65	-3.25000e+00	2.647405e-07	
66	-3.30000e+00	2.653743e-07	
67	-3.35000e+00	2.660175e-07	
68	-3.40000e+00	2.666696e-07	
69	-3.45000e+00	2.673303e-07	
70	-3.50000e+00	2.679994e-07	
71	-3.55000e+00	2.686764e-07	
72	-3.60000e+00	2.693612e-07	
73	-3.65000e+00	2.700535e-07	
74	-3.70000e+00	2.707529e-07	
75	-3.75000e+00	2.714594e-07	
76	-3.80000e+00	2.721726e-07	
77	-3.85000e+00	2.728924e-07	
78	-3.90000e+00	2.736186e-07	
79	-3.95000e+00	2.743509e-07	
80	-4.00000e+00	2.750892e-07	
81	-4.05000e+00	2.758334e-07	
82	-4.10000e+00	2.765832e-07	
83	-4.15000e+00	2.773386e-07	
84	-4.20000e+00	2.780994e-07	
85	-4.25000e+00	2.788654e-07	
86	-4.30000e+00	2.796365e-07	
87	-4.35000e+00	2.804127e-07	
88	-4.40000e+00	2.811938e-07	
89	-4.45000e+00	2.819797e-07	
90	-4.50000e+00	2.827703e-07	
91	-4.55000e+00	2.835654e-07	
92	-4.60000e+00	2.843652e-07	
93	-4.65000e+00	2.851693e-07	
94	-4.70000e+00	2.859779e-07	
95	-4.75000e+00	2.867907e-07	
96	-4.80000e+00	2.876077e-07	
97	-4.85000e+00	2.884289e-07	
98	-4.90000e+00	2.892542e-07	
99	-4.95000e+00	2.900836e-07	
100	-5.00000e+00	2.909169e-07	
101	-5.05000e+00	2.917541e-07	
102	-5.10000e+00	2.925953e-07	
103	-5.15000e+00	2.934403e-07	
104	-5.20000e+00	2.942891e-07	
105	-5.25000e+00	2.951417e-07	
106	-5.30000e+00	2.959980e-07	
107	-5.35000e+00	2.968580e-07	
108	-5.40000e+00	2.977217e-07	
109	-5.45000e+00	2.985890e-07	
110	-5.50000e+00	2.994599e-07	
111	-5.55000e+00	3.003344e-07	
112	-5.60000e+00	3.012125e-07	

Index   v-sweep         rds             
--------------------------------------------------------------------------------
113	-5.65000e+00	3.020941e-07	
114	-5.70000e+00	3.029793e-07	
115	-5.75000e+00	3.038680e-07	
116	-5.80000e+00	3.047601e-07	
117	-5.85000e+00	3.056558e-07	
118	-5.90000e+00	3.065549e-07	
119	-5.95000e+00	3.074575e-07	
120	-6.00000e+00	3.083635e-07	
121	-6.05000e+00	3.092730e-07	
122	-6.10000e+00	3.101859e-07	
123	-6.15000e+00	3.111022e-07	
124	-6.20000e+00	3.120219e-07	
125	-6.25000e+00	3.129450e-07	
126	-6.30000e+00	3.138716e-07	
127	-6.35000e+00	3.148015e-07	
128	-6.40000e+00	3.157349e-07	
129	-6.45000e+00	3.166717e-07	
130	-6.50000e+00	3.176118e-07	
131	-6.55000e+00	3.185554e-07	
132	-6.60000e+00	3.195023e-07	
Reset re-loads circuit ***************************

Circuit: ***************************

Doing analysis at TEMP = -40.000000 and TNOM = -40.000000


No. of Data Rows : 133
                          ***************************
                          DC transfer characteristic  Mon Jan  9 13:58:52  2023
--------------------------------------------------------------------------------
Index   v-sweep         rds             
--------------------------------------------------------------------------------
0	0.000000e+00	3.664220e-04	
1	-5.00000e-02	3.414452e-04	
2	-1.00000e-01	3.169533e-04	
3	-1.50000e-01	2.929369e-04	
4	-2.00000e-01	2.693873e-04	
5	-2.50000e-01	2.462969e-04	
6	-3.00000e-01	2.236603e-04	
7	-3.50000e-01	2.014751e-04	
8	-4.00000e-01	1.797443e-04	
9	-4.50000e-01	1.584816e-04	
10	-5.00000e-01	1.377211e-04	
11	-5.50000e-01	1.175401e-04	
12	-6.00000e-01	9.810700e-05	
13	-6.50000e-01	7.977681e-05	
14	-7.00000e-01	6.322039e-05	
15	-7.50000e-01	4.938743e-05	
16	-8.00000e-01	3.895262e-05	
17	-8.50000e-01	3.167961e-05	
18	-9.00000e-01	2.669930e-05	
19	-9.50000e-01	2.318505e-05	
20	-1.00000e+00	2.059213e-05	
21	-1.05000e+00	1.859908e-05	
22	-1.10000e+00	1.701583e-05	
23	-1.15000e+00	1.572524e-05	
24	-1.20000e+00	1.465153e-05	
25	-1.25000e+00	1.374342e-05	
26	-1.30000e+00	1.296489e-05	
27	-1.35000e+00	1.228980e-05	
28	-1.40000e+00	1.169869e-05	
29	-1.45000e+00	1.117674e-05	
30	-1.50000e+00	1.071246e-05	
31	-1.55000e+00	1.029679e-05	
32	-1.60000e+00	9.922490e-06	
33	-1.65000e+00	9.583680e-06	
34	-1.70000e+00	9.275564e-06	
35	-1.75000e+00	8.994170e-06	
36	-1.80000e+00	8.736184e-06	
37	-1.85000e+00	8.498822e-06	
38	-1.90000e+00	8.279724e-06	
39	-1.95000e+00	8.076877e-06	
40	-2.00000e+00	7.888554e-06	
41	-2.05000e+00	7.713264e-06	
42	-2.10000e+00	7.549715e-06	
43	-2.15000e+00	7.396777e-06	
44	-2.20000e+00	7.253464e-06	
45	-2.25000e+00	7.118907e-06	
46	-2.30000e+00	6.992337e-06	
47	-2.35000e+00	6.873076e-06	
48	-2.40000e+00	6.760516e-06	
49	-2.45000e+00	6.654119e-06	
50	-2.50000e+00	6.553401e-06	
51	-2.55000e+00	6.457926e-06	
52	-2.60000e+00	6.367303e-06	
53	-2.65000e+00	6.281179e-06	
54	-2.70000e+00	6.199235e-06	

Index   v-sweep         rds             
--------------------------------------------------------------------------------
55	-2.75000e+00	6.121179e-06	
56	-2.80000e+00	6.046747e-06	
57	-2.85000e+00	5.975700e-06	
58	-2.90000e+00	5.907816e-06	
59	-2.95000e+00	5.842894e-06	
60	-3.00000e+00	5.780750e-06	
61	-3.05000e+00	5.721215e-06	
62	-3.10000e+00	5.664131e-06	
63	-3.15000e+00	5.609356e-06	
64	-3.20000e+00	5.556756e-06	
65	-3.25000e+00	5.506208e-06	
66	-3.30000e+00	5.457599e-06	
67	-3.35000e+00	5.410823e-06	
68	-3.40000e+00	5.365782e-06	
69	-3.45000e+00	5.322384e-06	
70	-3.50000e+00	5.280546e-06	
71	-3.55000e+00	5.240188e-06	
72	-3.60000e+00	5.201235e-06	
73	-3.65000e+00	5.163620e-06	
74	-3.70000e+00	5.127277e-06	
75	-3.75000e+00	5.092146e-06	
76	-3.80000e+00	5.058171e-06	
77	-3.85000e+00	5.025298e-06	
78	-3.90000e+00	4.993479e-06	
79	-3.95000e+00	4.962665e-06	
80	-4.00000e+00	4.932813e-06	
81	-4.05000e+00	4.903882e-06	
82	-4.10000e+00	4.875832e-06	
83	-4.15000e+00	4.848627e-06	
84	-4.20000e+00	4.822232e-06	
85	-4.25000e+00	4.796615e-06	
86	-4.30000e+00	4.771745e-06	
87	-4.35000e+00	4.747592e-06	
88	-4.40000e+00	4.724129e-06	
89	-4.45000e+00	4.701329e-06	
90	-4.50000e+00	4.679170e-06	
91	-4.55000e+00	4.657626e-06	
92	-4.60000e+00	4.636676e-06	
93	-4.65000e+00	4.616299e-06	
94	-4.70000e+00	4.596475e-06	
95	-4.75000e+00	4.577185e-06	
96	-4.80000e+00	4.558412e-06	
97	-4.85000e+00	4.540138e-06	
98	-4.90000e+00	4.522348e-06	
99	-4.95000e+00	4.505025e-06	
100	-5.00000e+00	4.488157e-06	
101	-5.05000e+00	4.471728e-06	
102	-5.10000e+00	4.455726e-06	
103	-5.15000e+00	4.440138e-06	
104	-5.20000e+00	4.424952e-06	
105	-5.25000e+00	4.410158e-06	
106	-5.30000e+00	4.395744e-06	
107	-5.35000e+00	4.381700e-06	
108	-5.40000e+00	4.368016e-06	
109	-5.45000e+00	4.354683e-06	
110	-5.50000e+00	4.341693e-06	
111	-5.55000e+00	4.329036e-06	
112	-5.60000e+00	4.316705e-06	

Index   v-sweep         rds             
--------------------------------------------------------------------------------
113	-5.65000e+00	4.304692e-06	
114	-5.70000e+00	4.292989e-06	
115	-5.75000e+00	4.281590e-06	
116	-5.80000e+00	4.270487e-06	
117	-5.85000e+00	4.259675e-06	
118	-5.90000e+00	4.249148e-06	
119	-5.95000e+00	4.238898e-06	
120	-6.00000e+00	4.228921e-06	
121	-6.05000e+00	4.219212e-06	
122	-6.10000e+00	4.209765e-06	
123	-6.15000e+00	4.200574e-06	
124	-6.20000e+00	4.191636e-06	
125	-6.25000e+00	4.182946e-06	
126	-6.30000e+00	4.174500e-06	
127	-6.35000e+00	4.166292e-06	
128	-6.40000e+00	4.158320e-06	
129	-6.45000e+00	4.150579e-06	
130	-6.50000e+00	4.143065e-06	
131	-6.55000e+00	4.135775e-06	
132	-6.60000e+00	4.128705e-06	
Reset re-loads circuit ***************************

Circuit: ***************************

Doing analysis at TEMP = -40.000000 and TNOM = -40.000000


No. of Data Rows : 133
                          ***************************
                          DC transfer characteristic  Mon Jan  9 13:58:52  2023
--------------------------------------------------------------------------------
Index   v-sweep         rds             
--------------------------------------------------------------------------------
0	0.000000e+00	6.014407e-04	
1	-5.00000e-02	5.775382e-04	
2	-1.00000e-01	5.540153e-04	
3	-1.50000e-01	5.308651e-04	
4	-2.00000e-01	5.080810e-04	
5	-2.50000e-01	4.856566e-04	
6	-3.00000e-01	4.635854e-04	
7	-3.50000e-01	4.418612e-04	
8	-4.00000e-01	4.204782e-04	
9	-4.50000e-01	3.994303e-04	
10	-5.00000e-01	3.787119e-04	
11	-5.50000e-01	3.583175e-04	
12	-6.00000e-01	3.382420e-04	
13	-6.50000e-01	3.184804e-04	
14	-7.00000e-01	2.990282e-04	
15	-7.50000e-01	2.798816e-04	
16	-8.00000e-01	2.610371e-04	
17	-8.50000e-01	2.424928e-04	
18	-9.00000e-01	2.242480e-04	
19	-9.50000e-01	2.063052e-04	
20	-1.00000e+00	1.886712e-04	
21	-1.05000e+00	1.713616e-04	
22	-1.10000e+00	1.544077e-04	
23	-1.15000e+00	1.378714e-04	
24	-1.20000e+00	1.218715e-04	
25	-1.25000e+00	1.066241e-04	
26	-1.30000e+00	9.247108e-05	
27	-1.35000e+00	7.982948e-05	
28	-1.40000e+00	6.902257e-05	
29	-1.45000e+00	6.011679e-05	
30	-1.50000e+00	5.292862e-05	
31	-1.55000e+00	4.715608e-05	
32	-1.60000e+00	4.249502e-05	
33	-1.65000e+00	3.869072e-05	
34	-1.70000e+00	3.554610e-05	
35	-1.75000e+00	3.291337e-05	
36	-1.80000e+00	3.068247e-05	
37	-1.85000e+00	2.877108e-05	
38	-1.90000e+00	2.711704e-05	
39	-1.95000e+00	2.567284e-05	
40	-2.00000e+00	2.440167e-05	
41	-2.05000e+00	2.327473e-05	
42	-2.10000e+00	2.226913e-05	
43	-2.15000e+00	2.136654e-05	
44	-2.20000e+00	2.055210e-05	
45	-2.25000e+00	1.981363e-05	
46	-2.30000e+00	1.914109e-05	
47	-2.35000e+00	1.852612e-05	
48	-2.40000e+00	1.796170e-05	
49	-2.45000e+00	1.744191e-05	
50	-2.50000e+00	1.696170e-05	
51	-2.55000e+00	1.651677e-05	
52	-2.60000e+00	1.610339e-05	
53	-2.65000e+00	1.571837e-05	
54	-2.70000e+00	1.535890e-05	

Index   v-sweep         rds             
--------------------------------------------------------------------------------
55	-2.75000e+00	1.502255e-05	
56	-2.80000e+00	1.470718e-05	
57	-2.85000e+00	1.441091e-05	
58	-2.90000e+00	1.413206e-05	
59	-2.95000e+00	1.386918e-05	
60	-3.00000e+00	1.362092e-05	
61	-3.05000e+00	1.338614e-05	
62	-3.10000e+00	1.316375e-05	
63	-3.15000e+00	1.295284e-05	
64	-3.20000e+00	1.275252e-05	
65	-3.25000e+00	1.256205e-05	
66	-3.30000e+00	1.238072e-05	
67	-3.35000e+00	1.220789e-05	
68	-3.40000e+00	1.204300e-05	
69	-3.45000e+00	1.188551e-05	
70	-3.50000e+00	1.173494e-05	
71	-3.55000e+00	1.159086e-05	
72	-3.60000e+00	1.145285e-05	
73	-3.65000e+00	1.132056e-05	
74	-3.70000e+00	1.119364e-05	
75	-3.75000e+00	1.107177e-05	
76	-3.80000e+00	1.095466e-05	
77	-3.85000e+00	1.084205e-05	
78	-3.90000e+00	1.073369e-05	
79	-3.95000e+00	1.062934e-05	
80	-4.00000e+00	1.052879e-05	
81	-4.05000e+00	1.043185e-05	
82	-4.10000e+00	1.033832e-05	
83	-4.15000e+00	1.024803e-05	
84	-4.20000e+00	1.016082e-05	
85	-4.25000e+00	1.007655e-05	
86	-4.30000e+00	9.995065e-06	
87	-4.35000e+00	9.916239e-06	
88	-4.40000e+00	9.839947e-06	
89	-4.45000e+00	9.766073e-06	
90	-4.50000e+00	9.694509e-06	
91	-4.55000e+00	9.625152e-06	
92	-4.60000e+00	9.557906e-06	
93	-4.65000e+00	9.492681e-06	
94	-4.70000e+00	9.429391e-06	
95	-4.75000e+00	9.367958e-06	
96	-4.80000e+00	9.308304e-06	
97	-4.85000e+00	9.250359e-06	
98	-4.90000e+00	9.194055e-06	
99	-4.95000e+00	9.139330e-06	
100	-5.00000e+00	9.086122e-06	
101	-5.05000e+00	9.034377e-06	
102	-5.10000e+00	8.984039e-06	
103	-5.15000e+00	8.935058e-06	
104	-5.20000e+00	8.887386e-06	
105	-5.25000e+00	8.840979e-06	
106	-5.30000e+00	8.795792e-06	
107	-5.35000e+00	8.751785e-06	
108	-5.40000e+00	8.708920e-06	
109	-5.45000e+00	8.667160e-06	
110	-5.50000e+00	8.626469e-06	
111	-5.55000e+00	8.586816e-06	
112	-5.60000e+00	8.548169e-06	

Index   v-sweep         rds             
--------------------------------------------------------------------------------
113	-5.65000e+00	8.510497e-06	
114	-5.70000e+00	8.473774e-06	
115	-5.75000e+00	8.437972e-06	
116	-5.80000e+00	8.403065e-06	
117	-5.85000e+00	8.369030e-06	
118	-5.90000e+00	8.335843e-06	
119	-5.95000e+00	8.303483e-06	
120	-6.00000e+00	8.271928e-06	
121	-6.05000e+00	8.241159e-06	
122	-6.10000e+00	8.211156e-06	
123	-6.15000e+00	8.181902e-06	
124	-6.20000e+00	8.153380e-06	
125	-6.25000e+00	8.125573e-06	
126	-6.30000e+00	8.098465e-06	
127	-6.35000e+00	8.072041e-06	
128	-6.40000e+00	8.046288e-06	
129	-6.45000e+00	8.021191e-06	
130	-6.50000e+00	7.996738e-06	
131	-6.55000e+00	7.972916e-06	
132	-6.60000e+00	7.949712e-06	
Reset re-loads circuit ***************************

Circuit: ***************************

Doing analysis at TEMP = -40.000000 and TNOM = -40.000000


No. of Data Rows : 133
                          ***************************
                          DC transfer characteristic  Mon Jan  9 13:58:52  2023
--------------------------------------------------------------------------------
Index   v-sweep         rds             
--------------------------------------------------------------------------------
0	0.000000e+00	7.816372e-04	
1	-5.00000e-02	7.591770e-04	
2	-1.00000e-01	7.370216e-04	
3	-1.50000e-01	7.151662e-04	
4	-2.00000e-01	6.936063e-04	
5	-2.50000e-01	6.723375e-04	
6	-3.00000e-01	6.513551e-04	
7	-3.50000e-01	6.306550e-04	
8	-4.00000e-01	6.102328e-04	
9	-4.50000e-01	5.900842e-04	
10	-5.00000e-01	5.702051e-04	
11	-5.50000e-01	5.505914e-04	
12	-6.00000e-01	5.312391e-04	
13	-6.50000e-01	5.121441e-04	
14	-7.00000e-01	4.933026e-04	
15	-7.50000e-01	4.747108e-04	
16	-8.00000e-01	4.563649e-04	
17	-8.50000e-01	4.382611e-04	
18	-9.00000e-01	4.203958e-04	
19	-9.50000e-01	4.027654e-04	
20	-1.00000e+00	3.853663e-04	
21	-1.05000e+00	3.681949e-04	
22	-1.10000e+00	3.512478e-04	
23	-1.15000e+00	3.345212e-04	
24	-1.20000e+00	3.180114e-04	
25	-1.25000e+00	3.017145e-04	
26	-1.30000e+00	2.856261e-04	
27	-1.35000e+00	2.697413e-04	
28	-1.40000e+00	2.540539e-04	
29	-1.45000e+00	2.385563e-04	
30	-1.50000e+00	2.232385e-04	
31	-1.55000e+00	2.080867e-04	
32	-1.60000e+00	1.930836e-04	
33	-1.65000e+00	1.782093e-04	
34	-1.70000e+00	1.634506e-04	
35	-1.75000e+00	1.488262e-04	
36	-1.80000e+00	1.344341e-04	
37	-1.85000e+00	1.205064e-04	
38	-1.90000e+00	1.074063e-04	
39	-1.95000e+00	9.551937e-05	
40	-2.00000e+00	8.509940e-05	
41	-2.05000e+00	7.619702e-05	
42	-2.10000e+00	6.870051e-05	
43	-2.15000e+00	6.241881e-05	
44	-2.20000e+00	5.714648e-05	
45	-2.25000e+00	5.269714e-05	
46	-2.30000e+00	4.891453e-05	
47	-2.35000e+00	4.567257e-05	
48	-2.40000e+00	4.287117e-05	
49	-2.45000e+00	4.043130e-05	
50	-2.50000e+00	3.829046e-05	
51	-2.55000e+00	3.639900e-05	
52	-2.60000e+00	3.471719e-05	
53	-2.65000e+00	3.321300e-05	
54	-2.70000e+00	3.186042e-05	

Index   v-sweep         rds             
--------------------------------------------------------------------------------
55	-2.75000e+00	3.063814e-05	
56	-2.80000e+00	2.952858e-05	
57	-2.85000e+00	2.851713e-05	
58	-2.90000e+00	2.759155e-05	
59	-2.95000e+00	2.674151e-05	
60	-3.00000e+00	2.595827e-05	
61	-3.05000e+00	2.523436e-05	
62	-3.10000e+00	2.456338e-05	
63	-3.15000e+00	2.393980e-05	
64	-3.20000e+00	2.335883e-05	
65	-3.25000e+00	2.281630e-05	
66	-3.30000e+00	2.230856e-05	
67	-3.35000e+00	2.183241e-05	
68	-3.40000e+00	2.138503e-05	
69	-3.45000e+00	2.096391e-05	
70	-3.50000e+00	2.056683e-05	
71	-3.55000e+00	2.019182e-05	
72	-3.60000e+00	1.983710e-05	
73	-3.65000e+00	1.950109e-05	
74	-3.70000e+00	1.918237e-05	
75	-3.75000e+00	1.887964e-05	
76	-3.80000e+00	1.859176e-05	
77	-3.85000e+00	1.831766e-05	
78	-3.90000e+00	1.805640e-05	
79	-3.95000e+00	1.780710e-05	
80	-4.00000e+00	1.756897e-05	
81	-4.05000e+00	1.734128e-05	
82	-4.10000e+00	1.712338e-05	
83	-4.15000e+00	1.691465e-05	
84	-4.20000e+00	1.671453e-05	
85	-4.25000e+00	1.652251e-05	
86	-4.30000e+00	1.633812e-05	
87	-4.35000e+00	1.616091e-05	
88	-4.40000e+00	1.599048e-05	
89	-4.45000e+00	1.582646e-05	
90	-4.50000e+00	1.566850e-05	
91	-4.55000e+00	1.551627e-05	
92	-4.60000e+00	1.536947e-05	
93	-4.65000e+00	1.522782e-05	
94	-4.70000e+00	1.509107e-05	
95	-4.75000e+00	1.495896e-05	
96	-4.80000e+00	1.483128e-05	
97	-4.85000e+00	1.470780e-05	
98	-4.90000e+00	1.458833e-05	
99	-4.95000e+00	1.447269e-05	
100	-5.00000e+00	1.436069e-05	
101	-5.05000e+00	1.425218e-05	
102	-5.10000e+00	1.414699e-05	
103	-5.15000e+00	1.404500e-05	
104	-5.20000e+00	1.394605e-05	
105	-5.25000e+00	1.385002e-05	
106	-5.30000e+00	1.375679e-05	
107	-5.35000e+00	1.366626e-05	
108	-5.40000e+00	1.357830e-05	
109	-5.45000e+00	1.349282e-05	
110	-5.50000e+00	1.340972e-05	
111	-5.55000e+00	1.332892e-05	
112	-5.60000e+00	1.325033e-05	

Index   v-sweep         rds             
--------------------------------------------------------------------------------
113	-5.65000e+00	1.317387e-05	
114	-5.70000e+00	1.309946e-05	
115	-5.75000e+00	1.302703e-05	
116	-5.80000e+00	1.295652e-05	
117	-5.85000e+00	1.288785e-05	
118	-5.90000e+00	1.282097e-05	
119	-5.95000e+00	1.275583e-05	
120	-6.00000e+00	1.269236e-05	
121	-6.05000e+00	1.263051e-05	
122	-6.10000e+00	1.257024e-05	
123	-6.15000e+00	1.251150e-05	
124	-6.20000e+00	1.245424e-05	
125	-6.25000e+00	1.239843e-05	
126	-6.30000e+00	1.234402e-05	
127	-6.35000e+00	1.229098e-05	
128	-6.40000e+00	1.223926e-05	
129	-6.45000e+00	1.218885e-05	
130	-6.50000e+00	1.213969e-05	
131	-6.55000e+00	1.209177e-05	
132	-6.60000e+00	1.204506e-05	
Reset re-loads circuit ***************************

Circuit: ***************************

Doing analysis at TEMP = -40.000000 and TNOM = -40.000000


No. of Data Rows : 133
                          ***************************
                          DC transfer characteristic  Mon Jan  9 13:58:52  2023
--------------------------------------------------------------------------------
Index   v-sweep         rds             
--------------------------------------------------------------------------------
0	0.000000e+00	9.146716e-04	
1	-5.00000e-02	8.937338e-04	
2	-1.00000e-01	8.730450e-04	
3	-1.50000e-01	8.526019e-04	
4	-2.00000e-01	8.324013e-04	
5	-2.50000e-01	8.124399e-04	
6	-3.00000e-01	7.927146e-04	
7	-3.50000e-01	7.732222e-04	
8	-4.00000e-01	7.539595e-04	
9	-4.50000e-01	7.349236e-04	
10	-5.00000e-01	7.161114e-04	
11	-5.50000e-01	6.975198e-04	
12	-6.00000e-01	6.791460e-04	
13	-6.50000e-01	6.609870e-04	
14	-7.00000e-01	6.430400e-04	
15	-7.50000e-01	6.253020e-04	
16	-8.00000e-01	6.077704e-04	
17	-8.50000e-01	5.904422e-04	
18	-9.00000e-01	5.733149e-04	
19	-9.50000e-01	5.563857e-04	
20	-1.00000e+00	5.396519e-04	
21	-1.05000e+00	5.231110e-04	
22	-1.10000e+00	5.067602e-04	
23	-1.15000e+00	4.905971e-04	
24	-1.20000e+00	4.746191e-04	
25	-1.25000e+00	4.588236e-04	
26	-1.30000e+00	4.432080e-04	
27	-1.35000e+00	4.277698e-04	
28	-1.40000e+00	4.125064e-04	
29	-1.45000e+00	3.974149e-04	
30	-1.50000e+00	3.824925e-04	
31	-1.55000e+00	3.677361e-04	
32	-1.60000e+00	3.531424e-04	
33	-1.65000e+00	3.387075e-04	
34	-1.70000e+00	3.244267e-04	
35	-1.75000e+00	3.102945e-04	
36	-1.80000e+00	2.963036e-04	
37	-1.85000e+00	2.824444e-04	
38	-1.90000e+00	2.687038e-04	
39	-1.95000e+00	2.550636e-04	
40	-2.00000e+00	2.414980e-04	
41	-2.05000e+00	2.279710e-04	
42	-2.10000e+00	2.144341e-04	
43	-2.15000e+00	2.008269e-04	
44	-2.20000e+00	1.870879e-04	
45	-2.25000e+00	1.731831e-04	
46	-2.30000e+00	1.591594e-04	
47	-2.35000e+00	1.452042e-04	
48	-2.40000e+00	1.316563e-04	
49	-2.45000e+00	1.189252e-04	
50	-2.50000e+00	1.073537e-04	
51	-2.55000e+00	9.712340e-05	
52	-2.60000e+00	8.824810e-05	
53	-2.65000e+00	8.062747e-05	
54	-2.70000e+00	7.410764e-05	

Index   v-sweep         rds             
--------------------------------------------------------------------------------
55	-2.75000e+00	6.852405e-05	
56	-2.80000e+00	6.372397e-05	
57	-2.85000e+00	5.957524e-05	
58	-2.90000e+00	5.596751e-05	
59	-2.95000e+00	5.281029e-05	
60	-3.00000e+00	5.002998e-05	
61	-3.05000e+00	4.756676e-05	
62	-3.10000e+00	4.537200e-05	
63	-3.15000e+00	4.340591e-05	
64	-3.20000e+00	4.163587e-05	
65	-3.25000e+00	4.003489e-05	
66	-3.30000e+00	3.858057e-05	
67	-3.35000e+00	3.725416e-05	
68	-3.40000e+00	3.603991e-05	
69	-3.45000e+00	3.492447e-05	
70	-3.50000e+00	3.389651e-05	
71	-3.55000e+00	3.294631e-05	
72	-3.60000e+00	3.206553e-05	
73	-3.65000e+00	3.124695e-05	
74	-3.70000e+00	3.048432e-05	
75	-3.75000e+00	2.977217e-05	
76	-3.80000e+00	2.910573e-05	
77	-3.85000e+00	2.848080e-05	
78	-3.90000e+00	2.789366e-05	
79	-3.95000e+00	2.734103e-05	
80	-4.00000e+00	2.682001e-05	
81	-4.05000e+00	2.632798e-05	
82	-4.10000e+00	2.586262e-05	
83	-4.15000e+00	2.542185e-05	
84	-4.20000e+00	2.500380e-05	
85	-4.25000e+00	2.460677e-05	
86	-4.30000e+00	2.422923e-05	
87	-4.35000e+00	2.386981e-05	
88	-4.40000e+00	2.352725e-05	
89	-4.45000e+00	2.320039e-05	
90	-4.50000e+00	2.288821e-05	
91	-4.55000e+00	2.258974e-05	
92	-4.60000e+00	2.230411e-05	
93	-4.65000e+00	2.203053e-05	
94	-4.70000e+00	2.176825e-05	
95	-4.75000e+00	2.151660e-05	
96	-4.80000e+00	2.127496e-05	
97	-4.85000e+00	2.104274e-05	
98	-4.90000e+00	2.081942e-05	
99	-4.95000e+00	2.060450e-05	
100	-5.00000e+00	2.039753e-05	
101	-5.05000e+00	2.019807e-05	
102	-5.10000e+00	2.000574e-05	
103	-5.15000e+00	1.982016e-05	
104	-5.20000e+00	1.964100e-05	
105	-5.25000e+00	1.946793e-05	
106	-5.30000e+00	1.930065e-05	
107	-5.35000e+00	1.913889e-05	
108	-5.40000e+00	1.898238e-05	
109	-5.45000e+00	1.883088e-05	
110	-5.50000e+00	1.868416e-05	
111	-5.55000e+00	1.854200e-05	
112	-5.60000e+00	1.840421e-05	

Index   v-sweep         rds             
--------------------------------------------------------------------------------
113	-5.65000e+00	1.827059e-05	
114	-5.70000e+00	1.814097e-05	
115	-5.75000e+00	1.801518e-05	
116	-5.80000e+00	1.789305e-05	
117	-5.85000e+00	1.777444e-05	
118	-5.90000e+00	1.765922e-05	
119	-5.95000e+00	1.754724e-05	
120	-6.00000e+00	1.743839e-05	
121	-6.05000e+00	1.733255e-05	
122	-6.10000e+00	1.722960e-05	
123	-6.15000e+00	1.712944e-05	
124	-6.20000e+00	1.703197e-05	
125	-6.25000e+00	1.693711e-05	
126	-6.30000e+00	1.684475e-05	
127	-6.35000e+00	1.675482e-05	
128	-6.40000e+00	1.666724e-05	
129	-6.45000e+00	1.658193e-05	
130	-6.50000e+00	1.649882e-05	
131	-6.55000e+00	1.641785e-05	
132	-6.60000e+00	1.633894e-05	
Reset re-loads circuit ***************************

Circuit: ***************************

Doing analysis at TEMP = -40.000000 and TNOM = -40.000000


No. of Data Rows : 133
                          ***************************
                          DC transfer characteristic  Mon Jan  9 13:58:52  2023
--------------------------------------------------------------------------------
Index   v-sweep         rds             
--------------------------------------------------------------------------------
0	0.000000e+00	1.019049e-03	
1	-5.00000e-02	9.995311e-04	
2	-1.00000e-01	9.802202e-04	
3	-1.50000e-01	9.611141e-04	
4	-2.00000e-01	9.422103e-04	
5	-2.50000e-01	9.235064e-04	
6	-3.00000e-01	9.050001e-04	
7	-3.50000e-01	8.866890e-04	
8	-4.00000e-01	8.685708e-04	
9	-4.50000e-01	8.506432e-04	
10	-5.00000e-01	8.329039e-04	
11	-5.50000e-01	8.153506e-04	
12	-6.00000e-01	7.979813e-04	
13	-6.50000e-01	7.807935e-04	
14	-7.00000e-01	7.637853e-04	
15	-7.50000e-01	7.469543e-04	
16	-8.00000e-01	7.302986e-04	
17	-8.50000e-01	7.138160e-04	
18	-9.00000e-01	6.975044e-04	
19	-9.50000e-01	6.813618e-04	
20	-1.00000e+00	6.653861e-04	
21	-1.05000e+00	6.495755e-04	
22	-1.10000e+00	6.339277e-04	
23	-1.15000e+00	6.184410e-04	
24	-1.20000e+00	6.031135e-04	
25	-1.25000e+00	5.879430e-04	
26	-1.30000e+00	5.729279e-04	
27	-1.35000e+00	5.580662e-04	
28	-1.40000e+00	5.433561e-04	
29	-1.45000e+00	5.287957e-04	
30	-1.50000e+00	5.143831e-04	
31	-1.55000e+00	5.001166e-04	
32	-1.60000e+00	4.859942e-04	
33	-1.65000e+00	4.720141e-04	
34	-1.70000e+00	4.581744e-04	
35	-1.75000e+00	4.444730e-04	
36	-1.80000e+00	4.309080e-04	
37	-1.85000e+00	4.174771e-04	
38	-1.90000e+00	4.041781e-04	
39	-1.95000e+00	3.910081e-04	
40	-2.00000e+00	3.779644e-04	
41	-2.05000e+00	3.650434e-04	
42	-2.10000e+00	3.522409e-04	
43	-2.15000e+00	3.395518e-04	
44	-2.20000e+00	3.269695e-04	
45	-2.25000e+00	3.144851e-04	
46	-2.30000e+00	3.020871e-04	
47	-2.35000e+00	2.897594e-04	
48	-2.40000e+00	2.774800e-04	
49	-2.45000e+00	2.652181e-04	
50	-2.50000e+00	2.529313e-04	
51	-2.55000e+00	2.405626e-04	
52	-2.60000e+00	2.280390e-04	
53	-2.65000e+00	2.152761e-04	
54	-2.70000e+00	2.021959e-04	

Index   v-sweep         rds             
--------------------------------------------------------------------------------
55	-2.75000e+00	1.887639e-04	
56	-2.80000e+00	1.750441e-04	
57	-2.85000e+00	1.612443e-04	
58	-2.90000e+00	1.477082e-04	
59	-2.95000e+00	1.348328e-04	
60	-3.00000e+00	1.229543e-04	
61	-3.05000e+00	1.122721e-04	
62	-3.10000e+00	1.028397e-04	
63	-3.15000e+00	9.460294e-05	
64	-3.20000e+00	8.744777e-05	
65	-3.25000e+00	8.123817e-05	
66	-3.30000e+00	7.583911e-05	
67	-3.35000e+00	7.112784e-05	
68	-3.40000e+00	6.699785e-05	
69	-3.45000e+00	6.335909e-05	
70	-3.50000e+00	6.013640e-05	
71	-3.55000e+00	5.726745e-05	
72	-3.60000e+00	5.470063e-05	
73	-3.65000e+00	5.239315e-05	
74	-3.70000e+00	5.030942e-05	
75	-3.75000e+00	4.841976e-05	
76	-3.80000e+00	4.669924e-05	
77	-3.85000e+00	4.512688e-05	
78	-3.90000e+00	4.368491e-05	
79	-3.95000e+00	4.235819e-05	
80	-4.00000e+00	4.113380e-05	
81	-4.05000e+00	4.000059e-05	
82	-4.10000e+00	3.894898e-05	
83	-4.15000e+00	3.797064e-05	
84	-4.20000e+00	3.705831e-05	
85	-4.25000e+00	3.620566e-05	
86	-4.30000e+00	3.540710e-05	
87	-4.35000e+00	3.465775e-05	
88	-4.40000e+00	3.395325e-05	
89	-4.45000e+00	3.328977e-05	
90	-4.50000e+00	3.266387e-05	
91	-4.55000e+00	3.207249e-05	
92	-4.60000e+00	3.151290e-05	
93	-4.65000e+00	3.098263e-05	
94	-4.70000e+00	3.047948e-05	
95	-4.75000e+00	3.000143e-05	
96	-4.80000e+00	2.954669e-05	
97	-4.85000e+00	2.911361e-05	
98	-4.90000e+00	2.870070e-05	
99	-4.95000e+00	2.830660e-05	
100	-5.00000e+00	2.793007e-05	
101	-5.05000e+00	2.756998e-05	
102	-5.10000e+00	2.722529e-05	
103	-5.15000e+00	2.689504e-05	
104	-5.20000e+00	2.657836e-05	
105	-5.25000e+00	2.627444e-05	
106	-5.30000e+00	2.598253e-05	
107	-5.35000e+00	2.570195e-05	
108	-5.40000e+00	2.543206e-05	
109	-5.45000e+00	2.517227e-05	
110	-5.50000e+00	2.492202e-05	
111	-5.55000e+00	2.468083e-05	
112	-5.60000e+00	2.444820e-05	

Index   v-sweep         rds             
--------------------------------------------------------------------------------
113	-5.65000e+00	2.422370e-05	
114	-5.70000e+00	2.400692e-05	
115	-5.75000e+00	2.379748e-05	
116	-5.80000e+00	2.359501e-05	
117	-5.85000e+00	2.339919e-05	
118	-5.90000e+00	2.320970e-05	
119	-5.95000e+00	2.302624e-05	
120	-6.00000e+00	2.284855e-05	
121	-6.05000e+00	2.267636e-05	
122	-6.10000e+00	2.250944e-05	
123	-6.15000e+00	2.234755e-05	
124	-6.20000e+00	2.219048e-05	
125	-6.25000e+00	2.203803e-05	
126	-6.30000e+00	2.189002e-05	
127	-6.35000e+00	2.174625e-05	
128	-6.40000e+00	2.160657e-05	
129	-6.45000e+00	2.147082e-05	
130	-6.50000e+00	2.133884e-05	
131	-6.55000e+00	2.121051e-05	
132	-6.60000e+00	2.108567e-05	
Reset re-loads circuit ***************************

Circuit: ***************************

Note: No ".plot", ".print", or ".fourier" lines; no simulations run
