
Note: Compatibility modes selected: hs

Warning: m=xx on .subckt line will override multiplier m hierarchy!


Circuit: ***************************

Doing analysis at TEMP = -40.000000 and TNOM = -40.000000


No. of Data Rows : 133
                          ***************************
                          DC transfer characteristic  Mon Jan  9 13:58:52  2023
--------------------------------------------------------------------------------
Index   v-sweep         rds             
--------------------------------------------------------------------------------
0	0.000000e+00	1.525768e-06	
1	-5.00000e-02	3.822227e-07	
2	-1.00000e-01	4.649055e-08	
3	-1.50000e-01	9.974200e-09	
4	-2.00000e-01	3.790466e-09	
5	-2.50000e-01	2.045827e-09	
6	-3.00000e-01	1.370221e-09	
7	-3.50000e-01	1.048436e-09	
8	-4.00000e-01	8.711780e-10	
9	-4.50000e-01	7.624613e-10	
10	-5.00000e-01	6.900984e-10	
11	-5.50000e-01	6.387751e-10	
12	-6.00000e-01	6.005107e-10	
13	-6.50000e-01	5.708292e-10	
14	-7.00000e-01	5.470626e-10	
15	-7.50000e-01	5.275378e-10	
16	-8.00000e-01	5.111584e-10	
17	-8.50000e-01	4.971792e-10	
18	-9.00000e-01	4.850762e-10	
19	-9.50000e-01	4.744711e-10	
20	-1.00000e+00	4.650834e-10	
21	-1.05000e+00	4.567008e-10	
22	-1.10000e+00	4.491591e-10	
23	-1.15000e+00	4.423298e-10	
24	-1.20000e+00	4.361099e-10	
25	-1.25000e+00	4.304165e-10	
26	-1.30000e+00	4.251815e-10	
27	-1.35000e+00	4.203487e-10	
28	-1.40000e+00	4.158710e-10	
29	-1.45000e+00	4.117087e-10	
30	-1.50000e+00	4.078282e-10	
31	-1.55000e+00	4.042004e-10	
32	-1.60000e+00	4.008005e-10	
33	-1.65000e+00	3.976069e-10	
34	-1.70000e+00	3.946006e-10	
35	-1.75000e+00	3.917652e-10	
36	-1.80000e+00	3.890859e-10	
37	-1.85000e+00	3.865499e-10	
38	-1.90000e+00	3.841457e-10	
39	-1.95000e+00	3.818630e-10	
40	-2.00000e+00	3.796926e-10	
41	-2.05000e+00	3.776263e-10	
42	-2.10000e+00	3.756566e-10	
43	-2.15000e+00	3.737767e-10	
44	-2.20000e+00	3.719806e-10	
45	-2.25000e+00	3.702627e-10	
46	-2.30000e+00	3.686179e-10	
47	-2.35000e+00	3.670416e-10	
48	-2.40000e+00	3.655296e-10	
49	-2.45000e+00	3.640779e-10	
50	-2.50000e+00	3.626830e-10	
51	-2.55000e+00	3.613416e-10	
52	-2.60000e+00	3.600506e-10	
53	-2.65000e+00	3.588073e-10	
54	-2.70000e+00	3.576091e-10	

Index   v-sweep         rds             
--------------------------------------------------------------------------------
55	-2.75000e+00	3.564534e-10	
56	-2.80000e+00	3.553382e-10	
57	-2.85000e+00	3.542613e-10	
58	-2.90000e+00	3.532207e-10	
59	-2.95000e+00	3.522147e-10	
60	-3.00000e+00	3.512415e-10	
61	-3.05000e+00	3.502997e-10	
62	-3.10000e+00	3.493876e-10	
63	-3.15000e+00	3.485040e-10	
64	-3.20000e+00	3.476475e-10	
65	-3.25000e+00	3.468169e-10	
66	-3.30000e+00	3.460111e-10	
67	-3.35000e+00	3.452289e-10	
68	-3.40000e+00	3.444695e-10	
69	-3.45000e+00	3.437317e-10	
70	-3.50000e+00	3.430147e-10	
71	-3.55000e+00	3.423178e-10	
72	-3.60000e+00	3.416400e-10	
73	-3.65000e+00	3.409806e-10	
74	-3.70000e+00	3.403388e-10	
75	-3.75000e+00	3.397141e-10	
76	-3.80000e+00	3.391058e-10	
77	-3.85000e+00	3.385132e-10	
78	-3.90000e+00	3.379358e-10	
79	-3.95000e+00	3.373730e-10	
80	-4.00000e+00	3.368244e-10	
81	-4.05000e+00	3.362894e-10	
82	-4.10000e+00	3.357675e-10	
83	-4.15000e+00	3.352583e-10	
84	-4.20000e+00	3.347614e-10	
85	-4.25000e+00	3.342764e-10	
86	-4.30000e+00	3.338029e-10	
87	-4.35000e+00	3.333405e-10	
88	-4.40000e+00	3.328889e-10	
89	-4.45000e+00	3.324477e-10	
90	-4.50000e+00	3.320167e-10	
91	-4.55000e+00	3.315955e-10	
92	-4.60000e+00	3.311838e-10	
93	-4.65000e+00	3.307814e-10	
94	-4.70000e+00	3.303880e-10	
95	-4.75000e+00	3.300033e-10	
96	-4.80000e+00	3.296271e-10	
97	-4.85000e+00	3.292592e-10	
98	-4.90000e+00	3.288993e-10	
99	-4.95000e+00	3.285473e-10	
100	-5.00000e+00	3.282029e-10	
101	-5.05000e+00	3.278659e-10	
102	-5.10000e+00	3.275362e-10	
103	-5.15000e+00	3.272136e-10	
104	-5.20000e+00	3.268978e-10	
105	-5.25000e+00	3.265888e-10	
106	-5.30000e+00	3.262864e-10	
107	-5.35000e+00	3.259903e-10	
108	-5.40000e+00	3.257006e-10	
109	-5.45000e+00	3.254170e-10	
110	-5.50000e+00	3.251394e-10	
111	-5.55000e+00	3.248676e-10	
112	-5.60000e+00	3.246016e-10	

Index   v-sweep         rds             
--------------------------------------------------------------------------------
113	-5.65000e+00	3.243412e-10	
114	-5.70000e+00	3.240862e-10	
115	-5.75000e+00	3.238367e-10	
116	-5.80000e+00	3.235924e-10	
117	-5.85000e+00	3.233533e-10	
118	-5.90000e+00	3.231193e-10	
119	-5.95000e+00	3.228902e-10	
120	-6.00000e+00	3.226661e-10	
121	-6.05000e+00	3.224466e-10	
122	-6.10000e+00	3.222319e-10	
123	-6.15000e+00	3.220218e-10	
124	-6.20000e+00	3.218161e-10	
125	-6.25000e+00	3.216149e-10	
126	-6.30000e+00	3.214181e-10	
127	-6.35000e+00	3.212256e-10	
128	-6.40000e+00	3.210372e-10	
129	-6.45000e+00	3.208530e-10	
130	-6.50000e+00	3.206728e-10	
131	-6.55000e+00	3.204966e-10	
132	-6.60000e+00	3.203243e-10	
Reset re-loads circuit ***************************

Circuit: ***************************

Doing analysis at TEMP = -40.000000 and TNOM = -40.000000


No. of Data Rows : 133
                          ***************************
                          DC transfer characteristic  Mon Jan  9 13:58:52  2023
--------------------------------------------------------------------------------
Index   v-sweep         rds             
--------------------------------------------------------------------------------
0	0.000000e+00	3.295450e-05	
1	-5.00000e-02	3.067792e-05	
2	-1.00000e-01	2.840383e-05	
3	-1.50000e-01	2.613243e-05	
4	-2.00000e-01	2.386403e-05	
5	-2.50000e-01	2.159915e-05	
6	-3.00000e-01	1.933863e-05	
7	-3.50000e-01	1.708394e-05	
8	-4.00000e-01	1.483777e-05	
9	-4.50000e-01	1.260520e-05	
10	-5.00000e-01	1.039643e-05	
11	-5.50000e-01	8.232710e-06	
12	-6.00000e-01	6.158995e-06	
13	-6.50000e-01	4.264806e-06	
14	-7.00000e-01	2.693469e-06	
15	-7.50000e-01	1.576874e-06	
16	-8.00000e-01	9.099806e-07	
17	-8.50000e-01	5.561328e-07	
18	-9.00000e-01	3.738630e-07	
19	-9.50000e-01	2.766186e-07	
20	-1.00000e+00	2.213134e-07	
21	-1.05000e+00	1.875794e-07	
22	-1.10000e+00	1.656035e-07	
23	-1.15000e+00	1.504332e-07	
24	-1.20000e+00	1.394307e-07	
25	-1.25000e+00	1.311134e-07	
26	-1.30000e+00	1.246059e-07	
27	-1.35000e+00	1.193671e-07	
28	-1.40000e+00	1.150487e-07	
29	-1.45000e+00	1.114185e-07	
30	-1.50000e+00	1.083162e-07	
31	-1.55000e+00	1.056283e-07	
32	-1.60000e+00	1.032720e-07	
33	-1.65000e+00	1.011857e-07	
34	-1.70000e+00	9.932259e-08	
35	-1.75000e+00	9.764641e-08	
36	-1.80000e+00	9.612859e-08	
37	-1.85000e+00	9.474634e-08	
38	-1.90000e+00	9.348119e-08	
39	-1.95000e+00	9.231802e-08	
40	-2.00000e+00	9.124431e-08	
41	-2.05000e+00	9.024959e-08	
42	-2.10000e+00	8.932502e-08	
43	-2.15000e+00	8.846310e-08	
44	-2.20000e+00	8.765739e-08	
45	-2.25000e+00	8.690234e-08	
46	-2.30000e+00	8.619313e-08	
47	-2.35000e+00	8.552556e-08	
48	-2.40000e+00	8.489594e-08	
49	-2.45000e+00	8.430103e-08	
50	-2.50000e+00	8.373794e-08	
51	-2.55000e+00	8.320411e-08	
52	-2.60000e+00	8.269727e-08	
53	-2.65000e+00	8.221537e-08	
54	-2.70000e+00	8.175656e-08	

Index   v-sweep         rds             
--------------------------------------------------------------------------------
55	-2.75000e+00	8.131920e-08	
56	-2.80000e+00	8.090178e-08	
57	-2.85000e+00	8.050294e-08	
58	-2.90000e+00	8.012145e-08	
59	-2.95000e+00	7.975618e-08	
60	-3.00000e+00	7.940610e-08	
61	-3.05000e+00	7.907027e-08	
62	-3.10000e+00	7.874783e-08	
63	-3.15000e+00	7.843798e-08	
64	-3.20000e+00	7.813999e-08	
65	-3.25000e+00	7.785319e-08	
66	-3.30000e+00	7.757695e-08	
67	-3.35000e+00	7.731068e-08	
68	-3.40000e+00	7.705387e-08	
69	-3.45000e+00	7.680601e-08	
70	-3.50000e+00	7.656663e-08	
71	-3.55000e+00	7.633531e-08	
72	-3.60000e+00	7.611164e-08	
73	-3.65000e+00	7.589525e-08	
74	-3.70000e+00	7.568579e-08	
75	-3.75000e+00	7.548294e-08	
76	-3.80000e+00	7.528637e-08	
77	-3.85000e+00	7.509582e-08	
78	-3.90000e+00	7.491100e-08	
79	-3.95000e+00	7.473166e-08	
80	-4.00000e+00	7.455756e-08	
81	-4.05000e+00	7.438848e-08	
82	-4.10000e+00	7.422421e-08	
83	-4.15000e+00	7.406454e-08	
84	-4.20000e+00	7.390929e-08	
85	-4.25000e+00	7.375829e-08	
86	-4.30000e+00	7.361135e-08	
87	-4.35000e+00	7.346833e-08	
88	-4.40000e+00	7.332907e-08	
89	-4.45000e+00	7.319343e-08	
90	-4.50000e+00	7.306127e-08	
91	-4.55000e+00	7.293248e-08	
92	-4.60000e+00	7.280692e-08	
93	-4.65000e+00	7.268448e-08	
94	-4.70000e+00	7.256505e-08	
95	-4.75000e+00	7.244853e-08	
96	-4.80000e+00	7.233482e-08	
97	-4.85000e+00	7.222383e-08	
98	-4.90000e+00	7.211546e-08	
99	-4.95000e+00	7.200963e-08	
100	-5.00000e+00	7.190627e-08	
101	-5.05000e+00	7.180528e-08	
102	-5.10000e+00	7.170660e-08	
103	-5.15000e+00	7.161016e-08	
104	-5.20000e+00	7.151590e-08	
105	-5.25000e+00	7.142374e-08	
106	-5.30000e+00	7.133362e-08	
107	-5.35000e+00	7.124549e-08	
108	-5.40000e+00	7.115930e-08	
109	-5.45000e+00	7.107498e-08	
110	-5.50000e+00	7.099249e-08	
111	-5.55000e+00	7.091178e-08	
112	-5.60000e+00	7.083280e-08	

Index   v-sweep         rds             
--------------------------------------------------------------------------------
113	-5.65000e+00	7.075551e-08	
114	-5.70000e+00	7.067986e-08	
115	-5.75000e+00	7.060581e-08	
116	-5.80000e+00	7.053332e-08	
117	-5.85000e+00	7.046236e-08	
118	-5.90000e+00	7.039288e-08	
119	-5.95000e+00	7.032486e-08	
120	-6.00000e+00	7.025825e-08	
121	-6.05000e+00	7.019303e-08	
122	-6.10000e+00	7.012917e-08	
123	-6.15000e+00	7.006663e-08	
124	-6.20000e+00	7.000538e-08	
125	-6.25000e+00	6.994540e-08	
126	-6.30000e+00	6.988667e-08	
127	-6.35000e+00	6.982915e-08	
128	-6.40000e+00	6.977281e-08	
129	-6.45000e+00	6.971764e-08	
130	-6.50000e+00	6.966362e-08	
131	-6.55000e+00	6.961071e-08	
132	-6.60000e+00	6.955890e-08	
Reset re-loads circuit ***************************

Circuit: ***************************

Doing analysis at TEMP = -40.000000 and TNOM = -40.000000


No. of Data Rows : 133
                          ***************************
                          DC transfer characteristic  Mon Jan  9 13:58:52  2023
--------------------------------------------------------------------------------
Index   v-sweep         rds             
--------------------------------------------------------------------------------
0	0.000000e+00	5.961408e-05	
1	-5.00000e-02	5.752652e-05	
2	-1.00000e-01	5.544070e-05	
3	-1.50000e-01	5.335665e-05	
4	-2.00000e-01	5.127437e-05	
5	-2.50000e-01	4.919388e-05	
6	-3.00000e-01	4.711519e-05	
7	-3.50000e-01	4.503834e-05	
8	-4.00000e-01	4.296335e-05	
9	-4.50000e-01	4.089027e-05	
10	-5.00000e-01	3.881915e-05	
11	-5.50000e-01	3.675006e-05	
12	-6.00000e-01	3.468311e-05	
13	-6.50000e-01	3.261842e-05	
14	-7.00000e-01	3.055618e-05	
15	-7.50000e-01	2.849667e-05	
16	-8.00000e-01	2.644025e-05	
17	-8.50000e-01	2.438749e-05	
18	-9.00000e-01	2.233920e-05	
19	-9.50000e-01	2.029666e-05	
20	-1.00000e+00	1.826184e-05	
21	-1.05000e+00	1.623792e-05	
22	-1.10000e+00	1.423014e-05	
23	-1.15000e+00	1.224731e-05	
24	-1.20000e+00	1.030444e-05	
25	-1.25000e+00	8.426954e-06	
26	-1.30000e+00	6.656280e-06	
27	-1.35000e+00	5.053419e-06	
28	-1.40000e+00	3.691280e-06	
29	-1.45000e+00	2.626781e-06	
30	-1.50000e+00	1.866446e-06	
31	-1.55000e+00	1.361684e-06	
32	-1.60000e+00	1.039704e-06	
33	-1.65000e+00	8.354349e-07	
34	-1.70000e+00	7.032624e-07	
35	-1.75000e+00	6.148145e-07	
36	-1.80000e+00	5.532757e-07	
37	-1.85000e+00	5.087583e-07	
38	-1.90000e+00	4.753672e-07	
39	-1.95000e+00	4.495010e-07	
40	-2.00000e+00	4.288941e-07	
41	-2.05000e+00	4.120779e-07	
42	-2.10000e+00	3.980717e-07	
43	-2.15000e+00	3.862015e-07	
44	-2.20000e+00	3.759921e-07	
45	-2.25000e+00	3.671002e-07	
46	-2.30000e+00	3.592719e-07	
47	-2.35000e+00	3.523159e-07	
48	-2.40000e+00	3.460852e-07	
49	-2.45000e+00	3.404651e-07	
50	-2.50000e+00	3.353646e-07	
51	-2.55000e+00	3.307105e-07	
52	-2.60000e+00	3.264433e-07	
53	-2.65000e+00	3.225140e-07	
54	-2.70000e+00	3.188819e-07	

Index   v-sweep         rds             
--------------------------------------------------------------------------------
55	-2.75000e+00	3.155128e-07	
56	-2.80000e+00	3.123778e-07	
57	-2.85000e+00	3.094522e-07	
58	-2.90000e+00	3.067148e-07	
59	-2.95000e+00	3.041473e-07	
60	-3.00000e+00	3.017338e-07	
61	-3.05000e+00	2.994603e-07	
62	-3.10000e+00	2.973146e-07	
63	-3.15000e+00	2.952858e-07	
64	-3.20000e+00	2.933644e-07	
65	-3.25000e+00	2.915419e-07	
66	-3.30000e+00	2.898106e-07	
67	-3.35000e+00	2.881637e-07	
68	-3.40000e+00	2.865950e-07	
69	-3.45000e+00	2.850989e-07	
70	-3.50000e+00	2.836705e-07	
71	-3.55000e+00	2.823051e-07	
72	-3.60000e+00	2.809986e-07	
73	-3.65000e+00	2.797473e-07	
74	-3.70000e+00	2.785476e-07	
75	-3.75000e+00	2.773963e-07	
76	-3.80000e+00	2.762907e-07	
77	-3.85000e+00	2.752278e-07	
78	-3.90000e+00	2.742054e-07	
79	-3.95000e+00	2.732211e-07	
80	-4.00000e+00	2.722728e-07	
81	-4.05000e+00	2.713586e-07	
82	-4.10000e+00	2.704766e-07	
83	-4.15000e+00	2.696251e-07	
84	-4.20000e+00	2.688026e-07	
85	-4.25000e+00	2.680076e-07	
86	-4.30000e+00	2.672388e-07	
87	-4.35000e+00	2.664949e-07	
88	-4.40000e+00	2.657746e-07	
89	-4.45000e+00	2.650769e-07	
90	-4.50000e+00	2.644008e-07	
91	-4.55000e+00	2.637452e-07	
92	-4.60000e+00	2.631092e-07	
93	-4.65000e+00	2.624920e-07	
94	-4.70000e+00	2.618928e-07	
95	-4.75000e+00	2.613107e-07	
96	-4.80000e+00	2.607451e-07	
97	-4.85000e+00	2.601953e-07	
98	-4.90000e+00	2.596607e-07	
99	-4.95000e+00	2.591405e-07	
100	-5.00000e+00	2.586344e-07	
101	-5.05000e+00	2.581416e-07	
102	-5.10000e+00	2.576618e-07	
103	-5.15000e+00	2.571944e-07	
104	-5.20000e+00	2.567389e-07	
105	-5.25000e+00	2.562950e-07	
106	-5.30000e+00	2.558621e-07	
107	-5.35000e+00	2.554400e-07	
108	-5.40000e+00	2.550283e-07	
109	-5.45000e+00	2.546265e-07	
110	-5.50000e+00	2.542344e-07	
111	-5.55000e+00	2.538516e-07	
112	-5.60000e+00	2.534778e-07	

Index   v-sweep         rds             
--------------------------------------------------------------------------------
113	-5.65000e+00	2.531128e-07	
114	-5.70000e+00	2.527562e-07	
115	-5.75000e+00	2.524078e-07	
116	-5.80000e+00	2.520673e-07	
117	-5.85000e+00	2.517346e-07	
118	-5.90000e+00	2.514093e-07	
119	-5.95000e+00	2.510913e-07	
120	-6.00000e+00	2.507803e-07	
121	-6.05000e+00	2.504761e-07	
122	-6.10000e+00	2.501786e-07	
123	-6.15000e+00	2.498876e-07	
124	-6.20000e+00	2.496028e-07	
125	-6.25000e+00	2.493242e-07	
126	-6.30000e+00	2.490515e-07	
127	-6.35000e+00	2.487847e-07	
128	-6.40000e+00	2.485235e-07	
129	-6.45000e+00	2.482678e-07	
130	-6.50000e+00	2.480176e-07	
131	-6.55000e+00	2.477725e-07	
132	-6.60000e+00	2.475326e-07	
Reset re-loads circuit ***************************

Circuit: ***************************

Doing analysis at TEMP = -40.000000 and TNOM = -40.000000


No. of Data Rows : 133
                          ***************************
                          DC transfer characteristic  Mon Jan  9 13:58:52  2023
--------------------------------------------------------------------------------
Index   v-sweep         rds             
--------------------------------------------------------------------------------
0	0.000000e+00	8.115036e-05	
1	-5.00000e-02	7.925772e-05	
2	-1.00000e-01	7.736653e-05	
3	-1.50000e-01	7.547678e-05	
4	-2.00000e-01	7.358848e-05	
5	-2.50000e-01	7.170163e-05	
6	-3.00000e-01	6.981623e-05	
7	-3.50000e-01	6.793228e-05	
8	-4.00000e-01	6.604979e-05	
9	-4.50000e-01	6.416876e-05	
10	-5.00000e-01	6.228919e-05	
11	-5.50000e-01	6.041110e-05	
12	-6.00000e-01	5.853447e-05	
13	-6.50000e-01	5.665933e-05	
14	-7.00000e-01	5.478569e-05	
15	-7.50000e-01	5.291355e-05	
16	-8.00000e-01	5.104293e-05	
17	-8.50000e-01	4.917385e-05	
18	-9.00000e-01	4.730633e-05	
19	-9.50000e-01	4.544041e-05	
20	-1.00000e+00	4.357612e-05	
21	-1.05000e+00	4.171349e-05	
22	-1.10000e+00	3.985260e-05	
23	-1.15000e+00	3.799352e-05	
24	-1.20000e+00	3.613634e-05	
25	-1.25000e+00	3.428118e-05	
26	-1.30000e+00	3.242822e-05	
27	-1.35000e+00	3.057767e-05	
28	-1.40000e+00	2.872982e-05	
29	-1.45000e+00	2.688510e-05	
30	-1.50000e+00	2.504405e-05	
31	-1.55000e+00	2.320748e-05	
32	-1.60000e+00	2.137653e-05	
33	-1.65000e+00	1.955286e-05	
34	-1.70000e+00	1.773895e-05	
35	-1.75000e+00	1.593850e-05	
36	-1.80000e+00	1.415720e-05	
37	-1.85000e+00	1.240377e-05	
38	-1.90000e+00	1.069161e-05	
39	-1.95000e+00	9.040954e-06	
40	-2.00000e+00	7.481012e-06	
41	-2.05000e+00	6.050409e-06	
42	-2.10000e+00	4.792768e-06	
43	-2.15000e+00	3.745091e-06	
44	-2.20000e+00	2.922682e-06	
45	-2.25000e+00	2.311524e-06	
46	-2.30000e+00	1.875143e-06	
47	-2.35000e+00	1.569687e-06	
48	-2.40000e+00	1.356026e-06	
49	-2.45000e+00	1.204512e-06	
50	-2.50000e+00	1.094624e-06	
51	-2.55000e+00	1.012782e-06	
52	-2.60000e+00	9.501423e-07	
53	-2.65000e+00	9.009320e-07	
54	-2.70000e+00	8.613399e-07	

Index   v-sweep         rds             
--------------------------------------------------------------------------------
55	-2.75000e+00	8.288038e-07	
56	-2.80000e+00	8.015660e-07	
57	-2.85000e+00	7.783943e-07	
58	-2.90000e+00	7.584065e-07	
59	-2.95000e+00	7.409577e-07	
60	-3.00000e+00	7.255671e-07	
61	-3.05000e+00	7.118701e-07	
62	-3.10000e+00	6.995848e-07	
63	-3.15000e+00	6.884906e-07	
64	-3.20000e+00	6.784116e-07	
65	-3.25000e+00	6.692062e-07	
66	-3.30000e+00	6.607592e-07	
67	-3.35000e+00	6.529751e-07	
68	-3.40000e+00	6.457748e-07	
69	-3.45000e+00	6.390916e-07	
70	-3.50000e+00	6.328690e-07	
71	-3.55000e+00	6.270589e-07	
72	-3.60000e+00	6.216198e-07	
73	-3.65000e+00	6.165159e-07	
74	-3.70000e+00	6.117158e-07	
75	-3.75000e+00	6.071924e-07	
76	-3.80000e+00	6.029215e-07	
77	-3.85000e+00	5.988820e-07	
78	-3.90000e+00	5.950549e-07	
79	-3.95000e+00	5.914236e-07	
80	-4.00000e+00	5.879730e-07	
81	-4.05000e+00	5.846895e-07	
82	-4.10000e+00	5.815612e-07	
83	-4.15000e+00	5.785769e-07	
84	-4.20000e+00	5.757269e-07	
85	-4.25000e+00	5.730020e-07	
86	-4.30000e+00	5.703942e-07	
87	-4.35000e+00	5.678958e-07	
88	-4.40000e+00	5.655000e-07	
89	-4.45000e+00	5.632006e-07	
90	-4.50000e+00	5.609918e-07	
91	-4.55000e+00	5.588682e-07	
92	-4.60000e+00	5.568251e-07	
93	-4.65000e+00	5.548578e-07	
94	-4.70000e+00	5.529622e-07	
95	-4.75000e+00	5.511343e-07	
96	-4.80000e+00	5.493707e-07	
97	-4.85000e+00	5.476679e-07	
98	-4.90000e+00	5.460229e-07	
99	-4.95000e+00	5.444327e-07	
100	-5.00000e+00	5.428946e-07	
101	-5.05000e+00	5.414062e-07	
102	-5.10000e+00	5.399649e-07	
103	-5.15000e+00	5.385687e-07	
104	-5.20000e+00	5.372155e-07	
105	-5.25000e+00	5.359033e-07	
106	-5.30000e+00	5.346302e-07	
107	-5.35000e+00	5.333946e-07	
108	-5.40000e+00	5.321948e-07	
109	-5.45000e+00	5.310293e-07	
110	-5.50000e+00	5.298967e-07	
111	-5.55000e+00	5.287956e-07	
112	-5.60000e+00	5.277248e-07	

Index   v-sweep         rds             
--------------------------------------------------------------------------------
113	-5.65000e+00	5.266830e-07	
114	-5.70000e+00	5.256691e-07	
115	-5.75000e+00	5.246820e-07	
116	-5.80000e+00	5.237207e-07	
117	-5.85000e+00	5.227842e-07	
118	-5.90000e+00	5.218716e-07	
119	-5.95000e+00	5.209821e-07	
120	-6.00000e+00	5.201147e-07	
121	-6.05000e+00	5.192688e-07	
122	-6.10000e+00	5.184435e-07	
123	-6.15000e+00	5.176383e-07	
124	-6.20000e+00	5.168523e-07	
125	-6.25000e+00	5.160850e-07	
126	-6.30000e+00	5.153357e-07	
127	-6.35000e+00	5.146039e-07	
128	-6.40000e+00	5.138890e-07	
129	-6.45000e+00	5.131904e-07	
130	-6.50000e+00	5.125078e-07	
131	-6.55000e+00	5.118406e-07	
132	-6.60000e+00	5.111883e-07	
Reset re-loads circuit ***************************

Circuit: ***************************

Doing analysis at TEMP = -40.000000 and TNOM = -40.000000


No. of Data Rows : 133
                          ***************************
                          DC transfer characteristic  Mon Jan  9 13:58:52  2023
--------------------------------------------------------------------------------
Index   v-sweep         rds             
--------------------------------------------------------------------------------
0	0.000000e+00	9.840916e-05	
1	-5.00000e-02	9.669589e-05	
2	-1.00000e-01	9.498383e-05	
3	-1.50000e-01	9.327298e-05	
4	-2.00000e-01	9.156335e-05	
5	-2.50000e-01	8.985493e-05	
6	-3.00000e-01	8.814772e-05	
7	-3.50000e-01	8.644172e-05	
8	-4.00000e-01	8.473693e-05	
9	-4.50000e-01	8.303335e-05	
10	-5.00000e-01	8.133099e-05	
11	-5.50000e-01	7.962983e-05	
12	-6.00000e-01	7.792989e-05	
13	-6.50000e-01	7.623117e-05	
14	-7.00000e-01	7.453365e-05	
15	-7.50000e-01	7.283736e-05	
16	-8.00000e-01	7.114228e-05	
17	-8.50000e-01	6.944842e-05	
18	-9.00000e-01	6.775578e-05	
19	-9.50000e-01	6.606437e-05	
20	-1.00000e+00	6.437419e-05	
21	-1.05000e+00	6.268524e-05	
22	-1.10000e+00	6.099754e-05	
23	-1.15000e+00	5.931107e-05	
24	-1.20000e+00	5.762587e-05	
25	-1.25000e+00	5.594192e-05	
26	-1.30000e+00	5.425925e-05	
27	-1.35000e+00	5.257786e-05	
28	-1.40000e+00	5.089777e-05	
29	-1.45000e+00	4.921901e-05	
30	-1.50000e+00	4.754158e-05	
31	-1.55000e+00	4.586553e-05	
32	-1.60000e+00	4.419088e-05	
33	-1.65000e+00	4.251768e-05	
34	-1.70000e+00	4.084597e-05	
35	-1.75000e+00	3.917582e-05	
36	-1.80000e+00	3.750730e-05	
37	-1.85000e+00	3.584052e-05	
38	-1.90000e+00	3.417559e-05	
39	-1.95000e+00	3.251268e-05	
40	-2.00000e+00	3.085199e-05	
41	-2.05000e+00	2.919379e-05	
42	-2.10000e+00	2.753842e-05	
43	-2.15000e+00	2.588636e-05	
44	-2.20000e+00	2.423824e-05	
45	-2.25000e+00	2.259491e-05	
46	-2.30000e+00	2.095756e-05	
47	-2.35000e+00	1.932786e-05	
48	-2.40000e+00	1.770816e-05	
49	-2.45000e+00	1.610181e-05	
50	-2.50000e+00	1.451365e-05	
51	-2.55000e+00	1.295067e-05	
52	-2.60000e+00	1.142293e-05	
53	-2.65000e+00	9.944652e-06	
54	-2.70000e+00	8.535247e-06	

Index   v-sweep         rds             
--------------------------------------------------------------------------------
55	-2.75000e+00	7.219571e-06	
56	-2.80000e+00	6.026206e-06	
57	-2.85000e+00	4.982651e-06	
58	-2.90000e+00	4.107881e-06	
59	-2.95000e+00	3.405628e-06	
60	-3.00000e+00	2.862845e-06	
61	-3.05000e+00	2.454548e-06	
62	-3.10000e+00	2.151599e-06	
63	-3.15000e+00	1.927010e-06	
64	-3.20000e+00	1.758960e-06	
65	-3.25000e+00	1.631186e-06	
66	-3.30000e+00	1.532113e-06	
67	-3.35000e+00	1.453679e-06	
68	-3.40000e+00	1.390307e-06	
69	-3.45000e+00	1.338118e-06	
70	-3.50000e+00	1.294391e-06	
71	-3.55000e+00	1.257184e-06	
72	-3.60000e+00	1.225096e-06	
73	-3.65000e+00	1.197093e-06	
74	-3.70000e+00	1.172403e-06	
75	-3.75000e+00	1.150436e-06	
76	-3.80000e+00	1.130740e-06	
77	-3.85000e+00	1.112957e-06	
78	-3.90000e+00	1.096803e-06	
79	-3.95000e+00	1.082052e-06	
80	-4.00000e+00	1.068516e-06	
81	-4.05000e+00	1.056044e-06	
82	-4.10000e+00	1.044506e-06	
83	-4.15000e+00	1.033796e-06	
84	-4.20000e+00	1.023824e-06	
85	-4.25000e+00	1.014513e-06	
86	-4.30000e+00	1.005795e-06	
87	-4.35000e+00	9.976135e-07	
88	-4.40000e+00	9.899185e-07	
89	-4.45000e+00	9.826662e-07	
90	-4.50000e+00	9.758182e-07	
91	-4.55000e+00	9.693405e-07	
92	-4.60000e+00	9.632030e-07	
93	-4.65000e+00	9.573787e-07	
94	-4.70000e+00	9.518437e-07	
95	-4.75000e+00	9.465764e-07	
96	-4.80000e+00	9.415575e-07	
97	-4.85000e+00	9.367694e-07	
98	-4.90000e+00	9.321963e-07	
99	-4.95000e+00	9.278237e-07	
100	-5.00000e+00	9.236385e-07	
101	-5.05000e+00	9.196287e-07	
102	-5.10000e+00	9.157834e-07	
103	-5.15000e+00	9.120925e-07	
104	-5.20000e+00	9.085468e-07	
105	-5.25000e+00	9.051378e-07	
106	-5.30000e+00	9.018576e-07	
107	-5.35000e+00	8.986991e-07	
108	-5.40000e+00	8.956555e-07	
109	-5.45000e+00	8.927206e-07	
110	-5.50000e+00	8.898886e-07	
111	-5.55000e+00	8.871543e-07	
112	-5.60000e+00	8.845126e-07	

Index   v-sweep         rds             
--------------------------------------------------------------------------------
113	-5.65000e+00	8.819588e-07	
114	-5.70000e+00	8.794887e-07	
115	-5.75000e+00	8.770981e-07	
116	-5.80000e+00	8.747834e-07	
117	-5.85000e+00	8.725409e-07	
118	-5.90000e+00	8.703673e-07	
119	-5.95000e+00	8.682595e-07	
120	-6.00000e+00	8.662146e-07	
121	-6.05000e+00	8.642297e-07	
122	-6.10000e+00	8.623024e-07	
123	-6.15000e+00	8.604301e-07	
124	-6.20000e+00	8.586106e-07	
125	-6.25000e+00	8.568417e-07	
126	-6.30000e+00	8.551214e-07	
127	-6.35000e+00	8.534476e-07	
128	-6.40000e+00	8.518186e-07	
129	-6.45000e+00	8.502326e-07	
130	-6.50000e+00	8.486881e-07	
131	-6.55000e+00	8.471833e-07	
132	-6.60000e+00	8.457170e-07	
Reset re-loads circuit ***************************

Circuit: ***************************

Doing analysis at TEMP = -40.000000 and TNOM = -40.000000


No. of Data Rows : 133
                          ***************************
                          DC transfer characteristic  Mon Jan  9 13:58:52  2023
--------------------------------------------------------------------------------
Index   v-sweep         rds             
--------------------------------------------------------------------------------
0	0.000000e+00	1.122966e-04	
1	-5.00000e-02	1.107443e-04	
2	-1.00000e-01	1.091929e-04	
3	-1.50000e-01	1.076426e-04	
4	-2.00000e-01	1.060932e-04	
5	-2.50000e-01	1.045449e-04	
6	-3.00000e-01	1.029977e-04	
7	-3.50000e-01	1.014514e-04	
8	-4.00000e-01	9.990619e-05	
9	-4.50000e-01	9.836197e-05	
10	-5.00000e-01	9.681878e-05	
11	-5.50000e-01	9.527661e-05	
12	-6.00000e-01	9.373545e-05	
13	-6.50000e-01	9.219532e-05	
14	-7.00000e-01	9.065620e-05	
15	-7.50000e-01	8.911810e-05	
16	-8.00000e-01	8.758102e-05	
17	-8.50000e-01	8.604496e-05	
18	-9.00000e-01	8.450991e-05	
19	-9.50000e-01	8.297589e-05	
20	-1.00000e+00	8.144288e-05	
21	-1.05000e+00	7.991089e-05	
22	-1.10000e+00	7.837993e-05	
23	-1.15000e+00	7.684998e-05	
24	-1.20000e+00	7.532106e-05	
25	-1.25000e+00	7.379316e-05	
26	-1.30000e+00	7.226629e-05	
27	-1.35000e+00	7.074044e-05	
28	-1.40000e+00	6.921562e-05	
29	-1.45000e+00	6.769184e-05	
30	-1.50000e+00	6.616909e-05	
31	-1.55000e+00	6.464737e-05	
32	-1.60000e+00	6.312670e-05	
33	-1.65000e+00	6.160708e-05	
34	-1.70000e+00	6.008851e-05	
35	-1.75000e+00	5.857100e-05	
36	-1.80000e+00	5.705455e-05	
37	-1.85000e+00	5.553918e-05	
38	-1.90000e+00	5.402489e-05	
39	-1.95000e+00	5.251171e-05	
40	-2.00000e+00	5.099963e-05	
41	-2.05000e+00	4.948868e-05	
42	-2.10000e+00	4.797888e-05	
43	-2.15000e+00	4.647024e-05	
44	-2.20000e+00	4.496281e-05	
45	-2.25000e+00	4.345660e-05	
46	-2.30000e+00	4.195167e-05	
47	-2.35000e+00	4.044805e-05	
48	-2.40000e+00	3.894581e-05	
49	-2.45000e+00	3.744501e-05	
50	-2.50000e+00	3.594575e-05	
51	-2.55000e+00	3.444812e-05	
52	-2.60000e+00	3.295226e-05	
53	-2.65000e+00	3.145834e-05	
54	-2.70000e+00	2.996657e-05	

Index   v-sweep         rds             
--------------------------------------------------------------------------------
55	-2.75000e+00	2.847721e-05	
56	-2.80000e+00	2.699061e-05	
57	-2.85000e+00	2.550720e-05	
58	-2.90000e+00	2.402759e-05	
59	-2.95000e+00	2.255253e-05	
60	-3.00000e+00	2.108305e-05	
61	-3.05000e+00	1.962053e-05	
62	-3.10000e+00	1.816687e-05	
63	-3.15000e+00	1.672464e-05	
64	-3.20000e+00	1.529739e-05	
65	-3.25000e+00	1.389003e-05	
66	-3.30000e+00	1.250932e-05	
67	-3.35000e+00	1.116447e-05	
68	-3.40000e+00	9.867726e-06	
69	-3.45000e+00	8.634774e-06	
70	-3.50000e+00	7.484407e-06	
71	-3.55000e+00	6.436959e-06	
72	-3.60000e+00	5.511085e-06	
73	-3.65000e+00	4.719452e-06	
74	-3.70000e+00	4.065032e-06	
75	-3.75000e+00	3.540086e-06	
76	-3.80000e+00	3.128492e-06	
77	-3.85000e+00	2.810048e-06	
78	-3.90000e+00	2.564569e-06	
79	-3.95000e+00	2.374453e-06	
80	-4.00000e+00	2.225618e-06	
81	-4.05000e+00	2.107390e-06	
82	-4.10000e+00	2.011921e-06	
83	-4.15000e+00	1.933527e-06	
84	-4.20000e+00	1.868104e-06	
85	-4.25000e+00	1.812682e-06	
86	-4.30000e+00	1.765089e-06	
87	-4.35000e+00	1.723720e-06	
88	-4.40000e+00	1.687374e-06	
89	-4.45000e+00	1.655139e-06	
90	-4.50000e+00	1.626313e-06	
91	-4.55000e+00	1.600347e-06	
92	-4.60000e+00	1.576808e-06	
93	-4.65000e+00	1.555347e-06	
94	-4.70000e+00	1.535683e-06	
95	-4.75000e+00	1.517584e-06	
96	-4.80000e+00	1.500860e-06	
97	-4.85000e+00	1.485351e-06	
98	-4.90000e+00	1.470920e-06	
99	-4.95000e+00	1.457454e-06	
100	-5.00000e+00	1.444854e-06	
101	-5.05000e+00	1.433036e-06	
102	-5.10000e+00	1.421925e-06	
103	-5.15000e+00	1.411458e-06	
104	-5.20000e+00	1.401578e-06	
105	-5.25000e+00	1.392234e-06	
106	-5.30000e+00	1.383385e-06	
107	-5.35000e+00	1.374989e-06	
108	-5.40000e+00	1.367012e-06	
109	-5.45000e+00	1.359423e-06	
110	-5.50000e+00	1.352193e-06	
111	-5.55000e+00	1.345297e-06	
112	-5.60000e+00	1.338711e-06	

Index   v-sweep         rds             
--------------------------------------------------------------------------------
113	-5.65000e+00	1.332416e-06	
114	-5.70000e+00	1.326391e-06	
115	-5.75000e+00	1.320620e-06	
116	-5.80000e+00	1.315086e-06	
117	-5.85000e+00	1.309776e-06	
118	-5.90000e+00	1.304675e-06	
119	-5.95000e+00	1.299771e-06	
120	-6.00000e+00	1.295053e-06	
121	-6.05000e+00	1.290511e-06	
122	-6.10000e+00	1.286134e-06	
123	-6.15000e+00	1.281914e-06	
124	-6.20000e+00	1.277843e-06	
125	-6.25000e+00	1.273912e-06	
126	-6.30000e+00	1.270115e-06	
127	-6.35000e+00	1.266445e-06	
128	-6.40000e+00	1.262895e-06	
129	-6.45000e+00	1.259460e-06	
130	-6.50000e+00	1.256134e-06	
131	-6.55000e+00	1.252912e-06	
132	-6.60000e+00	1.249790e-06	
Reset re-loads circuit ***************************

Circuit: ***************************

Note: No ".plot", ".print", or ".fourier" lines; no simulations run
