
Note: Compatibility modes selected: hs

Warning: m=xx on .subckt line will override multiplier m hierarchy!


Circuit: ***************************

Doing analysis at TEMP = 25.000000 and TNOM = 25.000000


No. of Data Rows : 133
                          ***************************
                          DC transfer characteristic  Mon Jan  9 13:58:52  2023
--------------------------------------------------------------------------------
Index   v-sweep         rds             
--------------------------------------------------------------------------------
0	0.000000e+00	1.365870e-06	
1	-5.00000e-02	9.276179e-07	
2	-1.00000e-01	5.151705e-07	
3	-1.50000e-01	1.987436e-07	
4	-2.00000e-01	6.171828e-08	
5	-2.50000e-01	2.652498e-08	
6	-3.00000e-01	1.688117e-08	
7	-3.50000e-01	1.327157e-08	
8	-4.00000e-01	1.147117e-08	
9	-4.50000e-01	1.036177e-08	
10	-5.00000e-01	9.574781e-09	
11	-5.50000e-01	8.964400e-09	
12	-6.00000e-01	8.463720e-09	
13	-6.50000e-01	8.038021e-09	
14	-7.00000e-01	7.667337e-09	
15	-7.50000e-01	7.339168e-09	
16	-8.00000e-01	7.045124e-09	
17	-8.50000e-01	6.779245e-09	
18	-9.00000e-01	6.537108e-09	
19	-9.50000e-01	6.315304e-09	
20	-1.00000e+00	6.111137e-09	
21	-1.05000e+00	5.922424e-09	
22	-1.10000e+00	5.747365e-09	
23	-1.15000e+00	5.584453e-09	
24	-1.20000e+00	5.432413e-09	
25	-1.25000e+00	5.290153e-09	
26	-1.30000e+00	5.156730e-09	
27	-1.35000e+00	5.031327e-09	
28	-1.40000e+00	4.913227e-09	
29	-1.45000e+00	4.801798e-09	
30	-1.50000e+00	4.696482e-09	
31	-1.55000e+00	4.596785e-09	
32	-1.60000e+00	4.502264e-09	
33	-1.65000e+00	4.412523e-09	
34	-1.70000e+00	4.327206e-09	
35	-1.75000e+00	4.245991e-09	
36	-1.80000e+00	4.168590e-09	
37	-1.85000e+00	4.094738e-09	
38	-1.90000e+00	4.024197e-09	
39	-1.95000e+00	3.956748e-09	
40	-2.00000e+00	3.892193e-09	
41	-2.05000e+00	3.830349e-09	
42	-2.10000e+00	3.771049e-09	
43	-2.15000e+00	3.714140e-09	
44	-2.20000e+00	3.659481e-09	
45	-2.25000e+00	3.606940e-09	
46	-2.30000e+00	3.556398e-09	
47	-2.35000e+00	3.507742e-09	
48	-2.40000e+00	3.460871e-09	
49	-2.45000e+00	3.415687e-09	
50	-2.50000e+00	3.372102e-09	
51	-2.55000e+00	3.330032e-09	
52	-2.60000e+00	3.289402e-09	
53	-2.65000e+00	3.250137e-09	
54	-2.70000e+00	3.212172e-09	

Index   v-sweep         rds             
--------------------------------------------------------------------------------
55	-2.75000e+00	3.175443e-09	
56	-2.80000e+00	3.139891e-09	
57	-2.85000e+00	3.105461e-09	
58	-2.90000e+00	3.072101e-09	
59	-2.95000e+00	3.039763e-09	
60	-3.00000e+00	3.008401e-09	
61	-3.05000e+00	2.977971e-09	
62	-3.10000e+00	2.948433e-09	
63	-3.15000e+00	2.919749e-09	
64	-3.20000e+00	2.891883e-09	
65	-3.25000e+00	2.864801e-09	
66	-3.30000e+00	2.838471e-09	
67	-3.35000e+00	2.812862e-09	
68	-3.40000e+00	2.787946e-09	
69	-3.45000e+00	2.763696e-09	
70	-3.50000e+00	2.740085e-09	
71	-3.55000e+00	2.717090e-09	
72	-3.60000e+00	2.694686e-09	
73	-3.65000e+00	2.672853e-09	
74	-3.70000e+00	2.651569e-09	
75	-3.75000e+00	2.630815e-09	
76	-3.80000e+00	2.610571e-09	
77	-3.85000e+00	2.590820e-09	
78	-3.90000e+00	2.571544e-09	
79	-3.95000e+00	2.552728e-09	
80	-4.00000e+00	2.534355e-09	
81	-4.05000e+00	2.516412e-09	
82	-4.10000e+00	2.498884e-09	
83	-4.15000e+00	2.481758e-09	
84	-4.20000e+00	2.465020e-09	
85	-4.25000e+00	2.448659e-09	
86	-4.30000e+00	2.432664e-09	
87	-4.35000e+00	2.417022e-09	
88	-4.40000e+00	2.401723e-09	
89	-4.45000e+00	2.386757e-09	
90	-4.50000e+00	2.372115e-09	
91	-4.55000e+00	2.357786e-09	
92	-4.60000e+00	2.343762e-09	
93	-4.65000e+00	2.330035e-09	
94	-4.70000e+00	2.316597e-09	
95	-4.75000e+00	2.303438e-09	
96	-4.80000e+00	2.290553e-09	
97	-4.85000e+00	2.277933e-09	
98	-4.90000e+00	2.265572e-09	
99	-4.95000e+00	2.253463e-09	
100	-5.00000e+00	2.241600e-09	
101	-5.05000e+00	2.229977e-09	
102	-5.10000e+00	2.218587e-09	
103	-5.15000e+00	2.207425e-09	
104	-5.20000e+00	2.196485e-09	
105	-5.25000e+00	2.185763e-09	
106	-5.30000e+00	2.175254e-09	
107	-5.35000e+00	2.164951e-09	
108	-5.40000e+00	2.154852e-09	
109	-5.45000e+00	2.144950e-09	
110	-5.50000e+00	2.135243e-09	
111	-5.55000e+00	2.125725e-09	
112	-5.60000e+00	2.116392e-09	

Index   v-sweep         rds             
--------------------------------------------------------------------------------
113	-5.65000e+00	2.107242e-09	
114	-5.70000e+00	2.098269e-09	
115	-5.75000e+00	2.089471e-09	
116	-5.80000e+00	2.080843e-09	
117	-5.85000e+00	2.072382e-09	
118	-5.90000e+00	2.064086e-09	
119	-5.95000e+00	2.055950e-09	
120	-6.00000e+00	2.047972e-09	
121	-6.05000e+00	2.040149e-09	
122	-6.10000e+00	2.032478e-09	
123	-6.15000e+00	2.024956e-09	
124	-6.20000e+00	2.017580e-09	
125	-6.25000e+00	2.010348e-09	
126	-6.30000e+00	2.003257e-09	
127	-6.35000e+00	1.996304e-09	
128	-6.40000e+00	1.989488e-09	
129	-6.45000e+00	1.982805e-09	
130	-6.50000e+00	1.976254e-09	
131	-6.55000e+00	1.969832e-09	
132	-6.60000e+00	1.963538e-09	
Reset re-loads circuit ***************************

Circuit: ***************************

Doing analysis at TEMP = 25.000000 and TNOM = 25.000000


No. of Data Rows : 133
                          ***************************
                          DC transfer characteristic  Mon Jan  9 13:58:52  2023
--------------------------------------------------------------------------------
Index   v-sweep         rds             
--------------------------------------------------------------------------------
0	0.000000e+00	8.987552e-06	
1	-5.00000e-02	8.465681e-06	
2	-1.00000e-01	7.946320e-06	
3	-1.50000e-01	7.429476e-06	
4	-2.00000e-01	6.915168e-06	
5	-2.50000e-01	6.403427e-06	
6	-3.00000e-01	5.894310e-06	
7	-3.50000e-01	5.387907e-06	
8	-4.00000e-01	4.884374e-06	
9	-4.50000e-01	4.383980e-06	
10	-5.00000e-01	3.887193e-06	
11	-5.50000e-01	3.394872e-06	
12	-6.00000e-01	2.908640e-06	
13	-6.50000e-01	2.431677e-06	
14	-7.00000e-01	1.970334e-06	
15	-7.50000e-01	1.536967e-06	
16	-8.00000e-01	1.152865e-06	
17	-8.50000e-01	8.447934e-07	
18	-9.00000e-01	6.279461e-07	
19	-9.50000e-01	4.912405e-07	
20	-1.00000e+00	4.082508e-07	
21	-1.05000e+00	3.559828e-07	
22	-1.10000e+00	3.205191e-07	
23	-1.15000e+00	2.945322e-07	
24	-1.20000e+00	2.742527e-07	
25	-1.25000e+00	2.576750e-07	
26	-1.30000e+00	2.436694e-07	
27	-1.35000e+00	2.315567e-07	
28	-1.40000e+00	2.209022e-07	
29	-1.45000e+00	2.114116e-07	
30	-1.50000e+00	2.028753e-07	
31	-1.55000e+00	1.951381e-07	
32	-1.60000e+00	1.880812e-07	
33	-1.65000e+00	1.816109e-07	
34	-1.70000e+00	1.756518e-07	
35	-1.75000e+00	1.701420e-07	
36	-1.80000e+00	1.650301e-07	
37	-1.85000e+00	1.602729e-07	
38	-1.90000e+00	1.558333e-07	
39	-1.95000e+00	1.516797e-07	
40	-2.00000e+00	1.477847e-07	
41	-2.05000e+00	1.441244e-07	
42	-2.10000e+00	1.406778e-07	
43	-2.15000e+00	1.374266e-07	
44	-2.20000e+00	1.343543e-07	
45	-2.25000e+00	1.314464e-07	
46	-2.30000e+00	1.286900e-07	
47	-2.35000e+00	1.260735e-07	
48	-2.40000e+00	1.235863e-07	
49	-2.45000e+00	1.212192e-07	
50	-2.50000e+00	1.189636e-07	
51	-2.55000e+00	1.168117e-07	
52	-2.60000e+00	1.147566e-07	
53	-2.65000e+00	1.127918e-07	
54	-2.70000e+00	1.109116e-07	

Index   v-sweep         rds             
--------------------------------------------------------------------------------
55	-2.75000e+00	1.091105e-07	
56	-2.80000e+00	1.073837e-07	
57	-2.85000e+00	1.057268e-07	
58	-2.90000e+00	1.041354e-07	
59	-2.95000e+00	1.026059e-07	
60	-3.00000e+00	1.011347e-07	
61	-3.05000e+00	9.971850e-08	
62	-3.10000e+00	9.835431e-08	
63	-3.15000e+00	9.703933e-08	
64	-3.20000e+00	9.577094e-08	
65	-3.25000e+00	9.454672e-08	
66	-3.30000e+00	9.336441e-08	
67	-3.35000e+00	9.222191e-08	
68	-3.40000e+00	9.111723e-08	
69	-3.45000e+00	9.004856e-08	
70	-3.50000e+00	8.901415e-08	
71	-3.55000e+00	8.801240e-08	
72	-3.60000e+00	8.704179e-08	
73	-3.65000e+00	8.610091e-08	
74	-3.70000e+00	8.518841e-08	
75	-3.75000e+00	8.430304e-08	
76	-3.80000e+00	8.344362e-08	
77	-3.85000e+00	8.260904e-08	
78	-3.90000e+00	8.179824e-08	
79	-3.95000e+00	8.101023e-08	
80	-4.00000e+00	8.024408e-08	
81	-4.05000e+00	7.949890e-08	
82	-4.10000e+00	7.877385e-08	
83	-4.15000e+00	7.806814e-08	
84	-4.20000e+00	7.738102e-08	
85	-4.25000e+00	7.671178e-08	
86	-4.30000e+00	7.605975e-08	
87	-4.35000e+00	7.542428e-08	
88	-4.40000e+00	7.480478e-08	
89	-4.45000e+00	7.420065e-08	
90	-4.50000e+00	7.361136e-08	
91	-4.55000e+00	7.303638e-08	
92	-4.60000e+00	7.247522e-08	
93	-4.65000e+00	7.192740e-08	
94	-4.70000e+00	7.139248e-08	
95	-4.75000e+00	7.087003e-08	
96	-4.80000e+00	7.035964e-08	
97	-4.85000e+00	6.986093e-08	
98	-4.90000e+00	6.937351e-08	
99	-4.95000e+00	6.889704e-08	
100	-5.00000e+00	6.843118e-08	
101	-5.05000e+00	6.797561e-08	
102	-5.10000e+00	6.753001e-08	
103	-5.15000e+00	6.709410e-08	
104	-5.20000e+00	6.666759e-08	
105	-5.25000e+00	6.625021e-08	
106	-5.30000e+00	6.584171e-08	
107	-5.35000e+00	6.544183e-08	
108	-5.40000e+00	6.505035e-08	
109	-5.45000e+00	6.466703e-08	
110	-5.50000e+00	6.429166e-08	
111	-5.55000e+00	6.392403e-08	
112	-5.60000e+00	6.356394e-08	

Index   v-sweep         rds             
--------------------------------------------------------------------------------
113	-5.65000e+00	6.321119e-08	
114	-5.70000e+00	6.286561e-08	
115	-5.75000e+00	6.252702e-08	
116	-5.80000e+00	6.219525e-08	
117	-5.85000e+00	6.187013e-08	
118	-5.90000e+00	6.155151e-08	
119	-5.95000e+00	6.123924e-08	
120	-6.00000e+00	6.093317e-08	
121	-6.05000e+00	6.063317e-08	
122	-6.10000e+00	6.033909e-08	
123	-6.15000e+00	6.005081e-08	
124	-6.20000e+00	5.976821e-08	
125	-6.25000e+00	5.949116e-08	
126	-6.30000e+00	5.921955e-08	
127	-6.35000e+00	5.895326e-08	
128	-6.40000e+00	5.869219e-08	
129	-6.45000e+00	5.843623e-08	
130	-6.50000e+00	5.818529e-08	
131	-6.55000e+00	5.793926e-08	
132	-6.60000e+00	5.769805e-08	
Reset re-loads circuit ***************************

Circuit: ***************************

Doing analysis at TEMP = 25.000000 and TNOM = 25.000000


No. of Data Rows : 133
                          ***************************
                          DC transfer characteristic  Mon Jan  9 13:58:52  2023
--------------------------------------------------------------------------------
Index   v-sweep         rds             
--------------------------------------------------------------------------------
0	0.000000e+00	1.537644e-05	
1	-5.00000e-02	1.487785e-05	
2	-1.00000e-01	1.438123e-05	
3	-1.50000e-01	1.388658e-05	
4	-2.00000e-01	1.339389e-05	
5	-2.50000e-01	1.290316e-05	
6	-3.00000e-01	1.241438e-05	
7	-3.50000e-01	1.192756e-05	
8	-4.00000e-01	1.144267e-05	
9	-4.50000e-01	1.095973e-05	
10	-5.00000e-01	1.047874e-05	
11	-5.50000e-01	9.999692e-06	
12	-6.00000e-01	9.522596e-06	
13	-6.50000e-01	9.047462e-06	
14	-7.00000e-01	8.574304e-06	
15	-7.50000e-01	8.103148e-06	
16	-8.00000e-01	7.634029e-06	
17	-8.50000e-01	7.167000e-06	
18	-9.00000e-01	6.702139e-06	
19	-9.50000e-01	6.239565e-06	
20	-1.00000e+00	5.779454e-06	
21	-1.05000e+00	5.322081e-06	
22	-1.10000e+00	4.867874e-06	
23	-1.15000e+00	4.417522e-06	
24	-1.20000e+00	3.972145e-06	
25	-1.25000e+00	3.533611e-06	
26	-1.30000e+00	3.105047e-06	
27	-1.35000e+00	2.691629e-06	
28	-1.40000e+00	2.301536e-06	
29	-1.45000e+00	1.946317e-06	
30	-1.50000e+00	1.639055e-06	
31	-1.55000e+00	1.389210e-06	
32	-1.60000e+00	1.197167e-06	
33	-1.65000e+00	1.054182e-06	
34	-1.70000e+00	9.477258e-07	
35	-1.75000e+00	8.665425e-07	
36	-1.80000e+00	8.024923e-07	
37	-1.85000e+00	7.502403e-07	
38	-1.90000e+00	7.063917e-07	
39	-1.95000e+00	6.687662e-07	
40	-2.00000e+00	6.359217e-07	
41	-2.05000e+00	6.068680e-07	
42	-2.10000e+00	5.808991e-07	
43	-2.15000e+00	5.574932e-07	
44	-2.20000e+00	5.362531e-07	
45	-2.25000e+00	5.168677e-07	
46	-2.30000e+00	4.990887e-07	
47	-2.35000e+00	4.827136e-07	
48	-2.40000e+00	4.675751e-07	
49	-2.45000e+00	4.535333e-07	
50	-2.50000e+00	4.404695e-07	
51	-2.55000e+00	4.282825e-07	
52	-2.60000e+00	4.168850e-07	
53	-2.65000e+00	4.062014e-07	
54	-2.70000e+00	3.961658e-07	

Index   v-sweep         rds             
--------------------------------------------------------------------------------
55	-2.75000e+00	3.867201e-07	
56	-2.80000e+00	3.778135e-07	
57	-2.85000e+00	3.694006e-07	
58	-2.90000e+00	3.614412e-07	
59	-2.95000e+00	3.538994e-07	
60	-3.00000e+00	3.467430e-07	
61	-3.05000e+00	3.399433e-07	
62	-3.10000e+00	3.334739e-07	
63	-3.15000e+00	3.273115e-07	
64	-3.20000e+00	3.214347e-07	
65	-3.25000e+00	3.158239e-07	
66	-3.30000e+00	3.104617e-07	
67	-3.35000e+00	3.053317e-07	
68	-3.40000e+00	3.004194e-07	
69	-3.45000e+00	2.957110e-07	
70	-3.50000e+00	2.911942e-07	
71	-3.55000e+00	2.868576e-07	
72	-3.60000e+00	2.826905e-07	
73	-3.65000e+00	2.786834e-07	
74	-3.70000e+00	2.748271e-07	
75	-3.75000e+00	2.711133e-07	
76	-3.80000e+00	2.675343e-07	
77	-3.85000e+00	2.640829e-07	
78	-3.90000e+00	2.607525e-07	
79	-3.95000e+00	2.575368e-07	
80	-4.00000e+00	2.544299e-07	
81	-4.05000e+00	2.514266e-07	
82	-4.10000e+00	2.485217e-07	
83	-4.15000e+00	2.457105e-07	
84	-4.20000e+00	2.429886e-07	
85	-4.25000e+00	2.403517e-07	
86	-4.30000e+00	2.377961e-07	
87	-4.35000e+00	2.353180e-07	
88	-4.40000e+00	2.329139e-07	
89	-4.45000e+00	2.305807e-07	
90	-4.50000e+00	2.283153e-07	
91	-4.55000e+00	2.261147e-07	
92	-4.60000e+00	2.239764e-07	
93	-4.65000e+00	2.218976e-07	
94	-4.70000e+00	2.198761e-07	
95	-4.75000e+00	2.179094e-07	
96	-4.80000e+00	2.159954e-07	
97	-4.85000e+00	2.141321e-07	
98	-4.90000e+00	2.123176e-07	
99	-4.95000e+00	2.105499e-07	
100	-5.00000e+00	2.088273e-07	
101	-5.05000e+00	2.071482e-07	
102	-5.10000e+00	2.055110e-07	
103	-5.15000e+00	2.039141e-07	
104	-5.20000e+00	2.023563e-07	
105	-5.25000e+00	2.008361e-07	
106	-5.30000e+00	1.993522e-07	
107	-5.35000e+00	1.979034e-07	
108	-5.40000e+00	1.964885e-07	
109	-5.45000e+00	1.951065e-07	
110	-5.50000e+00	1.937562e-07	
111	-5.55000e+00	1.924367e-07	
112	-5.60000e+00	1.911470e-07	

Index   v-sweep         rds             
--------------------------------------------------------------------------------
113	-5.65000e+00	1.898861e-07	
114	-5.70000e+00	1.886533e-07	
115	-5.75000e+00	1.874476e-07	
116	-5.80000e+00	1.862683e-07	
117	-5.85000e+00	1.851145e-07	
118	-5.90000e+00	1.839857e-07	
119	-5.95000e+00	1.828810e-07	
120	-6.00000e+00	1.817997e-07	
121	-6.05000e+00	1.807414e-07	
122	-6.10000e+00	1.797053e-07	
123	-6.15000e+00	1.786908e-07	
124	-6.20000e+00	1.776974e-07	
125	-6.25000e+00	1.767246e-07	
126	-6.30000e+00	1.757717e-07	
127	-6.35000e+00	1.748385e-07	
128	-6.40000e+00	1.739243e-07	
129	-6.45000e+00	1.730286e-07	
130	-6.50000e+00	1.721512e-07	
131	-6.55000e+00	1.712915e-07	
132	-6.60000e+00	1.704491e-07	
Reset re-loads circuit ***************************

Circuit: ***************************

Doing analysis at TEMP = 25.000000 and TNOM = 25.000000


No. of Data Rows : 133
                          ***************************
                          DC transfer characteristic  Mon Jan  9 13:58:52  2023
--------------------------------------------------------------------------------
Index   v-sweep         rds             
--------------------------------------------------------------------------------
0	0.000000e+00	2.067492e-05	
1	-5.00000e-02	2.020406e-05	
2	-1.00000e-01	1.973481e-05	
3	-1.50000e-01	1.926716e-05	
4	-2.00000e-01	1.880112e-05	
5	-2.50000e-01	1.833668e-05	
6	-3.00000e-01	1.787383e-05	
7	-3.50000e-01	1.741257e-05	
8	-4.00000e-01	1.695289e-05	
9	-4.50000e-01	1.649479e-05	
10	-5.00000e-01	1.603827e-05	
11	-5.50000e-01	1.558331e-05	
12	-6.00000e-01	1.512992e-05	
13	-6.50000e-01	1.467810e-05	
14	-7.00000e-01	1.422783e-05	
15	-7.50000e-01	1.377912e-05	
16	-8.00000e-01	1.333196e-05	
17	-8.50000e-01	1.288636e-05	
18	-9.00000e-01	1.244231e-05	
19	-9.50000e-01	1.199981e-05	
20	-1.00000e+00	1.155886e-05	
21	-1.05000e+00	1.111947e-05	
22	-1.10000e+00	1.068164e-05	
23	-1.15000e+00	1.024538e-05	
24	-1.20000e+00	9.810710e-06	
25	-1.25000e+00	9.377637e-06	
26	-1.30000e+00	8.946189e-06	
27	-1.35000e+00	8.516399e-06	
28	-1.40000e+00	8.088315e-06	
29	-1.45000e+00	7.662000e-06	
30	-1.50000e+00	7.237547e-06	
31	-1.55000e+00	6.815085e-06	
32	-1.60000e+00	6.394798e-06	
33	-1.65000e+00	5.976957e-06	
34	-1.70000e+00	5.561957e-06	
35	-1.75000e+00	5.150394e-06	
36	-1.80000e+00	4.743169e-06	
37	-1.85000e+00	4.341661e-06	
38	-1.90000e+00	3.947987e-06	
39	-1.95000e+00	3.565355e-06	
40	-2.00000e+00	3.198458e-06	
41	-2.05000e+00	2.853682e-06	
42	-2.10000e+00	2.538643e-06	
43	-2.15000e+00	2.260555e-06	
44	-2.20000e+00	2.023717e-06	
45	-2.25000e+00	1.827715e-06	
46	-2.30000e+00	1.667872e-06	
47	-2.35000e+00	1.537447e-06	
48	-2.40000e+00	1.429796e-06	
49	-2.45000e+00	1.339462e-06	
50	-2.50000e+00	1.262354e-06	
51	-2.55000e+00	1.195514e-06	
52	-2.60000e+00	1.136816e-06	
53	-2.65000e+00	1.084711e-06	
54	-2.70000e+00	1.038047e-06	

Index   v-sweep         rds             
--------------------------------------------------------------------------------
55	-2.75000e+00	9.959457e-07	
56	-2.80000e+00	9.577246e-07	
57	-2.85000e+00	9.228411e-07	
58	-2.90000e+00	8.908560e-07	
59	-2.95000e+00	8.614091e-07	
60	-3.00000e+00	8.342004e-07	
61	-3.05000e+00	8.089779e-07	
62	-3.10000e+00	7.855272e-07	
63	-3.15000e+00	7.636649e-07	
64	-3.20000e+00	7.432329e-07	
65	-3.25000e+00	7.240936e-07	
66	-3.30000e+00	7.061272e-07	
67	-3.35000e+00	6.892283e-07	
68	-3.40000e+00	6.733039e-07	
69	-3.45000e+00	6.582718e-07	
70	-3.50000e+00	6.440589e-07	
71	-3.55000e+00	6.305997e-07	
72	-3.60000e+00	6.178359e-07	
73	-3.65000e+00	6.057147e-07	
74	-3.70000e+00	5.941890e-07	
75	-3.75000e+00	5.832158e-07	
76	-3.80000e+00	5.727564e-07	
77	-3.85000e+00	5.627757e-07	
78	-3.90000e+00	5.532414e-07	
79	-3.95000e+00	5.441244e-07	
80	-4.00000e+00	5.353980e-07	
81	-4.05000e+00	5.270375e-07	
82	-4.10000e+00	5.190206e-07	
83	-4.15000e+00	5.113266e-07	
84	-4.20000e+00	5.039363e-07	
85	-4.25000e+00	4.968323e-07	
86	-4.30000e+00	4.899982e-07	
87	-4.35000e+00	4.834190e-07	
88	-4.40000e+00	4.770808e-07	
89	-4.45000e+00	4.709706e-07	
90	-4.50000e+00	4.650765e-07	
91	-4.55000e+00	4.593871e-07	
92	-4.60000e+00	4.538920e-07	
93	-4.65000e+00	4.485816e-07	
94	-4.70000e+00	4.434466e-07	
95	-4.75000e+00	4.384787e-07	
96	-4.80000e+00	4.336698e-07	
97	-4.85000e+00	4.290124e-07	
98	-4.90000e+00	4.244996e-07	
99	-4.95000e+00	4.201248e-07	
100	-5.00000e+00	4.158818e-07	
101	-5.05000e+00	4.117647e-07	
102	-5.10000e+00	4.077682e-07	
103	-5.15000e+00	4.038870e-07	
104	-5.20000e+00	4.001162e-07	
105	-5.25000e+00	3.964514e-07	
106	-5.30000e+00	3.928880e-07	
107	-5.35000e+00	3.894221e-07	
108	-5.40000e+00	3.860498e-07	
109	-5.45000e+00	3.827673e-07	
110	-5.50000e+00	3.795713e-07	
111	-5.55000e+00	3.764583e-07	
112	-5.60000e+00	3.734254e-07	

Index   v-sweep         rds             
--------------------------------------------------------------------------------
113	-5.65000e+00	3.704695e-07	
114	-5.70000e+00	3.675879e-07	
115	-5.75000e+00	3.647777e-07	
116	-5.80000e+00	3.620367e-07	
117	-5.85000e+00	3.593622e-07	
118	-5.90000e+00	3.567520e-07	
119	-5.95000e+00	3.542040e-07	
120	-6.00000e+00	3.517160e-07	
121	-6.05000e+00	3.492861e-07	
122	-6.10000e+00	3.469124e-07	
123	-6.15000e+00	3.445931e-07	
124	-6.20000e+00	3.423265e-07	
125	-6.25000e+00	3.401110e-07	
126	-6.30000e+00	3.379450e-07	
127	-6.35000e+00	3.358270e-07	
128	-6.40000e+00	3.337556e-07	
129	-6.45000e+00	3.317294e-07	
130	-6.50000e+00	3.297472e-07	
131	-6.55000e+00	3.278077e-07	
132	-6.60000e+00	3.259097e-07	
Reset re-loads circuit ***************************

Circuit: ***************************

Doing analysis at TEMP = 25.000000 and TNOM = 25.000000


No. of Data Rows : 133
                          ***************************
                          DC transfer characteristic  Mon Jan  9 13:58:52  2023
--------------------------------------------------------------------------------
Index   v-sweep         rds             
--------------------------------------------------------------------------------
0	0.000000e+00	2.558798e-05	
1	-5.00000e-02	2.514159e-05	
2	-1.00000e-01	2.469654e-05	
3	-1.50000e-01	2.425284e-05	
4	-2.00000e-01	2.381048e-05	
5	-2.50000e-01	2.336947e-05	
6	-3.00000e-01	2.292978e-05	
7	-3.50000e-01	2.249143e-05	
8	-4.00000e-01	2.205441e-05	
9	-4.50000e-01	2.161871e-05	
10	-5.00000e-01	2.118432e-05	
11	-5.50000e-01	2.075126e-05	
12	-6.00000e-01	2.031950e-05	
13	-6.50000e-01	1.988906e-05	
14	-7.00000e-01	1.945992e-05	
15	-7.50000e-01	1.903208e-05	
16	-8.00000e-01	1.860553e-05	
17	-8.50000e-01	1.818028e-05	
18	-9.00000e-01	1.775633e-05	
19	-9.50000e-01	1.733366e-05	
20	-1.00000e+00	1.691227e-05	
21	-1.05000e+00	1.649217e-05	
22	-1.10000e+00	1.607335e-05	
23	-1.15000e+00	1.565580e-05	
24	-1.20000e+00	1.523953e-05	
25	-1.25000e+00	1.482454e-05	
26	-1.30000e+00	1.441081e-05	
27	-1.35000e+00	1.399836e-05	
28	-1.40000e+00	1.358719e-05	
29	-1.45000e+00	1.317728e-05	
30	-1.50000e+00	1.276865e-05	
31	-1.55000e+00	1.236130e-05	
32	-1.60000e+00	1.195522e-05	
33	-1.65000e+00	1.155044e-05	
34	-1.70000e+00	1.114695e-05	
35	-1.75000e+00	1.074477e-05	
36	-1.80000e+00	1.034391e-05	
37	-1.85000e+00	9.944395e-06	
38	-1.90000e+00	9.546247e-06	
39	-1.95000e+00	9.149503e-06	
40	-2.00000e+00	8.754208e-06	
41	-2.05000e+00	8.360426e-06	
42	-2.10000e+00	7.968238e-06	
43	-2.15000e+00	7.577759e-06	
44	-2.20000e+00	7.189145e-06	
45	-2.25000e+00	6.802609e-06	
46	-2.30000e+00	6.418457e-06	
47	-2.35000e+00	6.037115e-06	
48	-2.40000e+00	5.659199e-06	
49	-2.45000e+00	5.285594e-06	
50	-2.50000e+00	4.917580e-06	
51	-2.55000e+00	4.556994e-06	
52	-2.60000e+00	4.206420e-06	
53	-2.65000e+00	3.869341e-06	
54	-2.70000e+00	3.550122e-06	

Index   v-sweep         rds             
--------------------------------------------------------------------------------
55	-2.75000e+00	3.253615e-06	
56	-2.80000e+00	2.984257e-06	
57	-2.85000e+00	2.744889e-06	
58	-2.90000e+00	2.535923e-06	
59	-2.95000e+00	2.355412e-06	
60	-3.00000e+00	2.199905e-06	
61	-3.05000e+00	2.065482e-06	
62	-3.10000e+00	1.948472e-06	
63	-3.15000e+00	1.845769e-06	
64	-3.20000e+00	1.754869e-06	
65	-3.25000e+00	1.673791e-06	
66	-3.30000e+00	1.600973e-06	
67	-3.35000e+00	1.535175e-06	
68	-3.40000e+00	1.475401e-06	
69	-3.45000e+00	1.420840e-06	
70	-3.50000e+00	1.370827e-06	
71	-3.55000e+00	1.324806e-06	
72	-3.60000e+00	1.282313e-06	
73	-3.65000e+00	1.242953e-06	
74	-3.70000e+00	1.206391e-06	
75	-3.75000e+00	1.172337e-06	
76	-3.80000e+00	1.140540e-06	
77	-3.85000e+00	1.110784e-06	
78	-3.90000e+00	1.082878e-06	
79	-3.95000e+00	1.056654e-06	
80	-4.00000e+00	1.031965e-06	
81	-4.05000e+00	1.008680e-06	
82	-4.10000e+00	9.866835e-07	
83	-4.15000e+00	9.658712e-07	
84	-4.20000e+00	9.461503e-07	
85	-4.25000e+00	9.274375e-07	
86	-4.30000e+00	9.096576e-07	
87	-4.35000e+00	8.927427e-07	
88	-4.40000e+00	8.766315e-07	
89	-4.45000e+00	8.612683e-07	
90	-4.50000e+00	8.466024e-07	
91	-4.55000e+00	8.325875e-07	
92	-4.60000e+00	8.191814e-07	
93	-4.65000e+00	8.063455e-07	
94	-4.70000e+00	7.940442e-07	
95	-4.75000e+00	7.822451e-07	
96	-4.80000e+00	7.709182e-07	
97	-4.85000e+00	7.600358e-07	
98	-4.90000e+00	7.495723e-07	
99	-4.95000e+00	7.395041e-07	
100	-5.00000e+00	7.298095e-07	
101	-5.05000e+00	7.204680e-07	
102	-5.10000e+00	7.114608e-07	
103	-5.15000e+00	7.027705e-07	
104	-5.20000e+00	6.943806e-07	
105	-5.25000e+00	6.862759e-07	
106	-5.30000e+00	6.784422e-07	
107	-5.35000e+00	6.708663e-07	
108	-5.40000e+00	6.635357e-07	
109	-5.45000e+00	6.564387e-07	
110	-5.50000e+00	6.495645e-07	
111	-5.55000e+00	6.429027e-07	
112	-5.60000e+00	6.364439e-07	

Index   v-sweep         rds             
--------------------------------------------------------------------------------
113	-5.65000e+00	6.301788e-07	
114	-5.70000e+00	6.240991e-07	
115	-5.75000e+00	6.181966e-07	
116	-5.80000e+00	6.124639e-07	
117	-5.85000e+00	6.068938e-07	
118	-5.90000e+00	6.014795e-07	
119	-5.95000e+00	5.962147e-07	
120	-6.00000e+00	5.910935e-07	
121	-6.05000e+00	5.861100e-07	
122	-6.10000e+00	5.812590e-07	
123	-6.15000e+00	5.765353e-07	
124	-6.20000e+00	5.719341e-07	
125	-6.25000e+00	5.674508e-07	
126	-6.30000e+00	5.630812e-07	
127	-6.35000e+00	5.588209e-07	
128	-6.40000e+00	5.546662e-07	
129	-6.45000e+00	5.506134e-07	
130	-6.50000e+00	5.466588e-07	
131	-6.55000e+00	5.427991e-07	
132	-6.60000e+00	5.390311e-07	
Reset re-loads circuit ***************************

Circuit: ***************************

Doing analysis at TEMP = 25.000000 and TNOM = 25.000000


No. of Data Rows : 133
                          ***************************
                          DC transfer characteristic  Mon Jan  9 13:58:52  2023
--------------------------------------------------------------------------------
Index   v-sweep         rds             
--------------------------------------------------------------------------------
0	0.000000e+00	2.972977e-05	
1	-5.00000e-02	2.930701e-05	
2	-1.00000e-01	2.888540e-05	
3	-1.50000e-01	2.846492e-05	
4	-2.00000e-01	2.804559e-05	
5	-2.50000e-01	2.762740e-05	
6	-3.00000e-01	2.721034e-05	
7	-3.50000e-01	2.679441e-05	
8	-4.00000e-01	2.637961e-05	
9	-4.50000e-01	2.596593e-05	
10	-5.00000e-01	2.555337e-05	
11	-5.50000e-01	2.514193e-05	
12	-6.00000e-01	2.473161e-05	
13	-6.50000e-01	2.432240e-05	
14	-7.00000e-01	2.391429e-05	
15	-7.50000e-01	2.350729e-05	
16	-8.00000e-01	2.310140e-05	
17	-8.50000e-01	2.269661e-05	
18	-9.00000e-01	2.229291e-05	
19	-9.50000e-01	2.189031e-05	
20	-1.00000e+00	2.148880e-05	
21	-1.05000e+00	2.108838e-05	
22	-1.10000e+00	2.068904e-05	
23	-1.15000e+00	2.029079e-05	
24	-1.20000e+00	1.989362e-05	
25	-1.25000e+00	1.949753e-05	
26	-1.30000e+00	1.910252e-05	
27	-1.35000e+00	1.870858e-05	
28	-1.40000e+00	1.831571e-05	
29	-1.45000e+00	1.792391e-05	
30	-1.50000e+00	1.753318e-05	
31	-1.55000e+00	1.714351e-05	
32	-1.60000e+00	1.675491e-05	
33	-1.65000e+00	1.636737e-05	
34	-1.70000e+00	1.598090e-05	
35	-1.75000e+00	1.559549e-05	
36	-1.80000e+00	1.521113e-05	
37	-1.85000e+00	1.482784e-05	
38	-1.90000e+00	1.444561e-05	
39	-1.95000e+00	1.406444e-05	
40	-2.00000e+00	1.368434e-05	
41	-2.05000e+00	1.330530e-05	
42	-2.10000e+00	1.292734e-05	
43	-2.15000e+00	1.255045e-05	
44	-2.20000e+00	1.217464e-05	
45	-2.25000e+00	1.179992e-05	
46	-2.30000e+00	1.142630e-05	
47	-2.35000e+00	1.105380e-05	
48	-2.40000e+00	1.068243e-05	
49	-2.45000e+00	1.031221e-05	
50	-2.50000e+00	9.943177e-06	
51	-2.55000e+00	9.575365e-06	
52	-2.60000e+00	9.208821e-06	
53	-2.65000e+00	8.843608e-06	
54	-2.70000e+00	8.479807e-06	

Index   v-sweep         rds             
--------------------------------------------------------------------------------
55	-2.75000e+00	8.117523e-06	
56	-2.80000e+00	7.756900e-06	
57	-2.85000e+00	7.398128e-06	
58	-2.90000e+00	7.041464e-06	
59	-2.95000e+00	6.687261e-06	
60	-3.00000e+00	6.336002e-06	
61	-3.05000e+00	5.988354e-06	
62	-3.10000e+00	5.645240e-06	
63	-3.15000e+00	5.307925e-06	
64	-3.20000e+00	4.978115e-06	
65	-3.25000e+00	4.658044e-06	
66	-3.30000e+00	4.350477e-06	
67	-3.35000e+00	4.058571e-06	
68	-3.40000e+00	3.785497e-06	
69	-3.45000e+00	3.533878e-06	
70	-3.50000e+00	3.305230e-06	
71	-3.55000e+00	3.099680e-06	
72	-3.60000e+00	2.916102e-06	
73	-3.65000e+00	2.752554e-06	
74	-3.70000e+00	2.606744e-06	
75	-3.75000e+00	2.476390e-06	
76	-3.80000e+00	2.359406e-06	
77	-3.85000e+00	2.253970e-06	
78	-3.90000e+00	2.158533e-06	
79	-3.95000e+00	2.071783e-06	
80	-4.00000e+00	1.992618e-06	
81	-4.05000e+00	1.920107e-06	
82	-4.10000e+00	1.853459e-06	
83	-4.15000e+00	1.792003e-06	
84	-4.20000e+00	1.735165e-06	
85	-4.25000e+00	1.682449e-06	
86	-4.30000e+00	1.633429e-06	
87	-4.35000e+00	1.587735e-06	
88	-4.40000e+00	1.545041e-06	
89	-4.45000e+00	1.505067e-06	
90	-4.50000e+00	1.467562e-06	
91	-4.55000e+00	1.432306e-06	
92	-4.60000e+00	1.399105e-06	
93	-4.65000e+00	1.367787e-06	
94	-4.70000e+00	1.338196e-06	
95	-4.75000e+00	1.310195e-06	
96	-4.80000e+00	1.283661e-06	
97	-4.85000e+00	1.258481e-06	
98	-4.90000e+00	1.234555e-06	
99	-4.95000e+00	1.211793e-06	
100	-5.00000e+00	1.190112e-06	
101	-5.05000e+00	1.169438e-06	
102	-5.10000e+00	1.149703e-06	
103	-5.15000e+00	1.130844e-06	
104	-5.20000e+00	1.112805e-06	
105	-5.25000e+00	1.095534e-06	
106	-5.30000e+00	1.078983e-06	
107	-5.35000e+00	1.063108e-06	
108	-5.40000e+00	1.047869e-06	
109	-5.45000e+00	1.033229e-06	
110	-5.50000e+00	1.019154e-06	
111	-5.55000e+00	1.005611e-06	
112	-5.60000e+00	9.925708e-07	

Index   v-sweep         rds             
--------------------------------------------------------------------------------
113	-5.65000e+00	9.800067e-07	
114	-5.70000e+00	9.678929e-07	
115	-5.75000e+00	9.562059e-07	
116	-5.80000e+00	9.449237e-07	
117	-5.85000e+00	9.340256e-07	
118	-5.90000e+00	9.234926e-07	
119	-5.95000e+00	9.133068e-07	
120	-6.00000e+00	9.034513e-07	
121	-6.05000e+00	8.939105e-07	
122	-6.10000e+00	8.846696e-07	
123	-6.15000e+00	8.757150e-07	
124	-6.20000e+00	8.670335e-07	
125	-6.25000e+00	8.586130e-07	
126	-6.30000e+00	8.504420e-07	
127	-6.35000e+00	8.425096e-07	
128	-6.40000e+00	8.348058e-07	
129	-6.45000e+00	8.273209e-07	
130	-6.50000e+00	8.200458e-07	
131	-6.55000e+00	8.129719e-07	
132	-6.60000e+00	8.060912e-07	
Reset re-loads circuit ***************************

Circuit: ***************************

Note: No ".plot", ".print", or ".fourier" lines; no simulations run
