
Note: Compatibility modes selected: hs

Warning: m=xx on .subckt line will override multiplier m hierarchy!


Circuit: ***************************

Doing analysis at TEMP = 125.000000 and TNOM = 125.000000


No. of Data Rows : 133
                          ***************************
                          DC transfer characteristic  Mon Jan  9 13:58:53  2023
--------------------------------------------------------------------------------
Index   v-sweep         rds             
--------------------------------------------------------------------------------
0	0.000000e+00	1.247392e-05	
1	-5.00000e-02	1.043869e-05	
2	-1.00000e-01	8.427563e-06	
3	-1.50000e-01	6.452129e-06	
4	-2.00000e-01	4.547041e-06	
5	-2.50000e-01	2.818009e-06	
6	-3.00000e-01	1.508780e-06	
7	-3.50000e-01	8.105409e-07	
8	-4.00000e-01	5.380830e-07	
9	-4.50000e-01	4.353044e-07	
10	-5.00000e-01	3.895108e-07	
11	-5.50000e-01	3.643499e-07	
12	-6.00000e-01	3.478611e-07	
13	-6.50000e-01	3.356277e-07	
14	-7.00000e-01	3.257972e-07	
15	-7.50000e-01	3.174950e-07	
16	-8.00000e-01	3.102616e-07	
17	-8.50000e-01	3.038313e-07	
18	-9.00000e-01	2.980372e-07	
19	-9.50000e-01	2.927667e-07	
20	-1.00000e+00	2.879389e-07	
21	-1.05000e+00	2.834932e-07	
22	-1.10000e+00	2.793819e-07	
23	-1.15000e+00	2.755669e-07	
24	-1.20000e+00	2.720165e-07	
25	-1.25000e+00	2.687042e-07	
26	-1.30000e+00	2.656072e-07	
27	-1.35000e+00	2.627060e-07	
28	-1.40000e+00	2.599836e-07	
29	-1.45000e+00	2.574249e-07	
30	-1.50000e+00	2.550167e-07	
31	-1.55000e+00	2.527472e-07	
32	-1.60000e+00	2.506058e-07	
33	-1.65000e+00	2.485830e-07	
34	-1.70000e+00	2.466704e-07	
35	-1.75000e+00	2.448601e-07	
36	-1.80000e+00	2.431453e-07	
37	-1.85000e+00	2.415195e-07	
38	-1.90000e+00	2.399769e-07	
39	-1.95000e+00	2.385122e-07	
40	-2.00000e+00	2.371206e-07	
41	-2.05000e+00	2.357975e-07	
42	-2.10000e+00	2.345389e-07	
43	-2.15000e+00	2.333410e-07	
44	-2.20000e+00	2.322003e-07	
45	-2.25000e+00	2.311135e-07	
46	-2.30000e+00	2.300777e-07	
47	-2.35000e+00	2.290901e-07	
48	-2.40000e+00	2.281481e-07	
49	-2.45000e+00	2.272493e-07	
50	-2.50000e+00	2.263915e-07	
51	-2.55000e+00	2.255726e-07	
52	-2.60000e+00	2.247906e-07	
53	-2.65000e+00	2.240437e-07	
54	-2.70000e+00	2.233303e-07	

Index   v-sweep         rds             
--------------------------------------------------------------------------------
55	-2.75000e+00	2.226487e-07	
56	-2.80000e+00	2.219974e-07	
57	-2.85000e+00	2.213751e-07	
58	-2.90000e+00	2.207804e-07	
59	-2.95000e+00	2.202120e-07	
60	-3.00000e+00	2.196689e-07	
61	-3.05000e+00	2.191499e-07	
62	-3.10000e+00	2.186539e-07	
63	-3.15000e+00	2.181800e-07	
64	-3.20000e+00	2.177274e-07	
65	-3.25000e+00	2.172950e-07	
66	-3.30000e+00	2.168821e-07	
67	-3.35000e+00	2.164879e-07	
68	-3.40000e+00	2.161116e-07	
69	-3.45000e+00	2.157526e-07	
70	-3.50000e+00	2.154102e-07	
71	-3.55000e+00	2.150838e-07	
72	-3.60000e+00	2.147728e-07	
73	-3.65000e+00	2.144765e-07	
74	-3.70000e+00	2.141946e-07	
75	-3.75000e+00	2.139264e-07	
76	-3.80000e+00	2.136715e-07	
77	-3.85000e+00	2.134294e-07	
78	-3.90000e+00	2.131997e-07	
79	-3.95000e+00	2.129820e-07	
80	-4.00000e+00	2.127758e-07	
81	-4.05000e+00	2.125808e-07	
82	-4.10000e+00	2.123967e-07	
83	-4.15000e+00	2.122231e-07	
84	-4.20000e+00	2.120596e-07	
85	-4.25000e+00	2.119060e-07	
86	-4.30000e+00	2.117619e-07	
87	-4.35000e+00	2.116272e-07	
88	-4.40000e+00	2.115014e-07	
89	-4.45000e+00	2.113845e-07	
90	-4.50000e+00	2.112760e-07	
91	-4.55000e+00	2.111758e-07	
92	-4.60000e+00	2.110837e-07	
93	-4.65000e+00	2.109995e-07	
94	-4.70000e+00	2.109229e-07	
95	-4.75000e+00	2.108537e-07	
96	-4.80000e+00	2.107919e-07	
97	-4.85000e+00	2.107371e-07	
98	-4.90000e+00	2.106893e-07	
99	-4.95000e+00	2.106483e-07	
100	-5.00000e+00	2.106138e-07	
101	-5.05000e+00	2.105859e-07	
102	-5.10000e+00	2.105643e-07	
103	-5.15000e+00	2.105489e-07	
104	-5.20000e+00	2.105396e-07	
105	-5.25000e+00	2.105363e-07	
106	-5.30000e+00	2.105388e-07	
107	-5.35000e+00	2.105470e-07	
108	-5.40000e+00	2.105609e-07	
109	-5.45000e+00	2.105803e-07	
110	-5.50000e+00	2.106051e-07	
111	-5.55000e+00	2.106353e-07	
112	-5.60000e+00	2.106708e-07	

Index   v-sweep         rds             
--------------------------------------------------------------------------------
113	-5.65000e+00	2.107114e-07	
114	-5.70000e+00	2.107571e-07	
115	-5.75000e+00	2.108078e-07	
116	-5.80000e+00	2.108634e-07	
117	-5.85000e+00	2.109239e-07	
118	-5.90000e+00	2.109892e-07	
119	-5.95000e+00	2.110593e-07	
120	-6.00000e+00	2.111340e-07	
121	-6.05000e+00	2.112133e-07	
122	-6.10000e+00	2.112972e-07	
123	-6.15000e+00	2.113856e-07	
124	-6.20000e+00	2.114785e-07	
125	-6.25000e+00	2.115757e-07	
126	-6.30000e+00	2.116773e-07	
127	-6.35000e+00	2.117832e-07	
128	-6.40000e+00	2.118933e-07	
129	-6.45000e+00	2.120077e-07	
130	-6.50000e+00	2.121262e-07	
131	-6.55000e+00	2.122489e-07	
132	-6.60000e+00	2.123756e-07	
Reset re-loads circuit ***************************

Circuit: ***************************

Doing analysis at TEMP = 125.000000 and TNOM = 125.000000


No. of Data Rows : 133
                          ***************************
                          DC transfer characteristic  Mon Jan  9 13:58:53  2023
--------------------------------------------------------------------------------
Index   v-sweep         rds             
--------------------------------------------------------------------------------
0	0.000000e+00	4.619789e-05	
1	-5.00000e-02	4.400065e-05	
2	-1.00000e-01	4.181687e-05	
3	-1.50000e-01	3.964652e-05	
4	-2.00000e-01	3.748956e-05	
5	-2.50000e-01	3.534599e-05	
6	-3.00000e-01	3.321583e-05	
7	-3.50000e-01	3.109915e-05	
8	-4.00000e-01	2.899608e-05	
9	-4.50000e-01	2.690686e-05	
10	-5.00000e-01	2.483187e-05	
11	-5.50000e-01	2.277177e-05	
12	-6.00000e-01	2.072762e-05	
13	-6.50000e-01	1.870124e-05	
14	-7.00000e-01	1.669576e-05	
15	-7.50000e-01	1.471672e-05	
16	-8.00000e-01	1.277426e-05	
17	-8.50000e-01	1.088710e-05	
18	-9.00000e-01	9.089557e-06	
19	-9.50000e-01	7.440231e-06	
20	-1.00000e+00	6.022163e-06	
21	-1.05000e+00	4.912933e-06	
22	-1.10000e+00	4.129173e-06	
23	-1.15000e+00	3.610557e-06	
24	-1.20000e+00	3.268028e-06	
25	-1.25000e+00	3.030189e-06	
26	-1.30000e+00	2.853204e-06	
27	-1.35000e+00	2.712885e-06	
28	-1.40000e+00	2.596128e-06	
29	-1.45000e+00	2.495619e-06	
30	-1.50000e+00	2.407059e-06	
31	-1.55000e+00	2.327763e-06	
32	-1.60000e+00	2.255945e-06	
33	-1.65000e+00	2.190352e-06	
34	-1.70000e+00	2.130060e-06	
35	-1.75000e+00	2.074359e-06	
36	-1.80000e+00	2.022684e-06	
37	-1.85000e+00	1.974578e-06	
38	-1.90000e+00	1.929659e-06	
39	-1.95000e+00	1.887606e-06	
40	-2.00000e+00	1.848142e-06	
41	-2.05000e+00	1.811030e-06	
42	-2.10000e+00	1.776062e-06	
43	-2.15000e+00	1.743055e-06	
44	-2.20000e+00	1.711848e-06	
45	-2.25000e+00	1.682297e-06	
46	-2.30000e+00	1.654274e-06	
47	-2.35000e+00	1.627665e-06	
48	-2.40000e+00	1.602365e-06	
49	-2.45000e+00	1.578282e-06	
50	-2.50000e+00	1.555331e-06	
51	-2.55000e+00	1.533435e-06	
52	-2.60000e+00	1.512524e-06	
53	-2.65000e+00	1.492535e-06	
54	-2.70000e+00	1.473409e-06	

Index   v-sweep         rds             
--------------------------------------------------------------------------------
55	-2.75000e+00	1.455092e-06	
56	-2.80000e+00	1.437536e-06	
57	-2.85000e+00	1.420695e-06	
58	-2.90000e+00	1.404527e-06	
59	-2.95000e+00	1.388994e-06	
60	-3.00000e+00	1.374061e-06	
61	-3.05000e+00	1.359693e-06	
62	-3.10000e+00	1.345862e-06	
63	-3.15000e+00	1.332537e-06	
64	-3.20000e+00	1.319693e-06	
65	-3.25000e+00	1.307306e-06	
66	-3.30000e+00	1.295351e-06	
67	-3.35000e+00	1.283807e-06	
68	-3.40000e+00	1.272656e-06	
69	-3.45000e+00	1.261876e-06	
70	-3.50000e+00	1.251452e-06	
71	-3.55000e+00	1.241366e-06	
72	-3.60000e+00	1.231604e-06	
73	-3.65000e+00	1.222149e-06	
74	-3.70000e+00	1.212989e-06	
75	-3.75000e+00	1.204112e-06	
76	-3.80000e+00	1.195503e-06	
77	-3.85000e+00	1.187153e-06	
78	-3.90000e+00	1.179050e-06	
79	-3.95000e+00	1.171184e-06	
80	-4.00000e+00	1.163546e-06	
81	-4.05000e+00	1.156126e-06	
82	-4.10000e+00	1.148916e-06	
83	-4.15000e+00	1.141907e-06	
84	-4.20000e+00	1.135092e-06	
85	-4.25000e+00	1.128463e-06	
86	-4.30000e+00	1.122013e-06	
87	-4.35000e+00	1.115737e-06	
88	-4.40000e+00	1.109627e-06	
89	-4.45000e+00	1.103677e-06	
90	-4.50000e+00	1.097882e-06	
91	-4.55000e+00	1.092237e-06	
92	-4.60000e+00	1.086736e-06	
93	-4.65000e+00	1.081374e-06	
94	-4.70000e+00	1.076148e-06	
95	-4.75000e+00	1.071051e-06	
96	-4.80000e+00	1.066081e-06	
97	-4.85000e+00	1.061233e-06	
98	-4.90000e+00	1.056504e-06	
99	-4.95000e+00	1.051889e-06	
100	-5.00000e+00	1.047385e-06	
101	-5.05000e+00	1.042989e-06	
102	-5.10000e+00	1.038698e-06	
103	-5.15000e+00	1.034509e-06	
104	-5.20000e+00	1.030419e-06	
105	-5.25000e+00	1.026424e-06	
106	-5.30000e+00	1.022523e-06	
107	-5.35000e+00	1.018713e-06	
108	-5.40000e+00	1.014992e-06	
109	-5.45000e+00	1.011357e-06	
110	-5.50000e+00	1.007806e-06	
111	-5.55000e+00	1.004336e-06	
112	-5.60000e+00	1.000947e-06	

Index   v-sweep         rds             
--------------------------------------------------------------------------------
113	-5.65000e+00	9.976359e-07	
114	-5.70000e+00	9.944008e-07	
115	-5.75000e+00	9.912401e-07	
116	-5.80000e+00	9.881521e-07	
117	-5.85000e+00	9.851352e-07	
118	-5.90000e+00	9.821878e-07	
119	-5.95000e+00	9.793085e-07	
120	-6.00000e+00	9.764959e-07	
121	-6.05000e+00	9.737484e-07	
122	-6.10000e+00	9.710649e-07	
123	-6.15000e+00	9.684441e-07	
124	-6.20000e+00	9.658847e-07	
125	-6.25000e+00	9.633856e-07	
126	-6.30000e+00	9.609457e-07	
127	-6.35000e+00	9.585638e-07	
128	-6.40000e+00	9.562390e-07	
129	-6.45000e+00	9.539703e-07	
130	-6.50000e+00	9.517566e-07	
131	-6.55000e+00	9.495970e-07	
132	-6.60000e+00	9.474907e-07	
Reset re-loads circuit ***************************

Circuit: ***************************

Doing analysis at TEMP = 125.000000 and TNOM = 125.000000


No. of Data Rows : 133
                          ***************************
                          DC transfer characteristic  Mon Jan  9 13:58:53  2023
--------------------------------------------------------------------------------
Index   v-sweep         rds             
--------------------------------------------------------------------------------
0	0.000000e+00	7.388711e-05	
1	-5.00000e-02	7.177850e-05	
2	-1.00000e-01	6.968094e-05	
3	-1.50000e-01	6.759440e-05	
4	-2.00000e-01	6.551881e-05	
5	-2.50000e-01	6.345412e-05	
6	-3.00000e-01	6.140030e-05	
7	-3.50000e-01	5.935728e-05	
8	-4.00000e-01	5.732503e-05	
9	-4.50000e-01	5.530350e-05	
10	-5.00000e-01	5.329267e-05	
11	-5.50000e-01	5.129248e-05	
12	-6.00000e-01	4.930292e-05	
13	-6.50000e-01	4.732397e-05	
14	-7.00000e-01	4.535562e-05	
15	-7.50000e-01	4.339787e-05	
16	-8.00000e-01	4.145074e-05	
17	-8.50000e-01	3.951428e-05	
18	-9.00000e-01	3.758856e-05	
19	-9.50000e-01	3.567370e-05	
20	-1.00000e+00	3.376989e-05	
21	-1.05000e+00	3.187740e-05	
22	-1.10000e+00	2.999663e-05	
23	-1.15000e+00	2.812819e-05	
24	-1.20000e+00	2.627297e-05	
25	-1.25000e+00	2.443233e-05	
26	-1.30000e+00	2.260836e-05	
27	-1.35000e+00	2.080432e-05	
28	-1.40000e+00	1.902537e-05	
29	-1.45000e+00	1.727979e-05	
30	-1.50000e+00	1.558080e-05	
31	-1.55000e+00	1.394915e-05	
32	-1.60000e+00	1.241553e-05	
33	-1.65000e+00	1.102021e-05	
34	-1.70000e+00	9.805247e-06	
35	-1.75000e+00	8.798047e-06	
36	-1.80000e+00	7.996445e-06	
37	-1.85000e+00	7.370286e-06	
38	-1.90000e+00	6.877746e-06	
39	-1.95000e+00	6.480738e-06	
40	-2.00000e+00	6.150992e-06	
41	-2.05000e+00	5.869476e-06	
42	-2.10000e+00	5.623773e-06	
43	-2.15000e+00	5.405719e-06	
44	-2.20000e+00	5.209781e-06	
45	-2.25000e+00	5.032059e-06	
46	-2.30000e+00	4.869694e-06	
47	-2.35000e+00	4.720508e-06	
48	-2.40000e+00	4.582790e-06	
49	-2.45000e+00	4.455159e-06	
50	-2.50000e+00	4.336477e-06	
51	-2.55000e+00	4.225792e-06	
52	-2.60000e+00	4.122293e-06	
53	-2.65000e+00	4.025284e-06	
54	-2.70000e+00	3.934162e-06	

Index   v-sweep         rds             
--------------------------------------------------------------------------------
55	-2.75000e+00	3.848400e-06	
56	-2.80000e+00	3.767535e-06	
57	-2.85000e+00	3.691157e-06	
58	-2.90000e+00	3.618901e-06	
59	-2.95000e+00	3.550444e-06	
60	-3.00000e+00	3.485494e-06	
61	-3.05000e+00	3.423790e-06	
62	-3.10000e+00	3.365095e-06	
63	-3.15000e+00	3.309197e-06	
64	-3.20000e+00	3.255902e-06	
65	-3.25000e+00	3.205034e-06	
66	-3.30000e+00	3.156433e-06	
67	-3.35000e+00	3.109952e-06	
68	-3.40000e+00	3.065458e-06	
69	-3.45000e+00	3.022827e-06	
70	-3.50000e+00	2.981946e-06	
71	-3.55000e+00	2.942711e-06	
72	-3.60000e+00	2.905027e-06	
73	-3.65000e+00	2.868805e-06	
74	-3.70000e+00	2.833962e-06	
75	-3.75000e+00	2.800423e-06	
76	-3.80000e+00	2.768117e-06	
77	-3.85000e+00	2.736979e-06	
78	-3.90000e+00	2.706948e-06	
79	-3.95000e+00	2.677966e-06	
80	-4.00000e+00	2.649982e-06	
81	-4.05000e+00	2.622945e-06	
82	-4.10000e+00	2.596810e-06	
83	-4.15000e+00	2.571532e-06	
84	-4.20000e+00	2.547072e-06	
85	-4.25000e+00	2.523391e-06	
86	-4.30000e+00	2.500454e-06	
87	-4.35000e+00	2.478227e-06	
88	-4.40000e+00	2.456679e-06	
89	-4.45000e+00	2.435779e-06	
90	-4.50000e+00	2.415500e-06	
91	-4.55000e+00	2.395816e-06	
92	-4.60000e+00	2.376701e-06	
93	-4.65000e+00	2.358132e-06	
94	-4.70000e+00	2.340087e-06	
95	-4.75000e+00	2.322545e-06	
96	-4.80000e+00	2.305485e-06	
97	-4.85000e+00	2.288889e-06	
98	-4.90000e+00	2.272740e-06	
99	-4.95000e+00	2.257020e-06	
100	-5.00000e+00	2.241713e-06	
101	-5.05000e+00	2.226805e-06	
102	-5.10000e+00	2.212279e-06	
103	-5.15000e+00	2.198124e-06	
104	-5.20000e+00	2.184326e-06	
105	-5.25000e+00	2.170872e-06	
106	-5.30000e+00	2.157751e-06	
107	-5.35000e+00	2.144951e-06	
108	-5.40000e+00	2.132463e-06	
109	-5.45000e+00	2.120275e-06	
110	-5.50000e+00	2.108378e-06	
111	-5.55000e+00	2.096763e-06	
112	-5.60000e+00	2.085421e-06	

Index   v-sweep         rds             
--------------------------------------------------------------------------------
113	-5.65000e+00	2.074344e-06	
114	-5.70000e+00	2.063524e-06	
115	-5.75000e+00	2.052953e-06	
116	-5.80000e+00	2.042624e-06	
117	-5.85000e+00	2.032530e-06	
118	-5.90000e+00	2.022664e-06	
119	-5.95000e+00	2.013021e-06	
120	-6.00000e+00	2.003594e-06	
121	-6.05000e+00	1.994377e-06	
122	-6.10000e+00	1.985366e-06	
123	-6.15000e+00	1.976553e-06	
124	-6.20000e+00	1.967936e-06	
125	-6.25000e+00	1.959509e-06	
126	-6.30000e+00	1.951267e-06	
127	-6.35000e+00	1.943205e-06	
128	-6.40000e+00	1.935321e-06	
129	-6.45000e+00	1.927609e-06	
130	-6.50000e+00	1.920066e-06	
131	-6.55000e+00	1.912689e-06	
132	-6.60000e+00	1.905473e-06	
Reset re-loads circuit ***************************

Circuit: ***************************

Doing analysis at TEMP = 125.000000 and TNOM = 125.000000


No. of Data Rows : 133
                          ***************************
                          DC transfer characteristic  Mon Jan  9 13:58:53  2023
--------------------------------------------------------------------------------
Index   v-sweep         rds             
--------------------------------------------------------------------------------
0	0.000000e+00	9.688562e-05	
1	-5.00000e-02	9.487744e-05	
2	-1.00000e-01	9.287864e-05	
3	-1.50000e-01	9.088919e-05	
4	-2.00000e-01	8.890905e-05	
5	-2.50000e-01	8.693816e-05	
6	-3.00000e-01	8.497650e-05	
7	-3.50000e-01	8.302401e-05	
8	-4.00000e-01	8.108067e-05	
9	-4.50000e-01	7.914642e-05	
10	-5.00000e-01	7.722124e-05	
11	-5.50000e-01	7.530507e-05	
12	-6.00000e-01	7.339789e-05	
13	-6.50000e-01	7.149965e-05	
14	-7.00000e-01	6.961033e-05	
15	-7.50000e-01	6.772988e-05	
16	-8.00000e-01	6.585827e-05	
17	-8.50000e-01	6.399548e-05	
18	-9.00000e-01	6.214146e-05	
19	-9.50000e-01	6.029620e-05	
20	-1.00000e+00	5.845968e-05	
21	-1.05000e+00	5.663186e-05	
22	-1.10000e+00	5.481274e-05	
23	-1.15000e+00	5.300231e-05	
24	-1.20000e+00	5.120056e-05	
25	-1.25000e+00	4.940751e-05	
26	-1.30000e+00	4.762315e-05	
27	-1.35000e+00	4.584754e-05	
28	-1.40000e+00	4.408072e-05	
29	-1.45000e+00	4.232276e-05	
30	-1.50000e+00	4.057378e-05	
31	-1.55000e+00	3.883392e-05	
32	-1.60000e+00	3.710340e-05	
33	-1.65000e+00	3.538253e-05	
34	-1.70000e+00	3.367170e-05	
35	-1.75000e+00	3.197152e-05	
36	-1.80000e+00	3.028279e-05	
37	-1.85000e+00	2.860671e-05	
38	-1.90000e+00	2.694496e-05	
39	-1.95000e+00	2.530005e-05	
40	-2.00000e+00	2.367562e-05	
41	-2.05000e+00	2.207712e-05	
42	-2.10000e+00	2.051255e-05	
43	-2.15000e+00	1.899358e-05	
44	-2.20000e+00	1.753655e-05	
45	-2.25000e+00	1.616268e-05	
46	-2.30000e+00	1.489627e-05	
47	-2.35000e+00	1.375951e-05	
48	-2.40000e+00	1.276532e-05	
49	-2.45000e+00	1.191239e-05	
50	-2.50000e+00	1.118646e-05	
51	-2.55000e+00	1.056667e-05	
52	-2.60000e+00	1.003196e-05	
53	-2.65000e+00	9.564593e-06	
54	-2.70000e+00	9.150903e-06	

Index   v-sweep         rds             
--------------------------------------------------------------------------------
55	-2.75000e+00	8.780744e-06	
56	-2.80000e+00	8.446589e-06	
57	-2.85000e+00	8.142771e-06	
58	-2.90000e+00	7.864917e-06	
59	-2.95000e+00	7.609575e-06	
60	-3.00000e+00	7.373953e-06	
61	-3.05000e+00	7.155752e-06	
62	-3.10000e+00	6.953051e-06	
63	-3.15000e+00	6.764218e-06	
64	-3.20000e+00	6.587856e-06	
65	-3.25000e+00	6.422759e-06	
66	-3.30000e+00	6.267874e-06	
67	-3.35000e+00	6.122282e-06	
68	-3.40000e+00	5.985171e-06	
69	-3.45000e+00	5.855824e-06	
70	-3.50000e+00	5.733601e-06	
71	-3.55000e+00	5.617934e-06	
72	-3.60000e+00	5.508311e-06	
73	-3.65000e+00	5.404276e-06	
74	-3.70000e+00	5.305415e-06	
75	-3.75000e+00	5.211354e-06	
76	-3.80000e+00	5.121757e-06	
77	-3.85000e+00	5.036315e-06	
78	-3.90000e+00	4.954750e-06	
79	-3.95000e+00	4.876805e-06	
80	-4.00000e+00	4.802249e-06	
81	-4.05000e+00	4.730868e-06	
82	-4.10000e+00	4.662464e-06	
83	-4.15000e+00	4.596860e-06	
84	-4.20000e+00	4.533887e-06	
85	-4.25000e+00	4.473394e-06	
86	-4.30000e+00	4.415238e-06	
87	-4.35000e+00	4.359288e-06	
88	-4.40000e+00	4.305424e-06	
89	-4.45000e+00	4.253532e-06	
90	-4.50000e+00	4.203508e-06	
91	-4.55000e+00	4.155255e-06	
92	-4.60000e+00	4.108681e-06	
93	-4.65000e+00	4.063701e-06	
94	-4.70000e+00	4.020238e-06	
95	-4.75000e+00	3.978216e-06	
96	-4.80000e+00	3.937566e-06	
97	-4.85000e+00	3.898224e-06	
98	-4.90000e+00	3.860129e-06	
99	-4.95000e+00	3.823223e-06	
100	-5.00000e+00	3.787453e-06	
101	-5.05000e+00	3.752768e-06	
102	-5.10000e+00	3.719122e-06	
103	-5.15000e+00	3.686468e-06	
104	-5.20000e+00	3.654765e-06	
105	-5.25000e+00	3.623973e-06	
106	-5.30000e+00	3.594054e-06	
107	-5.35000e+00	3.564974e-06	
108	-5.40000e+00	3.536697e-06	
109	-5.45000e+00	3.509193e-06	
110	-5.50000e+00	3.482431e-06	
111	-5.55000e+00	3.456383e-06	
112	-5.60000e+00	3.431022e-06	

Index   v-sweep         rds             
--------------------------------------------------------------------------------
113	-5.65000e+00	3.406322e-06	
114	-5.70000e+00	3.382259e-06	
115	-5.75000e+00	3.358810e-06	
116	-5.80000e+00	3.335952e-06	
117	-5.85000e+00	3.313666e-06	
118	-5.90000e+00	3.291931e-06	
119	-5.95000e+00	3.270729e-06	
120	-6.00000e+00	3.250041e-06	
121	-6.05000e+00	3.229851e-06	
122	-6.10000e+00	3.210143e-06	
123	-6.15000e+00	3.190901e-06	
124	-6.20000e+00	3.172110e-06	
125	-6.25000e+00	3.153758e-06	
126	-6.30000e+00	3.135829e-06	
127	-6.35000e+00	3.118312e-06	
128	-6.40000e+00	3.101195e-06	
129	-6.45000e+00	3.084465e-06	
130	-6.50000e+00	3.068113e-06	
131	-6.55000e+00	3.052127e-06	
132	-6.60000e+00	3.036498e-06	
Reset re-loads circuit ***************************

Circuit: ***************************

Doing analysis at TEMP = 125.000000 and TNOM = 125.000000


No. of Data Rows : 133
                          ***************************
                          DC transfer characteristic  Mon Jan  9 13:58:53  2023
--------------------------------------------------------------------------------
Index   v-sweep         rds             
--------------------------------------------------------------------------------
0	0.000000e+00	1.164700e-04	
1	-5.00000e-02	1.145553e-04	
2	-1.00000e-01	1.126487e-04	
3	-1.50000e-01	1.107503e-04	
4	-2.00000e-01	1.088599e-04	
5	-2.50000e-01	1.069775e-04	
6	-3.00000e-01	1.051032e-04	
7	-3.50000e-01	1.032368e-04	
8	-4.00000e-01	1.013783e-04	
9	-4.50000e-01	9.952778e-05	
10	-5.00000e-01	9.768511e-05	
11	-5.50000e-01	9.585027e-05	
12	-6.00000e-01	9.402324e-05	
13	-6.50000e-01	9.220399e-05	
14	-7.00000e-01	9.039247e-05	
15	-7.50000e-01	8.858867e-05	
16	-8.00000e-01	8.679255e-05	
17	-8.50000e-01	8.500407e-05	
18	-9.00000e-01	8.322321e-05	
19	-9.50000e-01	8.144994e-05	
20	-1.00000e+00	7.968424e-05	
21	-1.05000e+00	7.792606e-05	
22	-1.10000e+00	7.617538e-05	
23	-1.15000e+00	7.443219e-05	
24	-1.20000e+00	7.269644e-05	
25	-1.25000e+00	7.096813e-05	
26	-1.30000e+00	6.924721e-05	
27	-1.35000e+00	6.753368e-05	
28	-1.40000e+00	6.582751e-05	
29	-1.45000e+00	6.412869e-05	
30	-1.50000e+00	6.243720e-05	
31	-1.55000e+00	6.075302e-05	
32	-1.60000e+00	5.907616e-05	
33	-1.65000e+00	5.740660e-05	
34	-1.70000e+00	5.574435e-05	
35	-1.75000e+00	5.408942e-05	
36	-1.80000e+00	5.244181e-05	
37	-1.85000e+00	5.080157e-05	
38	-1.90000e+00	4.916872e-05	
39	-1.95000e+00	4.754332e-05	
40	-2.00000e+00	4.592545e-05	
41	-2.05000e+00	4.431521e-05	
42	-2.10000e+00	4.271274e-05	
43	-2.15000e+00	4.111822e-05	
44	-2.20000e+00	3.953190e-05	
45	-2.25000e+00	3.795411e-05	
46	-2.30000e+00	3.638528e-05	
47	-2.35000e+00	3.482601e-05	
48	-2.40000e+00	3.327713e-05	
49	-2.45000e+00	3.173973e-05	
50	-2.50000e+00	3.021538e-05	
51	-2.55000e+00	2.870623e-05	
52	-2.60000e+00	2.721530e-05	
53	-2.65000e+00	2.574683e-05	
54	-2.70000e+00	2.430672e-05	

Index   v-sweep         rds             
--------------------------------------------------------------------------------
55	-2.75000e+00	2.290300e-05	
56	-2.80000e+00	2.154625e-05	
57	-2.85000e+00	2.024951e-05	
58	-2.90000e+00	1.902725e-05	
59	-2.95000e+00	1.789311e-05	
60	-3.00000e+00	1.685673e-05	
61	-3.05000e+00	1.592127e-05	
62	-3.10000e+00	1.508307e-05	
63	-3.15000e+00	1.433360e-05	
64	-3.20000e+00	1.366220e-05	
65	-3.25000e+00	1.305825e-05	
66	-3.30000e+00	1.251232e-05	
67	-3.35000e+00	1.201641e-05	
68	-3.40000e+00	1.156391e-05	
69	-3.45000e+00	1.114933e-05	
70	-3.50000e+00	1.076809e-05	
71	-3.55000e+00	1.041636e-05	
72	-3.60000e+00	1.009086e-05	
73	-3.65000e+00	9.788808e-06	
74	-3.70000e+00	9.507786e-06	
75	-3.75000e+00	9.245707e-06	
76	-3.80000e+00	9.000746e-06	
77	-3.85000e+00	8.771306e-06	
78	-3.90000e+00	8.555979e-06	
79	-3.95000e+00	8.353521e-06	
80	-4.00000e+00	8.162829e-06	
81	-4.05000e+00	7.982923e-06	
82	-4.10000e+00	7.812924e-06	
83	-4.15000e+00	7.652048e-06	
84	-4.20000e+00	7.499589e-06	
85	-4.25000e+00	7.354914e-06	
86	-4.30000e+00	7.217449e-06	
87	-4.35000e+00	7.086675e-06	
88	-4.40000e+00	6.962121e-06	
89	-4.45000e+00	6.843361e-06	
90	-4.50000e+00	6.730004e-06	
91	-4.55000e+00	6.621695e-06	
92	-4.60000e+00	6.518108e-06	
93	-4.65000e+00	6.418946e-06	
94	-4.70000e+00	6.323934e-06	
95	-4.75000e+00	6.232820e-06	
96	-4.80000e+00	6.145373e-06	
97	-4.85000e+00	6.061379e-06	
98	-4.90000e+00	5.980641e-06	
99	-4.95000e+00	5.902974e-06	
100	-5.00000e+00	5.828210e-06	
101	-5.05000e+00	5.756191e-06	
102	-5.10000e+00	5.686771e-06	
103	-5.15000e+00	5.619813e-06	
104	-5.20000e+00	5.555192e-06	
105	-5.25000e+00	5.492788e-06	
106	-5.30000e+00	5.432492e-06	
107	-5.35000e+00	5.374200e-06	
108	-5.40000e+00	5.317815e-06	
109	-5.45000e+00	5.263247e-06	
110	-5.50000e+00	5.210411e-06	
111	-5.55000e+00	5.159227e-06	
112	-5.60000e+00	5.109621e-06	

Index   v-sweep         rds             
--------------------------------------------------------------------------------
113	-5.65000e+00	5.061522e-06	
114	-5.70000e+00	5.014863e-06	
115	-5.75000e+00	4.969583e-06	
116	-5.80000e+00	4.925623e-06	
117	-5.85000e+00	4.882926e-06	
118	-5.90000e+00	4.841441e-06	
119	-5.95000e+00	4.801118e-06	
120	-6.00000e+00	4.761911e-06	
121	-6.05000e+00	4.723774e-06	
122	-6.10000e+00	4.686667e-06	
123	-6.15000e+00	4.650549e-06	
124	-6.20000e+00	4.615384e-06	
125	-6.25000e+00	4.581135e-06	
126	-6.30000e+00	4.547768e-06	
127	-6.35000e+00	4.515252e-06	
128	-6.40000e+00	4.483556e-06	
129	-6.45000e+00	4.452651e-06	
130	-6.50000e+00	4.422510e-06	
131	-6.55000e+00	4.393107e-06	
132	-6.60000e+00	4.364417e-06	
Reset re-loads circuit ***************************

Circuit: ***************************

Doing analysis at TEMP = 125.000000 and TNOM = 125.000000


No. of Data Rows : 133
                          ***************************
                          DC transfer characteristic  Mon Jan  9 13:58:53  2023
--------------------------------------------------------------------------------
Index   v-sweep         rds             
--------------------------------------------------------------------------------
0	0.000000e+00	1.347925e-04	
1	-5.00000e-02	1.329574e-04	
2	-1.00000e-01	1.311294e-04	
3	-1.50000e-01	1.293086e-04	
4	-2.00000e-01	1.274949e-04	
5	-2.50000e-01	1.256884e-04	
6	-3.00000e-01	1.238889e-04	
7	-3.50000e-01	1.220964e-04	
8	-4.00000e-01	1.203110e-04	
9	-4.50000e-01	1.185326e-04	
10	-5.00000e-01	1.167611e-04	
11	-5.50000e-01	1.149966e-04	
12	-6.00000e-01	1.132389e-04	
13	-6.50000e-01	1.114882e-04	
14	-7.00000e-01	1.097443e-04	
15	-7.50000e-01	1.080073e-04	
16	-8.00000e-01	1.062770e-04	
17	-8.50000e-01	1.045536e-04	
18	-9.00000e-01	1.028368e-04	
19	-9.50000e-01	1.011268e-04	
20	-1.00000e+00	9.942353e-05	
21	-1.05000e+00	9.772691e-05	
22	-1.10000e+00	9.603692e-05	
23	-1.15000e+00	9.435357e-05	
24	-1.20000e+00	9.267680e-05	
25	-1.25000e+00	9.100661e-05	
26	-1.30000e+00	8.934297e-05	
27	-1.35000e+00	8.768586e-05	
28	-1.40000e+00	8.603525e-05	
29	-1.45000e+00	8.439111e-05	
30	-1.50000e+00	8.275343e-05	
31	-1.55000e+00	8.112219e-05	
32	-1.60000e+00	7.949737e-05	
33	-1.65000e+00	7.787894e-05	
34	-1.70000e+00	7.626689e-05	
35	-1.75000e+00	7.466119e-05	
36	-1.80000e+00	7.306184e-05	
37	-1.85000e+00	7.146882e-05	
38	-1.90000e+00	6.988210e-05	
39	-1.95000e+00	6.830169e-05	
40	-2.00000e+00	6.672757e-05	
41	-2.05000e+00	6.515973e-05	
42	-2.10000e+00	6.359817e-05	
43	-2.15000e+00	6.204289e-05	
44	-2.20000e+00	6.049389e-05	
45	-2.25000e+00	5.895117e-05	
46	-2.30000e+00	5.741475e-05	
47	-2.35000e+00	5.588465e-05	
48	-2.40000e+00	5.436090e-05	
49	-2.45000e+00	5.284354e-05	
50	-2.50000e+00	5.133261e-05	
51	-2.55000e+00	4.982819e-05	
52	-2.60000e+00	4.833036e-05	
53	-2.65000e+00	4.683925e-05	
54	-2.70000e+00	4.535499e-05	

Index   v-sweep         rds             
--------------------------------------------------------------------------------
55	-2.75000e+00	4.387777e-05	
56	-2.80000e+00	4.240784e-05	
57	-2.85000e+00	4.094553e-05	
58	-2.90000e+00	3.949123e-05	
59	-2.95000e+00	3.804550e-05	
60	-3.00000e+00	3.660904e-05	
61	-3.05000e+00	3.518279e-05	
62	-3.10000e+00	3.376800e-05	
63	-3.15000e+00	3.236635e-05	
64	-3.20000e+00	3.098006e-05	
65	-3.25000e+00	2.961210e-05	
66	-3.30000e+00	2.826639e-05	
67	-3.35000e+00	2.694799e-05	
68	-3.40000e+00	2.566325e-05	
69	-3.45000e+00	2.441975e-05	
70	-3.50000e+00	2.322581e-05	
71	-3.55000e+00	2.208971e-05	
72	-3.60000e+00	2.101841e-05	
73	-3.65000e+00	2.001654e-05	
74	-3.70000e+00	1.908581e-05	
75	-3.75000e+00	1.822522e-05	
76	-3.80000e+00	1.743176e-05	
77	-3.85000e+00	1.670121e-05	
78	-3.90000e+00	1.602876e-05	
79	-3.95000e+00	1.540948e-05	
80	-4.00000e+00	1.483855e-05	
81	-4.05000e+00	1.431145e-05	
82	-4.10000e+00	1.382399e-05	
83	-4.15000e+00	1.337236e-05	
84	-4.20000e+00	1.295310e-05	
85	-4.25000e+00	1.256315e-05	
86	-4.30000e+00	1.219972e-05	
87	-4.35000e+00	1.186037e-05	
88	-4.40000e+00	1.154291e-05	
89	-4.45000e+00	1.124536e-05	
90	-4.50000e+00	1.096600e-05	
91	-4.55000e+00	1.070325e-05	
92	-4.60000e+00	1.045574e-05	
93	-4.65000e+00	1.022220e-05	
94	-4.70000e+00	1.000153e-05	
95	-4.75000e+00	9.792705e-06	
96	-4.80000e+00	9.594826e-06	
97	-4.85000e+00	9.407071e-06	
98	-4.90000e+00	9.228699e-06	
99	-4.95000e+00	9.059036e-06	
100	-5.00000e+00	8.897472e-06	
101	-5.05000e+00	8.743451e-06	
102	-5.10000e+00	8.596464e-06	
103	-5.15000e+00	8.456050e-06	
104	-5.20000e+00	8.321784e-06	
105	-5.25000e+00	8.193278e-06	
106	-5.30000e+00	8.070173e-06	
107	-5.35000e+00	7.952143e-06	
108	-5.40000e+00	7.838883e-06	
109	-5.45000e+00	7.730116e-06	
110	-5.50000e+00	7.625582e-06	
111	-5.55000e+00	7.525044e-06	
112	-5.60000e+00	7.428279e-06	

Index   v-sweep         rds             
--------------------------------------------------------------------------------
113	-5.65000e+00	7.335082e-06	
114	-5.70000e+00	7.245263e-06	
115	-5.75000e+00	7.158644e-06	
116	-5.80000e+00	7.075059e-06	
117	-5.85000e+00	6.994354e-06	
118	-5.90000e+00	6.916385e-06	
119	-5.95000e+00	6.841018e-06	
120	-6.00000e+00	6.768127e-06	
121	-6.05000e+00	6.697592e-06	
122	-6.10000e+00	6.629305e-06	
123	-6.15000e+00	6.563160e-06	
124	-6.20000e+00	6.499061e-06	
125	-6.25000e+00	6.436916e-06	
126	-6.30000e+00	6.376638e-06	
127	-6.35000e+00	6.318147e-06	
128	-6.40000e+00	6.261365e-06	
129	-6.45000e+00	6.206220e-06	
130	-6.50000e+00	6.152644e-06	
131	-6.55000e+00	6.100574e-06	
132	-6.60000e+00	6.049947e-06	
Reset re-loads circuit ***************************

Circuit: ***************************

Note: No ".plot", ".print", or ".fourier" lines; no simulations run
