
Note: Compatibility modes selected: hs

Warning: m=xx on .subckt line will override multiplier m hierarchy!


Circuit: ***************************

Doing analysis at TEMP = 125.000000 and TNOM = 125.000000


No. of Data Rows : 133
                          ***************************
                          DC transfer characteristic  Mon Jan  9 13:58:53  2023
--------------------------------------------------------------------------------
Index   v-sweep         rds             
--------------------------------------------------------------------------------
0	0.000000e+00	8.250938e-06	
1	-5.00000e-02	6.211248e-06	
2	-1.00000e-01	4.210609e-06	
3	-1.50000e-01	2.350316e-06	
4	-2.00000e-01	9.496726e-07	
5	-2.50000e-01	3.039453e-07	
6	-3.00000e-01	1.104644e-07	
7	-3.50000e-01	5.306464e-08	
8	-4.00000e-01	3.246774e-08	
9	-4.50000e-01	2.350386e-08	
10	-5.00000e-01	1.893863e-08	
11	-5.50000e-01	1.630534e-08	
12	-6.00000e-01	1.462864e-08	
13	-6.50000e-01	1.347376e-08	
14	-7.00000e-01	1.262713e-08	
15	-7.50000e-01	1.197511e-08	
16	-8.00000e-01	1.145306e-08	
17	-8.50000e-01	1.102204e-08	
18	-9.00000e-01	1.065742e-08	
19	-9.50000e-01	1.034294e-08	
20	-1.00000e+00	1.006746e-08	
21	-1.05000e+00	9.823071e-09	
22	-1.10000e+00	9.604008e-09	
23	-1.15000e+00	9.405953e-09	
24	-1.20000e+00	9.225597e-09	
25	-1.25000e+00	9.060350e-09	
26	-1.30000e+00	8.908152e-09	
27	-1.35000e+00	8.767333e-09	
28	-1.40000e+00	8.636525e-09	
29	-1.45000e+00	8.514590e-09	
30	-1.50000e+00	8.400572e-09	
31	-1.55000e+00	8.293658e-09	
32	-1.60000e+00	8.193153e-09	
33	-1.65000e+00	8.098457e-09	
34	-1.70000e+00	8.009047e-09	
35	-1.75000e+00	7.924467e-09	
36	-1.80000e+00	7.844315e-09	
37	-1.85000e+00	7.768234e-09	
38	-1.90000e+00	7.695908e-09	
39	-1.95000e+00	7.627054e-09	
40	-2.00000e+00	7.561419e-09	
41	-2.05000e+00	7.498773e-09	
42	-2.10000e+00	7.438911e-09	
43	-2.15000e+00	7.381646e-09	
44	-2.20000e+00	7.326808e-09	
45	-2.25000e+00	7.274242e-09	
46	-2.30000e+00	7.223806e-09	
47	-2.35000e+00	7.175371e-09	
48	-2.40000e+00	7.128818e-09	
49	-2.45000e+00	7.084038e-09	
50	-2.50000e+00	7.040929e-09	
51	-2.55000e+00	6.999398e-09	
52	-2.60000e+00	6.959359e-09	
53	-2.65000e+00	6.920732e-09	
54	-2.70000e+00	6.883443e-09	

Index   v-sweep         rds             
--------------------------------------------------------------------------------
55	-2.75000e+00	6.847423e-09	
56	-2.80000e+00	6.812608e-09	
57	-2.85000e+00	6.778937e-09	
58	-2.90000e+00	6.746355e-09	
59	-2.95000e+00	6.714810e-09	
60	-3.00000e+00	6.684253e-09	
61	-3.05000e+00	6.654638e-09	
62	-3.10000e+00	6.625921e-09	
63	-3.15000e+00	6.598064e-09	
64	-3.20000e+00	6.571027e-09	
65	-3.25000e+00	6.544775e-09	
66	-3.30000e+00	6.519275e-09	
67	-3.35000e+00	6.494494e-09	
68	-3.40000e+00	6.470404e-09	
69	-3.45000e+00	6.446975e-09	
70	-3.50000e+00	6.424182e-09	
71	-3.55000e+00	6.401999e-09	
72	-3.60000e+00	6.380402e-09	
73	-3.65000e+00	6.359369e-09	
74	-3.70000e+00	6.338878e-09	
75	-3.75000e+00	6.318910e-09	
76	-3.80000e+00	6.299445e-09	
77	-3.85000e+00	6.280464e-09	
78	-3.90000e+00	6.261952e-09	
79	-3.95000e+00	6.243890e-09	
80	-4.00000e+00	6.226264e-09	
81	-4.05000e+00	6.209059e-09	
82	-4.10000e+00	6.192261e-09	
83	-4.15000e+00	6.175855e-09	
84	-4.20000e+00	6.159831e-09	
85	-4.25000e+00	6.144174e-09	
86	-4.30000e+00	6.128874e-09	
87	-4.35000e+00	6.113920e-09	
88	-4.40000e+00	6.099301e-09	
89	-4.45000e+00	6.085007e-09	
90	-4.50000e+00	6.071028e-09	
91	-4.55000e+00	6.057356e-09	
92	-4.60000e+00	6.043980e-09	
93	-4.65000e+00	6.030894e-09	
94	-4.70000e+00	6.018089e-09	
95	-4.75000e+00	6.005556e-09	
96	-4.80000e+00	5.993290e-09	
97	-4.85000e+00	5.981283e-09	
98	-4.90000e+00	5.969528e-09	
99	-4.95000e+00	5.958018e-09	
100	-5.00000e+00	5.946748e-09	
101	-5.05000e+00	5.935711e-09	
102	-5.10000e+00	5.924902e-09	
103	-5.15000e+00	5.914316e-09	
104	-5.20000e+00	5.903946e-09	
105	-5.25000e+00	5.893789e-09	
106	-5.30000e+00	5.883839e-09	
107	-5.35000e+00	5.874091e-09	
108	-5.40000e+00	5.864541e-09	
109	-5.45000e+00	5.855185e-09	
110	-5.50000e+00	5.846019e-09	
111	-5.55000e+00	5.837038e-09	
112	-5.60000e+00	5.828239e-09	

Index   v-sweep         rds             
--------------------------------------------------------------------------------
113	-5.65000e+00	5.819617e-09	
114	-5.70000e+00	5.811170e-09	
115	-5.75000e+00	5.802894e-09	
116	-5.80000e+00	5.794785e-09	
117	-5.85000e+00	5.786841e-09	
118	-5.90000e+00	5.779057e-09	
119	-5.95000e+00	5.771432e-09	
120	-6.00000e+00	5.763962e-09	
121	-6.05000e+00	5.756644e-09	
122	-6.10000e+00	5.749476e-09	
123	-6.15000e+00	5.742455e-09	
124	-6.20000e+00	5.735578e-09	
125	-6.25000e+00	5.728843e-09	
126	-6.30000e+00	5.722247e-09	
127	-6.35000e+00	5.715788e-09	
128	-6.40000e+00	5.709464e-09	
129	-6.45000e+00	5.703273e-09	
130	-6.50000e+00	5.697212e-09	
131	-6.55000e+00	5.691279e-09	
132	-6.60000e+00	5.685472e-09	
Reset re-loads circuit ***************************

Circuit: ***************************

Doing analysis at TEMP = 125.000000 and TNOM = 125.000000


No. of Data Rows : 133
                          ***************************
                          DC transfer characteristic  Mon Jan  9 13:58:53  2023
--------------------------------------------------------------------------------
Index   v-sweep         rds             
--------------------------------------------------------------------------------
0	0.000000e+00	4.131029e-05	
1	-5.00000e-02	3.903973e-05	
2	-1.00000e-01	3.677064e-05	
3	-1.50000e-01	3.450310e-05	
4	-2.00000e-01	3.223721e-05	
5	-2.50000e-01	2.997313e-05	
6	-3.00000e-01	2.771108e-05	
7	-3.50000e-01	2.545143e-05	
8	-4.00000e-01	2.319471e-05	
9	-4.50000e-01	2.094180e-05	
10	-5.00000e-01	1.869413e-05	
11	-5.50000e-01	1.645419e-05	
12	-6.00000e-01	1.422643e-05	
13	-6.50000e-01	1.201910e-05	
14	-7.00000e-01	9.848098e-06	
15	-7.50000e-01	7.744506e-06	
16	-8.00000e-01	5.767415e-06	
17	-8.50000e-01	4.016477e-06	
18	-9.00000e-01	2.616146e-06	
19	-9.50000e-01	1.640914e-06	
20	-1.00000e+00	1.046759e-06	
21	-1.05000e+00	7.129603e-07	
22	-1.10000e+00	5.282326e-07	
23	-1.15000e+00	4.226533e-07	
24	-1.20000e+00	3.588674e-07	
25	-1.25000e+00	3.178508e-07	
26	-1.30000e+00	2.898311e-07	
27	-1.35000e+00	2.696172e-07	
28	-1.40000e+00	2.543321e-07	
29	-1.45000e+00	2.423083e-07	
30	-1.50000e+00	2.325369e-07	
31	-1.55000e+00	2.243821e-07	
32	-1.60000e+00	2.174279e-07	
33	-1.65000e+00	2.113926e-07	
34	-1.70000e+00	2.060791e-07	
35	-1.75000e+00	2.013458e-07	
36	-1.80000e+00	1.970881e-07	
37	-1.85000e+00	1.932269e-07	
38	-1.90000e+00	1.897014e-07	
39	-1.95000e+00	1.864633e-07	
40	-2.00000e+00	1.834744e-07	
41	-2.05000e+00	1.807034e-07	
42	-2.10000e+00	1.781246e-07	
43	-2.15000e+00	1.757166e-07	
44	-2.20000e+00	1.734613e-07	
45	-2.25000e+00	1.713434e-07	
46	-2.30000e+00	1.693497e-07	
47	-2.35000e+00	1.674687e-07	
48	-2.40000e+00	1.656904e-07	
49	-2.45000e+00	1.640063e-07	
50	-2.50000e+00	1.624085e-07	
51	-2.55000e+00	1.608903e-07	
52	-2.60000e+00	1.594455e-07	
53	-2.65000e+00	1.580688e-07	
54	-2.70000e+00	1.567553e-07	

Index   v-sweep         rds             
--------------------------------------------------------------------------------
55	-2.75000e+00	1.555004e-07	
56	-2.80000e+00	1.543004e-07	
57	-2.85000e+00	1.531515e-07	
58	-2.90000e+00	1.520504e-07	
59	-2.95000e+00	1.509942e-07	
60	-3.00000e+00	1.499801e-07	
61	-3.05000e+00	1.490055e-07	
62	-3.10000e+00	1.480682e-07	
63	-3.15000e+00	1.471660e-07	
64	-3.20000e+00	1.462970e-07	
65	-3.25000e+00	1.454593e-07	
66	-3.30000e+00	1.446513e-07	
67	-3.35000e+00	1.438713e-07	
68	-3.40000e+00	1.431180e-07	
69	-3.45000e+00	1.423899e-07	
70	-3.50000e+00	1.416858e-07	
71	-3.55000e+00	1.410046e-07	
72	-3.60000e+00	1.403451e-07	
73	-3.65000e+00	1.397063e-07	
74	-3.70000e+00	1.390872e-07	
75	-3.75000e+00	1.384869e-07	
76	-3.80000e+00	1.379047e-07	
77	-3.85000e+00	1.373396e-07	
78	-3.90000e+00	1.367910e-07	
79	-3.95000e+00	1.362581e-07	
80	-4.00000e+00	1.357403e-07	
81	-4.05000e+00	1.352369e-07	
82	-4.10000e+00	1.347473e-07	
83	-4.15000e+00	1.342711e-07	
84	-4.20000e+00	1.338076e-07	
85	-4.25000e+00	1.333564e-07	
86	-4.30000e+00	1.329169e-07	
87	-4.35000e+00	1.324889e-07	
88	-4.40000e+00	1.320717e-07	
89	-4.45000e+00	1.316650e-07	
90	-4.50000e+00	1.312685e-07	
91	-4.55000e+00	1.308818e-07	
92	-4.60000e+00	1.305044e-07	
93	-4.65000e+00	1.301362e-07	
94	-4.70000e+00	1.297768e-07	
95	-4.75000e+00	1.294258e-07	
96	-4.80000e+00	1.290831e-07	
97	-4.85000e+00	1.287483e-07	
98	-4.90000e+00	1.284212e-07	
99	-4.95000e+00	1.281016e-07	
100	-5.00000e+00	1.277891e-07	
101	-5.05000e+00	1.274837e-07	
102	-5.10000e+00	1.271850e-07	
103	-5.15000e+00	1.268929e-07	
104	-5.20000e+00	1.266072e-07	
105	-5.25000e+00	1.263277e-07	
106	-5.30000e+00	1.260542e-07	
107	-5.35000e+00	1.257866e-07	
108	-5.40000e+00	1.255247e-07	
109	-5.45000e+00	1.252683e-07	
110	-5.50000e+00	1.250174e-07	
111	-5.55000e+00	1.247716e-07	
112	-5.60000e+00	1.245310e-07	

Index   v-sweep         rds             
--------------------------------------------------------------------------------
113	-5.65000e+00	1.242954e-07	
114	-5.70000e+00	1.240647e-07	
115	-5.75000e+00	1.238387e-07	
116	-5.80000e+00	1.236173e-07	
117	-5.85000e+00	1.234005e-07	
118	-5.90000e+00	1.231881e-07	
119	-5.95000e+00	1.229800e-07	
120	-6.00000e+00	1.227761e-07	
121	-6.05000e+00	1.225763e-07	
122	-6.10000e+00	1.223806e-07	
123	-6.15000e+00	1.221888e-07	
124	-6.20000e+00	1.220009e-07	
125	-6.25000e+00	1.218168e-07	
126	-6.30000e+00	1.216364e-07	
127	-6.35000e+00	1.214596e-07	
128	-6.40000e+00	1.212864e-07	
129	-6.45000e+00	1.211167e-07	
130	-6.50000e+00	1.209504e-07	
131	-6.55000e+00	1.207874e-07	
132	-6.60000e+00	1.206278e-07	
Reset re-loads circuit ***************************

Circuit: ***************************

Doing analysis at TEMP = 125.000000 and TNOM = 125.000000


No. of Data Rows : 133
                          ***************************
                          DC transfer characteristic  Mon Jan  9 13:58:53  2023
--------------------------------------------------------------------------------
Index   v-sweep         rds             
--------------------------------------------------------------------------------
0	0.000000e+00	6.883866e-05	
1	-5.00000e-02	6.672298e-05	
2	-1.00000e-01	6.460841e-05	
3	-1.50000e-01	6.249496e-05	
4	-2.00000e-01	6.038265e-05	
5	-2.50000e-01	5.827148e-05	
6	-3.00000e-01	5.616145e-05	
7	-3.50000e-01	5.405260e-05	
8	-4.00000e-01	5.194492e-05	
9	-4.50000e-01	4.983845e-05	
10	-5.00000e-01	4.773321e-05	
11	-5.50000e-01	4.562924e-05	
12	-6.00000e-01	4.352658e-05	
13	-6.50000e-01	4.142529e-05	
14	-7.00000e-01	3.932545e-05	
15	-7.50000e-01	3.722716e-05	
16	-8.00000e-01	3.513055e-05	
17	-8.50000e-01	3.303581e-05	
18	-9.00000e-01	3.094320e-05	
19	-9.50000e-01	2.885308e-05	
20	-1.00000e+00	2.676596e-05	
21	-1.05000e+00	2.468257e-05	
22	-1.10000e+00	2.260403e-05	
23	-1.15000e+00	2.053201e-05	
24	-1.20000e+00	1.846911e-05	
25	-1.25000e+00	1.641942e-05	
26	-1.30000e+00	1.438960e-05	
27	-1.35000e+00	1.239056e-05	
28	-1.40000e+00	1.044024e-05	
29	-1.45000e+00	8.567723e-06	
30	-1.50000e+00	6.817552e-06	
31	-1.55000e+00	5.250293e-06	
32	-1.60000e+00	3.931282e-06	
33	-1.65000e+00	2.904086e-06	
34	-1.70000e+00	2.165119e-06	
35	-1.75000e+00	1.665616e-06	
36	-1.80000e+00	1.338910e-06	
37	-1.85000e+00	1.125826e-06	
38	-1.90000e+00	9.840563e-07	
39	-1.95000e+00	8.865353e-07	
40	-2.00000e+00	8.167797e-07	
41	-2.05000e+00	7.648711e-07	
42	-2.10000e+00	7.247897e-07	
43	-2.15000e+00	6.928079e-07	
44	-2.20000e+00	6.665584e-07	
45	-2.25000e+00	6.444954e-07	
46	-2.30000e+00	6.255804e-07	
47	-2.35000e+00	6.090965e-07	
48	-2.40000e+00	5.945352e-07	
49	-2.45000e+00	5.815271e-07	
50	-2.50000e+00	5.697972e-07	
51	-2.55000e+00	5.591364e-07	
52	-2.60000e+00	5.493827e-07	
53	-2.65000e+00	5.404081e-07	
54	-2.70000e+00	5.321100e-07	

Index   v-sweep         rds             
--------------------------------------------------------------------------------
55	-2.75000e+00	5.244049e-07	
56	-2.80000e+00	5.172237e-07	
57	-2.85000e+00	5.105089e-07	
58	-2.90000e+00	5.042118e-07	
59	-2.95000e+00	4.982909e-07	
60	-3.00000e+00	4.927108e-07	
61	-3.05000e+00	4.874405e-07	
62	-3.10000e+00	4.824530e-07	
63	-3.15000e+00	4.777247e-07	
64	-3.20000e+00	4.732348e-07	
65	-3.25000e+00	4.689647e-07	
66	-3.30000e+00	4.648978e-07	
67	-3.35000e+00	4.610193e-07	
68	-3.40000e+00	4.573159e-07	
69	-3.45000e+00	4.537756e-07	
70	-3.50000e+00	4.503874e-07	
71	-3.55000e+00	4.471415e-07	
72	-3.60000e+00	4.440288e-07	
73	-3.65000e+00	4.410410e-07	
74	-3.70000e+00	4.381707e-07	
75	-3.75000e+00	4.354109e-07	
76	-3.80000e+00	4.327551e-07	
77	-3.85000e+00	4.301975e-07	
78	-3.90000e+00	4.277328e-07	
79	-3.95000e+00	4.253557e-07	
80	-4.00000e+00	4.230618e-07	
81	-4.05000e+00	4.208465e-07	
82	-4.10000e+00	4.187060e-07	
83	-4.15000e+00	4.166364e-07	
84	-4.20000e+00	4.146343e-07	
85	-4.25000e+00	4.126964e-07	
86	-4.30000e+00	4.108196e-07	
87	-4.35000e+00	4.090011e-07	
88	-4.40000e+00	4.072381e-07	
89	-4.45000e+00	4.055282e-07	
90	-4.50000e+00	4.038691e-07	
91	-4.55000e+00	4.022583e-07	
92	-4.60000e+00	4.006940e-07	
93	-4.65000e+00	3.991741e-07	
94	-4.70000e+00	3.976968e-07	
95	-4.75000e+00	3.962603e-07	
96	-4.80000e+00	3.948629e-07	
97	-4.85000e+00	3.935031e-07	
98	-4.90000e+00	3.921794e-07	
99	-4.95000e+00	3.908904e-07	
100	-5.00000e+00	3.896348e-07	
101	-5.05000e+00	3.884113e-07	
102	-5.10000e+00	3.872187e-07	
103	-5.15000e+00	3.860560e-07	
104	-5.20000e+00	3.849220e-07	
105	-5.25000e+00	3.838157e-07	
106	-5.30000e+00	3.827362e-07	
107	-5.35000e+00	3.816824e-07	
108	-5.40000e+00	3.806537e-07	
109	-5.45000e+00	3.796491e-07	
110	-5.50000e+00	3.786677e-07	
111	-5.55000e+00	3.777090e-07	
112	-5.60000e+00	3.767721e-07	

Index   v-sweep         rds             
--------------------------------------------------------------------------------
113	-5.65000e+00	3.758564e-07	
114	-5.70000e+00	3.749613e-07	
115	-5.75000e+00	3.740860e-07	
116	-5.80000e+00	3.732300e-07	
117	-5.85000e+00	3.723927e-07	
118	-5.90000e+00	3.715736e-07	
119	-5.95000e+00	3.707722e-07	
120	-6.00000e+00	3.699880e-07	
121	-6.05000e+00	3.692205e-07	
122	-6.10000e+00	3.684692e-07	
123	-6.15000e+00	3.677337e-07	
124	-6.20000e+00	3.670136e-07	
125	-6.25000e+00	3.663085e-07	
126	-6.30000e+00	3.656181e-07	
127	-6.35000e+00	3.649419e-07	
128	-6.40000e+00	3.642796e-07	
129	-6.45000e+00	3.636308e-07	
130	-6.50000e+00	3.629953e-07	
131	-6.55000e+00	3.623728e-07	
132	-6.60000e+00	3.617628e-07	
Reset re-loads circuit ***************************

Circuit: ***************************

Doing analysis at TEMP = 125.000000 and TNOM = 125.000000


No. of Data Rows : 133
                          ***************************
                          DC transfer characteristic  Mon Jan  9 13:58:53  2023
--------------------------------------------------------------------------------
Index   v-sweep         rds             
--------------------------------------------------------------------------------
0	0.000000e+00	9.274266e-05	
1	-5.00000e-02	9.077697e-05	
2	-1.00000e-01	8.881227e-05	
3	-1.50000e-01	8.684854e-05	
4	-2.00000e-01	8.488581e-05	
5	-2.50000e-01	8.292405e-05	
6	-3.00000e-01	8.096328e-05	
7	-3.50000e-01	7.900350e-05	
8	-4.00000e-01	7.704471e-05	
9	-4.50000e-01	7.508691e-05	
10	-5.00000e-01	7.313011e-05	
11	-5.50000e-01	7.117431e-05	
12	-6.00000e-01	6.921951e-05	
13	-6.50000e-01	6.726572e-05	
14	-7.00000e-01	6.531295e-05	
15	-7.50000e-01	6.336121e-05	
16	-8.00000e-01	6.141050e-05	
17	-8.50000e-01	5.946083e-05	
18	-9.00000e-01	5.751223e-05	
19	-9.50000e-01	5.556470e-05	
20	-1.00000e+00	5.361827e-05	
21	-1.05000e+00	5.167296e-05	
22	-1.10000e+00	4.972881e-05	
23	-1.15000e+00	4.778584e-05	
24	-1.20000e+00	4.584411e-05	
25	-1.25000e+00	4.390368e-05	
26	-1.30000e+00	4.196461e-05	
27	-1.35000e+00	4.002701e-05	
28	-1.40000e+00	3.809100e-05	
29	-1.45000e+00	3.615672e-05	
30	-1.50000e+00	3.422440e-05	
31	-1.55000e+00	3.229429e-05	
32	-1.60000e+00	3.036678e-05	
33	-1.65000e+00	2.844235e-05	
34	-1.70000e+00	2.652169e-05	
35	-1.75000e+00	2.460577e-05	
36	-1.80000e+00	2.269595e-05	
37	-1.85000e+00	2.079421e-05	
38	-1.90000e+00	1.890344e-05	
39	-1.95000e+00	1.702793e-05	
40	-2.00000e+00	1.517411e-05	
41	-2.05000e+00	1.335170e-05	
42	-2.10000e+00	1.157525e-05	
43	-2.15000e+00	9.866137e-06	
44	-2.20000e+00	8.254317e-06	
45	-2.25000e+00	6.778128e-06	
46	-2.30000e+00	5.479571e-06	
47	-2.35000e+00	4.393365e-06	
48	-2.40000e+00	3.533528e-06	
49	-2.45000e+00	2.886717e-06	
50	-2.50000e+00	2.418173e-06	
51	-2.55000e+00	2.085239e-06	
52	-2.60000e+00	1.848859e-06	
53	-2.65000e+00	1.678691e-06	
54	-2.70000e+00	1.553293e-06	

Index   v-sweep         rds             
--------------------------------------------------------------------------------
55	-2.75000e+00	1.458249e-06	
56	-2.80000e+00	1.384075e-06	
57	-2.85000e+00	1.324547e-06	
58	-2.90000e+00	1.275547e-06	
59	-2.95000e+00	1.234306e-06	
60	-3.00000e+00	1.198931e-06	
61	-3.05000e+00	1.168096e-06	
62	-3.10000e+00	1.140855e-06	
63	-3.15000e+00	1.116515e-06	
64	-3.20000e+00	1.094562e-06	
65	-3.25000e+00	1.074603e-06	
66	-3.30000e+00	1.056335e-06	
67	-3.35000e+00	1.039519e-06	
68	-3.40000e+00	1.023961e-06	
69	-3.45000e+00	1.009508e-06	
70	-3.50000e+00	9.960291e-07	
71	-3.55000e+00	9.834182e-07	
72	-3.60000e+00	9.715848e-07	
73	-3.65000e+00	9.604519e-07	
74	-3.70000e+00	9.499535e-07	
75	-3.75000e+00	9.400322e-07	
76	-3.80000e+00	9.306383e-07	
77	-3.85000e+00	9.217278e-07	
78	-3.90000e+00	9.132621e-07	
79	-3.95000e+00	9.052067e-07	
80	-4.00000e+00	8.975311e-07	
81	-4.05000e+00	8.902077e-07	
82	-4.10000e+00	8.832118e-07	
83	-4.15000e+00	8.765212e-07	
84	-4.20000e+00	8.701154e-07	
85	-4.25000e+00	8.639762e-07	
86	-4.30000e+00	8.580868e-07	
87	-4.35000e+00	8.524318e-07	
88	-4.40000e+00	8.469972e-07	
89	-4.45000e+00	8.417700e-07	
90	-4.50000e+00	8.367384e-07	
91	-4.55000e+00	8.318914e-07	
92	-4.60000e+00	8.272188e-07	
93	-4.65000e+00	8.227114e-07	
94	-4.70000e+00	8.183603e-07	
95	-4.75000e+00	8.141574e-07	
96	-4.80000e+00	8.100953e-07	
97	-4.85000e+00	8.061670e-07	
98	-4.90000e+00	8.023657e-07	
99	-4.95000e+00	7.986856e-07	
100	-5.00000e+00	7.951208e-07	
101	-5.05000e+00	7.916659e-07	
102	-5.10000e+00	7.883160e-07	
103	-5.15000e+00	7.850662e-07	
104	-5.20000e+00	7.819123e-07	
105	-5.25000e+00	7.788500e-07	
106	-5.30000e+00	7.758753e-07	
107	-5.35000e+00	7.729846e-07	
108	-5.40000e+00	7.701744e-07	
109	-5.45000e+00	7.674414e-07	
110	-5.50000e+00	7.647825e-07	
111	-5.55000e+00	7.621947e-07	
112	-5.60000e+00	7.596752e-07	

Index   v-sweep         rds             
--------------------------------------------------------------------------------
113	-5.65000e+00	7.572215e-07	
114	-5.70000e+00	7.548309e-07	
115	-5.75000e+00	7.525013e-07	
116	-5.80000e+00	7.502302e-07	
117	-5.85000e+00	7.480156e-07	
118	-5.90000e+00	7.458555e-07	
119	-5.95000e+00	7.437479e-07	
120	-6.00000e+00	7.416910e-07	
121	-6.05000e+00	7.396831e-07	
122	-6.10000e+00	7.377225e-07	
123	-6.15000e+00	7.358077e-07	
124	-6.20000e+00	7.339372e-07	
125	-6.25000e+00	7.321094e-07	
126	-6.30000e+00	7.303232e-07	
127	-6.35000e+00	7.285771e-07	
128	-6.40000e+00	7.268700e-07	
129	-6.45000e+00	7.252007e-07	
130	-6.50000e+00	7.235680e-07	
131	-6.55000e+00	7.219709e-07	
132	-6.60000e+00	7.204083e-07	
Reset re-loads circuit ***************************

Circuit: ***************************

Doing analysis at TEMP = 125.000000 and TNOM = 125.000000


No. of Data Rows : 133
                          ***************************
                          DC transfer characteristic  Mon Jan  9 13:58:53  2023
--------------------------------------------------------------------------------
Index   v-sweep         rds             
--------------------------------------------------------------------------------
0	0.000000e+00	1.139091e-04	
1	-5.00000e-02	1.120734e-04	
2	-1.00000e-01	1.102387e-04	
3	-1.50000e-01	1.084048e-04	
4	-2.00000e-01	1.065718e-04	
5	-2.50000e-01	1.047397e-04	
6	-3.00000e-01	1.029085e-04	
7	-3.50000e-01	1.010782e-04	
8	-4.00000e-01	9.924879e-05	
9	-4.50000e-01	9.742026e-05	
10	-5.00000e-01	9.559262e-05	
11	-5.50000e-01	9.376586e-05	
12	-6.00000e-01	9.194000e-05	
13	-6.50000e-01	9.011504e-05	
14	-7.00000e-01	8.829096e-05	
15	-7.50000e-01	8.646779e-05	
16	-8.00000e-01	8.464551e-05	
17	-8.50000e-01	8.282412e-05	
18	-9.00000e-01	8.100364e-05	
19	-9.50000e-01	7.918406e-05	
20	-1.00000e+00	7.736539e-05	
21	-1.05000e+00	7.554763e-05	
22	-1.10000e+00	7.373078e-05	
23	-1.15000e+00	7.191485e-05	
24	-1.20000e+00	7.009985e-05	
25	-1.25000e+00	6.828578e-05	
26	-1.30000e+00	6.647264e-05	
27	-1.35000e+00	6.466045e-05	
28	-1.40000e+00	6.284922e-05	
29	-1.45000e+00	6.103895e-05	
30	-1.50000e+00	5.922967e-05	
31	-1.55000e+00	5.742139e-05	
32	-1.60000e+00	5.561413e-05	
33	-1.65000e+00	5.380791e-05	
34	-1.70000e+00	5.200277e-05	
35	-1.75000e+00	5.019874e-05	
36	-1.80000e+00	4.839585e-05	
37	-1.85000e+00	4.659416e-05	
38	-1.90000e+00	4.479374e-05	
39	-1.95000e+00	4.299466e-05	
40	-2.00000e+00	4.119701e-05	
41	-2.05000e+00	3.940091e-05	
42	-2.10000e+00	3.760652e-05	
43	-2.15000e+00	3.581403e-05	
44	-2.20000e+00	3.402368e-05	
45	-2.25000e+00	3.223579e-05	
46	-2.30000e+00	3.045078e-05	
47	-2.35000e+00	2.866919e-05	
48	-2.40000e+00	2.689177e-05	
49	-2.45000e+00	2.511951e-05	
50	-2.50000e+00	2.335378e-05	
51	-2.55000e+00	2.159646e-05	
52	-2.60000e+00	1.985019e-05	
53	-2.65000e+00	1.811871e-05	
54	-2.70000e+00	1.640730e-05	

Index   v-sweep         rds             
--------------------------------------------------------------------------------
55	-2.75000e+00	1.472351e-05	
56	-2.80000e+00	1.307802e-05	
57	-2.85000e+00	1.148566e-05	
58	-2.90000e+00	9.966406e-06	
59	-2.95000e+00	8.545538e-06	
60	-3.00000e+00	7.251987e-06	
61	-3.05000e+00	6.113859e-06	
62	-3.10000e+00	5.151403e-06	
63	-3.15000e+00	4.370288e-06	
64	-3.20000e+00	3.759329e-06	
65	-3.25000e+00	3.294349e-06	
66	-3.30000e+00	2.945588e-06	
67	-3.35000e+00	2.684397e-06	
68	-3.40000e+00	2.486939e-06	
69	-3.45000e+00	2.335086e-06	
70	-3.50000e+00	2.215774e-06	
71	-3.55000e+00	2.119850e-06	
72	-3.60000e+00	2.040972e-06	
73	-3.65000e+00	1.974744e-06	
74	-3.70000e+00	1.918095e-06	
75	-3.75000e+00	1.868852e-06	
76	-3.80000e+00	1.825453e-06	
77	-3.85000e+00	1.786754e-06	
78	-3.90000e+00	1.751905e-06	
79	-3.95000e+00	1.720260e-06	
80	-4.00000e+00	1.691321e-06	
81	-4.05000e+00	1.664697e-06	
82	-4.10000e+00	1.640078e-06	
83	-4.15000e+00	1.617210e-06	
84	-4.20000e+00	1.595886e-06	
85	-4.25000e+00	1.575936e-06	
86	-4.30000e+00	1.557215e-06	
87	-4.35000e+00	1.539599e-06	
88	-4.40000e+00	1.522985e-06	
89	-4.45000e+00	1.507282e-06	
90	-4.50000e+00	1.492410e-06	
91	-4.55000e+00	1.478300e-06	
92	-4.60000e+00	1.464892e-06	
93	-4.65000e+00	1.452131e-06	
94	-4.70000e+00	1.439968e-06	
95	-4.75000e+00	1.428362e-06	
96	-4.80000e+00	1.417272e-06	
97	-4.85000e+00	1.406664e-06	
98	-4.90000e+00	1.396505e-06	
99	-4.95000e+00	1.386768e-06	
100	-5.00000e+00	1.377425e-06	
101	-5.05000e+00	1.368452e-06	
102	-5.10000e+00	1.359827e-06	
103	-5.15000e+00	1.351531e-06	
104	-5.20000e+00	1.343543e-06	
105	-5.25000e+00	1.335848e-06	
106	-5.30000e+00	1.328428e-06	
107	-5.35000e+00	1.321270e-06	
108	-5.40000e+00	1.314359e-06	
109	-5.45000e+00	1.307682e-06	
110	-5.50000e+00	1.301229e-06	
111	-5.55000e+00	1.294987e-06	
112	-5.60000e+00	1.288947e-06	

Index   v-sweep         rds             
--------------------------------------------------------------------------------
113	-5.65000e+00	1.283099e-06	
114	-5.70000e+00	1.277433e-06	
115	-5.75000e+00	1.271941e-06	
116	-5.80000e+00	1.266616e-06	
117	-5.85000e+00	1.261450e-06	
118	-5.90000e+00	1.256435e-06	
119	-5.95000e+00	1.251566e-06	
120	-6.00000e+00	1.246836e-06	
121	-6.05000e+00	1.242239e-06	
122	-6.10000e+00	1.237770e-06	
123	-6.15000e+00	1.233423e-06	
124	-6.20000e+00	1.229194e-06	
125	-6.25000e+00	1.225078e-06	
126	-6.30000e+00	1.221070e-06	
127	-6.35000e+00	1.217166e-06	
128	-6.40000e+00	1.213363e-06	
129	-6.45000e+00	1.209656e-06	
130	-6.50000e+00	1.206043e-06	
131	-6.55000e+00	1.202519e-06	
132	-6.60000e+00	1.199082e-06	
Reset re-loads circuit ***************************

Circuit: ***************************

Doing analysis at TEMP = 125.000000 and TNOM = 125.000000


No. of Data Rows : 133
                          ***************************
                          DC transfer characteristic  Mon Jan  9 13:58:53  2023
--------------------------------------------------------------------------------
Index   v-sweep         rds             
--------------------------------------------------------------------------------
0	0.000000e+00	1.332694e-04	
1	-5.00000e-02	1.315442e-04	
2	-1.00000e-01	1.298199e-04	
3	-1.50000e-01	1.280964e-04	
4	-2.00000e-01	1.263737e-04	
5	-2.50000e-01	1.246518e-04	
6	-3.00000e-01	1.229307e-04	
7	-3.50000e-01	1.212105e-04	
8	-4.00000e-01	1.194911e-04	
9	-4.50000e-01	1.177725e-04	
10	-5.00000e-01	1.160547e-04	
11	-5.50000e-01	1.143377e-04	
12	-6.00000e-01	1.126216e-04	
13	-6.50000e-01	1.109062e-04	
14	-7.00000e-01	1.091917e-04	
15	-7.50000e-01	1.074780e-04	
16	-8.00000e-01	1.057651e-04	
17	-8.50000e-01	1.040530e-04	
18	-9.00000e-01	1.023418e-04	
19	-9.50000e-01	1.006314e-04	
20	-1.00000e+00	9.892176e-05	
21	-1.05000e+00	9.721297e-05	
22	-1.10000e+00	9.550500e-05	
23	-1.15000e+00	9.379785e-05	
24	-1.20000e+00	9.209153e-05	
25	-1.25000e+00	9.038603e-05	
26	-1.30000e+00	8.868135e-05	
27	-1.35000e+00	8.697750e-05	
28	-1.40000e+00	8.527448e-05	
29	-1.45000e+00	8.357230e-05	
30	-1.50000e+00	8.187094e-05	
31	-1.55000e+00	8.017042e-05	
32	-1.60000e+00	7.847074e-05	
33	-1.65000e+00	7.677191e-05	
34	-1.70000e+00	7.507392e-05	
35	-1.75000e+00	7.337678e-05	
36	-1.80000e+00	7.168051e-05	
37	-1.85000e+00	6.998509e-05	
38	-1.90000e+00	6.829055e-05	
39	-1.95000e+00	6.659689e-05	
40	-2.00000e+00	6.490412e-05	
41	-2.05000e+00	6.321226e-05	
42	-2.10000e+00	6.152130e-05	
43	-2.15000e+00	5.983128e-05	
44	-2.20000e+00	5.814221e-05	
45	-2.25000e+00	5.645411e-05	
46	-2.30000e+00	5.476700e-05	
47	-2.35000e+00	5.308091e-05	
48	-2.40000e+00	5.139588e-05	
49	-2.45000e+00	4.971195e-05	
50	-2.50000e+00	4.802917e-05	
51	-2.55000e+00	4.634759e-05	
52	-2.60000e+00	4.466729e-05	
53	-2.65000e+00	4.298835e-05	
54	-2.70000e+00	4.131088e-05	

Index   v-sweep         rds             
--------------------------------------------------------------------------------
55	-2.75000e+00	3.963500e-05	
56	-2.80000e+00	3.796088e-05	
57	-2.85000e+00	3.628872e-05	
58	-2.90000e+00	3.461876e-05	
59	-2.95000e+00	3.295132e-05	
60	-3.00000e+00	3.128680e-05	
61	-3.05000e+00	2.962573e-05	
62	-3.10000e+00	2.796878e-05	
63	-3.15000e+00	2.631684e-05	
64	-3.20000e+00	2.467108e-05	
65	-3.25000e+00	2.303306e-05	
66	-3.30000e+00	2.140490e-05	
67	-3.35000e+00	1.978945e-05	
68	-3.40000e+00	1.819060e-05	
69	-3.45000e+00	1.661367e-05	
70	-3.50000e+00	1.506590e-05	
71	-3.55000e+00	1.355704e-05	
72	-3.60000e+00	1.209996e-05	
73	-3.65000e+00	1.071106e-05	
74	-3.70000e+00	9.410027e-06	
75	-3.75000e+00	8.218411e-06	
76	-3.80000e+00	7.156645e-06	
77	-3.85000e+00	6.239744e-06	
78	-3.90000e+00	5.473215e-06	
79	-3.95000e+00	4.851246e-06	
80	-4.00000e+00	4.358297e-06	
81	-4.05000e+00	3.973212e-06	
82	-4.10000e+00	3.673748e-06	
83	-4.15000e+00	3.439805e-06	
84	-4.20000e+00	3.254912e-06	
85	-4.25000e+00	3.106397e-06	
86	-4.30000e+00	2.984879e-06	
87	-4.35000e+00	2.883556e-06	
88	-4.40000e+00	2.797534e-06	
89	-4.45000e+00	2.723293e-06	
90	-4.50000e+00	2.658282e-06	
91	-4.55000e+00	2.600631e-06	
92	-4.60000e+00	2.548954e-06	
93	-4.65000e+00	2.502205e-06	
94	-4.70000e+00	2.459584e-06	
95	-4.75000e+00	2.420469e-06	
96	-4.80000e+00	2.384368e-06	
97	-4.85000e+00	2.350888e-06	
98	-4.90000e+00	2.319708e-06	
99	-4.95000e+00	2.290564e-06	
100	-5.00000e+00	2.263237e-06	
101	-5.05000e+00	2.237541e-06	
102	-5.10000e+00	2.213317e-06	
103	-5.15000e+00	2.190431e-06	
104	-5.20000e+00	2.168763e-06	
105	-5.25000e+00	2.148213e-06	
106	-5.30000e+00	2.128688e-06	
107	-5.35000e+00	2.110110e-06	
108	-5.40000e+00	2.092406e-06	
109	-5.45000e+00	2.075514e-06	
110	-5.50000e+00	2.059376e-06	
111	-5.55000e+00	2.043940e-06	
112	-5.60000e+00	2.029161e-06	

Index   v-sweep         rds             
--------------------------------------------------------------------------------
113	-5.65000e+00	2.014996e-06	
114	-5.70000e+00	2.001405e-06	
115	-5.75000e+00	1.988355e-06	
116	-5.80000e+00	1.975812e-06	
117	-5.85000e+00	1.963747e-06	
118	-5.90000e+00	1.952132e-06	
119	-5.95000e+00	1.940943e-06	
120	-6.00000e+00	1.930156e-06	
121	-6.05000e+00	1.919750e-06	
122	-6.10000e+00	1.909704e-06	
123	-6.15000e+00	1.900000e-06	
124	-6.20000e+00	1.890620e-06	
125	-6.25000e+00	1.881549e-06	
126	-6.30000e+00	1.872772e-06	
127	-6.35000e+00	1.864273e-06	
128	-6.40000e+00	1.856041e-06	
129	-6.45000e+00	1.848063e-06	
130	-6.50000e+00	1.840326e-06	
131	-6.55000e+00	1.832822e-06	
132	-6.60000e+00	1.825538e-06	
Reset re-loads circuit ***************************

Circuit: ***************************

Note: No ".plot", ".print", or ".fourier" lines; no simulations run
