
Note: Compatibility modes selected: hs

Warning: m=xx on .subckt line will override multiplier m hierarchy!


Circuit: ***************************

Doing analysis at TEMP = 25.000000 and TNOM = 25.000000


No. of Data Rows : 133
                          ***************************
                          DC transfer characteristic  Mon Jan  9 13:58:52  2023
--------------------------------------------------------------------------------
Index   v-sweep         rds             
--------------------------------------------------------------------------------
0	0.000000e+00	9.388555e-08	
1	-5.00000e-02	5.386248e-08	
2	-1.00000e-01	2.025674e-08	
3	-1.50000e-01	4.604849e-09	
4	-2.00000e-01	1.186424e-09	
5	-2.50000e-01	4.566074e-10	
6	-3.00000e-01	2.416578e-10	
7	-3.50000e-01	1.586204e-10	
8	-4.00000e-01	1.196340e-10	
9	-4.50000e-01	9.852042e-11	
10	-5.00000e-01	8.578177e-11	
11	-5.50000e-01	7.742472e-11	
12	-6.00000e-01	7.156855e-11	
13	-6.50000e-01	6.724415e-11	
14	-7.00000e-01	6.391419e-11	
15	-7.50000e-01	6.126206e-11	
16	-8.00000e-01	5.909133e-11	
17	-8.50000e-01	5.727465e-11	
18	-9.00000e-01	5.572627e-11	
19	-9.50000e-01	5.438644e-11	
20	-1.00000e+00	5.321235e-11	
21	-1.05000e+00	5.217250e-11	
22	-1.10000e+00	5.124317e-11	
23	-1.15000e+00	5.040616e-11	
24	-1.20000e+00	4.964723e-11	
25	-1.25000e+00	4.895506e-11	
26	-1.30000e+00	4.832055e-11	
27	-1.35000e+00	4.773625e-11	
28	-1.40000e+00	4.719600e-11	
29	-1.45000e+00	4.669468e-11	
30	-1.50000e+00	4.622797e-11	
31	-1.55000e+00	4.579218e-11	
32	-1.60000e+00	4.538418e-11	
33	-1.65000e+00	4.500125e-11	
34	-1.70000e+00	4.464104e-11	
35	-1.75000e+00	4.430150e-11	
36	-1.80000e+00	4.398082e-11	
37	-1.85000e+00	4.367741e-11	
38	-1.90000e+00	4.338986e-11	
39	-1.95000e+00	4.311692e-11	
40	-2.00000e+00	4.285747e-11	
41	-2.05000e+00	4.261049e-11	
42	-2.10000e+00	4.237510e-11	
43	-2.15000e+00	4.215046e-11	
44	-2.20000e+00	4.193585e-11	
45	-2.25000e+00	4.173059e-11	
46	-2.30000e+00	4.153406e-11	
47	-2.35000e+00	4.134573e-11	
48	-2.40000e+00	4.116506e-11	
49	-2.45000e+00	4.099160e-11	
50	-2.50000e+00	4.082492e-11	
51	-2.55000e+00	4.066463e-11	
52	-2.60000e+00	4.051035e-11	
53	-2.65000e+00	4.036175e-11	
54	-2.70000e+00	4.021852e-11	

Index   v-sweep         rds             
--------------------------------------------------------------------------------
55	-2.75000e+00	4.008038e-11	
56	-2.80000e+00	3.994705e-11	
57	-2.85000e+00	3.981828e-11	
58	-2.90000e+00	3.969385e-11	
59	-2.95000e+00	3.957353e-11	
60	-3.00000e+00	3.945713e-11	
61	-3.05000e+00	3.934446e-11	
62	-3.10000e+00	3.923534e-11	
63	-3.15000e+00	3.912960e-11	
64	-3.20000e+00	3.902709e-11	
65	-3.25000e+00	3.892767e-11	
66	-3.30000e+00	3.883119e-11	
67	-3.35000e+00	3.873754e-11	
68	-3.40000e+00	3.864658e-11	
69	-3.45000e+00	3.855821e-11	
70	-3.50000e+00	3.847232e-11	
71	-3.55000e+00	3.838881e-11	
72	-3.60000e+00	3.830757e-11	
73	-3.65000e+00	3.822853e-11	
74	-3.70000e+00	3.815159e-11	
75	-3.75000e+00	3.807668e-11	
76	-3.80000e+00	3.800371e-11	
77	-3.85000e+00	3.793262e-11	
78	-3.90000e+00	3.786333e-11	
79	-3.95000e+00	3.779579e-11	
80	-4.00000e+00	3.772992e-11	
81	-4.05000e+00	3.766567e-11	
82	-4.10000e+00	3.760299e-11	
83	-4.15000e+00	3.754182e-11	
84	-4.20000e+00	3.748210e-11	
85	-4.25000e+00	3.742380e-11	
86	-4.30000e+00	3.736687e-11	
87	-4.35000e+00	3.731126e-11	
88	-4.40000e+00	3.725693e-11	
89	-4.45000e+00	3.720384e-11	
90	-4.50000e+00	3.715195e-11	
91	-4.55000e+00	3.710123e-11	
92	-4.60000e+00	3.705164e-11	
93	-4.65000e+00	3.700315e-11	
94	-4.70000e+00	3.695573e-11	
95	-4.75000e+00	3.690935e-11	
96	-4.80000e+00	3.686398e-11	
97	-4.85000e+00	3.681958e-11	
98	-4.90000e+00	3.677614e-11	
99	-4.95000e+00	3.673363e-11	
100	-5.00000e+00	3.669203e-11	
101	-5.05000e+00	3.665131e-11	
102	-5.10000e+00	3.661144e-11	
103	-5.15000e+00	3.657242e-11	
104	-5.20000e+00	3.653421e-11	
105	-5.25000e+00	3.649680e-11	
106	-5.30000e+00	3.646016e-11	
107	-5.35000e+00	3.642429e-11	
108	-5.40000e+00	3.638916e-11	
109	-5.45000e+00	3.635476e-11	
110	-5.50000e+00	3.632106e-11	
111	-5.55000e+00	3.628806e-11	
112	-5.60000e+00	3.625574e-11	

Index   v-sweep         rds             
--------------------------------------------------------------------------------
113	-5.65000e+00	3.622408e-11	
114	-5.70000e+00	3.619307e-11	
115	-5.75000e+00	3.616270e-11	
116	-5.80000e+00	3.613295e-11	
117	-5.85000e+00	3.610381e-11	
118	-5.90000e+00	3.607528e-11	
119	-5.95000e+00	3.604732e-11	
120	-6.00000e+00	3.601994e-11	
121	-6.05000e+00	3.599313e-11	
122	-6.10000e+00	3.596687e-11	
123	-6.15000e+00	3.594115e-11	
124	-6.20000e+00	3.591597e-11	
125	-6.25000e+00	3.589131e-11	
126	-6.30000e+00	3.586716e-11	
127	-6.35000e+00	3.584352e-11	
128	-6.40000e+00	3.582037e-11	
129	-6.45000e+00	3.579771e-11	
130	-6.50000e+00	3.577553e-11	
131	-6.55000e+00	3.575382e-11	
132	-6.60000e+00	3.573257e-11	
Reset re-loads circuit ***************************

Circuit: ***************************

Doing analysis at TEMP = 25.000000 and TNOM = 25.000000


No. of Data Rows : 133
                          ***************************
                          DC transfer characteristic  Mon Jan  9 13:58:52  2023
--------------------------------------------------------------------------------
Index   v-sweep         rds             
--------------------------------------------------------------------------------
0	0.000000e+00	8.289330e-07	
1	-5.00000e-02	7.768128e-07	
2	-1.00000e-01	7.247178e-07	
3	-1.50000e-01	6.726511e-07	
4	-2.00000e-01	6.206174e-07	
5	-2.50000e-01	5.686240e-07	
6	-3.00000e-01	5.166823e-07	
7	-3.50000e-01	4.648111e-07	
8	-4.00000e-01	4.130419e-07	
9	-4.50000e-01	3.614309e-07	
10	-5.00000e-01	3.100814e-07	
11	-5.50000e-01	2.591928e-07	
12	-6.00000e-01	2.091661e-07	
13	-6.50000e-01	1.608224e-07	
14	-7.00000e-01	1.157865e-07	
15	-7.50000e-01	7.681935e-08	
16	-8.00000e-01	4.710323e-08	
17	-8.50000e-01	2.782412e-08	
18	-9.00000e-01	1.692277e-08	
19	-9.50000e-01	1.113958e-08	
20	-1.00000e+00	8.048976e-09	
21	-1.05000e+00	6.315826e-09	
22	-1.10000e+00	5.280486e-09	
23	-1.15000e+00	4.620961e-09	
24	-1.20000e+00	4.175231e-09	
25	-1.25000e+00	3.857932e-09	
26	-1.30000e+00	3.621798e-09	
27	-1.35000e+00	3.439366e-09	
28	-1.40000e+00	3.293948e-09	
29	-1.45000e+00	3.174982e-09	
30	-1.50000e+00	3.075527e-09	
31	-1.55000e+00	2.990874e-09	
32	-1.60000e+00	2.917724e-09	
33	-1.65000e+00	2.853707e-09	
34	-1.70000e+00	2.797077e-09	
35	-1.75000e+00	2.746522e-09	
36	-1.80000e+00	2.701032e-09	
37	-1.85000e+00	2.659820e-09	
38	-1.90000e+00	2.622262e-09	
39	-1.95000e+00	2.587854e-09	
40	-2.00000e+00	2.556185e-09	
41	-2.05000e+00	2.526919e-09	
42	-2.10000e+00	2.499773e-09	
43	-2.15000e+00	2.474511e-09	
44	-2.20000e+00	2.450930e-09	
45	-2.25000e+00	2.428859e-09	
46	-2.30000e+00	2.408149e-09	
47	-2.35000e+00	2.388672e-09	
48	-2.40000e+00	2.370317e-09	
49	-2.45000e+00	2.352984e-09	
50	-2.50000e+00	2.336587e-09	
51	-2.55000e+00	2.321049e-09	
52	-2.60000e+00	2.306303e-09	
53	-2.65000e+00	2.292287e-09	
54	-2.70000e+00	2.278946e-09	

Index   v-sweep         rds             
--------------------------------------------------------------------------------
55	-2.75000e+00	2.266231e-09	
56	-2.80000e+00	2.254099e-09	
57	-2.85000e+00	2.242509e-09	
58	-2.90000e+00	2.231424e-09	
59	-2.95000e+00	2.220812e-09	
60	-3.00000e+00	2.210642e-09	
61	-3.05000e+00	2.200887e-09	
62	-3.10000e+00	2.191521e-09	
63	-3.15000e+00	2.182522e-09	
64	-3.20000e+00	2.173867e-09	
65	-3.25000e+00	2.165537e-09	
66	-3.30000e+00	2.157514e-09	
67	-3.35000e+00	2.149781e-09	
68	-3.40000e+00	2.142323e-09	
69	-3.45000e+00	2.135124e-09	
70	-3.50000e+00	2.128172e-09	
71	-3.55000e+00	2.121453e-09	
72	-3.60000e+00	2.114957e-09	
73	-3.65000e+00	2.108672e-09	
74	-3.70000e+00	2.102588e-09	
75	-3.75000e+00	2.096696e-09	
76	-3.80000e+00	2.090986e-09	
77	-3.85000e+00	2.085450e-09	
78	-3.90000e+00	2.080081e-09	
79	-3.95000e+00	2.074871e-09	
80	-4.00000e+00	2.069813e-09	
81	-4.05000e+00	2.064900e-09	
82	-4.10000e+00	2.060127e-09	
83	-4.15000e+00	2.055488e-09	
84	-4.20000e+00	2.050976e-09	
85	-4.25000e+00	2.046588e-09	
86	-4.30000e+00	2.042317e-09	
87	-4.35000e+00	2.038160e-09	
88	-4.40000e+00	2.034112e-09	
89	-4.45000e+00	2.030169e-09	
90	-4.50000e+00	2.026327e-09	
91	-4.55000e+00	2.022582e-09	
92	-4.60000e+00	2.018932e-09	
93	-4.65000e+00	2.015371e-09	
94	-4.70000e+00	2.011898e-09	
95	-4.75000e+00	2.008509e-09	
96	-4.80000e+00	2.005201e-09	
97	-4.85000e+00	2.001972e-09	
98	-4.90000e+00	1.998819e-09	
99	-4.95000e+00	1.995740e-09	
100	-5.00000e+00	1.992732e-09	
101	-5.05000e+00	1.989792e-09	
102	-5.10000e+00	1.986920e-09	
103	-5.15000e+00	1.984112e-09	
104	-5.20000e+00	1.981367e-09	
105	-5.25000e+00	1.978683e-09	
106	-5.30000e+00	1.976058e-09	
107	-5.35000e+00	1.973491e-09	
108	-5.40000e+00	1.970980e-09	
109	-5.45000e+00	1.968523e-09	
110	-5.50000e+00	1.966118e-09	
111	-5.55000e+00	1.963765e-09	
112	-5.60000e+00	1.961462e-09	

Index   v-sweep         rds             
--------------------------------------------------------------------------------
113	-5.65000e+00	1.959208e-09	
114	-5.70000e+00	1.957001e-09	
115	-5.75000e+00	1.954840e-09	
116	-5.80000e+00	1.952725e-09	
117	-5.85000e+00	1.950653e-09	
118	-5.90000e+00	1.948624e-09	
119	-5.95000e+00	1.946637e-09	
120	-6.00000e+00	1.944691e-09	
121	-6.05000e+00	1.942785e-09	
122	-6.10000e+00	1.940919e-09	
123	-6.15000e+00	1.939090e-09	
124	-6.20000e+00	1.937298e-09	
125	-6.25000e+00	1.935543e-09	
126	-6.30000e+00	1.933824e-09	
127	-6.35000e+00	1.932140e-09	
128	-6.40000e+00	1.930490e-09	
129	-6.45000e+00	1.928874e-09	
130	-6.50000e+00	1.927290e-09	
131	-6.55000e+00	1.925739e-09	
132	-6.60000e+00	1.924219e-09	
Reset re-loads circuit ***************************

Circuit: ***************************

Doing analysis at TEMP = 25.000000 and TNOM = 25.000000


No. of Data Rows : 133
                          ***************************
                          DC transfer characteristic  Mon Jan  9 13:58:52  2023
--------------------------------------------------------------------------------
Index   v-sweep         rds             
--------------------------------------------------------------------------------
0	0.000000e+00	1.495539e-06	
1	-5.00000e-02	1.445653e-06	
2	-1.00000e-01	1.395784e-06	
3	-1.50000e-01	1.345930e-06	
4	-2.00000e-01	1.296092e-06	
5	-2.50000e-01	1.246271e-06	
6	-3.00000e-01	1.196466e-06	
7	-3.50000e-01	1.146678e-06	
8	-4.00000e-01	1.096908e-06	
9	-4.50000e-01	1.047157e-06	
10	-5.00000e-01	9.974255e-07	
11	-5.50000e-01	9.477151e-07	
12	-6.00000e-01	8.980277e-07	
13	-6.50000e-01	8.483658e-07	
14	-7.00000e-01	7.987326e-07	
15	-7.50000e-01	7.491328e-07	
16	-8.00000e-01	6.995728e-07	
17	-8.50000e-01	6.500616e-07	
18	-9.00000e-01	6.006126e-07	
19	-9.50000e-01	5.512453e-07	
20	-1.00000e+00	5.019894e-07	
21	-1.05000e+00	4.528907e-07	
22	-1.10000e+00	4.040223e-07	
23	-1.15000e+00	3.555027e-07	
24	-1.20000e+00	3.075288e-07	
25	-1.25000e+00	2.604321e-07	
26	-1.30000e+00	2.147684e-07	
27	-1.35000e+00	1.714419e-07	
28	-1.40000e+00	1.318021e-07	
29	-1.45000e+00	9.753610e-08	
30	-1.50000e+00	7.012810e-08	
31	-1.55000e+00	5.004875e-08	
32	-1.60000e+00	3.643489e-08	
33	-1.65000e+00	2.764501e-08	
34	-1.70000e+00	2.205486e-08	
35	-1.75000e+00	1.845602e-08	
36	-1.80000e+00	1.607081e-08	
37	-1.85000e+00	1.443040e-08	
38	-1.90000e+00	1.325756e-08	
39	-1.95000e+00	1.238722e-08	
40	-2.00000e+00	1.171913e-08	
41	-2.05000e+00	1.119075e-08	
42	-2.10000e+00	1.076195e-08	
43	-2.15000e+00	1.040621e-08	
44	-2.20000e+00	1.010550e-08	
45	-2.25000e+00	9.847246e-09	
46	-2.30000e+00	9.622448e-09	
47	-2.35000e+00	9.424517e-09	
48	-2.40000e+00	9.248526e-09	
49	-2.45000e+00	9.090719e-09	
50	-2.50000e+00	8.948184e-09	
51	-2.55000e+00	8.818625e-09	
52	-2.60000e+00	8.700203e-09	
53	-2.65000e+00	8.591430e-09	
54	-2.70000e+00	8.491085e-09	

Index   v-sweep         rds             
--------------------------------------------------------------------------------
55	-2.75000e+00	8.398155e-09	
56	-2.80000e+00	8.311792e-09	
57	-2.85000e+00	8.231279e-09	
58	-2.90000e+00	8.156005e-09	
59	-2.95000e+00	8.085447e-09	
60	-3.00000e+00	8.019151e-09	
61	-3.05000e+00	7.956724e-09	
62	-3.10000e+00	7.897820e-09	
63	-3.15000e+00	7.842136e-09	
64	-3.20000e+00	7.789406e-09	
65	-3.25000e+00	7.739390e-09	
66	-3.30000e+00	7.691879e-09	
67	-3.35000e+00	7.646681e-09	
68	-3.40000e+00	7.603627e-09	
69	-3.45000e+00	7.562563e-09	
70	-3.50000e+00	7.523351e-09	
71	-3.55000e+00	7.485866e-09	
72	-3.60000e+00	7.449992e-09	
73	-3.65000e+00	7.415627e-09	
74	-3.70000e+00	7.382675e-09	
75	-3.75000e+00	7.351048e-09	
76	-3.80000e+00	7.320668e-09	
77	-3.85000e+00	7.291461e-09	
78	-3.90000e+00	7.263359e-09	
79	-3.95000e+00	7.236300e-09	
80	-4.00000e+00	7.210226e-09	
81	-4.05000e+00	7.185083e-09	
82	-4.10000e+00	7.160823e-09	
83	-4.15000e+00	7.137398e-09	
84	-4.20000e+00	7.114767e-09	
85	-4.25000e+00	7.092888e-09	
86	-4.30000e+00	7.071726e-09	
87	-4.35000e+00	7.051245e-09	
88	-4.40000e+00	7.031413e-09	
89	-4.45000e+00	7.012199e-09	
90	-4.50000e+00	6.993575e-09	
91	-4.55000e+00	6.975514e-09	
92	-4.60000e+00	6.957990e-09	
93	-4.65000e+00	6.940981e-09	
94	-4.70000e+00	6.924464e-09	
95	-4.75000e+00	6.908418e-09	
96	-4.80000e+00	6.892824e-09	
97	-4.85000e+00	6.877662e-09	
98	-4.90000e+00	6.862915e-09	
99	-4.95000e+00	6.848567e-09	
100	-5.00000e+00	6.834601e-09	
101	-5.05000e+00	6.821004e-09	
102	-5.10000e+00	6.807761e-09	
103	-5.15000e+00	6.794859e-09	
104	-5.20000e+00	6.782284e-09	
105	-5.25000e+00	6.770026e-09	
106	-5.30000e+00	6.758072e-09	
107	-5.35000e+00	6.746413e-09	
108	-5.40000e+00	6.735037e-09	
109	-5.45000e+00	6.723935e-09	
110	-5.50000e+00	6.713098e-09	
111	-5.55000e+00	6.702517e-09	
112	-5.60000e+00	6.692183e-09	

Index   v-sweep         rds             
--------------------------------------------------------------------------------
113	-5.65000e+00	6.682089e-09	
114	-5.70000e+00	6.672227e-09	
115	-5.75000e+00	6.662590e-09	
116	-5.80000e+00	6.653170e-09	
117	-5.85000e+00	6.643962e-09	
118	-5.90000e+00	6.634958e-09	
119	-5.95000e+00	6.626153e-09	
120	-6.00000e+00	6.617542e-09	
121	-6.05000e+00	6.609118e-09	
122	-6.10000e+00	6.600876e-09	
123	-6.15000e+00	6.592811e-09	
124	-6.20000e+00	6.584919e-09	
125	-6.25000e+00	6.577195e-09	
126	-6.30000e+00	6.569635e-09	
127	-6.35000e+00	6.562233e-09	
128	-6.40000e+00	6.554987e-09	
129	-6.45000e+00	6.547892e-09	
130	-6.50000e+00	6.540944e-09	
131	-6.55000e+00	6.534141e-09	
132	-6.60000e+00	6.527477e-09	
Reset re-loads circuit ***************************

Circuit: ***************************

Doing analysis at TEMP = 25.000000 and TNOM = 25.000000


No. of Data Rows : 133
                          ***************************
                          DC transfer characteristic  Mon Jan  9 13:58:52  2023
--------------------------------------------------------------------------------
Index   v-sweep         rds             
--------------------------------------------------------------------------------
0	0.000000e+00	2.093753e-06	
1	-5.00000e-02	2.046505e-06	
2	-1.00000e-01	1.999270e-06	
3	-1.50000e-01	1.952047e-06	
4	-2.00000e-01	1.904838e-06	
5	-2.50000e-01	1.857641e-06	
6	-3.00000e-01	1.810458e-06	
7	-3.50000e-01	1.763288e-06	
8	-4.00000e-01	1.716130e-06	
9	-4.50000e-01	1.668986e-06	
10	-5.00000e-01	1.621856e-06	
11	-5.50000e-01	1.574739e-06	
12	-6.00000e-01	1.527636e-06	
13	-6.50000e-01	1.480546e-06	
14	-7.00000e-01	1.433471e-06	
15	-7.50000e-01	1.386411e-06	
16	-8.00000e-01	1.339365e-06	
17	-8.50000e-01	1.292334e-06	
18	-9.00000e-01	1.245320e-06	
19	-9.50000e-01	1.198321e-06	
20	-1.00000e+00	1.151340e-06	
21	-1.05000e+00	1.104377e-06	
22	-1.10000e+00	1.057434e-06	
23	-1.15000e+00	1.010511e-06	
24	-1.20000e+00	9.636118e-07	
25	-1.25000e+00	9.167380e-07	
26	-1.30000e+00	8.698932e-07	
27	-1.35000e+00	8.230819e-07	
28	-1.40000e+00	7.763097e-07	
29	-1.45000e+00	7.295847e-07	
30	-1.50000e+00	6.829176e-07	
31	-1.55000e+00	6.363234e-07	
32	-1.60000e+00	5.898230e-07	
33	-1.65000e+00	5.434464e-07	
34	-1.70000e+00	4.972373e-07	
35	-1.75000e+00	4.512599e-07	
36	-1.80000e+00	4.056107e-07	
37	-1.85000e+00	3.604363e-07	
38	-1.90000e+00	3.159607e-07	
39	-1.95000e+00	2.725260e-07	
40	-2.00000e+00	2.306453e-07	
41	-2.05000e+00	1.910550e-07	
42	-2.10000e+00	1.547241e-07	
43	-2.15000e+00	1.227462e-07	
44	-2.20000e+00	9.605521e-08	
45	-2.25000e+00	7.505369e-08	
46	-2.30000e+00	5.941564e-08	
47	-2.35000e+00	4.824193e-08	
48	-2.40000e+00	4.043010e-08	
49	-2.45000e+00	3.498291e-08	
50	-2.50000e+00	3.113764e-08	
51	-2.55000e+00	2.836340e-08	
52	-2.60000e+00	2.630801e-08	
53	-2.65000e+00	2.474214e-08	
54	-2.70000e+00	2.351657e-08	

Index   v-sweep         rds             
--------------------------------------------------------------------------------
55	-2.75000e+00	2.253315e-08	
56	-2.80000e+00	2.172625e-08	
57	-2.85000e+00	2.105112e-08	
58	-2.90000e+00	2.047661e-08	
59	-2.95000e+00	1.998053e-08	
60	-3.00000e+00	1.954679e-08	
61	-3.05000e+00	1.916346e-08	
62	-3.10000e+00	1.882152e-08	
63	-3.15000e+00	1.851405e-08	
64	-3.20000e+00	1.823566e-08	
65	-3.25000e+00	1.798205e-08	
66	-3.30000e+00	1.774979e-08	
67	-3.35000e+00	1.753607e-08	
68	-3.40000e+00	1.733859e-08	
69	-3.45000e+00	1.715544e-08	
70	-3.50000e+00	1.698499e-08	
71	-3.55000e+00	1.682589e-08	
72	-3.60000e+00	1.667696e-08	
73	-3.65000e+00	1.653721e-08	
74	-3.70000e+00	1.640577e-08	
75	-3.75000e+00	1.628189e-08	
76	-3.80000e+00	1.616489e-08	
77	-3.85000e+00	1.605419e-08	
78	-3.90000e+00	1.594929e-08	
79	-3.95000e+00	1.584971e-08	
80	-4.00000e+00	1.575505e-08	
81	-4.05000e+00	1.566494e-08	
82	-4.10000e+00	1.557905e-08	
83	-4.15000e+00	1.549709e-08	
84	-4.20000e+00	1.541877e-08	
85	-4.25000e+00	1.534387e-08	
86	-4.30000e+00	1.527215e-08	
87	-4.35000e+00	1.520341e-08	
88	-4.40000e+00	1.513747e-08	
89	-4.45000e+00	1.507415e-08	
90	-4.50000e+00	1.501330e-08	
91	-4.55000e+00	1.495478e-08	
92	-4.60000e+00	1.489846e-08	
93	-4.65000e+00	1.484420e-08	
94	-4.70000e+00	1.479190e-08	
95	-4.75000e+00	1.474145e-08	
96	-4.80000e+00	1.469275e-08	
97	-4.85000e+00	1.464572e-08	
98	-4.90000e+00	1.460027e-08	
99	-4.95000e+00	1.455631e-08	
100	-5.00000e+00	1.451379e-08	
101	-5.05000e+00	1.447262e-08	
102	-5.10000e+00	1.443275e-08	
103	-5.15000e+00	1.439411e-08	
104	-5.20000e+00	1.435664e-08	
105	-5.25000e+00	1.432030e-08	
106	-5.30000e+00	1.428504e-08	
107	-5.35000e+00	1.425080e-08	
108	-5.40000e+00	1.421755e-08	
109	-5.45000e+00	1.418523e-08	
110	-5.50000e+00	1.415382e-08	
111	-5.55000e+00	1.412328e-08	
112	-5.60000e+00	1.409357e-08	

Index   v-sweep         rds             
--------------------------------------------------------------------------------
113	-5.65000e+00	1.406465e-08	
114	-5.70000e+00	1.403650e-08	
115	-5.75000e+00	1.400909e-08	
116	-5.80000e+00	1.398239e-08	
117	-5.85000e+00	1.395637e-08	
118	-5.90000e+00	1.393101e-08	
119	-5.95000e+00	1.390628e-08	
120	-6.00000e+00	1.388217e-08	
121	-6.05000e+00	1.385864e-08	
122	-6.10000e+00	1.383569e-08	
123	-6.15000e+00	1.381328e-08	
124	-6.20000e+00	1.379140e-08	
125	-6.25000e+00	1.377004e-08	
126	-6.30000e+00	1.374918e-08	
127	-6.35000e+00	1.372880e-08	
128	-6.40000e+00	1.370888e-08	
129	-6.45000e+00	1.368941e-08	
130	-6.50000e+00	1.367039e-08	
131	-6.55000e+00	1.365178e-08	
132	-6.60000e+00	1.363359e-08	
Reset re-loads circuit ***************************

Circuit: ***************************

Doing analysis at TEMP = 25.000000 and TNOM = 25.000000


No. of Data Rows : 133
                          ***************************
                          DC transfer characteristic  Mon Jan  9 13:58:52  2023
--------------------------------------------------------------------------------
Index   v-sweep         rds             
--------------------------------------------------------------------------------
0	0.000000e+00	2.640347e-06	
1	-5.00000e-02	2.595609e-06	
2	-1.00000e-01	2.550882e-06	
3	-1.50000e-01	2.506166e-06	
4	-2.00000e-01	2.461462e-06	
5	-2.50000e-01	2.416768e-06	
6	-3.00000e-01	2.372086e-06	
7	-3.50000e-01	2.327415e-06	
8	-4.00000e-01	2.282755e-06	
9	-4.50000e-01	2.238107e-06	
10	-5.00000e-01	2.193470e-06	
11	-5.50000e-01	2.148844e-06	
12	-6.00000e-01	2.104230e-06	
13	-6.50000e-01	2.059626e-06	
14	-7.00000e-01	2.015035e-06	
15	-7.50000e-01	1.970455e-06	
16	-8.00000e-01	1.925886e-06	
17	-8.50000e-01	1.881329e-06	
18	-9.00000e-01	1.836784e-06	
19	-9.50000e-01	1.792250e-06	
20	-1.00000e+00	1.747729e-06	
21	-1.05000e+00	1.703219e-06	
22	-1.10000e+00	1.658722e-06	
23	-1.15000e+00	1.614237e-06	
24	-1.20000e+00	1.569764e-06	
25	-1.25000e+00	1.525305e-06	
26	-1.30000e+00	1.480858e-06	
27	-1.35000e+00	1.436425e-06	
28	-1.40000e+00	1.392005e-06	
29	-1.45000e+00	1.347600e-06	
30	-1.50000e+00	1.303210e-06	
31	-1.55000e+00	1.258835e-06	
32	-1.60000e+00	1.214477e-06	
33	-1.65000e+00	1.170136e-06	
34	-1.70000e+00	1.125813e-06	
35	-1.75000e+00	1.081510e-06	
36	-1.80000e+00	1.037229e-06	
37	-1.85000e+00	9.929712e-07	
38	-1.90000e+00	9.487407e-07	
39	-1.95000e+00	9.045405e-07	
40	-2.00000e+00	8.603752e-07	
41	-2.05000e+00	8.162507e-07	
42	-2.10000e+00	7.721746e-07	
43	-2.15000e+00	7.281570e-07	
44	-2.20000e+00	6.842113e-07	
45	-2.25000e+00	6.403556e-07	
46	-2.30000e+00	5.966146e-07	
47	-2.35000e+00	5.530223e-07	
48	-2.40000e+00	5.096263e-07	
49	-2.45000e+00	4.664938e-07	
50	-2.50000e+00	4.237207e-07	
51	-2.55000e+00	3.814448e-07	
52	-2.60000e+00	3.398647e-07	
53	-2.65000e+00	2.992642e-07	
54	-2.70000e+00	2.600421e-07	

Index   v-sweep         rds             
--------------------------------------------------------------------------------
55	-2.75000e+00	2.227372e-07	
56	-2.80000e+00	1.880296e-07	
57	-2.85000e+00	1.566858e-07	
58	-2.90000e+00	1.294213e-07	
59	-2.95000e+00	1.067007e-07	
60	-3.00000e+00	8.857064e-08	
61	-3.05000e+00	7.463832e-08	
62	-3.10000e+00	6.421347e-08	
63	-3.15000e+00	5.651537e-08	
64	-3.20000e+00	5.083285e-08	
65	-3.25000e+00	4.659676e-08	
66	-3.30000e+00	4.338590e-08	
67	-3.35000e+00	4.090208e-08	
68	-3.40000e+00	3.893862e-08	
69	-3.45000e+00	3.735311e-08	
70	-3.50000e+00	3.604702e-08	
71	-3.55000e+00	3.495150e-08	
72	-3.60000e+00	3.401773e-08	
73	-3.65000e+00	3.321056e-08	
74	-3.70000e+00	3.250425e-08	
75	-3.75000e+00	3.187961e-08	
76	-3.80000e+00	3.132209e-08	
77	-3.85000e+00	3.082051e-08	
78	-3.90000e+00	3.036610e-08	
79	-3.95000e+00	2.995193e-08	
80	-4.00000e+00	2.957242e-08	
81	-4.05000e+00	2.922302e-08	
82	-4.10000e+00	2.890000e-08	
83	-4.15000e+00	2.860025e-08	
84	-4.20000e+00	2.832116e-08	
85	-4.25000e+00	2.806052e-08	
86	-4.30000e+00	2.781643e-08	
87	-4.35000e+00	2.758728e-08	
88	-4.40000e+00	2.737166e-08	
89	-4.45000e+00	2.716834e-08	
90	-4.50000e+00	2.697624e-08	
91	-4.55000e+00	2.679443e-08	
92	-4.60000e+00	2.662206e-08	
93	-4.65000e+00	2.645838e-08	
94	-4.70000e+00	2.630274e-08	
95	-4.75000e+00	2.615453e-08	
96	-4.80000e+00	2.601322e-08	
97	-4.85000e+00	2.587832e-08	
98	-4.90000e+00	2.574940e-08	
99	-4.95000e+00	2.562606e-08	
100	-5.00000e+00	2.550793e-08	
101	-5.05000e+00	2.539468e-08	
102	-5.10000e+00	2.528602e-08	
103	-5.15000e+00	2.518166e-08	
104	-5.20000e+00	2.508135e-08	
105	-5.25000e+00	2.498485e-08	
106	-5.30000e+00	2.489195e-08	
107	-5.35000e+00	2.480245e-08	
108	-5.40000e+00	2.471616e-08	
109	-5.45000e+00	2.463292e-08	
110	-5.50000e+00	2.455255e-08	
111	-5.55000e+00	2.447492e-08	
112	-5.60000e+00	2.439988e-08	

Index   v-sweep         rds             
--------------------------------------------------------------------------------
113	-5.65000e+00	2.432731e-08	
114	-5.70000e+00	2.425709e-08	
115	-5.75000e+00	2.418910e-08	
116	-5.80000e+00	2.412323e-08	
117	-5.85000e+00	2.405940e-08	
118	-5.90000e+00	2.399751e-08	
119	-5.95000e+00	2.393746e-08	
120	-6.00000e+00	2.387918e-08	
121	-6.05000e+00	2.382260e-08	
122	-6.10000e+00	2.376764e-08	
123	-6.15000e+00	2.371422e-08	
124	-6.20000e+00	2.366230e-08	
125	-6.25000e+00	2.361180e-08	
126	-6.30000e+00	2.356267e-08	
127	-6.35000e+00	2.351485e-08	
128	-6.40000e+00	2.346830e-08	
129	-6.45000e+00	2.342297e-08	
130	-6.50000e+00	2.337880e-08	
131	-6.55000e+00	2.333576e-08	
132	-6.60000e+00	2.329381e-08	
Reset re-loads circuit ***************************

Circuit: ***************************

Doing analysis at TEMP = 25.000000 and TNOM = 25.000000


No. of Data Rows : 133
                          ***************************
                          DC transfer characteristic  Mon Jan  9 13:58:52  2023
--------------------------------------------------------------------------------
Index   v-sweep         rds             
--------------------------------------------------------------------------------
0	0.000000e+00	3.142521e-06	
1	-5.00000e-02	3.100106e-06	
2	-1.00000e-01	3.057701e-06	
3	-1.50000e-01	3.015306e-06	
4	-2.00000e-01	2.972920e-06	
5	-2.50000e-01	2.930545e-06	
6	-3.00000e-01	2.888179e-06	
7	-3.50000e-01	2.845824e-06	
8	-4.00000e-01	2.803478e-06	
9	-4.50000e-01	2.761143e-06	
10	-5.00000e-01	2.718817e-06	
11	-5.50000e-01	2.676501e-06	
12	-6.00000e-01	2.634195e-06	
13	-6.50000e-01	2.591899e-06	
14	-7.00000e-01	2.549613e-06	
15	-7.50000e-01	2.507337e-06	
16	-8.00000e-01	2.465071e-06	
17	-8.50000e-01	2.422814e-06	
18	-9.00000e-01	2.380568e-06	
19	-9.50000e-01	2.338332e-06	
20	-1.00000e+00	2.296106e-06	
21	-1.05000e+00	2.253890e-06	
22	-1.10000e+00	2.211684e-06	
23	-1.15000e+00	2.169489e-06	
24	-1.20000e+00	2.127303e-06	
25	-1.25000e+00	2.085128e-06	
26	-1.30000e+00	2.042963e-06	
27	-1.35000e+00	2.000809e-06	
28	-1.40000e+00	1.958665e-06	
29	-1.45000e+00	1.916531e-06	
30	-1.50000e+00	1.874408e-06	
31	-1.55000e+00	1.832296e-06	
32	-1.60000e+00	1.790195e-06	
33	-1.65000e+00	1.748104e-06	
34	-1.70000e+00	1.706025e-06	
35	-1.75000e+00	1.663957e-06	
36	-1.80000e+00	1.621901e-06	
37	-1.85000e+00	1.579856e-06	
38	-1.90000e+00	1.537824e-06	
39	-1.95000e+00	1.495804e-06	
40	-2.00000e+00	1.453797e-06	
41	-2.05000e+00	1.411802e-06	
42	-2.10000e+00	1.369822e-06	
43	-2.15000e+00	1.327856e-06	
44	-2.20000e+00	1.285905e-06	
45	-2.25000e+00	1.243970e-06	
46	-2.30000e+00	1.202052e-06	
47	-2.35000e+00	1.160152e-06	
48	-2.40000e+00	1.118272e-06	
49	-2.45000e+00	1.076413e-06	
50	-2.50000e+00	1.034577e-06	
51	-2.55000e+00	9.927681e-07	
52	-2.60000e+00	9.509885e-07	
53	-2.65000e+00	9.092426e-07	
54	-2.70000e+00	8.675355e-07	

Index   v-sweep         rds             
--------------------------------------------------------------------------------
55	-2.75000e+00	8.258738e-07	
56	-2.80000e+00	7.842657e-07	
57	-2.85000e+00	7.427219e-07	
58	-2.90000e+00	7.012563e-07	
59	-2.95000e+00	6.598873e-07	
60	-3.00000e+00	6.186388e-07	
61	-3.05000e+00	5.775431e-07	
62	-3.10000e+00	5.366438e-07	
63	-3.15000e+00	4.959999e-07	
64	-3.20000e+00	4.556927e-07	
65	-3.25000e+00	4.158338e-07	
66	-3.30000e+00	3.765770e-07	
67	-3.35000e+00	3.381333e-07	
68	-3.40000e+00	3.007878e-07	
69	-3.45000e+00	2.649157e-07	
70	-3.50000e+00	2.309882e-07	
71	-3.55000e+00	1.995551e-07	
72	-3.60000e+00	1.711870e-07	
73	-3.65000e+00	1.463734e-07	
74	-3.70000e+00	1.253998e-07	
75	-3.75000e+00	1.082609e-07	
76	-3.80000e+00	9.465814e-08	
77	-3.85000e+00	8.408770e-08	
78	-3.90000e+00	7.596590e-08	
79	-3.95000e+00	6.973555e-08	
80	-4.00000e+00	6.492496e-08	
81	-4.05000e+00	6.116441e-08	
82	-4.10000e+00	5.817756e-08	
83	-4.15000e+00	5.576330e-08	
84	-4.20000e+00	5.377706e-08	
85	-4.25000e+00	5.211508e-08	
86	-4.30000e+00	5.070259e-08	
87	-4.35000e+00	4.948517e-08	
88	-4.40000e+00	4.842275e-08	
89	-4.45000e+00	4.748542e-08	
90	-4.50000e+00	4.665054e-08	
91	-4.55000e+00	4.590071e-08	
92	-4.60000e+00	4.522236e-08	
93	-4.65000e+00	4.460479e-08	
94	-4.70000e+00	4.403941e-08	
95	-4.75000e+00	4.351927e-08	
96	-4.80000e+00	4.303868e-08	
97	-4.85000e+00	4.259291e-08	
98	-4.90000e+00	4.217801e-08	
99	-4.95000e+00	4.179063e-08	
100	-5.00000e+00	4.142794e-08	
101	-5.05000e+00	4.108749e-08	
102	-5.10000e+00	4.076718e-08	
103	-5.15000e+00	4.046516e-08	
104	-5.20000e+00	4.017984e-08	
105	-5.25000e+00	3.990979e-08	
106	-5.30000e+00	3.965378e-08	
107	-5.35000e+00	3.941068e-08	
108	-5.40000e+00	3.917951e-08	
109	-5.45000e+00	3.895939e-08	
110	-5.50000e+00	3.874950e-08	
111	-5.55000e+00	3.854914e-08	
112	-5.60000e+00	3.835765e-08	

Index   v-sweep         rds             
--------------------------------------------------------------------------------
113	-5.65000e+00	3.817444e-08	
114	-5.70000e+00	3.799897e-08	
115	-5.75000e+00	3.783076e-08	
116	-5.80000e+00	3.766935e-08	
117	-5.85000e+00	3.751433e-08	
118	-5.90000e+00	3.736532e-08	
119	-5.95000e+00	3.722198e-08	
120	-6.00000e+00	3.708398e-08	
121	-6.05000e+00	3.695103e-08	
122	-6.10000e+00	3.682285e-08	
123	-6.15000e+00	3.669918e-08	
124	-6.20000e+00	3.657980e-08	
125	-6.25000e+00	3.646447e-08	
126	-6.30000e+00	3.635300e-08	
127	-6.35000e+00	3.624520e-08	
128	-6.40000e+00	3.614087e-08	
129	-6.45000e+00	3.603987e-08	
130	-6.50000e+00	3.594203e-08	
131	-6.55000e+00	3.584720e-08	
132	-6.60000e+00	3.575525e-08	
Reset re-loads circuit ***************************

Circuit: ***************************

Note: No ".plot", ".print", or ".fourier" lines; no simulations run
