
Note: Compatibility modes selected: hs

Warning: m=xx on .subckt line will override multiplier m hierarchy!


Circuit: ***************************

Doing analysis at TEMP = 125.000000 and TNOM = 125.000000


No. of Data Rows : 133
                          ***************************
                          DC transfer characteristic  Mon Jan  9 13:58:53  2023
--------------------------------------------------------------------------------
Index   v-sweep         rds             
--------------------------------------------------------------------------------
0	0.000000e+00	6.581963e-05	
1	-5.00000e-02	5.489689e-05	
2	-1.00000e-01	4.411464e-05	
3	-1.50000e-01	3.354095e-05	
4	-2.00000e-01	2.338230e-05	
5	-2.50000e-01	1.426827e-05	
6	-3.00000e-01	7.575436e-06	
7	-3.50000e-01	4.159122e-06	
8	-4.00000e-01	2.848361e-06	
9	-4.50000e-01	2.340348e-06	
10	-5.00000e-01	2.102078e-06	
11	-5.50000e-01	1.964250e-06	
12	-6.00000e-01	1.870542e-06	
13	-6.50000e-01	1.799648e-06	
14	-7.00000e-01	1.742328e-06	
15	-7.50000e-01	1.694035e-06	
16	-8.00000e-01	1.652264e-06	
17	-8.50000e-01	1.615497e-06	
18	-9.00000e-01	1.582736e-06	
19	-9.50000e-01	1.553282e-06	
20	-1.00000e+00	1.526617e-06	
21	-1.05000e+00	1.502345e-06	
22	-1.10000e+00	1.480153e-06	
23	-1.15000e+00	1.459785e-06	
24	-1.20000e+00	1.441031e-06	
25	-1.25000e+00	1.423714e-06	
26	-1.30000e+00	1.407684e-06	
27	-1.35000e+00	1.392813e-06	
28	-1.40000e+00	1.378989e-06	
29	-1.45000e+00	1.366115e-06	
30	-1.50000e+00	1.354106e-06	
31	-1.55000e+00	1.342888e-06	
32	-1.60000e+00	1.332394e-06	
33	-1.65000e+00	1.322565e-06	
34	-1.70000e+00	1.313348e-06	
35	-1.75000e+00	1.304696e-06	
36	-1.80000e+00	1.296567e-06	
37	-1.85000e+00	1.288923e-06	
38	-1.90000e+00	1.281728e-06	
39	-1.95000e+00	1.274952e-06	
40	-2.00000e+00	1.268565e-06	
41	-2.05000e+00	1.262542e-06	
42	-2.10000e+00	1.256860e-06	
43	-2.15000e+00	1.251496e-06	
44	-2.20000e+00	1.246430e-06	
45	-2.25000e+00	1.241645e-06	
46	-2.30000e+00	1.237123e-06	
47	-2.35000e+00	1.232848e-06	
48	-2.40000e+00	1.228807e-06	
49	-2.45000e+00	1.224987e-06	
50	-2.50000e+00	1.221374e-06	
51	-2.55000e+00	1.217958e-06	
52	-2.60000e+00	1.214728e-06	
53	-2.65000e+00	1.211674e-06	
54	-2.70000e+00	1.208787e-06	

Index   v-sweep         rds             
--------------------------------------------------------------------------------
55	-2.75000e+00	1.206059e-06	
56	-2.80000e+00	1.203481e-06	
57	-2.85000e+00	1.201046e-06	
58	-2.90000e+00	1.198747e-06	
59	-2.95000e+00	1.196578e-06	
60	-3.00000e+00	1.194532e-06	
61	-3.05000e+00	1.192604e-06	
62	-3.10000e+00	1.190788e-06	
63	-3.15000e+00	1.189079e-06	
64	-3.20000e+00	1.187473e-06	
65	-3.25000e+00	1.185965e-06	
66	-3.30000e+00	1.184551e-06	
67	-3.35000e+00	1.183226e-06	
68	-3.40000e+00	1.181987e-06	
69	-3.45000e+00	1.180831e-06	
70	-3.50000e+00	1.179754e-06	
71	-3.55000e+00	1.178754e-06	
72	-3.60000e+00	1.177826e-06	
73	-3.65000e+00	1.176968e-06	
74	-3.70000e+00	1.176178e-06	
75	-3.75000e+00	1.175452e-06	
76	-3.80000e+00	1.174790e-06	
77	-3.85000e+00	1.174187e-06	
78	-3.90000e+00	1.173643e-06	
79	-3.95000e+00	1.173154e-06	
80	-4.00000e+00	1.172720e-06	
81	-4.05000e+00	1.172338e-06	
82	-4.10000e+00	1.172007e-06	
83	-4.15000e+00	1.171725e-06	
84	-4.20000e+00	1.171489e-06	
85	-4.25000e+00	1.171300e-06	
86	-4.30000e+00	1.171155e-06	
87	-4.35000e+00	1.171053e-06	
88	-4.40000e+00	1.170993e-06	
89	-4.45000e+00	1.170973e-06	
90	-4.50000e+00	1.170993e-06	
91	-4.55000e+00	1.171051e-06	
92	-4.60000e+00	1.171147e-06	
93	-4.65000e+00	1.171278e-06	
94	-4.70000e+00	1.171445e-06	
95	-4.75000e+00	1.171646e-06	
96	-4.80000e+00	1.171881e-06	
97	-4.85000e+00	1.172149e-06	
98	-4.90000e+00	1.172448e-06	
99	-4.95000e+00	1.172779e-06	
100	-5.00000e+00	1.173140e-06	
101	-5.05000e+00	1.173532e-06	
102	-5.10000e+00	1.173952e-06	
103	-5.15000e+00	1.174401e-06	
104	-5.20000e+00	1.174878e-06	
105	-5.25000e+00	1.175383e-06	
106	-5.30000e+00	1.175915e-06	
107	-5.35000e+00	1.176473e-06	
108	-5.40000e+00	1.177057e-06	
109	-5.45000e+00	1.177667e-06	
110	-5.50000e+00	1.178302e-06	
111	-5.55000e+00	1.178962e-06	
112	-5.60000e+00	1.179646e-06	

Index   v-sweep         rds             
--------------------------------------------------------------------------------
113	-5.65000e+00	1.180354e-06	
114	-5.70000e+00	1.181086e-06	
115	-5.75000e+00	1.181842e-06	
116	-5.80000e+00	1.182620e-06	
117	-5.85000e+00	1.183421e-06	
118	-5.90000e+00	1.184245e-06	
119	-5.95000e+00	1.185091e-06	
120	-6.00000e+00	1.185958e-06	
121	-6.05000e+00	1.186848e-06	
122	-6.10000e+00	1.187759e-06	
123	-6.15000e+00	1.188691e-06	
124	-6.20000e+00	1.189644e-06	
125	-6.25000e+00	1.190618e-06	
126	-6.30000e+00	1.191612e-06	
127	-6.35000e+00	1.192627e-06	
128	-6.40000e+00	1.193662e-06	
129	-6.45000e+00	1.194718e-06	
130	-6.50000e+00	1.195793e-06	
131	-6.55000e+00	1.196888e-06	
132	-6.60000e+00	1.198002e-06	
Reset re-loads circuit ***************************

Circuit: ***************************

Doing analysis at TEMP = 125.000000 and TNOM = 125.000000


No. of Data Rows : 133
                          ***************************
                          DC transfer characteristic  Mon Jan  9 13:58:53  2023
--------------------------------------------------------------------------------
Index   v-sweep         rds             
--------------------------------------------------------------------------------
0	0.000000e+00	2.443299e-04	
1	-5.00000e-02	2.326356e-04	
2	-1.00000e-01	2.210203e-04	
3	-1.50000e-01	2.094837e-04	
4	-2.00000e-01	1.980255e-04	
5	-2.50000e-01	1.866455e-04	
6	-3.00000e-01	1.753439e-04	
7	-3.50000e-01	1.641208e-04	
8	-4.00000e-01	1.529769e-04	
9	-4.50000e-01	1.419133e-04	
10	-5.00000e-01	1.309321e-04	
11	-5.50000e-01	1.200365e-04	
12	-6.00000e-01	1.092324e-04	
13	-6.50000e-01	9.852920e-05	
14	-7.00000e-01	8.794381e-05	
15	-7.50000e-01	7.750607e-05	
16	-8.00000e-01	6.727055e-05	
17	-8.50000e-01	5.733838e-05	
18	-9.00000e-01	4.789428e-05	
19	-9.50000e-01	3.925037e-05	
20	-1.00000e+00	3.183837e-05	
21	-1.05000e+00	2.604023e-05	
22	-1.10000e+00	2.190765e-05	
23	-1.15000e+00	1.911337e-05	
24	-1.20000e+00	1.720963e-05	
25	-1.25000e+00	1.584668e-05	
26	-1.30000e+00	1.481005e-05	
27	-1.35000e+00	1.397933e-05	
28	-1.40000e+00	1.328709e-05	
29	-1.45000e+00	1.269404e-05	
30	-1.50000e+00	1.217594e-05	
31	-1.55000e+00	1.171686e-05	
32	-1.60000e+00	1.130576e-05	
33	-1.65000e+00	1.093460e-05	
34	-1.70000e+00	1.059728e-05	
35	-1.75000e+00	1.028906e-05	
36	-1.80000e+00	1.000612e-05	
37	-1.85000e+00	9.745359e-06	
38	-1.90000e+00	9.504182e-06	
39	-1.95000e+00	9.280421e-06	
40	-2.00000e+00	9.072230e-06	
41	-2.05000e+00	8.878028e-06	
42	-2.10000e+00	8.696444e-06	
43	-2.15000e+00	8.526290e-06	
44	-2.20000e+00	8.366523e-06	
45	-2.25000e+00	8.216228e-06	
46	-2.30000e+00	8.074595e-06	
47	-2.35000e+00	7.940904e-06	
48	-2.40000e+00	7.814515e-06	
49	-2.45000e+00	7.694856e-06	
50	-2.50000e+00	7.581412e-06	
51	-2.55000e+00	7.473720e-06	
52	-2.60000e+00	7.371364e-06	
53	-2.65000e+00	7.273965e-06	
54	-2.70000e+00	7.181180e-06	

Index   v-sweep         rds             
--------------------------------------------------------------------------------
55	-2.75000e+00	7.092697e-06	
56	-2.80000e+00	7.008232e-06	
57	-2.85000e+00	6.927524e-06	
58	-2.90000e+00	6.850337e-06	
59	-2.95000e+00	6.776452e-06	
60	-3.00000e+00	6.705668e-06	
61	-3.05000e+00	6.637800e-06	
62	-3.10000e+00	6.572679e-06	
63	-3.15000e+00	6.510147e-06	
64	-3.20000e+00	6.450058e-06	
65	-3.25000e+00	6.392278e-06	
66	-3.30000e+00	6.336681e-06	
67	-3.35000e+00	6.283152e-06	
68	-3.40000e+00	6.231582e-06	
69	-3.45000e+00	6.181870e-06	
70	-3.50000e+00	6.133923e-06	
71	-3.55000e+00	6.087653e-06	
72	-3.60000e+00	6.042977e-06	
73	-3.65000e+00	5.999820e-06	
74	-3.70000e+00	5.958108e-06	
75	-3.75000e+00	5.917776e-06	
76	-3.80000e+00	5.878759e-06	
77	-3.85000e+00	5.840998e-06	
78	-3.90000e+00	5.804437e-06	
79	-3.95000e+00	5.769024e-06	
80	-4.00000e+00	5.734708e-06	
81	-4.05000e+00	5.701445e-06	
82	-4.10000e+00	5.669188e-06	
83	-4.15000e+00	5.637897e-06	
84	-4.20000e+00	5.607533e-06	
85	-4.25000e+00	5.578059e-06	
86	-4.30000e+00	5.549438e-06	
87	-4.35000e+00	5.521639e-06	
88	-4.40000e+00	5.494630e-06	
89	-4.45000e+00	5.468381e-06	
90	-4.50000e+00	5.442864e-06	
91	-4.55000e+00	5.418052e-06	
92	-4.60000e+00	5.393919e-06	
93	-4.65000e+00	5.370443e-06	
94	-4.70000e+00	5.347599e-06	
95	-4.75000e+00	5.325367e-06	
96	-4.80000e+00	5.303725e-06	
97	-4.85000e+00	5.282654e-06	
98	-4.90000e+00	5.262136e-06	
99	-4.95000e+00	5.242152e-06	
100	-5.00000e+00	5.222686e-06	
101	-5.05000e+00	5.203723e-06	
102	-5.10000e+00	5.185246e-06	
103	-5.15000e+00	5.167241e-06	
104	-5.20000e+00	5.149694e-06	
105	-5.25000e+00	5.132593e-06	
106	-5.30000e+00	5.115924e-06	
107	-5.35000e+00	5.099676e-06	
108	-5.40000e+00	5.083837e-06	
109	-5.45000e+00	5.068397e-06	
110	-5.50000e+00	5.053345e-06	
111	-5.55000e+00	5.038671e-06	
112	-5.60000e+00	5.024365e-06	

Index   v-sweep         rds             
--------------------------------------------------------------------------------
113	-5.65000e+00	5.010420e-06	
114	-5.70000e+00	4.996826e-06	
115	-5.75000e+00	4.983574e-06	
116	-5.80000e+00	4.970658e-06	
117	-5.85000e+00	4.958069e-06	
118	-5.90000e+00	4.945800e-06	
119	-5.95000e+00	4.933845e-06	
120	-6.00000e+00	4.922197e-06	
121	-6.05000e+00	4.910849e-06	
122	-6.10000e+00	4.899797e-06	
123	-6.15000e+00	4.889033e-06	
124	-6.20000e+00	4.878552e-06	
125	-6.25000e+00	4.868349e-06	
126	-6.30000e+00	4.858420e-06	
127	-6.35000e+00	4.848758e-06	
128	-6.40000e+00	4.839360e-06	
129	-6.45000e+00	4.830220e-06	
130	-6.50000e+00	4.821335e-06	
131	-6.55000e+00	4.812700e-06	
132	-6.60000e+00	4.804312e-06	
Reset re-loads circuit ***************************

Circuit: ***************************

Doing analysis at TEMP = 125.000000 and TNOM = 125.000000


No. of Data Rows : 133
                          ***************************
                          DC transfer characteristic  Mon Jan  9 13:58:53  2023
--------------------------------------------------------------------------------
Index   v-sweep         rds             
--------------------------------------------------------------------------------
0	0.000000e+00	3.840594e-04	
1	-5.00000e-02	3.729298e-04	
2	-1.00000e-01	3.618652e-04	
3	-1.50000e-01	3.508653e-04	
4	-2.00000e-01	3.399298e-04	
5	-2.50000e-01	3.290582e-04	
6	-3.00000e-01	3.182503e-04	
7	-3.50000e-01	3.075057e-04	
8	-4.00000e-01	2.968242e-04	
9	-4.50000e-01	2.862053e-04	
10	-5.00000e-01	2.756488e-04	
11	-5.50000e-01	2.651545e-04	
12	-6.00000e-01	2.547222e-04	
13	-6.50000e-01	2.443516e-04	
14	-7.00000e-01	2.340428e-04	
15	-7.50000e-01	2.237955e-04	
16	-8.00000e-01	2.136098e-04	
17	-8.50000e-01	2.034860e-04	
18	-9.00000e-01	1.934243e-04	
19	-9.50000e-01	1.834253e-04	
20	-1.00000e+00	1.734900e-04	
21	-1.05000e+00	1.636198e-04	
22	-1.10000e+00	1.538168e-04	
23	-1.15000e+00	1.440842e-04	
24	-1.20000e+00	1.344270e-04	
25	-1.25000e+00	1.248526e-04	
26	-1.30000e+00	1.153725e-04	
27	-1.35000e+00	1.060051e-04	
28	-1.40000e+00	9.677923e-05	
29	-1.45000e+00	8.774162e-05	
30	-1.50000e+00	7.896676e-05	
31	-1.55000e+00	7.057011e-05	
32	-1.60000e+00	6.271780e-05	
33	-1.65000e+00	5.561621e-05	
34	-1.70000e+00	4.945971e-05	
35	-1.75000e+00	4.434624e-05	
36	-1.80000e+00	4.022614e-05	
37	-1.85000e+00	3.693692e-05	
38	-1.90000e+00	3.428482e-05	
39	-1.95000e+00	3.210294e-05	
40	-2.00000e+00	3.026803e-05	
41	-2.05000e+00	2.869455e-05	
42	-2.10000e+00	2.732372e-05	
43	-2.15000e+00	2.611434e-05	
44	-2.20000e+00	2.503672e-05	
45	-2.25000e+00	2.406873e-05	
46	-2.30000e+00	2.319342e-05	
47	-2.35000e+00	2.239745e-05	
48	-2.40000e+00	2.167012e-05	
49	-2.45000e+00	2.100268e-05	
50	-2.50000e+00	2.038788e-05	
51	-2.55000e+00	1.981965e-05	
52	-2.60000e+00	1.929285e-05	
53	-2.65000e+00	1.880307e-05	
54	-2.70000e+00	1.834655e-05	

Index   v-sweep         rds             
--------------------------------------------------------------------------------
55	-2.75000e+00	1.792000e-05	
56	-2.80000e+00	1.752058e-05	
57	-2.85000e+00	1.714579e-05	
58	-2.90000e+00	1.679343e-05	
59	-2.95000e+00	1.646155e-05	
60	-3.00000e+00	1.614845e-05	
61	-3.05000e+00	1.585258e-05	
62	-3.10000e+00	1.557258e-05	
63	-3.15000e+00	1.530721e-05	
64	-3.20000e+00	1.505537e-05	
65	-3.25000e+00	1.481606e-05	
66	-3.30000e+00	1.458839e-05	
67	-3.35000e+00	1.437154e-05	
68	-3.40000e+00	1.416476e-05	
69	-3.45000e+00	1.396739e-05	
70	-3.50000e+00	1.377880e-05	
71	-3.55000e+00	1.359843e-05	
72	-3.60000e+00	1.342576e-05	
73	-3.65000e+00	1.326032e-05	
74	-3.70000e+00	1.310168e-05	
75	-3.75000e+00	1.294943e-05	
76	-3.80000e+00	1.280321e-05	
77	-3.85000e+00	1.266266e-05	
78	-3.90000e+00	1.252747e-05	
79	-3.95000e+00	1.239735e-05	
80	-4.00000e+00	1.227203e-05	
81	-4.05000e+00	1.215124e-05	
82	-4.10000e+00	1.203476e-05	
83	-4.15000e+00	1.192237e-05	
84	-4.20000e+00	1.181386e-05	
85	-4.25000e+00	1.170903e-05	
86	-4.30000e+00	1.160771e-05	
87	-4.35000e+00	1.150973e-05	
88	-4.40000e+00	1.141494e-05	
89	-4.45000e+00	1.132318e-05	
90	-4.50000e+00	1.123432e-05	
91	-4.55000e+00	1.114822e-05	
92	-4.60000e+00	1.106477e-05	
93	-4.65000e+00	1.098385e-05	
94	-4.70000e+00	1.090535e-05	
95	-4.75000e+00	1.082917e-05	
96	-4.80000e+00	1.075521e-05	
97	-4.85000e+00	1.068339e-05	
98	-4.90000e+00	1.061360e-05	
99	-4.95000e+00	1.054578e-05	
100	-5.00000e+00	1.047985e-05	
101	-5.05000e+00	1.041574e-05	
102	-5.10000e+00	1.035336e-05	
103	-5.15000e+00	1.029267e-05	
104	-5.20000e+00	1.023360e-05	
105	-5.25000e+00	1.017609e-05	
106	-5.30000e+00	1.012008e-05	
107	-5.35000e+00	1.006552e-05	
108	-5.40000e+00	1.001237e-05	
109	-5.45000e+00	9.960569e-06	
110	-5.50000e+00	9.910078e-06	
111	-5.55000e+00	9.860853e-06	
112	-5.60000e+00	9.812855e-06	

Index   v-sweep         rds             
--------------------------------------------------------------------------------
113	-5.65000e+00	9.766043e-06	
114	-5.70000e+00	9.720382e-06	
115	-5.75000e+00	9.675836e-06	
116	-5.80000e+00	9.632371e-06	
117	-5.85000e+00	9.589958e-06	
118	-5.90000e+00	9.548564e-06	
119	-5.95000e+00	9.508162e-06	
120	-6.00000e+00	9.468724e-06	
121	-6.05000e+00	9.430224e-06	
122	-6.10000e+00	9.392637e-06	
123	-6.15000e+00	9.355939e-06	
124	-6.20000e+00	9.320109e-06	
125	-6.25000e+00	9.285124e-06	
126	-6.30000e+00	9.250963e-06	
127	-6.35000e+00	9.217608e-06	
128	-6.40000e+00	9.185039e-06	
129	-6.45000e+00	9.153239e-06	
130	-6.50000e+00	9.122191e-06	
131	-6.55000e+00	9.091878e-06	
132	-6.60000e+00	9.062284e-06	
Reset re-loads circuit ***************************

Circuit: ***************************

Doing analysis at TEMP = 125.000000 and TNOM = 125.000000


No. of Data Rows : 133
                          ***************************
                          DC transfer characteristic  Mon Jan  9 13:58:53  2023
--------------------------------------------------------------------------------
Index   v-sweep         rds             
--------------------------------------------------------------------------------
0	0.000000e+00	5.007159e-04	
1	-5.00000e-02	4.901475e-04	
2	-1.00000e-01	4.796349e-04	
3	-1.50000e-01	4.691777e-04	
4	-2.00000e-01	4.587757e-04	
5	-2.50000e-01	4.484286e-04	
6	-3.00000e-01	4.381360e-04	
7	-3.50000e-01	4.278977e-04	
8	-4.00000e-01	4.177134e-04	
9	-4.50000e-01	4.075829e-04	
10	-5.00000e-01	3.975058e-04	
11	-5.50000e-01	3.874818e-04	
12	-6.00000e-01	3.775108e-04	
13	-6.50000e-01	3.675924e-04	
14	-7.00000e-01	3.577264e-04	
15	-7.50000e-01	3.479125e-04	
16	-8.00000e-01	3.381505e-04	
17	-8.50000e-01	3.284402e-04	
18	-9.00000e-01	3.187813e-04	
19	-9.50000e-01	3.091737e-04	
20	-1.00000e+00	2.996171e-04	
21	-1.05000e+00	2.901114e-04	
22	-1.10000e+00	2.806564e-04	
23	-1.15000e+00	2.712520e-04	
24	-1.20000e+00	2.618981e-04	
25	-1.25000e+00	2.525947e-04	
26	-1.30000e+00	2.433419e-04	
27	-1.35000e+00	2.341396e-04	
28	-1.40000e+00	2.249881e-04	
29	-1.45000e+00	2.158878e-04	
30	-1.50000e+00	2.068390e-04	
31	-1.55000e+00	1.978426e-04	
32	-1.60000e+00	1.888995e-04	
33	-1.65000e+00	1.800112e-04	
34	-1.70000e+00	1.711797e-04	
35	-1.75000e+00	1.624081e-04	
36	-1.80000e+00	1.537004e-04	
37	-1.85000e+00	1.450627e-04	
38	-1.90000e+00	1.365038e-04	
39	-1.95000e+00	1.280364e-04	
40	-2.00000e+00	1.196796e-04	
41	-2.05000e+00	1.114615e-04	
42	-2.10000e+00	1.034236e-04	
43	-2.15000e+00	9.562584e-05	
44	-2.20000e+00	8.815056e-05	
45	-2.25000e+00	8.110145e-05	
46	-2.30000e+00	7.459115e-05	
47	-2.35000e+00	6.871507e-05	
48	-2.40000e+00	6.352145e-05	
49	-2.45000e+00	5.899768e-05	
50	-2.50000e+00	5.508224e-05	
51	-2.55000e+00	5.169064e-05	
52	-2.60000e+00	4.873751e-05	
53	-2.65000e+00	4.614793e-05	
54	-2.70000e+00	4.386027e-05	

Index   v-sweep         rds             
--------------------------------------------------------------------------------
55	-2.75000e+00	4.182508e-05	
56	-2.80000e+00	4.000290e-05	
57	-2.85000e+00	3.836202e-05	
58	-2.90000e+00	3.687676e-05	
59	-2.95000e+00	3.552606e-05	
60	-3.00000e+00	3.429255e-05	
61	-3.05000e+00	3.316171e-05	
62	-3.10000e+00	3.212133e-05	
63	-3.15000e+00	3.116107e-05	
64	-3.20000e+00	3.027210e-05	
65	-3.25000e+00	2.944683e-05	
66	-3.30000e+00	2.867872e-05	
67	-3.35000e+00	2.796209e-05	
68	-3.40000e+00	2.729198e-05	
69	-3.45000e+00	2.666405e-05	
70	-3.50000e+00	2.607449e-05	
71	-3.55000e+00	2.551992e-05	
72	-3.60000e+00	2.499734e-05	
73	-3.65000e+00	2.450411e-05	
74	-3.70000e+00	2.403783e-05	
75	-3.75000e+00	2.359639e-05	
76	-3.80000e+00	2.317788e-05	
77	-3.85000e+00	2.278057e-05	
78	-3.90000e+00	2.240293e-05	
79	-3.95000e+00	2.204353e-05	
80	-4.00000e+00	2.170111e-05	
81	-4.05000e+00	2.137451e-05	
82	-4.10000e+00	2.106266e-05	
83	-4.15000e+00	2.076462e-05	
84	-4.20000e+00	2.047949e-05	
85	-4.25000e+00	2.020647e-05	
86	-4.30000e+00	1.994480e-05	
87	-4.35000e+00	1.969382e-05	
88	-4.40000e+00	1.945289e-05	
89	-4.45000e+00	1.922142e-05	
90	-4.50000e+00	1.899888e-05	
91	-4.55000e+00	1.878477e-05	
92	-4.60000e+00	1.857863e-05	
93	-4.65000e+00	1.838004e-05	
94	-4.70000e+00	1.818859e-05	
95	-4.75000e+00	1.800390e-05	
96	-4.80000e+00	1.782565e-05	
97	-4.85000e+00	1.765350e-05	
98	-4.90000e+00	1.748715e-05	
99	-4.95000e+00	1.732632e-05	
100	-5.00000e+00	1.717074e-05	
101	-5.05000e+00	1.702018e-05	
102	-5.10000e+00	1.687440e-05	
103	-5.15000e+00	1.673317e-05	
104	-5.20000e+00	1.659630e-05	
105	-5.25000e+00	1.646359e-05	
106	-5.30000e+00	1.633486e-05	
107	-5.35000e+00	1.620995e-05	
108	-5.40000e+00	1.608868e-05	
109	-5.45000e+00	1.597092e-05	
110	-5.50000e+00	1.585651e-05	
111	-5.55000e+00	1.574532e-05	
112	-5.60000e+00	1.563722e-05	

Index   v-sweep         rds             
--------------------------------------------------------------------------------
113	-5.65000e+00	1.553210e-05	
114	-5.70000e+00	1.542984e-05	
115	-5.75000e+00	1.533032e-05	
116	-5.80000e+00	1.523346e-05	
117	-5.85000e+00	1.513914e-05	
118	-5.90000e+00	1.504729e-05	
119	-5.95000e+00	1.495780e-05	
120	-6.00000e+00	1.487061e-05	
121	-6.05000e+00	1.478563e-05	
122	-6.10000e+00	1.470278e-05	
123	-6.15000e+00	1.462200e-05	
124	-6.20000e+00	1.454322e-05	
125	-6.25000e+00	1.446638e-05	
126	-6.30000e+00	1.439141e-05	
127	-6.35000e+00	1.431826e-05	
128	-6.40000e+00	1.424687e-05	
129	-6.45000e+00	1.417719e-05	
130	-6.50000e+00	1.410918e-05	
131	-6.55000e+00	1.404278e-05	
132	-6.60000e+00	1.397795e-05	
Reset re-loads circuit ***************************

Circuit: ***************************

Doing analysis at TEMP = 125.000000 and TNOM = 125.000000


No. of Data Rows : 133
                          ***************************
                          DC transfer characteristic  Mon Jan  9 13:58:53  2023
--------------------------------------------------------------------------------
Index   v-sweep         rds             
--------------------------------------------------------------------------------
0	0.000000e+00	5.999803e-04	
1	-5.00000e-02	5.898991e-04	
2	-1.00000e-01	5.798669e-04	
3	-1.50000e-01	5.698836e-04	
4	-2.00000e-01	5.599488e-04	
5	-2.50000e-01	5.500623e-04	
6	-3.00000e-01	5.402238e-04	
7	-3.50000e-01	5.304332e-04	
8	-4.00000e-01	5.206902e-04	
9	-4.50000e-01	5.109945e-04	
10	-5.00000e-01	5.013460e-04	
11	-5.50000e-01	4.917443e-04	
12	-6.00000e-01	4.821892e-04	
13	-6.50000e-01	4.726806e-04	
14	-7.00000e-01	4.632181e-04	
15	-7.50000e-01	4.538016e-04	
16	-8.00000e-01	4.444309e-04	
17	-8.50000e-01	4.351056e-04	
18	-9.00000e-01	4.258257e-04	
19	-9.50000e-01	4.165908e-04	
20	-1.00000e+00	4.074008e-04	
21	-1.05000e+00	3.982554e-04	
22	-1.10000e+00	3.891545e-04	
23	-1.15000e+00	3.800978e-04	
24	-1.20000e+00	3.710852e-04	
25	-1.25000e+00	3.621165e-04	
26	-1.30000e+00	3.531915e-04	
27	-1.35000e+00	3.443099e-04	
28	-1.40000e+00	3.354718e-04	
29	-1.45000e+00	3.266768e-04	
30	-1.50000e+00	3.179249e-04	
31	-1.55000e+00	3.092160e-04	
32	-1.60000e+00	3.005499e-04	
33	-1.65000e+00	2.919266e-04	
34	-1.70000e+00	2.833459e-04	
35	-1.75000e+00	2.748079e-04	
36	-1.80000e+00	2.663126e-04	
37	-1.85000e+00	2.578601e-04	
38	-1.90000e+00	2.494504e-04	
39	-1.95000e+00	2.410837e-04	
40	-2.00000e+00	2.327604e-04	
41	-2.05000e+00	2.244809e-04	
42	-2.10000e+00	2.162457e-04	
43	-2.15000e+00	2.080557e-04	
44	-2.20000e+00	1.999119e-04	
45	-2.25000e+00	1.918157e-04	
46	-2.30000e+00	1.837692e-04	
47	-2.35000e+00	1.757750e-04	
48	-2.40000e+00	1.678368e-04	
49	-2.45000e+00	1.599597e-04	
50	-2.50000e+00	1.521506e-04	
51	-2.55000e+00	1.444192e-04	
52	-2.60000e+00	1.367792e-04	
53	-2.65000e+00	1.292496e-04	
54	-2.70000e+00	1.218568e-04	

Index   v-sweep         rds             
--------------------------------------------------------------------------------
55	-2.75000e+00	1.146363e-04	
56	-2.80000e+00	1.076350e-04	
57	-2.85000e+00	1.009099e-04	
58	-2.90000e+00	9.452472e-05	
59	-2.95000e+00	8.854071e-05	
60	-3.00000e+00	8.300579e-05	
61	-3.05000e+00	7.794530e-05	
62	-3.10000e+00	7.335939e-05	
63	-3.15000e+00	6.922713e-05	
64	-3.20000e+00	6.551393e-05	
65	-3.25000e+00	6.217881e-05	
66	-3.30000e+00	5.917978e-05	
67	-3.35000e+00	5.647698e-05	
68	-3.40000e+00	5.403419e-05	
69	-3.45000e+00	5.181937e-05	
70	-3.50000e+00	4.980460e-05	
71	-3.55000e+00	4.796572e-05	
72	-3.60000e+00	4.628190e-05	
73	-3.65000e+00	4.473523e-05	
74	-3.70000e+00	4.331026e-05	
75	-3.75000e+00	4.199366e-05	
76	-3.80000e+00	4.077390e-05	
77	-3.85000e+00	3.964096e-05	
78	-3.90000e+00	3.858611e-05	
79	-3.95000e+00	3.760172e-05	
80	-4.00000e+00	3.668111e-05	
81	-4.05000e+00	3.581839e-05	
82	-4.10000e+00	3.500837e-05	
83	-4.15000e+00	3.424644e-05	
84	-4.20000e+00	3.352851e-05	
85	-4.25000e+00	3.285095e-05	
86	-4.30000e+00	3.221048e-05	
87	-4.35000e+00	3.160419e-05	
88	-4.40000e+00	3.102945e-05	
89	-4.45000e+00	3.048391e-05	
90	-4.50000e+00	2.996541e-05	
91	-4.55000e+00	2.947203e-05	
92	-4.60000e+00	2.900201e-05	
93	-4.65000e+00	2.855376e-05	
94	-4.70000e+00	2.812581e-05	
95	-4.75000e+00	2.771684e-05	
96	-4.80000e+00	2.732563e-05	
97	-4.85000e+00	2.695107e-05	
98	-4.90000e+00	2.659213e-05	
99	-4.95000e+00	2.624786e-05	
100	-5.00000e+00	2.591740e-05	
101	-5.05000e+00	2.559995e-05	
102	-5.10000e+00	2.529477e-05	
103	-5.15000e+00	2.500117e-05	
104	-5.20000e+00	2.471851e-05	
105	-5.25000e+00	2.444620e-05	
106	-5.30000e+00	2.418370e-05	
107	-5.35000e+00	2.393049e-05	
108	-5.40000e+00	2.368610e-05	
109	-5.45000e+00	2.345008e-05	
110	-5.50000e+00	2.322202e-05	
111	-5.55000e+00	2.300153e-05	
112	-5.60000e+00	2.278825e-05	

Index   v-sweep         rds             
--------------------------------------------------------------------------------
113	-5.65000e+00	2.258184e-05	
114	-5.70000e+00	2.238197e-05	
115	-5.75000e+00	2.218835e-05	
116	-5.80000e+00	2.200070e-05	
117	-5.85000e+00	2.181876e-05	
118	-5.90000e+00	2.164227e-05	
119	-5.95000e+00	2.147100e-05	
120	-6.00000e+00	2.130472e-05	
121	-6.05000e+00	2.114324e-05	
122	-6.10000e+00	2.098636e-05	
123	-6.15000e+00	2.083388e-05	
124	-6.20000e+00	2.068564e-05	
125	-6.25000e+00	2.054147e-05	
126	-6.30000e+00	2.040121e-05	
127	-6.35000e+00	2.026471e-05	
128	-6.40000e+00	2.013184e-05	
129	-6.45000e+00	2.000246e-05	
130	-6.50000e+00	1.987645e-05	
131	-6.55000e+00	1.975368e-05	
132	-6.60000e+00	1.963404e-05	
Reset re-loads circuit ***************************

Circuit: ***************************

Doing analysis at TEMP = 125.000000 and TNOM = 125.000000


No. of Data Rows : 133
                          ***************************
                          DC transfer characteristic  Mon Jan  9 13:58:53  2023
--------------------------------------------------------------------------------
Index   v-sweep         rds             
--------------------------------------------------------------------------------
0	0.000000e+00	6.869332e-04	
1	-5.00000e-02	6.772626e-04	
2	-1.00000e-01	6.676359e-04	
3	-1.50000e-01	6.580530e-04	
4	-2.00000e-01	6.485138e-04	
5	-2.50000e-01	6.390179e-04	
6	-3.00000e-01	6.295653e-04	
7	-3.50000e-01	6.201556e-04	
8	-4.00000e-01	6.107887e-04	
9	-4.50000e-01	6.014643e-04	
10	-5.00000e-01	5.921824e-04	
11	-5.50000e-01	5.829426e-04	
12	-6.00000e-01	5.737447e-04	
13	-6.50000e-01	5.645886e-04	
14	-7.00000e-01	5.554741e-04	
15	-7.50000e-01	5.464010e-04	
16	-8.00000e-01	5.373690e-04	
17	-8.50000e-01	5.283780e-04	
18	-9.00000e-01	5.194277e-04	
19	-9.50000e-01	5.105181e-04	
20	-1.00000e+00	5.016488e-04	
21	-1.05000e+00	4.928198e-04	
22	-1.10000e+00	4.840307e-04	
23	-1.15000e+00	4.752816e-04	
24	-1.20000e+00	4.665720e-04	
25	-1.25000e+00	4.579019e-04	
26	-1.30000e+00	4.492711e-04	
27	-1.35000e+00	4.406795e-04	
28	-1.40000e+00	4.321267e-04	
29	-1.45000e+00	4.236128e-04	
30	-1.50000e+00	4.151374e-04	
31	-1.55000e+00	4.067005e-04	
32	-1.60000e+00	3.983018e-04	
33	-1.65000e+00	3.899413e-04	
34	-1.70000e+00	3.816188e-04	
35	-1.75000e+00	3.733341e-04	
36	-1.80000e+00	3.650870e-04	
37	-1.85000e+00	3.568776e-04	
38	-1.90000e+00	3.487056e-04	
39	-1.95000e+00	3.405709e-04	
40	-2.00000e+00	3.324734e-04	
41	-2.05000e+00	3.244131e-04	
42	-2.10000e+00	3.163898e-04	
43	-2.15000e+00	3.084035e-04	
44	-2.20000e+00	3.004542e-04	
45	-2.25000e+00	2.925418e-04	
46	-2.30000e+00	2.846663e-04	
47	-2.35000e+00	2.768278e-04	
48	-2.40000e+00	2.690264e-04	
49	-2.45000e+00	2.612621e-04	
50	-2.50000e+00	2.535352e-04	
51	-2.55000e+00	2.458460e-04	
52	-2.60000e+00	2.381947e-04	
53	-2.65000e+00	2.305819e-04	
54	-2.70000e+00	2.230081e-04	

Index   v-sweep         rds             
--------------------------------------------------------------------------------
55	-2.75000e+00	2.154743e-04	
56	-2.80000e+00	2.079813e-04	
57	-2.85000e+00	2.005306e-04	
58	-2.90000e+00	1.931239e-04	
59	-2.95000e+00	1.857635e-04	
60	-3.00000e+00	1.784522e-04	
61	-3.05000e+00	1.711941e-04	
62	-3.10000e+00	1.639940e-04	
63	-3.15000e+00	1.568587e-04	
64	-3.20000e+00	1.497968e-04	
65	-3.25000e+00	1.428197e-04	
66	-3.30000e+00	1.359426e-04	
67	-3.35000e+00	1.291851e-04	
68	-3.40000e+00	1.225730e-04	
69	-3.45000e+00	1.161388e-04	
70	-3.50000e+00	1.099226e-04	
71	-3.55000e+00	1.039698e-04	
72	-3.60000e+00	9.832637e-05	
73	-3.65000e+00	9.303182e-05	
74	-3.70000e+00	8.811260e-05	
75	-3.75000e+00	8.357866e-05	
76	-3.80000e+00	7.942428e-05	
77	-3.85000e+00	7.563169e-05	
78	-3.90000e+00	7.217554e-05	
79	-3.95000e+00	6.902691e-05	
80	-4.00000e+00	6.615615e-05	
81	-4.05000e+00	6.353472e-05	
82	-4.10000e+00	6.113612e-05	
83	-4.15000e+00	5.893637e-05	
84	-4.20000e+00	5.691405e-05	
85	-4.25000e+00	5.505019e-05	
86	-4.30000e+00	5.332808e-05	
87	-4.35000e+00	5.173306e-05	
88	-4.40000e+00	5.025223e-05	
89	-4.45000e+00	4.887426e-05	
90	-4.50000e+00	4.758921e-05	
91	-4.55000e+00	4.638829e-05	
92	-4.60000e+00	4.526375e-05	
93	-4.65000e+00	4.420872e-05	
94	-4.70000e+00	4.321712e-05	
95	-4.75000e+00	4.228353e-05	
96	-4.80000e+00	4.140310e-05	
97	-4.85000e+00	4.057152e-05	
98	-4.90000e+00	3.978492e-05	
99	-4.95000e+00	3.903980e-05	
100	-5.00000e+00	3.833302e-05	
101	-5.05000e+00	3.766176e-05	
102	-5.10000e+00	3.702344e-05	
103	-5.15000e+00	3.641574e-05	
104	-5.20000e+00	3.583654e-05	
105	-5.25000e+00	3.528392e-05	
106	-5.30000e+00	3.475610e-05	
107	-5.35000e+00	3.425150e-05	
108	-5.40000e+00	3.376862e-05	
109	-5.45000e+00	3.330612e-05	
110	-5.50000e+00	3.286275e-05	
111	-5.55000e+00	3.243738e-05	
112	-5.60000e+00	3.202893e-05	

Index   v-sweep         rds             
--------------------------------------------------------------------------------
113	-5.65000e+00	3.163645e-05	
114	-5.70000e+00	3.125901e-05	
115	-5.75000e+00	3.089580e-05	
116	-5.80000e+00	3.054602e-05	
117	-5.85000e+00	3.020897e-05	
118	-5.90000e+00	2.988397e-05	
119	-5.95000e+00	2.957039e-05	
120	-6.00000e+00	2.926766e-05	
121	-6.05000e+00	2.897524e-05	
122	-6.10000e+00	2.869260e-05	
123	-6.15000e+00	2.841929e-05	
124	-6.20000e+00	2.815485e-05	
125	-6.25000e+00	2.789887e-05	
126	-6.30000e+00	2.765096e-05	
127	-6.35000e+00	2.741075e-05	
128	-6.40000e+00	2.717790e-05	
129	-6.45000e+00	2.695208e-05	
130	-6.50000e+00	2.673299e-05	
131	-6.55000e+00	2.652033e-05	
132	-6.60000e+00	2.631385e-05	
Reset re-loads circuit ***************************

Circuit: ***************************

Note: No ".plot", ".print", or ".fourier" lines; no simulations run
