
Note: Compatibility modes selected: hs

Warning: m=xx on .subckt line will override multiplier m hierarchy!


Circuit: ***************************

Doing analysis at TEMP = 25.000000 and TNOM = 25.000000


No. of Data Rows : 133
                          ***************************
                          DC transfer characteristic  Mon Jan  9 13:58:51  2023
--------------------------------------------------------------------------------
Index   v-sweep         rds             
--------------------------------------------------------------------------------
0	0.000000e+00	3.552146e-05	
1	-5.00000e-02	2.172624e-05	
2	-1.00000e-01	9.575567e-06	
3	-1.50000e-01	2.681393e-06	
4	-2.00000e-01	8.334564e-07	
5	-2.50000e-01	4.204224e-07	
6	-3.00000e-01	2.925062e-07	
7	-3.50000e-01	2.367485e-07	
8	-4.00000e-01	2.055220e-07	
9	-4.50000e-01	1.848731e-07	
10	-5.00000e-01	1.696992e-07	
11	-5.50000e-01	1.577786e-07	
12	-6.00000e-01	1.479988e-07	
13	-6.50000e-01	1.397374e-07	
14	-7.00000e-01	1.326131e-07	
15	-7.50000e-01	1.263751e-07	
16	-8.00000e-01	1.208491e-07	
17	-8.50000e-01	1.159082e-07	
18	-9.00000e-01	1.114568e-07	
19	-9.50000e-01	1.074208e-07	
20	-1.00000e+00	1.037414e-07	
21	-1.05000e+00	1.003713e-07	
22	-1.10000e+00	9.727148e-08	
23	-1.15000e+00	9.440974e-08	
24	-1.20000e+00	9.175890e-08	
25	-1.25000e+00	8.929596e-08	
26	-1.30000e+00	8.700125e-08	
27	-1.35000e+00	8.485784e-08	
28	-1.40000e+00	8.285104e-08	
29	-1.45000e+00	8.096806e-08	
30	-1.50000e+00	7.919769e-08	
31	-1.55000e+00	7.753003e-08	
32	-1.60000e+00	7.595636e-08	
33	-1.65000e+00	7.446891e-08	
34	-1.70000e+00	7.306077e-08	
35	-1.75000e+00	7.172574e-08	
36	-1.80000e+00	7.045827e-08	
37	-1.85000e+00	6.925335e-08	
38	-1.90000e+00	6.810648e-08	
39	-1.95000e+00	6.701355e-08	
40	-2.00000e+00	6.597087e-08	
41	-2.05000e+00	6.497504e-08	
42	-2.10000e+00	6.402301e-08	
43	-2.15000e+00	6.311194e-08	
44	-2.20000e+00	6.223927e-08	
45	-2.25000e+00	6.140262e-08	
46	-2.30000e+00	6.059983e-08	
47	-2.35000e+00	5.982890e-08	
48	-2.40000e+00	5.908797e-08	
49	-2.45000e+00	5.837535e-08	
50	-2.50000e+00	5.768945e-08	
51	-2.55000e+00	5.702881e-08	
52	-2.60000e+00	5.639208e-08	
53	-2.65000e+00	5.577798e-08	
54	-2.70000e+00	5.518535e-08	

Index   v-sweep         rds             
--------------------------------------------------------------------------------
55	-2.75000e+00	5.461309e-08	
56	-2.80000e+00	5.406018e-08	
57	-2.85000e+00	5.352567e-08	
58	-2.90000e+00	5.300867e-08	
59	-2.95000e+00	5.250833e-08	
60	-3.00000e+00	5.202389e-08	
61	-3.05000e+00	5.155460e-08	
62	-3.10000e+00	5.109977e-08	
63	-3.15000e+00	5.065877e-08	
64	-3.20000e+00	5.023097e-08	
65	-3.25000e+00	4.981582e-08	
66	-3.30000e+00	4.941276e-08	
67	-3.35000e+00	4.902129e-08	
68	-3.40000e+00	4.864093e-08	
69	-3.45000e+00	4.827122e-08	
70	-3.50000e+00	4.791174e-08	
71	-3.55000e+00	4.756208e-08	
72	-3.60000e+00	4.722186e-08	
73	-3.65000e+00	4.689072e-08	
74	-3.70000e+00	4.656831e-08	
75	-3.75000e+00	4.625431e-08	
76	-3.80000e+00	4.594840e-08	
77	-3.85000e+00	4.565030e-08	
78	-3.90000e+00	4.535973e-08	
79	-3.95000e+00	4.507641e-08	
80	-4.00000e+00	4.480011e-08	
81	-4.05000e+00	4.453058e-08	
82	-4.10000e+00	4.426760e-08	
83	-4.15000e+00	4.401094e-08	
84	-4.20000e+00	4.376041e-08	
85	-4.25000e+00	4.351581e-08	
86	-4.30000e+00	4.327695e-08	
87	-4.35000e+00	4.304365e-08	
88	-4.40000e+00	4.281574e-08	
89	-4.45000e+00	4.259307e-08	
90	-4.50000e+00	4.237547e-08	
91	-4.55000e+00	4.216280e-08	
92	-4.60000e+00	4.195492e-08	
93	-4.65000e+00	4.175170e-08	
94	-4.70000e+00	4.155300e-08	
95	-4.75000e+00	4.135870e-08	
96	-4.80000e+00	4.116868e-08	
97	-4.85000e+00	4.098284e-08	
98	-4.90000e+00	4.080106e-08	
99	-4.95000e+00	4.062324e-08	
100	-5.00000e+00	4.044928e-08	
101	-5.05000e+00	4.027909e-08	
102	-5.10000e+00	4.011257e-08	
103	-5.15000e+00	3.994964e-08	
104	-5.20000e+00	3.979022e-08	
105	-5.25000e+00	3.963421e-08	
106	-5.30000e+00	3.948156e-08	
107	-5.35000e+00	3.933217e-08	
108	-5.40000e+00	3.918598e-08	
109	-5.45000e+00	3.904293e-08	
110	-5.50000e+00	3.890294e-08	
111	-5.55000e+00	3.876594e-08	
112	-5.60000e+00	3.863189e-08	

Index   v-sweep         rds             
--------------------------------------------------------------------------------
113	-5.65000e+00	3.850072e-08	
114	-5.70000e+00	3.837237e-08	
115	-5.75000e+00	3.824679e-08	
116	-5.80000e+00	3.812392e-08	
117	-5.85000e+00	3.800372e-08	
118	-5.90000e+00	3.788613e-08	
119	-5.95000e+00	3.777110e-08	
120	-6.00000e+00	3.765859e-08	
121	-6.05000e+00	3.754856e-08	
122	-6.10000e+00	3.744096e-08	
123	-6.15000e+00	3.733574e-08	
124	-6.20000e+00	3.723287e-08	
125	-6.25000e+00	3.713231e-08	
126	-6.30000e+00	3.703402e-08	
127	-6.35000e+00	3.693796e-08	
128	-6.40000e+00	3.684409e-08	
129	-6.45000e+00	3.675239e-08	
130	-6.50000e+00	3.666280e-08	
131	-6.55000e+00	3.657532e-08	
132	-6.60000e+00	3.648989e-08	
Reset re-loads circuit ***************************

Circuit: ***************************

Doing analysis at TEMP = 25.000000 and TNOM = 25.000000


No. of Data Rows : 133
                          ***************************
                          DC transfer characteristic  Mon Jan  9 13:58:51  2023
--------------------------------------------------------------------------------
Index   v-sweep         rds             
--------------------------------------------------------------------------------
0	0.000000e+00	2.900858e-04	
1	-5.00000e-02	2.725840e-04	
2	-1.00000e-01	2.551904e-04	
3	-1.50000e-01	2.379048e-04	
4	-2.00000e-01	2.207278e-04	
5	-2.50000e-01	2.036602e-04	
6	-3.00000e-01	1.867037e-04	
7	-3.50000e-01	1.698618e-04	
8	-4.00000e-01	1.531400e-04	
9	-4.50000e-01	1.365487e-04	
10	-5.00000e-01	1.201066e-04	
11	-5.50000e-01	1.038488e-04	
12	-6.00000e-01	8.784347e-05	
13	-6.50000e-01	7.222707e-05	
14	-7.00000e-01	5.727438e-05	
15	-7.50000e-01	4.350756e-05	
16	-8.00000e-01	3.174705e-05	
17	-8.50000e-01	2.280809e-05	
18	-9.00000e-01	1.683445e-05	
19	-9.50000e-01	1.315241e-05	
20	-1.00000e+00	1.088727e-05	
21	-1.05000e+00	9.415895e-06	
22	-1.10000e+00	8.389053e-06	
23	-1.15000e+00	7.624305e-06	
24	-1.20000e+00	7.024985e-06	
25	-1.25000e+00	6.537211e-06	
26	-1.30000e+00	6.129032e-06	
27	-1.35000e+00	5.780306e-06	
28	-1.40000e+00	5.477617e-06	
29	-1.45000e+00	5.211606e-06	
30	-1.50000e+00	4.975475e-06	
31	-1.55000e+00	4.764130e-06	
32	-1.60000e+00	4.573648e-06	
33	-1.65000e+00	4.400942e-06	
34	-1.70000e+00	4.243538e-06	
35	-1.75000e+00	4.099421e-06	
36	-1.80000e+00	3.966929e-06	
37	-1.85000e+00	3.844678e-06	
38	-1.90000e+00	3.731500e-06	
39	-1.95000e+00	3.626405e-06	
40	-2.00000e+00	3.528543e-06	
41	-2.05000e+00	3.437183e-06	
42	-2.10000e+00	3.351692e-06	
43	-2.15000e+00	3.271516e-06	
44	-2.20000e+00	3.196170e-06	
45	-2.25000e+00	3.125230e-06	
46	-2.30000e+00	3.058315e-06	
47	-2.35000e+00	2.995093e-06	
48	-2.40000e+00	2.935265e-06	
49	-2.45000e+00	2.878563e-06	
50	-2.50000e+00	2.824748e-06	
51	-2.55000e+00	2.773605e-06	
52	-2.60000e+00	2.724940e-06	
53	-2.65000e+00	2.678576e-06	
54	-2.70000e+00	2.634354e-06	

Index   v-sweep         rds             
--------------------------------------------------------------------------------
55	-2.75000e+00	2.592129e-06	
56	-2.80000e+00	2.551769e-06	
57	-2.85000e+00	2.513153e-06	
58	-2.90000e+00	2.476171e-06	
59	-2.95000e+00	2.440721e-06	
60	-3.00000e+00	2.406710e-06	
61	-3.05000e+00	2.374052e-06	
62	-3.10000e+00	2.342669e-06	
63	-3.15000e+00	2.312487e-06	
64	-3.20000e+00	2.283439e-06	
65	-3.25000e+00	2.255463e-06	
66	-3.30000e+00	2.228500e-06	
67	-3.35000e+00	2.202497e-06	
68	-3.40000e+00	2.177404e-06	
69	-3.45000e+00	2.153173e-06	
70	-3.50000e+00	2.129761e-06	
71	-3.55000e+00	2.107129e-06	
72	-3.60000e+00	2.085237e-06	
73	-3.65000e+00	2.064050e-06	
74	-3.70000e+00	2.043535e-06	
75	-3.75000e+00	2.023661e-06	
76	-3.80000e+00	2.004399e-06	
77	-3.85000e+00	1.985720e-06	
78	-3.90000e+00	1.967599e-06	
79	-3.95000e+00	1.950013e-06	
80	-4.00000e+00	1.932937e-06	
81	-4.05000e+00	1.916350e-06	
82	-4.10000e+00	1.900233e-06	
83	-4.15000e+00	1.884565e-06	
84	-4.20000e+00	1.869328e-06	
85	-4.25000e+00	1.854506e-06	
86	-4.30000e+00	1.840082e-06	
87	-4.35000e+00	1.826041e-06	
88	-4.40000e+00	1.812369e-06	
89	-4.45000e+00	1.799050e-06	
90	-4.50000e+00	1.786074e-06	
91	-4.55000e+00	1.773426e-06	
92	-4.60000e+00	1.761096e-06	
93	-4.65000e+00	1.749072e-06	
94	-4.70000e+00	1.737343e-06	
95	-4.75000e+00	1.725900e-06	
96	-4.80000e+00	1.714733e-06	
97	-4.85000e+00	1.703833e-06	
98	-4.90000e+00	1.693191e-06	
99	-4.95000e+00	1.682799e-06	
100	-5.00000e+00	1.672650e-06	
101	-5.05000e+00	1.662734e-06	
102	-5.10000e+00	1.653047e-06	
103	-5.15000e+00	1.643580e-06	
104	-5.20000e+00	1.634328e-06	
105	-5.25000e+00	1.625283e-06	
106	-5.30000e+00	1.616441e-06	
107	-5.35000e+00	1.607795e-06	
108	-5.40000e+00	1.599341e-06	
109	-5.45000e+00	1.591072e-06	
110	-5.50000e+00	1.582985e-06	
111	-5.55000e+00	1.575074e-06	
112	-5.60000e+00	1.567335e-06	

Index   v-sweep         rds             
--------------------------------------------------------------------------------
113	-5.65000e+00	1.559763e-06	
114	-5.70000e+00	1.552355e-06	
115	-5.75000e+00	1.545106e-06	
116	-5.80000e+00	1.538013e-06	
117	-5.85000e+00	1.531072e-06	
118	-5.90000e+00	1.524280e-06	
119	-5.95000e+00	1.517633e-06	
120	-6.00000e+00	1.511128e-06	
121	-6.05000e+00	1.504761e-06	
122	-6.10000e+00	1.498531e-06	
123	-6.15000e+00	1.492434e-06	
124	-6.20000e+00	1.486467e-06	
125	-6.25000e+00	1.480628e-06	
126	-6.30000e+00	1.474913e-06	
127	-6.35000e+00	1.469322e-06	
128	-6.40000e+00	1.463851e-06	
129	-6.45000e+00	1.458498e-06	
130	-6.50000e+00	1.453260e-06	
131	-6.55000e+00	1.448137e-06	
132	-6.60000e+00	1.443125e-06	
Reset re-loads circuit ***************************

Circuit: ***************************

Doing analysis at TEMP = 25.000000 and TNOM = 25.000000


No. of Data Rows : 133
                          ***************************
                          DC transfer characteristic  Mon Jan  9 13:58:51  2023
--------------------------------------------------------------------------------
Index   v-sweep         rds             
--------------------------------------------------------------------------------
0	0.000000e+00	4.907370e-04	
1	-5.00000e-02	4.742717e-04	
2	-1.00000e-01	4.578948e-04	
3	-1.50000e-01	4.416057e-04	
4	-2.00000e-01	4.254041e-04	
5	-2.50000e-01	4.092895e-04	
6	-3.00000e-01	3.932614e-04	
7	-3.50000e-01	3.773195e-04	
8	-4.00000e-01	3.614634e-04	
9	-4.50000e-01	3.456927e-04	
10	-5.00000e-01	3.300074e-04	
11	-5.50000e-01	3.144070e-04	
12	-6.00000e-01	2.988917e-04	
13	-6.50000e-01	2.834613e-04	
14	-7.00000e-01	2.681163e-04	
15	-7.50000e-01	2.528572e-04	
16	-8.00000e-01	2.376848e-04	
17	-8.50000e-01	2.226006e-04	
18	-9.00000e-01	2.076072e-04	
19	-9.50000e-01	1.927081e-04	
20	-1.00000e+00	1.779091e-04	
21	-1.05000e+00	1.632193e-04	
22	-1.10000e+00	1.486533e-04	
23	-1.15000e+00	1.342346e-04	
24	-1.20000e+00	1.200023e-04	
25	-1.25000e+00	1.060224e-04	
26	-1.30000e+00	9.240559e-05	
27	-1.35000e+00	7.933519e-05	
28	-1.40000e+00	6.709530e-05	
29	-1.45000e+00	5.606954e-05	
30	-1.50000e+00	4.665432e-05	
31	-1.55000e+00	3.907990e-05	
32	-1.60000e+00	3.327644e-05	
33	-1.65000e+00	2.893139e-05	
34	-1.70000e+00	2.566481e-05	
35	-1.75000e+00	2.315523e-05	
36	-1.80000e+00	2.117267e-05	
37	-1.85000e+00	1.956350e-05	
38	-1.90000e+00	1.822657e-05	
39	-1.95000e+00	1.709424e-05	
40	-2.00000e+00	1.612010e-05	
41	-2.05000e+00	1.527129e-05	
42	-2.10000e+00	1.452383e-05	
43	-2.15000e+00	1.385979e-05	
44	-2.20000e+00	1.326538e-05	
45	-2.25000e+00	1.272984e-05	
46	-2.30000e+00	1.224460e-05	
47	-2.35000e+00	1.180271e-05	
48	-2.40000e+00	1.139850e-05	
49	-2.45000e+00	1.102726e-05	
50	-2.50000e+00	1.068506e-05	
51	-2.55000e+00	1.036858e-05	
52	-2.60000e+00	1.007500e-05	
53	-2.65000e+00	9.801894e-06	
54	-2.70000e+00	9.547179e-06	

Index   v-sweep         rds             
--------------------------------------------------------------------------------
55	-2.75000e+00	9.309048e-06	
56	-2.80000e+00	9.085923e-06	
57	-2.85000e+00	8.876424e-06	
58	-2.90000e+00	8.679336e-06	
59	-2.95000e+00	8.493585e-06	
60	-3.00000e+00	8.318218e-06	
61	-3.05000e+00	8.152388e-06	
62	-3.10000e+00	7.995336e-06	
63	-3.15000e+00	7.846383e-06	
64	-3.20000e+00	7.704918e-06	
65	-3.25000e+00	7.570391e-06	
66	-3.30000e+00	7.442304e-06	
67	-3.35000e+00	7.320206e-06	
68	-3.40000e+00	7.203687e-06	
69	-3.45000e+00	7.092374e-06	
70	-3.50000e+00	6.985926e-06	
71	-3.55000e+00	6.884032e-06	
72	-3.60000e+00	6.786406e-06	
73	-3.65000e+00	6.692787e-06	
74	-3.70000e+00	6.602933e-06	
75	-3.75000e+00	6.516623e-06	
76	-3.80000e+00	6.433652e-06	
77	-3.85000e+00	6.353830e-06	
78	-3.90000e+00	6.276981e-06	
79	-3.95000e+00	6.202945e-06	
80	-4.00000e+00	6.131568e-06	
81	-4.05000e+00	6.062713e-06	
82	-4.10000e+00	5.996247e-06	
83	-4.15000e+00	5.932050e-06	
84	-4.20000e+00	5.870007e-06	
85	-4.25000e+00	5.810013e-06	
86	-4.30000e+00	5.751969e-06	
87	-4.35000e+00	5.695782e-06	
88	-4.40000e+00	5.641364e-06	
89	-4.45000e+00	5.588635e-06	
90	-4.50000e+00	5.537518e-06	
91	-4.55000e+00	5.487940e-06	
92	-4.60000e+00	5.439835e-06	
93	-4.65000e+00	5.393138e-06	
94	-4.70000e+00	5.347790e-06	
95	-4.75000e+00	5.303733e-06	
96	-4.80000e+00	5.260916e-06	
97	-4.85000e+00	5.219286e-06	
98	-4.90000e+00	5.178797e-06	
99	-4.95000e+00	5.139404e-06	
100	-5.00000e+00	5.101064e-06	
101	-5.05000e+00	5.063737e-06	
102	-5.10000e+00	5.027384e-06	
103	-5.15000e+00	4.991971e-06	
104	-5.20000e+00	4.957462e-06	
105	-5.25000e+00	4.923825e-06	
106	-5.30000e+00	4.891029e-06	
107	-5.35000e+00	4.859046e-06	
108	-5.40000e+00	4.827847e-06	
109	-5.45000e+00	4.797406e-06	
110	-5.50000e+00	4.767698e-06	
111	-5.55000e+00	4.738699e-06	
112	-5.60000e+00	4.710386e-06	

Index   v-sweep         rds             
--------------------------------------------------------------------------------
113	-5.65000e+00	4.682738e-06	
114	-5.70000e+00	4.655735e-06	
115	-5.75000e+00	4.629356e-06	
116	-5.80000e+00	4.603583e-06	
117	-5.85000e+00	4.578399e-06	
118	-5.90000e+00	4.553786e-06	
119	-5.95000e+00	4.529728e-06	
120	-6.00000e+00	4.506211e-06	
121	-6.05000e+00	4.483218e-06	
122	-6.10000e+00	4.460736e-06	
123	-6.15000e+00	4.438752e-06	
124	-6.20000e+00	4.417253e-06	
125	-6.25000e+00	4.396226e-06	
126	-6.30000e+00	4.375660e-06	
127	-6.35000e+00	4.355544e-06	
128	-6.40000e+00	4.335866e-06	
129	-6.45000e+00	4.316617e-06	
130	-6.50000e+00	4.297786e-06	
131	-6.55000e+00	4.279365e-06	
132	-6.60000e+00	4.261343e-06	
Reset re-loads circuit ***************************

Circuit: ***************************

Doing analysis at TEMP = 25.000000 and TNOM = 25.000000


No. of Data Rows : 133
                          ***************************
                          DC transfer characteristic  Mon Jan  9 13:58:51  2023
--------------------------------------------------------------------------------
Index   v-sweep         rds             
--------------------------------------------------------------------------------
0	0.000000e+00	6.492985e-04	
1	-5.00000e-02	6.339524e-04	
2	-1.00000e-01	6.186806e-04	
3	-1.50000e-01	6.034829e-04	
4	-2.00000e-01	5.883588e-04	
5	-2.50000e-01	5.733080e-04	
6	-3.00000e-01	5.583300e-04	
7	-3.50000e-01	5.434245e-04	
8	-4.00000e-01	5.285911e-04	
9	-4.50000e-01	5.138295e-04	
10	-5.00000e-01	4.991393e-04	
11	-5.50000e-01	4.845201e-04	
12	-6.00000e-01	4.699716e-04	
13	-6.50000e-01	4.554935e-04	
14	-7.00000e-01	4.410854e-04	
15	-7.50000e-01	4.267470e-04	
16	-8.00000e-01	4.124782e-04	
17	-8.50000e-01	3.982784e-04	
18	-9.00000e-01	3.841477e-04	
19	-9.50000e-01	3.700856e-04	
20	-1.00000e+00	3.560922e-04	
21	-1.05000e+00	3.421671e-04	
22	-1.10000e+00	3.283105e-04	
23	-1.15000e+00	3.145223e-04	
24	-1.20000e+00	3.008026e-04	
25	-1.25000e+00	2.871518e-04	
26	-1.30000e+00	2.735704e-04	
27	-1.35000e+00	2.600590e-04	
28	-1.40000e+00	2.466188e-04	
29	-1.45000e+00	2.332515e-04	
30	-1.50000e+00	2.199594e-04	
31	-1.55000e+00	2.067461e-04	
32	-1.60000e+00	1.936166e-04	
33	-1.65000e+00	1.805785e-04	
34	-1.70000e+00	1.676431e-04	
35	-1.75000e+00	1.548273e-04	
36	-1.80000e+00	1.421573e-04	
37	-1.85000e+00	1.296732e-04	
38	-1.90000e+00	1.174371e-04	
39	-1.95000e+00	1.055440e-04	
40	-2.00000e+00	9.413297e-05	
41	-2.05000e+00	8.339408e-05	
42	-2.10000e+00	7.355363e-05	
43	-2.15000e+00	6.482596e-05	
44	-2.20000e+00	5.734129e-05	
45	-2.25000e+00	5.109619e-05	
46	-2.30000e+00	4.596645e-05	
47	-2.35000e+00	4.176621e-05	
48	-2.40000e+00	3.830590e-05	
49	-2.45000e+00	3.542331e-05	
50	-2.50000e+00	3.299112e-05	
51	-2.55000e+00	3.091306e-05	
52	-2.60000e+00	2.911706e-05	
53	-2.65000e+00	2.754891e-05	
54	-2.70000e+00	2.616739e-05	

Index   v-sweep         rds             
--------------------------------------------------------------------------------
55	-2.75000e+00	2.494065e-05	
56	-2.80000e+00	2.384379e-05	
57	-2.85000e+00	2.285699e-05	
58	-2.90000e+00	2.196436e-05	
59	-2.95000e+00	2.115292e-05	
60	-3.00000e+00	2.041201e-05	
61	-3.05000e+00	1.973277e-05	
62	-3.10000e+00	1.910778e-05	
63	-3.15000e+00	1.853077e-05	
64	-3.20000e+00	1.799641e-05	
65	-3.25000e+00	1.750013e-05	
66	-3.30000e+00	1.703799e-05	
67	-3.35000e+00	1.660659e-05	
68	-3.40000e+00	1.620296e-05	
69	-3.45000e+00	1.582450e-05	
70	-3.50000e+00	1.546893e-05	
71	-3.55000e+00	1.513424e-05	
72	-3.60000e+00	1.481864e-05	
73	-3.65000e+00	1.452055e-05	
74	-3.70000e+00	1.423855e-05	
75	-3.75000e+00	1.397138e-05	
76	-3.80000e+00	1.371790e-05	
77	-3.85000e+00	1.347708e-05	
78	-3.90000e+00	1.324801e-05	
79	-3.95000e+00	1.302985e-05	
80	-4.00000e+00	1.282183e-05	
81	-4.05000e+00	1.262327e-05	
82	-4.10000e+00	1.243354e-05	
83	-4.15000e+00	1.225207e-05	
84	-4.20000e+00	1.207832e-05	
85	-4.25000e+00	1.191183e-05	
86	-4.30000e+00	1.175214e-05	
87	-4.35000e+00	1.159885e-05	
88	-4.40000e+00	1.145158e-05	
89	-4.45000e+00	1.130999e-05	
90	-4.50000e+00	1.117375e-05	
91	-4.55000e+00	1.104258e-05	
92	-4.60000e+00	1.091619e-05	
93	-4.65000e+00	1.079432e-05	
94	-4.70000e+00	1.067675e-05	
95	-4.75000e+00	1.056325e-05	
96	-4.80000e+00	1.045360e-05	
97	-4.85000e+00	1.034763e-05	
98	-4.90000e+00	1.024515e-05	
99	-4.95000e+00	1.014599e-05	
100	-5.00000e+00	1.005000e-05	
101	-5.05000e+00	9.957022e-06	
102	-5.10000e+00	9.866922e-06	
103	-5.15000e+00	9.779570e-06	
104	-5.20000e+00	9.694844e-06	
105	-5.25000e+00	9.612628e-06	
106	-5.30000e+00	9.532815e-06	
107	-5.35000e+00	9.455302e-06	
108	-5.40000e+00	9.379994e-06	
109	-5.45000e+00	9.306799e-06	
110	-5.50000e+00	9.235632e-06	
111	-5.55000e+00	9.166413e-06	
112	-5.60000e+00	9.099064e-06	

Index   v-sweep         rds             
--------------------------------------------------------------------------------
113	-5.65000e+00	9.033513e-06	
114	-5.70000e+00	8.969693e-06	
115	-5.75000e+00	8.907537e-06	
116	-5.80000e+00	8.846986e-06	
117	-5.85000e+00	8.787980e-06	
118	-5.90000e+00	8.730465e-06	
119	-5.95000e+00	8.674389e-06	
120	-6.00000e+00	8.619700e-06	
121	-6.05000e+00	8.566354e-06	
122	-6.10000e+00	8.514304e-06	
123	-6.15000e+00	8.463509e-06	
124	-6.20000e+00	8.413927e-06	
125	-6.25000e+00	8.365521e-06	
126	-6.30000e+00	8.318253e-06	
127	-6.35000e+00	8.272090e-06	
128	-6.40000e+00	8.226997e-06	
129	-6.45000e+00	8.182943e-06	
130	-6.50000e+00	8.139899e-06	
131	-6.55000e+00	8.097835e-06	
132	-6.60000e+00	8.056724e-06	
Reset re-loads circuit ***************************

Circuit: ***************************

Doing analysis at TEMP = 25.000000 and TNOM = 25.000000


No. of Data Rows : 133
                          ***************************
                          DC transfer characteristic  Mon Jan  9 13:58:51  2023
--------------------------------------------------------------------------------
Index   v-sweep         rds             
--------------------------------------------------------------------------------
0	0.000000e+00	7.801373e-04	
1	-5.00000e-02	7.658103e-04	
2	-1.00000e-01	7.515472e-04	
3	-1.50000e-01	7.373474e-04	
4	-2.00000e-01	7.232109e-04	
5	-2.50000e-01	7.091372e-04	
6	-3.00000e-01	6.951260e-04	
7	-3.50000e-01	6.811770e-04	
8	-4.00000e-01	6.672899e-04	
9	-4.50000e-01	6.534645e-04	
10	-5.00000e-01	6.397003e-04	
11	-5.50000e-01	6.259972e-04	
12	-6.00000e-01	6.123547e-04	
13	-6.50000e-01	5.987727e-04	
14	-7.00000e-01	5.852508e-04	
15	-7.50000e-01	5.717887e-04	
16	-8.00000e-01	5.583862e-04	
17	-8.50000e-01	5.450430e-04	
18	-9.00000e-01	5.317587e-04	
19	-9.50000e-01	5.185332e-04	
20	-1.00000e+00	5.053662e-04	
21	-1.05000e+00	4.922573e-04	
22	-1.10000e+00	4.792064e-04	
23	-1.15000e+00	4.662133e-04	
24	-1.20000e+00	4.532776e-04	
25	-1.25000e+00	4.403992e-04	
26	-1.30000e+00	4.275778e-04	
27	-1.35000e+00	4.148133e-04	
28	-1.40000e+00	4.021055e-04	
29	-1.45000e+00	3.894542e-04	
30	-1.50000e+00	3.768594e-04	
31	-1.55000e+00	3.643208e-04	
32	-1.60000e+00	3.518386e-04	
33	-1.65000e+00	3.394125e-04	
34	-1.70000e+00	3.270429e-04	
35	-1.75000e+00	3.147297e-04	
36	-1.80000e+00	3.024732e-04	
37	-1.85000e+00	2.902738e-04	
38	-1.90000e+00	2.781320e-04	
39	-1.95000e+00	2.660488e-04	
40	-2.00000e+00	2.540251e-04	
41	-2.05000e+00	2.420625e-04	
42	-2.10000e+00	2.301632e-04	
43	-2.15000e+00	2.183302e-04	
44	-2.20000e+00	2.065677e-04	
45	-2.25000e+00	1.948816e-04	
46	-2.30000e+00	1.832802e-04	
47	-2.35000e+00	1.717757e-04	
48	-2.40000e+00	1.603857e-04	
49	-2.45000e+00	1.491357e-04	
50	-2.50000e+00	1.380631e-04	
51	-2.55000e+00	1.272222e-04	
52	-2.60000e+00	1.166898e-04	
53	-2.65000e+00	1.065694e-04	
54	-2.70000e+00	9.699038e-05	

Index   v-sweep         rds             
--------------------------------------------------------------------------------
55	-2.75000e+00	8.809464e-05	
56	-2.80000e+00	8.000952e-05	
57	-2.85000e+00	7.281529e-05	
58	-2.90000e+00	6.652488e-05	
59	-2.95000e+00	6.108767e-05	
60	-3.00000e+00	5.641189e-05	
61	-3.05000e+00	5.239037e-05	
62	-3.10000e+00	4.891887e-05	
63	-3.15000e+00	4.590526e-05	
64	-3.20000e+00	4.327207e-05	
65	-3.25000e+00	4.095584e-05	
66	-3.30000e+00	3.890510e-05	
67	-3.35000e+00	3.707818e-05	
68	-3.40000e+00	3.544130e-05	
69	-3.45000e+00	3.396687e-05	
70	-3.50000e+00	3.263228e-05	
71	-3.55000e+00	3.141880e-05	
72	-3.60000e+00	3.031088e-05	
73	-3.65000e+00	2.929547e-05	
74	-3.70000e+00	2.836155e-05	
75	-3.75000e+00	2.749977e-05	
76	-3.80000e+00	2.670216e-05	
77	-3.85000e+00	2.596186e-05	
78	-3.90000e+00	2.527295e-05	
79	-3.95000e+00	2.463029e-05	
80	-4.00000e+00	2.402941e-05	
81	-4.05000e+00	2.346638e-05	
82	-4.10000e+00	2.293776e-05	
83	-4.15000e+00	2.244051e-05	
84	-4.20000e+00	2.197192e-05	
85	-4.25000e+00	2.152960e-05	
86	-4.30000e+00	2.111142e-05	
87	-4.35000e+00	2.071547e-05	
88	-4.40000e+00	2.034001e-05	
89	-4.45000e+00	1.998352e-05	
90	-4.50000e+00	1.964460e-05	
91	-4.55000e+00	1.932198e-05	
92	-4.60000e+00	1.901453e-05	
93	-4.65000e+00	1.872120e-05	
94	-4.70000e+00	1.844105e-05	
95	-4.75000e+00	1.817321e-05	
96	-4.80000e+00	1.791690e-05	
97	-4.85000e+00	1.767138e-05	
98	-4.90000e+00	1.743600e-05	
99	-4.95000e+00	1.721015e-05	
100	-5.00000e+00	1.699325e-05	
101	-5.05000e+00	1.678479e-05	
102	-5.10000e+00	1.658429e-05	
103	-5.15000e+00	1.639131e-05	
104	-5.20000e+00	1.620543e-05	
105	-5.25000e+00	1.602626e-05	
106	-5.30000e+00	1.585347e-05	
107	-5.35000e+00	1.568670e-05	
108	-5.40000e+00	1.552566e-05	
109	-5.45000e+00	1.537006e-05	
110	-5.50000e+00	1.521962e-05	
111	-5.55000e+00	1.507410e-05	
112	-5.60000e+00	1.493327e-05	

Index   v-sweep         rds             
--------------------------------------------------------------------------------
113	-5.65000e+00	1.479689e-05	
114	-5.70000e+00	1.466477e-05	
115	-5.75000e+00	1.453672e-05	
116	-5.80000e+00	1.441254e-05	
117	-5.85000e+00	1.429207e-05	
118	-5.90000e+00	1.417514e-05	
119	-5.95000e+00	1.406161e-05	
120	-6.00000e+00	1.395134e-05	
121	-6.05000e+00	1.384418e-05	
122	-6.10000e+00	1.374001e-05	
123	-6.15000e+00	1.363871e-05	
124	-6.20000e+00	1.354017e-05	
125	-6.25000e+00	1.344428e-05	
126	-6.30000e+00	1.335093e-05	
127	-6.35000e+00	1.326004e-05	
128	-6.40000e+00	1.317151e-05	
129	-6.45000e+00	1.308525e-05	
130	-6.50000e+00	1.300119e-05	
131	-6.55000e+00	1.291924e-05	
132	-6.60000e+00	1.283934e-05	
Reset re-loads circuit ***************************

Circuit: ***************************

Doing analysis at TEMP = 25.000000 and TNOM = 25.000000


No. of Data Rows : 133
                          ***************************
                          DC transfer characteristic  Mon Jan  9 13:58:51  2023
--------------------------------------------------------------------------------
Index   v-sweep         rds             
--------------------------------------------------------------------------------
0	0.000000e+00	8.872238e-04	
1	-5.00000e-02	8.738217e-04	
2	-1.00000e-01	8.604749e-04	
3	-1.50000e-01	8.471831e-04	
4	-2.00000e-01	8.339462e-04	
5	-2.50000e-01	8.207638e-04	
6	-3.00000e-01	8.076357e-04	
7	-3.50000e-01	7.945617e-04	
8	-4.00000e-01	7.815414e-04	
9	-4.50000e-01	7.685747e-04	
10	-5.00000e-01	7.556612e-04	
11	-5.50000e-01	7.428008e-04	
12	-6.00000e-01	7.299932e-04	
13	-6.50000e-01	7.172382e-04	
14	-7.00000e-01	7.045354e-04	
15	-7.50000e-01	6.918848e-04	
16	-8.00000e-01	6.792859e-04	
17	-8.50000e-01	6.667387e-04	
18	-9.00000e-01	6.542428e-04	
19	-9.50000e-01	6.417980e-04	
20	-1.00000e+00	6.294041e-04	
21	-1.05000e+00	6.170609e-04	
22	-1.10000e+00	6.047681e-04	
23	-1.15000e+00	5.925255e-04	
24	-1.20000e+00	5.803329e-04	
25	-1.25000e+00	5.681901e-04	
26	-1.30000e+00	5.560969e-04	
27	-1.35000e+00	5.440530e-04	
28	-1.40000e+00	5.320583e-04	
29	-1.45000e+00	5.201125e-04	
30	-1.50000e+00	5.082154e-04	
31	-1.55000e+00	4.963669e-04	
32	-1.60000e+00	4.845668e-04	
33	-1.65000e+00	4.728148e-04	
34	-1.70000e+00	4.611109e-04	
35	-1.75000e+00	4.494548e-04	
36	-1.80000e+00	4.378464e-04	
37	-1.85000e+00	4.262855e-04	
38	-1.90000e+00	4.147721e-04	
39	-1.95000e+00	4.033060e-04	
40	-2.00000e+00	3.918871e-04	
41	-2.05000e+00	3.805153e-04	
42	-2.10000e+00	3.691906e-04	
43	-2.15000e+00	3.579130e-04	
44	-2.20000e+00	3.466825e-04	
45	-2.25000e+00	3.354992e-04	
46	-2.30000e+00	3.243632e-04	
47	-2.35000e+00	3.132747e-04	
48	-2.40000e+00	3.022341e-04	
49	-2.45000e+00	2.912418e-04	
50	-2.50000e+00	2.802983e-04	
51	-2.55000e+00	2.694045e-04	
52	-2.60000e+00	2.585614e-04	
53	-2.65000e+00	2.477705e-04	
54	-2.70000e+00	2.370336e-04	

Index   v-sweep         rds             
--------------------------------------------------------------------------------
55	-2.75000e+00	2.263533e-04	
56	-2.80000e+00	2.157330e-04	
57	-2.85000e+00	2.051775e-04	
58	-2.90000e+00	1.946931e-04	
59	-2.95000e+00	1.842886e-04	
60	-3.00000e+00	1.739763e-04	
61	-3.05000e+00	1.637735e-04	
62	-3.10000e+00	1.537043e-04	
63	-3.15000e+00	1.438023e-04	
64	-3.20000e+00	1.341139e-04	
65	-3.25000e+00	1.247007e-04	
66	-3.30000e+00	1.156408e-04	
67	-3.35000e+00	1.070255e-04	
68	-3.40000e+00	9.894908e-05	
69	-3.45000e+00	9.149369e-05	
70	-3.50000e+00	8.471283e-05	
71	-3.55000e+00	7.862213e-05	
72	-3.60000e+00	7.320063e-05	
73	-3.65000e+00	6.840038e-05	
74	-3.70000e+00	6.415876e-05	
75	-3.75000e+00	6.040877e-05	
76	-3.80000e+00	5.708587e-05	
77	-3.85000e+00	5.413152e-05	
78	-3.90000e+00	5.149440e-05	
79	-3.95000e+00	4.913049e-05	
80	-4.00000e+00	4.700239e-05	
81	-4.05000e+00	4.507850e-05	
82	-4.10000e+00	4.333217e-05	
83	-4.15000e+00	4.174087e-05	
84	-4.20000e+00	4.028553e-05	
85	-4.25000e+00	3.894996e-05	
86	-4.30000e+00	3.772032e-05	
87	-4.35000e+00	3.658477e-05	
88	-4.40000e+00	3.553313e-05	
89	-4.45000e+00	3.455660e-05	
90	-4.50000e+00	3.364753e-05	
91	-4.55000e+00	3.279926e-05	
92	-4.60000e+00	3.200599e-05	
93	-4.65000e+00	3.126259e-05	
94	-4.70000e+00	3.056456e-05	
95	-4.75000e+00	2.990791e-05	
96	-4.80000e+00	2.928911e-05	
97	-4.85000e+00	2.870501e-05	
98	-4.90000e+00	2.815279e-05	
99	-4.95000e+00	2.762994e-05	
100	-5.00000e+00	2.713420e-05	
101	-5.05000e+00	2.666352e-05	
102	-5.10000e+00	2.621608e-05	
103	-5.15000e+00	2.579019e-05	
104	-5.20000e+00	2.538436e-05	
105	-5.25000e+00	2.499721e-05	
106	-5.30000e+00	2.462749e-05	
107	-5.35000e+00	2.427405e-05	
108	-5.40000e+00	2.393585e-05	
109	-5.45000e+00	2.361193e-05	
110	-5.50000e+00	2.330142e-05	
111	-5.55000e+00	2.300350e-05	
112	-5.60000e+00	2.271742e-05	

Index   v-sweep         rds             
--------------------------------------------------------------------------------
113	-5.65000e+00	2.244251e-05	
114	-5.70000e+00	2.217812e-05	
115	-5.75000e+00	2.192366e-05	
116	-5.80000e+00	2.167859e-05	
117	-5.85000e+00	2.144240e-05	
118	-5.90000e+00	2.121462e-05	
119	-5.95000e+00	2.099482e-05	
120	-6.00000e+00	2.078258e-05	
121	-6.05000e+00	2.057752e-05	
122	-6.10000e+00	2.037929e-05	
123	-6.15000e+00	2.018756e-05	
124	-6.20000e+00	2.000201e-05	
125	-6.25000e+00	1.982236e-05	
126	-6.30000e+00	1.964832e-05	
127	-6.35000e+00	1.947965e-05	
128	-6.40000e+00	1.931610e-05	
129	-6.45000e+00	1.915745e-05	
130	-6.50000e+00	1.900348e-05	
131	-6.55000e+00	1.885399e-05	
132	-6.60000e+00	1.870879e-05	
Reset re-loads circuit ***************************

Circuit: ***************************

Note: No ".plot", ".print", or ".fourier" lines; no simulations run
