
*****
***** Welcome to the Xyce(TM) Parallel Electronic Simulator
*****
***** This is version Xyce Release 7.6-opensource
***** Date: Thu Jan 19 17:20:41 EET 2023


***** Executing netlist mos_cv_regr/nfet_03v3/nfet_03v3_netlists_Cgc/netlist_w100_l10.0.spice

***** Reading and parsing netlist...
Netlist warning in file ../../../sm141064.xyce at or near line 3749
 Device model NFET_03V3.14: Given pbswgd is less than 0.1. Pbswgd is set to
 0.1
***** Setting up topology...

***** Device Count Summary ...
       M level 14 (BSIM4)                     1
       V level 1 (Independent Voltage Source) 2
       ----------------------------------------
       Total Devices                          3
***** Setting up matrix structure...
***** Number of Unknowns = 4
***** Initializing...

Netlist warning: Linear DC or STEP parameters for sweep over TEMP would result
 in no steps taken.  Check sign of step value to assure stop value can be
 reached from start value.  Start=25 Stop=-60 step=200.  Only a single
 computation will be done at the start value.

***** Solution Summary *****
	Number Successful Steps Taken:		335
	Number Failed Steps Attempted:		0
	Number Jacobians Evaluated:		677
	Number Linear Solves:			677
	Number Failed Linear Solves:		0
	Number Residual Evaluations:		1013
	Number Nonlinear Convergence Failures:	0
	Total Residual Load Time:		0.00291204 seconds
	Total Jacobian Load Time:		0.000629663 seconds
	Total Linear Solution Time:		0.0018816 seconds


***** Total Simulation Solvers Run Time: 0.0152421 seconds
***** Total Elapsed Run Time:            0.207087 seconds
*****
***** End of Xyce(TM) Simulation
*****

Timing summary of 1 processor
                 Stats                   Count       CPU Time              Wall Time
---------------------------------------- ----- --------------------- ---------------------
Xyce                                         1        0.226 (100.0%)        0.787 (100.0%)
  Analysis                                   1        0.015 ( 6.69%)        0.015 ( 1.93%)
    Step                                     1        0.015 ( 6.69%)        0.015 ( 1.93%)
      DC Sweep                               1        0.015 ( 6.64%)        0.015 ( 1.92%)
        Solve                              335        0.012 ( 5.17%)        0.012 ( 1.50%)
          Residual                        1013        0.003 ( 1.44%)        0.003 ( 0.41%)
          Jacobian                         677        0.001 ( 0.38%)        0.001 ( 0.11%)
          Linear Solve                     677        0.002 ( 0.92%)        0.002 ( 0.27%)
        Successful Step                    335        0.002 ( 0.94%)        0.002 ( 0.27%)
  Netlist Import                             1        0.186 (82.60%)        0.190 (24.19%)
    Parse Context                            1        0.145 (64.40%)        0.145 (18.48%)
    Distribute Devices                       1        0.040 (17.84%)        0.044 ( 5.60%)
    Verify Devices                           1        0.000 (<0.01%)        0.000 (<0.01%)
    Instantiate                              1        0.000 ( 0.05%)        0.000 ( 0.01%)
  Late Initialization                        1        0.001 ( 0.34%)        0.001 ( 0.11%)
    Global Indices                           1        0.000 ( 0.02%)        0.000 (<0.01%)
  Setup Matrix Structure                     1        0.000 ( 0.06%)        0.000 ( 0.02%)

