
Note: Compatibility modes selected: hs

Warning: m=xx on .subckt line will override multiplier m hierarchy!


Circuit: ***************************

Doing analysis at TEMP = 25.000000 and TNOM = 25.000000


No. of Data Rows : 133
                          ***************************
                          DC transfer characteristic  Mon Jan  9 13:57:54  2023
--------------------------------------------------------------------------------
Index   v-sweep         rds             
--------------------------------------------------------------------------------
0	0.000000e+00	3.581712e+05	
1	-5.00000e-02	6.560079e+05	
2	-1.00000e-01	1.954878e+06	
3	-1.50000e-01	9.307350e+06	
4	-2.00000e-01	3.516969e+07	
5	-2.50000e-01	8.797799e+07	
6	-3.00000e-01	1.618436e+08	
7	-3.50000e-01	2.423935e+08	
8	-4.00000e-01	3.179007e+08	
9	-4.50000e-01	3.832276e+08	
10	-5.00000e-01	4.378554e+08	
11	-5.50000e-01	4.831990e+08	
12	-6.00000e-01	5.210748e+08	
13	-6.50000e-01	5.531072e+08	
14	-7.00000e-01	5.805885e+08	
15	-7.50000e-01	6.045006e+08	
16	-8.00000e-01	6.255792e+08	
17	-8.50000e-01	6.443750e+08	
18	-9.00000e-01	6.613039e+08	
19	-9.50000e-01	6.766832e+08	
20	-1.00000e+00	6.907587e+08	
21	-1.05000e+00	7.037229e+08	
22	-1.10000e+00	7.157290e+08	
23	-1.15000e+00	7.269005e+08	
24	-1.20000e+00	7.373382e+08	
25	-1.25000e+00	7.471255e+08	
26	-1.30000e+00	7.563319e+08	
27	-1.35000e+00	7.650162e+08	
28	-1.40000e+00	7.732285e+08	
29	-1.45000e+00	7.810118e+08	
30	-1.50000e+00	7.884033e+08	
31	-1.55000e+00	7.954357e+08	
32	-1.60000e+00	8.021375e+08	
33	-1.65000e+00	8.085340e+08	
34	-1.70000e+00	8.146476e+08	
35	-1.75000e+00	8.204984e+08	
36	-1.80000e+00	8.261045e+08	
37	-1.85000e+00	8.314821e+08	
38	-1.90000e+00	8.366458e+08	
39	-1.95000e+00	8.416091e+08	
40	-2.00000e+00	8.463841e+08	
41	-2.05000e+00	8.509819e+08	
42	-2.10000e+00	8.554127e+08	
43	-2.15000e+00	8.596860e+08	
44	-2.20000e+00	8.638102e+08	
45	-2.25000e+00	8.677934e+08	
46	-2.30000e+00	8.716430e+08	
47	-2.35000e+00	8.753658e+08	
48	-2.40000e+00	8.789682e+08	
49	-2.45000e+00	8.824560e+08	
50	-2.50000e+00	8.858349e+08	
51	-2.55000e+00	8.891099e+08	
52	-2.60000e+00	8.922860e+08	
53	-2.65000e+00	8.953675e+08	
54	-2.70000e+00	8.983587e+08	

Index   v-sweep         rds             
--------------------------------------------------------------------------------
55	-2.75000e+00	9.012637e+08	
56	-2.80000e+00	9.040860e+08	
57	-2.85000e+00	9.068293e+08	
58	-2.90000e+00	9.094969e+08	
59	-2.95000e+00	9.120918e+08	
60	-3.00000e+00	9.146170e+08	
61	-3.05000e+00	9.170754e+08	
62	-3.10000e+00	9.194694e+08	
63	-3.15000e+00	9.218017e+08	
64	-3.20000e+00	9.240745e+08	
65	-3.25000e+00	9.262901e+08	
66	-3.30000e+00	9.284507e+08	
67	-3.35000e+00	9.305582e+08	
68	-3.40000e+00	9.326145e+08	
69	-3.45000e+00	9.346215e+08	
70	-3.50000e+00	9.365809e+08	
71	-3.55000e+00	9.384942e+08	
72	-3.60000e+00	9.403632e+08	
73	-3.65000e+00	9.421892e+08	
74	-3.70000e+00	9.439736e+08	
75	-3.75000e+00	9.457180e+08	
76	-3.80000e+00	9.474234e+08	
77	-3.85000e+00	9.490911e+08	
78	-3.90000e+00	9.507224e+08	
79	-3.95000e+00	9.523182e+08	
80	-4.00000e+00	9.538798e+08	
81	-4.05000e+00	9.554081e+08	
82	-4.10000e+00	9.569041e+08	
83	-4.15000e+00	9.583686e+08	
84	-4.20000e+00	9.598027e+08	
85	-4.25000e+00	9.612072e+08	
86	-4.30000e+00	9.625828e+08	
87	-4.35000e+00	9.639304e+08	
88	-4.40000e+00	9.652507e+08	
89	-4.45000e+00	9.665444e+08	
90	-4.50000e+00	9.678122e+08	
91	-4.55000e+00	9.690547e+08	
92	-4.60000e+00	9.702727e+08	
93	-4.65000e+00	9.714667e+08	
94	-4.70000e+00	9.726372e+08	
95	-4.75000e+00	9.737849e+08	
96	-4.80000e+00	9.749102e+08	
97	-4.85000e+00	9.760138e+08	
98	-4.90000e+00	9.770960e+08	
99	-4.95000e+00	9.781574e+08	
100	-5.00000e+00	9.791983e+08	
101	-5.05000e+00	9.802194e+08	
102	-5.10000e+00	9.812209e+08	
103	-5.15000e+00	9.822033e+08	
104	-5.20000e+00	9.831669e+08	
105	-5.25000e+00	9.841122e+08	
106	-5.30000e+00	9.850395e+08	
107	-5.35000e+00	9.859492e+08	
108	-5.40000e+00	9.868416e+08	
109	-5.45000e+00	9.877170e+08	
110	-5.50000e+00	9.885757e+08	
111	-5.55000e+00	9.894181e+08	
112	-5.60000e+00	9.902445e+08	

Index   v-sweep         rds             
--------------------------------------------------------------------------------
113	-5.65000e+00	9.910551e+08	
114	-5.70000e+00	9.918502e+08	
115	-5.75000e+00	9.926300e+08	
116	-5.80000e+00	9.933949e+08	
117	-5.85000e+00	9.941451e+08	
118	-5.90000e+00	9.948808e+08	
119	-5.95000e+00	9.956022e+08	
120	-6.00000e+00	9.963097e+08	
121	-6.05000e+00	9.970033e+08	
122	-6.10000e+00	9.976834e+08	
123	-6.15000e+00	9.983501e+08	
124	-6.20000e+00	9.990036e+08	
125	-6.25000e+00	9.996442e+08	
126	-6.30000e+00	1.000272e+09	
127	-6.35000e+00	1.000887e+09	
128	-6.40000e+00	1.001490e+09	
129	-6.45000e+00	1.002081e+09	
130	-6.50000e+00	1.002659e+09	
131	-6.55000e+00	1.003226e+09	
132	-6.60000e+00	1.003781e+09	
Reset re-loads circuit ***************************

Circuit: ***************************

Doing analysis at TEMP = 25.000000 and TNOM = 25.000000


No. of Data Rows : 133
                          ***************************
                          DC transfer characteristic  Mon Jan  9 13:57:54  2023
--------------------------------------------------------------------------------
Index   v-sweep         rds             
--------------------------------------------------------------------------------
0	0.000000e+00	3.804251e+04	
1	-5.00000e-02	4.060239e+04	
2	-1.00000e-01	4.352918e+04	
3	-1.50000e-01	4.690762e+04	
4	-2.00000e-01	5.085062e+04	
5	-2.50000e-01	5.551186e+04	
6	-3.00000e-01	6.110591e+04	
7	-3.50000e-01	6.794113e+04	
8	-4.00000e-01	7.647625e+04	
9	-4.50000e-01	8.742179e+04	
10	-5.00000e-01	1.019324e+05	
11	-5.50000e-01	1.219934e+05	
12	-6.00000e-01	1.512465e+05	
13	-6.50000e-01	1.968454e+05	
14	-7.00000e-01	2.736848e+05	
15	-7.50000e-01	4.131780e+05	
16	-8.00000e-01	6.756502e+05	
17	-8.50000e-01	1.148663e+06	
18	-9.00000e-01	1.899483e+06	
19	-9.50000e-01	2.903857e+06	
20	-1.00000e+00	4.041409e+06	
21	-1.05000e+00	5.171525e+06	
22	-1.10000e+00	6.200745e+06	
23	-1.15000e+00	7.093673e+06	
24	-1.20000e+00	7.852230e+06	
25	-1.25000e+00	8.494136e+06	
26	-1.30000e+00	9.040386e+06	
27	-1.35000e+00	9.509978e+06	
28	-1.40000e+00	9.918447e+06	
29	-1.45000e+00	1.027795e+07	
30	-1.50000e+00	1.059786e+07	
31	-1.55000e+00	1.088535e+07	
32	-1.60000e+00	1.114597e+07	
33	-1.65000e+00	1.138404e+07	
34	-1.70000e+00	1.160293e+07	
35	-1.75000e+00	1.180533e+07	
36	-1.80000e+00	1.199343e+07	
37	-1.85000e+00	1.216899e+07	
38	-1.90000e+00	1.233345e+07	
39	-1.95000e+00	1.248803e+07	
40	-2.00000e+00	1.263376e+07	
41	-2.05000e+00	1.277149e+07	
42	-2.10000e+00	1.290196e+07	
43	-2.15000e+00	1.302583e+07	
44	-2.20000e+00	1.314364e+07	
45	-2.25000e+00	1.325589e+07	
46	-2.30000e+00	1.336300e+07	
47	-2.35000e+00	1.346536e+07	
48	-2.40000e+00	1.356331e+07	
49	-2.45000e+00	1.365716e+07	
50	-2.50000e+00	1.374717e+07	
51	-2.55000e+00	1.383360e+07	
52	-2.60000e+00	1.391667e+07	
53	-2.65000e+00	1.399659e+07	
54	-2.70000e+00	1.407355e+07	

Index   v-sweep         rds             
--------------------------------------------------------------------------------
55	-2.75000e+00	1.414771e+07	
56	-2.80000e+00	1.421923e+07	
57	-2.85000e+00	1.428827e+07	
58	-2.90000e+00	1.435495e+07	
59	-2.95000e+00	1.441939e+07	
60	-3.00000e+00	1.448171e+07	
61	-3.05000e+00	1.454203e+07	
62	-3.10000e+00	1.460043e+07	
63	-3.15000e+00	1.465701e+07	
64	-3.20000e+00	1.471185e+07	
65	-3.25000e+00	1.476504e+07	
66	-3.30000e+00	1.481665e+07	
67	-3.35000e+00	1.486676e+07	
68	-3.40000e+00	1.491542e+07	
69	-3.45000e+00	1.496271e+07	
70	-3.50000e+00	1.500867e+07	
71	-3.55000e+00	1.505338e+07	
72	-3.60000e+00	1.509686e+07	
73	-3.65000e+00	1.513919e+07	
74	-3.70000e+00	1.518040e+07	
75	-3.75000e+00	1.522053e+07	
76	-3.80000e+00	1.525964e+07	
77	-3.85000e+00	1.529775e+07	
78	-3.90000e+00	1.533491e+07	
79	-3.95000e+00	1.537115e+07	
80	-4.00000e+00	1.540650e+07	
81	-4.05000e+00	1.544100e+07	
82	-4.10000e+00	1.547468e+07	
83	-4.15000e+00	1.550756e+07	
84	-4.20000e+00	1.553967e+07	
85	-4.25000e+00	1.557105e+07	
86	-4.30000e+00	1.560170e+07	
87	-4.35000e+00	1.563167e+07	
88	-4.40000e+00	1.566096e+07	
89	-4.45000e+00	1.568960e+07	
90	-4.50000e+00	1.571762e+07	
91	-4.55000e+00	1.574503e+07	
92	-4.60000e+00	1.577185e+07	
93	-4.65000e+00	1.579809e+07	
94	-4.70000e+00	1.582378e+07	
95	-4.75000e+00	1.584893e+07	
96	-4.80000e+00	1.587356e+07	
97	-4.85000e+00	1.589768e+07	
98	-4.90000e+00	1.592131e+07	
99	-4.95000e+00	1.594445e+07	
100	-5.00000e+00	1.596713e+07	
101	-5.05000e+00	1.598935e+07	
102	-5.10000e+00	1.601113e+07	
103	-5.15000e+00	1.603248e+07	
104	-5.20000e+00	1.605340e+07	
105	-5.25000e+00	1.607392e+07	
106	-5.30000e+00	1.609403e+07	
107	-5.35000e+00	1.611376e+07	
108	-5.40000e+00	1.613310e+07	
109	-5.45000e+00	1.615208e+07	
110	-5.50000e+00	1.617068e+07	
111	-5.55000e+00	1.618894e+07	
112	-5.60000e+00	1.620684e+07	

Index   v-sweep         rds             
--------------------------------------------------------------------------------
113	-5.65000e+00	1.622441e+07	
114	-5.70000e+00	1.624164e+07	
115	-5.75000e+00	1.625855e+07	
116	-5.80000e+00	1.627514e+07	
117	-5.85000e+00	1.629141e+07	
118	-5.90000e+00	1.630738e+07	
119	-5.95000e+00	1.632306e+07	
120	-6.00000e+00	1.633843e+07	
121	-6.05000e+00	1.635352e+07	
122	-6.10000e+00	1.636832e+07	
123	-6.15000e+00	1.638285e+07	
124	-6.20000e+00	1.639711e+07	
125	-6.25000e+00	1.641109e+07	
126	-6.30000e+00	1.642482e+07	
127	-6.35000e+00	1.643828e+07	
128	-6.40000e+00	1.645149e+07	
129	-6.45000e+00	1.646445e+07	
130	-6.50000e+00	1.647717e+07	
131	-6.55000e+00	1.648964e+07	
132	-6.60000e+00	1.650188e+07	
Reset re-loads circuit ***************************

Circuit: ***************************

Doing analysis at TEMP = 25.000000 and TNOM = 25.000000


No. of Data Rows : 133
                          ***************************
                          DC transfer characteristic  Mon Jan  9 13:57:54  2023
--------------------------------------------------------------------------------
Index   v-sweep         rds             
--------------------------------------------------------------------------------
0	0.000000e+00	2.174924e+04	
1	-5.00000e-02	2.249833e+04	
2	-1.00000e-01	2.330037e+04	
3	-1.50000e-01	2.416116e+04	
4	-2.00000e-01	2.508740e+04	
5	-2.50000e-01	2.608684e+04	
6	-3.00000e-01	2.716851e+04	
7	-3.50000e-01	2.834299e+04	
8	-4.00000e-01	2.962272e+04	
9	-4.50000e-01	3.102251e+04	
10	-5.00000e-01	3.256003e+04	
11	-5.50000e-01	3.425664e+04	
12	-6.00000e-01	3.613828e+04	
13	-6.50000e-01	3.823687e+04	
14	-7.00000e-01	4.059207e+04	
15	-7.50000e-01	4.325375e+04	
16	-8.00000e-01	4.628551e+04	
17	-8.50000e-01	4.976962e+04	
18	-9.00000e-01	5.381440e+04	
19	-9.50000e-01	5.856510e+04	
20	-1.00000e+00	6.422069e+04	
21	-1.05000e+00	7.106034e+04	
22	-1.10000e+00	7.948634e+04	
23	-1.15000e+00	9.009584e+04	
24	-1.20000e+00	1.038041e+05	
25	-1.25000e+00	1.220613e+05	
26	-1.30000e+00	1.472358e+05	
27	-1.35000e+00	1.832767e+05	
28	-1.40000e+00	2.367437e+05	
29	-1.45000e+00	3.179785e+05	
30	-1.50000e+00	4.411257e+05	
31	-1.55000e+00	6.202602e+05	
32	-1.60000e+00	8.603804e+05	
33	-1.65000e+00	1.149354e+06	
34	-1.70000e+00	1.460647e+06	
35	-1.75000e+00	1.765902e+06	
36	-1.80000e+00	2.045670e+06	
37	-1.85000e+00	2.291711e+06	
38	-1.90000e+00	2.503754e+06	
39	-1.95000e+00	2.685440e+06	
40	-2.00000e+00	2.841586e+06	
41	-2.05000e+00	2.976829e+06	
42	-2.10000e+00	3.095127e+06	
43	-2.15000e+00	3.199676e+06	
44	-2.20000e+00	3.293000e+06	
45	-2.25000e+00	3.377070e+06	
46	-2.30000e+00	3.453427e+06	
47	-2.35000e+00	3.523282e+06	
48	-2.40000e+00	3.587593e+06	
49	-2.45000e+00	3.647130e+06	
50	-2.50000e+00	3.702512e+06	
51	-2.55000e+00	3.754246e+06	
52	-2.60000e+00	3.802752e+06	
53	-2.65000e+00	3.848379e+06	
54	-2.70000e+00	3.891421e+06	

Index   v-sweep         rds             
--------------------------------------------------------------------------------
55	-2.75000e+00	3.932129e+06	
56	-2.80000e+00	3.970717e+06	
57	-2.85000e+00	4.007372e+06	
58	-2.90000e+00	4.042255e+06	
59	-2.95000e+00	4.075508e+06	
60	-3.00000e+00	4.107257e+06	
61	-3.05000e+00	4.137611e+06	
62	-3.10000e+00	4.166671e+06	
63	-3.15000e+00	4.194525e+06	
64	-3.20000e+00	4.221254e+06	
65	-3.25000e+00	4.246929e+06	
66	-3.30000e+00	4.271616e+06	
67	-3.35000e+00	4.295376e+06	
68	-3.40000e+00	4.318262e+06	
69	-3.45000e+00	4.340325e+06	
70	-3.50000e+00	4.361611e+06	
71	-3.55000e+00	4.382161e+06	
72	-3.60000e+00	4.402017e+06	
73	-3.65000e+00	4.421212e+06	
74	-3.70000e+00	4.439782e+06	
75	-3.75000e+00	4.457758e+06	
76	-3.80000e+00	4.475167e+06	
77	-3.85000e+00	4.492039e+06	
78	-3.90000e+00	4.508397e+06	
79	-3.95000e+00	4.524265e+06	
80	-4.00000e+00	4.539667e+06	
81	-4.05000e+00	4.554621e+06	
82	-4.10000e+00	4.569149e+06	
83	-4.15000e+00	4.583268e+06	
84	-4.20000e+00	4.596996e+06	
85	-4.25000e+00	4.610348e+06	
86	-4.30000e+00	4.623341e+06	
87	-4.35000e+00	4.635989e+06	
88	-4.40000e+00	4.648305e+06	
89	-4.45000e+00	4.660303e+06	
90	-4.50000e+00	4.671994e+06	
91	-4.55000e+00	4.683390e+06	
92	-4.60000e+00	4.694503e+06	
93	-4.65000e+00	4.705343e+06	
94	-4.70000e+00	4.715919e+06	
95	-4.75000e+00	4.726242e+06	
96	-4.80000e+00	4.736319e+06	
97	-4.85000e+00	4.746160e+06	
98	-4.90000e+00	4.755773e+06	
99	-4.95000e+00	4.765165e+06	
100	-5.00000e+00	4.774344e+06	
101	-5.05000e+00	4.783316e+06	
102	-5.10000e+00	4.792089e+06	
103	-5.15000e+00	4.800669e+06	
104	-5.20000e+00	4.809061e+06	
105	-5.25000e+00	4.817272e+06	
106	-5.30000e+00	4.825307e+06	
107	-5.35000e+00	4.833172e+06	
108	-5.40000e+00	4.840870e+06	
109	-5.45000e+00	4.848409e+06	
110	-5.50000e+00	4.855791e+06	
111	-5.55000e+00	4.863021e+06	
112	-5.60000e+00	4.870104e+06	

Index   v-sweep         rds             
--------------------------------------------------------------------------------
113	-5.65000e+00	4.877044e+06	
114	-5.70000e+00	4.883843e+06	
115	-5.75000e+00	4.890507e+06	
116	-5.80000e+00	4.897039e+06	
117	-5.85000e+00	4.903442e+06	
118	-5.90000e+00	4.909719e+06	
119	-5.95000e+00	4.915873e+06	
120	-6.00000e+00	4.921908e+06	
121	-6.05000e+00	4.927826e+06	
122	-6.10000e+00	4.933630e+06	
123	-6.15000e+00	4.939323e+06	
124	-6.20000e+00	4.944907e+06	
125	-6.25000e+00	4.950385e+06	
126	-6.30000e+00	4.955759e+06	
127	-6.35000e+00	4.961031e+06	
128	-6.40000e+00	4.966204e+06	
129	-6.45000e+00	4.971279e+06	
130	-6.50000e+00	4.976259e+06	
131	-6.55000e+00	4.981145e+06	
132	-6.60000e+00	4.985940e+06	
Reset re-loads circuit ***************************

Circuit: ***************************

Doing analysis at TEMP = 25.000000 and TNOM = 25.000000


No. of Data Rows : 133
                          ***************************
                          DC transfer characteristic  Mon Jan  9 13:57:54  2023
--------------------------------------------------------------------------------
Index   v-sweep         rds             
--------------------------------------------------------------------------------
0	0.000000e+00	1.604028e+04	
1	-5.00000e-02	1.640921e+04	
2	-1.00000e-01	1.679528e+04	
3	-1.50000e-01	1.719974e+04	
4	-2.00000e-01	1.762391e+04	
5	-2.50000e-01	1.806928e+04	
6	-3.00000e-01	1.853747e+04	
7	-3.50000e-01	1.903029e+04	
8	-4.00000e-01	1.954972e+04	
9	-4.50000e-01	2.009799e+04	
10	-5.00000e-01	2.067757e+04	
11	-5.50000e-01	2.129120e+04	
12	-6.00000e-01	2.194198e+04	
13	-6.50000e-01	2.263339e+04	
14	-7.00000e-01	2.336935e+04	
15	-7.50000e-01	2.415430e+04	
16	-8.00000e-01	2.499330e+04	
17	-8.50000e-01	2.589211e+04	
18	-9.00000e-01	2.685737e+04	
19	-9.50000e-01	2.789671e+04	
20	-1.00000e+00	2.901898e+04	
21	-1.05000e+00	3.023448e+04	
22	-1.10000e+00	3.155532e+04	
23	-1.15000e+00	3.299575e+04	
24	-1.20000e+00	3.457272e+04	
25	-1.25000e+00	3.630652e+04	
26	-1.30000e+00	3.822163e+04	
27	-1.35000e+00	4.034789e+04	
28	-1.40000e+00	4.272195e+04	
29	-1.45000e+00	4.538939e+04	
30	-1.50000e+00	4.840753e+04	
31	-1.55000e+00	5.184935e+04	
32	-1.60000e+00	5.580912e+04	
33	-1.65000e+00	6.041048e+04	
34	-1.70000e+00	6.581837e+04	
35	-1.75000e+00	7.225676e+04	
36	-1.80000e+00	8.003587e+04	
37	-1.85000e+00	8.959393e+04	
38	-1.90000e+00	1.015625e+05	
39	-1.95000e+00	1.168674e+05	
40	-2.00000e+00	1.368818e+05	
41	-2.05000e+00	1.636385e+05	
42	-2.10000e+00	2.000720e+05	
43	-2.15000e+00	2.501362e+05	
44	-2.20000e+00	3.184213e+05	
45	-2.25000e+00	4.087488e+05	
46	-2.30000e+00	5.217501e+05	
47	-2.35000e+00	6.528787e+05	
48	-2.40000e+00	7.930219e+05	
49	-2.45000e+00	9.318513e+05	
50	-2.50000e+00	1.061358e+06	
51	-2.55000e+00	1.177314e+06	
52	-2.60000e+00	1.278725e+06	
53	-2.65000e+00	1.366539e+06	
54	-2.70000e+00	1.442526e+06	

Index   v-sweep         rds             
--------------------------------------------------------------------------------
55	-2.75000e+00	1.508604e+06	
56	-2.80000e+00	1.566520e+06	
57	-2.85000e+00	1.617748e+06	
58	-2.90000e+00	1.663480e+06	
59	-2.95000e+00	1.704667e+06	
60	-3.00000e+00	1.742060e+06	
61	-3.05000e+00	1.776255e+06	
62	-3.10000e+00	1.807724e+06	
63	-3.15000e+00	1.836847e+06	
64	-3.20000e+00	1.863933e+06	
65	-3.25000e+00	1.889231e+06	
66	-3.30000e+00	1.912949e+06	
67	-3.35000e+00	1.935259e+06	
68	-3.40000e+00	1.956307e+06	
69	-3.45000e+00	1.976216e+06	
70	-3.50000e+00	1.995091e+06	
71	-3.55000e+00	2.013023e+06	
72	-3.60000e+00	2.030091e+06	
73	-3.65000e+00	2.046366e+06	
74	-3.70000e+00	2.061907e+06	
75	-3.75000e+00	2.076769e+06	
76	-3.80000e+00	2.091001e+06	
77	-3.85000e+00	2.104645e+06	
78	-3.90000e+00	2.117741e+06	
79	-3.95000e+00	2.130324e+06	
80	-4.00000e+00	2.142425e+06	
81	-4.05000e+00	2.154074e+06	
82	-4.10000e+00	2.165297e+06	
83	-4.15000e+00	2.176118e+06	
84	-4.20000e+00	2.186561e+06	
85	-4.25000e+00	2.196645e+06	
86	-4.30000e+00	2.206390e+06	
87	-4.35000e+00	2.215812e+06	
88	-4.40000e+00	2.224929e+06	
89	-4.45000e+00	2.233756e+06	
90	-4.50000e+00	2.242306e+06	
91	-4.55000e+00	2.250594e+06	
92	-4.60000e+00	2.258630e+06	
93	-4.65000e+00	2.266427e+06	
94	-4.70000e+00	2.273996e+06	
95	-4.75000e+00	2.281346e+06	
96	-4.80000e+00	2.288488e+06	
97	-4.85000e+00	2.295429e+06	
98	-4.90000e+00	2.302179e+06	
99	-4.95000e+00	2.308745e+06	
100	-5.00000e+00	2.315136e+06	
101	-5.05000e+00	2.321357e+06	
102	-5.10000e+00	2.327415e+06	
103	-5.15000e+00	2.333318e+06	
104	-5.20000e+00	2.339071e+06	
105	-5.25000e+00	2.344679e+06	
106	-5.30000e+00	2.350148e+06	
107	-5.35000e+00	2.355483e+06	
108	-5.40000e+00	2.360689e+06	
109	-5.45000e+00	2.365771e+06	
110	-5.50000e+00	2.370732e+06	
111	-5.55000e+00	2.375578e+06	
112	-5.60000e+00	2.380311e+06	

Index   v-sweep         rds             
--------------------------------------------------------------------------------
113	-5.65000e+00	2.384936e+06	
114	-5.70000e+00	2.389457e+06	
115	-5.75000e+00	2.393876e+06	
116	-5.80000e+00	2.398198e+06	
117	-5.85000e+00	2.402424e+06	
118	-5.90000e+00	2.406559e+06	
119	-5.95000e+00	2.410604e+06	
120	-6.00000e+00	2.414563e+06	
121	-6.05000e+00	2.418439e+06	
122	-6.10000e+00	2.422233e+06	
123	-6.15000e+00	2.425948e+06	
124	-6.20000e+00	2.429586e+06	
125	-6.25000e+00	2.433150e+06	
126	-6.30000e+00	2.436642e+06	
127	-6.35000e+00	2.440063e+06	
128	-6.40000e+00	2.443415e+06	
129	-6.45000e+00	2.446701e+06	
130	-6.50000e+00	2.449921e+06	
131	-6.55000e+00	2.453078e+06	
132	-6.60000e+00	2.456174e+06	
Reset re-loads circuit ***************************

Circuit: ***************************

Doing analysis at TEMP = 25.000000 and TNOM = 25.000000


No. of Data Rows : 133
                          ***************************
                          DC transfer characteristic  Mon Jan  9 13:57:54  2023
--------------------------------------------------------------------------------
Index   v-sweep         rds             
--------------------------------------------------------------------------------
0	0.000000e+00	1.314818e+04	
1	-5.00000e-02	1.337402e+04	
2	-1.00000e-01	1.360762e+04	
3	-1.50000e-01	1.384940e+04	
4	-2.00000e-01	1.409979e+04	
5	-2.50000e-01	1.435927e+04	
6	-3.00000e-01	1.462834e+04	
7	-3.50000e-01	1.490753e+04	
8	-4.00000e-01	1.519744e+04	
9	-4.50000e-01	1.549868e+04	
10	-5.00000e-01	1.581194e+04	
11	-5.50000e-01	1.613795e+04	
12	-6.00000e-01	1.647750e+04	
13	-6.50000e-01	1.683146e+04	
14	-7.00000e-01	1.720077e+04	
15	-7.50000e-01	1.758643e+04	
16	-8.00000e-01	1.798957e+04	
17	-8.50000e-01	1.841139e+04	
18	-9.00000e-01	1.885324e+04	
19	-9.50000e-01	1.931655e+04	
20	-1.00000e+00	1.980294e+04	
21	-1.05000e+00	2.031418e+04	
22	-1.10000e+00	2.085221e+04	
23	-1.15000e+00	2.141920e+04	
24	-1.20000e+00	2.201755e+04	
25	-1.25000e+00	2.264992e+04	
26	-1.30000e+00	2.331931e+04	
27	-1.35000e+00	2.402905e+04	
28	-1.40000e+00	2.478290e+04	
29	-1.45000e+00	2.558509e+04	
30	-1.50000e+00	2.644043e+04	
31	-1.55000e+00	2.735435e+04	
32	-1.60000e+00	2.833308e+04	
33	-1.65000e+00	2.938374e+04	
34	-1.70000e+00	3.051453e+04	
35	-1.75000e+00	3.173494e+04	
36	-1.80000e+00	3.305603e+04	
37	-1.85000e+00	3.449071e+04	
38	-1.90000e+00	3.605420e+04	
39	-1.95000e+00	3.776455e+04	
40	-2.00000e+00	3.964328e+04	
41	-2.05000e+00	4.171629e+04	
42	-2.10000e+00	4.401502e+04	
43	-2.15000e+00	4.657792e+04	
44	-2.20000e+00	4.945253e+04	
45	-2.25000e+00	5.269822e+04	
46	-2.30000e+00	5.638996e+04	
47	-2.35000e+00	6.062360e+04	
48	-2.40000e+00	6.552326e+04	
49	-2.45000e+00	7.125173e+04	
50	-2.50000e+00	7.802557e+04	
51	-2.55000e+00	8.613660e+04	
52	-2.60000e+00	9.598269e+04	
53	-2.65000e+00	1.081110e+05	
54	-2.70000e+00	1.232757e+05	

Index   v-sweep         rds             
--------------------------------------------------------------------------------
55	-2.75000e+00	1.425064e+05	
56	-2.80000e+00	1.671692e+05	
57	-2.85000e+00	1.989642e+05	
58	-2.90000e+00	2.397539e+05	
59	-2.95000e+00	2.910848e+05	
60	-3.00000e+00	3.533849e+05	
61	-3.05000e+00	4.251668e+05	
62	-3.10000e+00	5.028883e+05	
63	-3.15000e+00	5.818498e+05	
64	-3.20000e+00	6.576523e+05	
65	-3.25000e+00	7.272846e+05	
66	-3.30000e+00	7.893741e+05	
67	-3.35000e+00	8.438207e+05	
68	-3.40000e+00	8.912570e+05	
69	-3.45000e+00	9.326128e+05	
70	-3.50000e+00	9.688513e+05	
71	-3.55000e+00	1.000844e+06	
72	-3.60000e+00	1.029327e+06	
73	-3.65000e+00	1.054904e+06	
74	-3.70000e+00	1.078057e+06	
75	-3.75000e+00	1.099175e+06	
76	-3.80000e+00	1.118564e+06	
77	-3.85000e+00	1.136473e+06	
78	-3.90000e+00	1.153100e+06	
79	-3.95000e+00	1.168610e+06	
80	-4.00000e+00	1.183135e+06	
81	-4.05000e+00	1.196786e+06	
82	-4.10000e+00	1.209655e+06	
83	-4.15000e+00	1.221821e+06	
84	-4.20000e+00	1.233350e+06	
85	-4.25000e+00	1.244300e+06	
86	-4.30000e+00	1.254721e+06	
87	-4.35000e+00	1.264655e+06	
88	-4.40000e+00	1.274140e+06	
89	-4.45000e+00	1.283210e+06	
90	-4.50000e+00	1.291895e+06	
91	-4.55000e+00	1.300221e+06	
92	-4.60000e+00	1.308213e+06	
93	-4.65000e+00	1.315892e+06	
94	-4.70000e+00	1.323277e+06	
95	-4.75000e+00	1.330387e+06	
96	-4.80000e+00	1.337237e+06	
97	-4.85000e+00	1.343842e+06	
98	-4.90000e+00	1.350217e+06	
99	-4.95000e+00	1.356373e+06	
100	-5.00000e+00	1.362322e+06	
101	-5.05000e+00	1.368075e+06	
102	-5.10000e+00	1.373642e+06	
103	-5.15000e+00	1.379032e+06	
104	-5.20000e+00	1.384254e+06	
105	-5.25000e+00	1.389315e+06	
106	-5.30000e+00	1.394224e+06	
107	-5.35000e+00	1.398987e+06	
108	-5.40000e+00	1.403610e+06	
109	-5.45000e+00	1.408100e+06	
110	-5.50000e+00	1.412463e+06	
111	-5.55000e+00	1.416704e+06	
112	-5.60000e+00	1.420828e+06	

Index   v-sweep         rds             
--------------------------------------------------------------------------------
113	-5.65000e+00	1.424841e+06	
114	-5.70000e+00	1.428745e+06	
115	-5.75000e+00	1.432547e+06	
116	-5.80000e+00	1.436250e+06	
117	-5.85000e+00	1.439857e+06	
118	-5.90000e+00	1.443373e+06	
119	-5.95000e+00	1.446801e+06	
120	-6.00000e+00	1.450144e+06	
121	-6.05000e+00	1.453405e+06	
122	-6.10000e+00	1.456587e+06	
123	-6.15000e+00	1.459694e+06	
124	-6.20000e+00	1.462727e+06	
125	-6.25000e+00	1.465689e+06	
126	-6.30000e+00	1.468583e+06	
127	-6.35000e+00	1.471411e+06	
128	-6.40000e+00	1.474175e+06	
129	-6.45000e+00	1.476877e+06	
130	-6.50000e+00	1.479519e+06	
131	-6.55000e+00	1.482104e+06	
132	-6.60000e+00	1.484632e+06	
Reset re-loads circuit ***************************

Circuit: ***************************

Doing analysis at TEMP = 25.000000 and TNOM = 25.000000


No. of Data Rows : 133
                          ***************************
                          DC transfer characteristic  Mon Jan  9 13:57:54  2023
--------------------------------------------------------------------------------
Index   v-sweep         rds             
--------------------------------------------------------------------------------
0	0.000000e+00	1.141168e+04	
1	-5.00000e-02	1.156739e+04	
2	-1.00000e-01	1.172732e+04	
3	-1.50000e-01	1.189166e+04	
4	-2.00000e-01	1.206059e+04	
5	-2.50000e-01	1.223429e+04	
6	-3.00000e-01	1.241299e+04	
7	-3.50000e-01	1.259689e+04	
8	-4.00000e-01	1.278623e+04	
9	-4.50000e-01	1.298125e+04	
10	-5.00000e-01	1.318221e+04	
11	-5.50000e-01	1.338939e+04	
12	-6.00000e-01	1.360307e+04	
13	-6.50000e-01	1.382358e+04	
14	-7.00000e-01	1.405124e+04	
15	-7.50000e-01	1.428640e+04	
16	-8.00000e-01	1.452945e+04	
17	-8.50000e-01	1.478079e+04	
18	-9.00000e-01	1.504084e+04	
19	-9.50000e-01	1.531007e+04	
20	-1.00000e+00	1.558898e+04	
21	-1.05000e+00	1.587809e+04	
22	-1.10000e+00	1.617797e+04	
23	-1.15000e+00	1.648924e+04	
24	-1.20000e+00	1.681256e+04	
25	-1.25000e+00	1.714864e+04	
26	-1.30000e+00	1.749825e+04	
27	-1.35000e+00	1.786223e+04	
28	-1.40000e+00	1.824147e+04	
29	-1.45000e+00	1.863696e+04	
30	-1.50000e+00	1.904977e+04	
31	-1.55000e+00	1.948105e+04	
32	-1.60000e+00	1.993207e+04	
33	-1.65000e+00	2.040422e+04	
34	-1.70000e+00	2.089902e+04	
35	-1.75000e+00	2.141813e+04	
36	-1.80000e+00	2.196339e+04	
37	-1.85000e+00	2.253683e+04	
38	-1.90000e+00	2.314067e+04	
39	-1.95000e+00	2.377740e+04	
40	-2.00000e+00	2.444978e+04	
41	-2.05000e+00	2.516088e+04	
42	-2.10000e+00	2.591413e+04	
43	-2.15000e+00	2.671338e+04	
44	-2.20000e+00	2.756298e+04	
45	-2.25000e+00	2.846780e+04	
46	-2.30000e+00	2.943341e+04	
47	-2.35000e+00	3.046610e+04	
48	-2.40000e+00	3.157309e+04	
49	-2.45000e+00	3.276265e+04	
50	-2.50000e+00	3.404431e+04	
51	-2.55000e+00	3.542912e+04	
52	-2.60000e+00	3.692996e+04	
53	-2.65000e+00	3.856189e+04	
54	-2.70000e+00	4.034271e+04	

Index   v-sweep         rds             
--------------------------------------------------------------------------------
55	-2.75000e+00	4.229347e+04	
56	-2.80000e+00	4.443938e+04	
57	-2.85000e+00	4.681072e+04	
58	-2.90000e+00	4.944426e+04	
59	-2.95000e+00	5.238494e+04	
60	-3.00000e+00	5.568821e+04	
61	-3.05000e+00	5.942312e+04	
62	-3.10000e+00	6.367647e+04	
63	-3.15000e+00	6.855845e+04	
64	-3.20000e+00	7.421027e+04	
65	-3.25000e+00	8.081446e+04	
66	-3.30000e+00	8.860876e+04	
67	-3.35000e+00	9.790408e+04	
68	-3.40000e+00	1.091068e+05	
69	-3.45000e+00	1.227430e+05	
70	-3.50000e+00	1.394782e+05	
71	-3.55000e+00	1.601148e+05	
72	-3.60000e+00	1.855364e+05	
73	-3.65000e+00	2.165551e+05	
74	-3.70000e+00	2.536318e+05	
75	-3.75000e+00	2.965184e+05	
76	-3.80000e+00	3.439971e+05	
77	-3.85000e+00	3.939563e+05	
78	-3.90000e+00	4.438742e+05	
79	-3.95000e+00	4.914779e+05	
80	-4.00000e+00	5.352171e+05	
81	-4.05000e+00	5.743742e+05	
82	-4.10000e+00	6.088975e+05	
83	-4.15000e+00	6.391401e+05	
84	-4.20000e+00	6.656339e+05	
85	-4.25000e+00	6.889438e+05	
86	-4.30000e+00	7.095912e+05	
87	-4.35000e+00	7.280249e+05	
88	-4.40000e+00	7.446164e+05	
89	-4.45000e+00	7.596671e+05	
90	-4.50000e+00	7.734197e+05	
91	-4.55000e+00	7.860688e+05	
92	-4.60000e+00	7.977712e+05	
93	-4.65000e+00	8.086535e+05	
94	-4.70000e+00	8.188192e+05	
95	-4.75000e+00	8.283532e+05	
96	-4.80000e+00	8.373259e+05	
97	-4.85000e+00	8.457963e+05	
98	-4.90000e+00	8.538142e+05	
99	-4.95000e+00	8.614219e+05	
100	-5.00000e+00	8.686558e+05	
101	-5.05000e+00	8.755477e+05	
102	-5.10000e+00	8.821248e+05	
103	-5.15000e+00	8.884115e+05	
104	-5.20000e+00	8.944290e+05	
105	-5.25000e+00	9.001965e+05	
106	-5.30000e+00	9.057309e+05	
107	-5.35000e+00	9.110474e+05	
108	-5.40000e+00	9.161600e+05	
109	-5.45000e+00	9.210810e+05	
110	-5.50000e+00	9.258219e+05	
111	-5.55000e+00	9.303931e+05	
112	-5.60000e+00	9.348041e+05	

Index   v-sweep         rds             
--------------------------------------------------------------------------------
113	-5.65000e+00	9.390636e+05	
114	-5.70000e+00	9.431798e+05	
115	-5.75000e+00	9.471602e+05	
116	-5.80000e+00	9.510115e+05	
117	-5.85000e+00	9.547403e+05	
118	-5.90000e+00	9.583525e+05	
119	-5.95000e+00	9.618537e+05	
120	-6.00000e+00	9.652490e+05	
121	-6.05000e+00	9.685433e+05	
122	-6.10000e+00	9.717413e+05	
123	-6.15000e+00	9.748470e+05	
124	-6.20000e+00	9.778646e+05	
125	-6.25000e+00	9.807978e+05	
126	-6.30000e+00	9.836502e+05	
127	-6.35000e+00	9.864251e+05	
128	-6.40000e+00	9.891256e+05	
129	-6.45000e+00	9.917547e+05	
130	-6.50000e+00	9.943153e+05	
131	-6.55000e+00	9.968100e+05	
132	-6.60000e+00	9.992413e+05	
Reset re-loads circuit ***************************

Circuit: ***************************

Note: No ".plot", ".print", or ".fourier" lines; no simulations run
