
Note: Compatibility modes selected: hs

Warning: m=xx on .subckt line will override multiplier m hierarchy!


Circuit: ***************************

Doing analysis at TEMP = 25.000000 and TNOM = 25.000000


No. of Data Rows : 133
                          ***************************
                          DC transfer characteristic  Mon Jan  9 13:57:54  2023
--------------------------------------------------------------------------------
Index   v-sweep         rds             
--------------------------------------------------------------------------------
0	0.000000e+00	1.744110e+05	
1	-5.00000e-02	3.150202e+05	
2	-1.00000e-01	9.079875e+05	
3	-1.50000e-01	4.195088e+06	
4	-2.00000e-01	1.545465e+07	
5	-2.50000e-01	3.686672e+07	
6	-3.00000e-01	6.394120e+07	
7	-3.50000e-01	9.080537e+07	
8	-4.00000e-01	1.144524e+08	
9	-4.50000e-01	1.343843e+08	
10	-5.00000e-01	1.511220e+08	
11	-5.50000e-01	1.653642e+08	
12	-6.00000e-01	1.777073e+08	
13	-6.50000e-01	1.886007e+08	
14	-7.00000e-01	1.983692e+08	
15	-7.50000e-01	2.072466e+08	
16	-8.00000e-01	2.154021e+08	
17	-8.50000e-01	2.229603e+08	
18	-9.00000e-01	2.300145e+08	
19	-9.50000e-01	2.366363e+08	
20	-1.00000e+00	2.428814e+08	
21	-1.05000e+00	2.487940e+08	
22	-1.10000e+00	2.544098e+08	
23	-1.15000e+00	2.597584e+08	
24	-1.20000e+00	2.648642e+08	
25	-1.25000e+00	2.697482e+08	
26	-1.30000e+00	2.744279e+08	
27	-1.35000e+00	2.789190e+08	
28	-1.40000e+00	2.832349e+08	
29	-1.45000e+00	2.873874e+08	
30	-1.50000e+00	2.913872e+08	
31	-1.55000e+00	2.952437e+08	
32	-1.60000e+00	2.989656e+08	
33	-1.65000e+00	3.025605e+08	
34	-1.70000e+00	3.060355e+08	
35	-1.75000e+00	3.093970e+08	
36	-1.80000e+00	3.126511e+08	
37	-1.85000e+00	3.158030e+08	
38	-1.90000e+00	3.188580e+08	
39	-1.95000e+00	3.218206e+08	
40	-2.00000e+00	3.246952e+08	
41	-2.05000e+00	3.274858e+08	
42	-2.10000e+00	3.301963e+08	
43	-2.15000e+00	3.328302e+08	
44	-2.20000e+00	3.353908e+08	
45	-2.25000e+00	3.378812e+08	
46	-2.30000e+00	3.403043e+08	
47	-2.35000e+00	3.426629e+08	
48	-2.40000e+00	3.449596e+08	
49	-2.45000e+00	3.471968e+08	
50	-2.50000e+00	3.493769e+08	
51	-2.55000e+00	3.515021e+08	
52	-2.60000e+00	3.535744e+08	
53	-2.65000e+00	3.555957e+08	
54	-2.70000e+00	3.575681e+08	

Index   v-sweep         rds             
--------------------------------------------------------------------------------
55	-2.75000e+00	3.594932e+08	
56	-2.80000e+00	3.613727e+08	
57	-2.85000e+00	3.632083e+08	
58	-2.90000e+00	3.650014e+08	
59	-2.95000e+00	3.667535e+08	
60	-3.00000e+00	3.684661e+08	
61	-3.05000e+00	3.701403e+08	
62	-3.10000e+00	3.717776e+08	
63	-3.15000e+00	3.733790e+08	
64	-3.20000e+00	3.749458e+08	
65	-3.25000e+00	3.764790e+08	
66	-3.30000e+00	3.779797e+08	
67	-3.35000e+00	3.794489e+08	
68	-3.40000e+00	3.808875e+08	
69	-3.45000e+00	3.822965e+08	
70	-3.50000e+00	3.836767e+08	
71	-3.55000e+00	3.850290e+08	
72	-3.60000e+00	3.863542e+08	
73	-3.65000e+00	3.876531e+08	
74	-3.70000e+00	3.889264e+08	
75	-3.75000e+00	3.901748e+08	
76	-3.80000e+00	3.913991e+08	
77	-3.85000e+00	3.925997e+08	
78	-3.90000e+00	3.937774e+08	
79	-3.95000e+00	3.949329e+08	
80	-4.00000e+00	3.960665e+08	
81	-4.05000e+00	3.971790e+08	
82	-4.10000e+00	3.982708e+08	
83	-4.15000e+00	3.993425e+08	
84	-4.20000e+00	4.003945e+08	
85	-4.25000e+00	4.014273e+08	
86	-4.30000e+00	4.024413e+08	
87	-4.35000e+00	4.034371e+08	
88	-4.40000e+00	4.044149e+08	
89	-4.45000e+00	4.053753e+08	
90	-4.50000e+00	4.063185e+08	
91	-4.55000e+00	4.072450e+08	
92	-4.60000e+00	4.081552e+08	
93	-4.65000e+00	4.090493e+08	
94	-4.70000e+00	4.099277e+08	
95	-4.75000e+00	4.107907e+08	
96	-4.80000e+00	4.116386e+08	
97	-4.85000e+00	4.124717e+08	
98	-4.90000e+00	4.132903e+08	
99	-4.95000e+00	4.140946e+08	
100	-5.00000e+00	4.148850e+08	
101	-5.05000e+00	4.156617e+08	
102	-5.10000e+00	4.164249e+08	
103	-5.15000e+00	4.171748e+08	
104	-5.20000e+00	4.179118e+08	
105	-5.25000e+00	4.186359e+08	
106	-5.30000e+00	4.193475e+08	
107	-5.35000e+00	4.200467e+08	
108	-5.40000e+00	4.207337e+08	
109	-5.45000e+00	4.214087e+08	
110	-5.50000e+00	4.220719e+08	
111	-5.55000e+00	4.227235e+08	
112	-5.60000e+00	4.233636e+08	

Index   v-sweep         rds             
--------------------------------------------------------------------------------
113	-5.65000e+00	4.239925e+08	
114	-5.70000e+00	4.246103e+08	
115	-5.75000e+00	4.252171e+08	
116	-5.80000e+00	4.258130e+08	
117	-5.85000e+00	4.263984e+08	
118	-5.90000e+00	4.269732e+08	
119	-5.95000e+00	4.275377e+08	
120	-6.00000e+00	4.280919e+08	
121	-6.05000e+00	4.286360e+08	
122	-6.10000e+00	4.291702e+08	
123	-6.15000e+00	4.296945e+08	
124	-6.20000e+00	4.302091e+08	
125	-6.25000e+00	4.307142e+08	
126	-6.30000e+00	4.312097e+08	
127	-6.35000e+00	4.316959e+08	
128	-6.40000e+00	4.321728e+08	
129	-6.45000e+00	4.326406e+08	
130	-6.50000e+00	4.330994e+08	
131	-6.55000e+00	4.335493e+08	
132	-6.60000e+00	4.339903e+08	
Reset re-loads circuit ***************************

Circuit: ***************************

Doing analysis at TEMP = 25.000000 and TNOM = 25.000000


No. of Data Rows : 133
                          ***************************
                          DC transfer characteristic  Mon Jan  9 13:57:54  2023
--------------------------------------------------------------------------------
Index   v-sweep         rds             
--------------------------------------------------------------------------------
0	0.000000e+00	1.880226e+04	
1	-5.00000e-02	2.006120e+04	
2	-1.00000e-01	2.149864e+04	
3	-1.50000e-01	2.315532e+04	
4	-2.00000e-01	2.508538e+04	
5	-2.50000e-01	2.736221e+04	
6	-3.00000e-01	3.008786e+04	
7	-3.50000e-01	3.340828e+04	
8	-4.00000e-01	3.753926e+04	
9	-4.50000e-01	4.281262e+04	
10	-5.00000e-01	4.976278e+04	
11	-5.50000e-01	5.929836e+04	
12	-6.00000e-01	7.306230e+04	
13	-6.50000e-01	9.422317e+04	
14	-7.00000e-01	1.292209e+05	
15	-7.50000e-01	1.911947e+05	
16	-8.00000e-01	3.040591e+05	
17	-8.50000e-01	4.987096e+05	
18	-9.00000e-01	7.900347e+05	
19	-9.50000e-01	1.153613e+06	
20	-1.00000e+00	1.539106e+06	
21	-1.05000e+00	1.904216e+06	
22	-1.10000e+00	2.229391e+06	
23	-1.15000e+00	2.512099e+06	
24	-1.20000e+00	2.757363e+06	
25	-1.25000e+00	2.971967e+06	
26	-1.30000e+00	3.162099e+06	
27	-1.35000e+00	3.332737e+06	
28	-1.40000e+00	3.487697e+06	
29	-1.45000e+00	3.629858e+06	
30	-1.50000e+00	3.761396e+06	
31	-1.55000e+00	3.883968e+06	
32	-1.60000e+00	3.998855e+06	
33	-1.65000e+00	4.107060e+06	
34	-1.70000e+00	4.209381e+06	
35	-1.75000e+00	4.306464e+06	
36	-1.80000e+00	4.398841e+06	
37	-1.85000e+00	4.486953e+06	
38	-1.90000e+00	4.571174e+06	
39	-1.95000e+00	4.651822e+06	
40	-2.00000e+00	4.729173e+06	
41	-2.05000e+00	4.803467e+06	
42	-2.10000e+00	4.874915e+06	
43	-2.15000e+00	4.943706e+06	
44	-2.20000e+00	5.010007e+06	
45	-2.25000e+00	5.073969e+06	
46	-2.30000e+00	5.135728e+06	
47	-2.35000e+00	5.195409e+06	
48	-2.40000e+00	5.253125e+06	
49	-2.45000e+00	5.308978e+06	
50	-2.50000e+00	5.363067e+06	
51	-2.55000e+00	5.415477e+06	
52	-2.60000e+00	5.466292e+06	
53	-2.65000e+00	5.515587e+06	
54	-2.70000e+00	5.563433e+06	

Index   v-sweep         rds             
--------------------------------------------------------------------------------
55	-2.75000e+00	5.609895e+06	
56	-2.80000e+00	5.655035e+06	
57	-2.85000e+00	5.698912e+06	
58	-2.90000e+00	5.741578e+06	
59	-2.95000e+00	5.783086e+06	
60	-3.00000e+00	5.823482e+06	
61	-3.05000e+00	5.862813e+06	
62	-3.10000e+00	5.901120e+06	
63	-3.15000e+00	5.938443e+06	
64	-3.20000e+00	5.974822e+06	
65	-3.25000e+00	6.010291e+06	
66	-3.30000e+00	6.044885e+06	
67	-3.35000e+00	6.078636e+06	
68	-3.40000e+00	6.111576e+06	
69	-3.45000e+00	6.143732e+06	
70	-3.50000e+00	6.175133e+06	
71	-3.55000e+00	6.205806e+06	
72	-3.60000e+00	6.235775e+06	
73	-3.65000e+00	6.265064e+06	
74	-3.70000e+00	6.293697e+06	
75	-3.75000e+00	6.321695e+06	
76	-3.80000e+00	6.349078e+06	
77	-3.85000e+00	6.375867e+06	
78	-3.90000e+00	6.402081e+06	
79	-3.95000e+00	6.427737e+06	
80	-4.00000e+00	6.452854e+06	
81	-4.05000e+00	6.477447e+06	
82	-4.10000e+00	6.501532e+06	
83	-4.15000e+00	6.525126e+06	
84	-4.20000e+00	6.548241e+06	
85	-4.25000e+00	6.570892e+06	
86	-4.30000e+00	6.593093e+06	
87	-4.35000e+00	6.614856e+06	
88	-4.40000e+00	6.636193e+06	
89	-4.45000e+00	6.657116e+06	
90	-4.50000e+00	6.677637e+06	
91	-4.55000e+00	6.697766e+06	
92	-4.60000e+00	6.717513e+06	
93	-4.65000e+00	6.736888e+06	
94	-4.70000e+00	6.755901e+06	
95	-4.75000e+00	6.774562e+06	
96	-4.80000e+00	6.792878e+06	
97	-4.85000e+00	6.810858e+06	
98	-4.90000e+00	6.828511e+06	
99	-4.95000e+00	6.845844e+06	
100	-5.00000e+00	6.862864e+06	
101	-5.05000e+00	6.879578e+06	
102	-5.10000e+00	6.895995e+06	
103	-5.15000e+00	6.912119e+06	
104	-5.20000e+00	6.927958e+06	
105	-5.25000e+00	6.943517e+06	
106	-5.30000e+00	6.958803e+06	
107	-5.35000e+00	6.973821e+06	
108	-5.40000e+00	6.988577e+06	
109	-5.45000e+00	7.003075e+06	
110	-5.50000e+00	7.017321e+06	
111	-5.55000e+00	7.031320e+06	
112	-5.60000e+00	7.045076e+06	

Index   v-sweep         rds             
--------------------------------------------------------------------------------
113	-5.65000e+00	7.058594e+06	
114	-5.70000e+00	7.071878e+06	
115	-5.75000e+00	7.084933e+06	
116	-5.80000e+00	7.097761e+06	
117	-5.85000e+00	7.110368e+06	
118	-5.90000e+00	7.122757e+06	
119	-5.95000e+00	7.134932e+06	
120	-6.00000e+00	7.146895e+06	
121	-6.05000e+00	7.158651e+06	
122	-6.10000e+00	7.170203e+06	
123	-6.15000e+00	7.181554e+06	
124	-6.20000e+00	7.192707e+06	
125	-6.25000e+00	7.203664e+06	
126	-6.30000e+00	7.214430e+06	
127	-6.35000e+00	7.225005e+06	
128	-6.40000e+00	7.235394e+06	
129	-6.45000e+00	7.245599e+06	
130	-6.50000e+00	7.255623e+06	
131	-6.55000e+00	7.265467e+06	
132	-6.60000e+00	7.275134e+06	
Reset re-loads circuit ***************************

Circuit: ***************************

Doing analysis at TEMP = 25.000000 and TNOM = 25.000000


No. of Data Rows : 133
                          ***************************
                          DC transfer characteristic  Mon Jan  9 13:57:54  2023
--------------------------------------------------------------------------------
Index   v-sweep         rds             
--------------------------------------------------------------------------------
0	0.000000e+00	1.079051e+04	
1	-5.00000e-02	1.116317e+04	
2	-1.00000e-01	1.156199e+04	
3	-1.50000e-01	1.198983e+04	
4	-2.00000e-01	1.244997e+04	
5	-2.50000e-01	1.294623e+04	
6	-3.00000e-01	1.348300e+04	
7	-3.50000e-01	1.406546e+04	
8	-4.00000e-01	1.469970e+04	
9	-4.50000e-01	1.539293e+04	
10	-5.00000e-01	1.615375e+04	
11	-5.50000e-01	1.699255e+04	
12	-6.00000e-01	1.792193e+04	
13	-6.50000e-01	1.895732e+04	
14	-7.00000e-01	2.011791e+04	
15	-7.50000e-01	2.142773e+04	
16	-8.00000e-01	2.291735e+04	
17	-8.50000e-01	2.462619e+04	
18	-9.00000e-01	2.660598e+04	
19	-9.50000e-01	2.892576e+04	
20	-1.00000e+00	3.167968e+04	
21	-1.05000e+00	3.499901e+04	
22	-1.10000e+00	3.907162e+04	
23	-1.15000e+00	4.417385e+04	
24	-1.20000e+00	5.072453e+04	
25	-1.25000e+00	5.937731e+04	
26	-1.30000e+00	7.117811e+04	
27	-1.35000e+00	8.781952e+04	
28	-1.40000e+00	1.119882e+05	
29	-1.45000e+00	1.476147e+05	
30	-1.50000e+00	1.993871e+05	
31	-1.55000e+00	2.706285e+05	
32	-1.60000e+00	3.600792e+05	
33	-1.65000e+00	4.608503e+05	
34	-1.70000e+00	5.636202e+05	
35	-1.75000e+00	6.609943e+05	
36	-1.80000e+00	7.492792e+05	
37	-1.85000e+00	8.277374e+05	
38	-1.90000e+00	8.971746e+05	
39	-1.95000e+00	9.589148e+05	
40	-2.00000e+00	1.014286e+06	
41	-2.05000e+00	1.064431e+06	
42	-2.10000e+00	1.110270e+06	
43	-2.15000e+00	1.152528e+06	
44	-2.20000e+00	1.191769e+06	
45	-2.25000e+00	1.228433e+06	
46	-2.30000e+00	1.262869e+06	
47	-2.35000e+00	1.295351e+06	
48	-2.40000e+00	1.326105e+06	
49	-2.45000e+00	1.355313e+06	
50	-2.50000e+00	1.383125e+06	
51	-2.55000e+00	1.409671e+06	
52	-2.60000e+00	1.435056e+06	
53	-2.65000e+00	1.459375e+06	
54	-2.70000e+00	1.482708e+06	

Index   v-sweep         rds             
--------------------------------------------------------------------------------
55	-2.75000e+00	1.505125e+06	
56	-2.80000e+00	1.526689e+06	
57	-2.85000e+00	1.547455e+06	
58	-2.90000e+00	1.567473e+06	
59	-2.95000e+00	1.586787e+06	
60	-3.00000e+00	1.605439e+06	
61	-3.05000e+00	1.623465e+06	
62	-3.10000e+00	1.640898e+06	
63	-3.15000e+00	1.657771e+06	
64	-3.20000e+00	1.674112e+06	
65	-3.25000e+00	1.689946e+06	
66	-3.30000e+00	1.705300e+06	
67	-3.35000e+00	1.720194e+06	
68	-3.40000e+00	1.734651e+06	
69	-3.45000e+00	1.748691e+06	
70	-3.50000e+00	1.762331e+06	
71	-3.55000e+00	1.775590e+06	
72	-3.60000e+00	1.788483e+06	
73	-3.65000e+00	1.801026e+06	
74	-3.70000e+00	1.813233e+06	
75	-3.75000e+00	1.825119e+06	
76	-3.80000e+00	1.836695e+06	
77	-3.85000e+00	1.847974e+06	
78	-3.90000e+00	1.858967e+06	
79	-3.95000e+00	1.869685e+06	
80	-4.00000e+00	1.880139e+06	
81	-4.05000e+00	1.890338e+06	
82	-4.10000e+00	1.900292e+06	
83	-4.15000e+00	1.910009e+06	
84	-4.20000e+00	1.919497e+06	
85	-4.25000e+00	1.928766e+06	
86	-4.30000e+00	1.937821e+06	
87	-4.35000e+00	1.946672e+06	
88	-4.40000e+00	1.955323e+06	
89	-4.45000e+00	1.963783e+06	
90	-4.50000e+00	1.972057e+06	
91	-4.55000e+00	1.980151e+06	
92	-4.60000e+00	1.988071e+06	
93	-4.65000e+00	1.995823e+06	
94	-4.70000e+00	2.003412e+06	
95	-4.75000e+00	2.010842e+06	
96	-4.80000e+00	2.018119e+06	
97	-4.85000e+00	2.025247e+06	
98	-4.90000e+00	2.032230e+06	
99	-4.95000e+00	2.039073e+06	
100	-5.00000e+00	2.045780e+06	
101	-5.05000e+00	2.052354e+06	
102	-5.10000e+00	2.058800e+06	
103	-5.15000e+00	2.065121e+06	
104	-5.20000e+00	2.071320e+06	
105	-5.25000e+00	2.077400e+06	
106	-5.30000e+00	2.083365e+06	
107	-5.35000e+00	2.089217e+06	
108	-5.40000e+00	2.094960e+06	
109	-5.45000e+00	2.100597e+06	
110	-5.50000e+00	2.106129e+06	
111	-5.55000e+00	2.111559e+06	
112	-5.60000e+00	2.116891e+06	

Index   v-sweep         rds             
--------------------------------------------------------------------------------
113	-5.65000e+00	2.122125e+06	
114	-5.70000e+00	2.127265e+06	
115	-5.75000e+00	2.132313e+06	
116	-5.80000e+00	2.137271e+06	
117	-5.85000e+00	2.142140e+06	
118	-5.90000e+00	2.146923e+06	
119	-5.95000e+00	2.151621e+06	
120	-6.00000e+00	2.156236e+06	
121	-6.05000e+00	2.160770e+06	
122	-6.10000e+00	2.165225e+06	
123	-6.15000e+00	2.169602e+06	
124	-6.20000e+00	2.173903e+06	
125	-6.25000e+00	2.178129e+06	
126	-6.30000e+00	2.182281e+06	
127	-6.35000e+00	2.186362e+06	
128	-6.40000e+00	2.190371e+06	
129	-6.45000e+00	2.194311e+06	
130	-6.50000e+00	2.198182e+06	
131	-6.55000e+00	2.201987e+06	
132	-6.60000e+00	2.205725e+06	
Reset re-loads circuit ***************************

Circuit: ***************************

Doing analysis at TEMP = 25.000000 and TNOM = 25.000000


No. of Data Rows : 133
                          ***************************
                          DC transfer characteristic  Mon Jan  9 13:57:54  2023
--------------------------------------------------------------------------------
Index   v-sweep         rds             
--------------------------------------------------------------------------------
0	0.000000e+00	7.977747e+03	
1	-5.00000e-02	8.162875e+03	
2	-1.00000e-01	8.356579e+03	
3	-1.50000e-01	8.559471e+03	
4	-2.00000e-01	8.772217e+03	
5	-2.50000e-01	8.995556e+03	
6	-3.00000e-01	9.230296e+03	
7	-3.50000e-01	9.477334e+03	
8	-4.00000e-01	9.737661e+03	
9	-4.50000e-01	1.001238e+04	
10	-5.00000e-01	1.030271e+04	
11	-5.50000e-01	1.061003e+04	
12	-6.00000e-01	1.093588e+04	
13	-6.50000e-01	1.128196e+04	
14	-7.00000e-01	1.165024e+04	
15	-7.50000e-01	1.204291e+04	
16	-8.00000e-01	1.246248e+04	
17	-8.50000e-01	1.291180e+04	
18	-9.00000e-01	1.339415e+04	
19	-9.50000e-01	1.391330e+04	
20	-1.00000e+00	1.447362e+04	
21	-1.05000e+00	1.508020e+04	
22	-1.10000e+00	1.573900e+04	
23	-1.15000e+00	1.645703e+04	
24	-1.20000e+00	1.724263e+04	
25	-1.25000e+00	1.810577e+04	
26	-1.30000e+00	1.905845e+04	
27	-1.35000e+00	2.011526e+04	
28	-1.40000e+00	2.129412e+04	
29	-1.45000e+00	2.261725e+04	
30	-1.50000e+00	2.411253e+04	
31	-1.55000e+00	2.581535e+04	
32	-1.60000e+00	2.777128e+04	
33	-1.65000e+00	3.003984e+04	
34	-1.70000e+00	3.270004e+04	
35	-1.75000e+00	3.585850e+04	
36	-1.80000e+00	3.966168e+04	
37	-1.85000e+00	4.431430e+04	
38	-1.90000e+00	5.010695e+04	
39	-1.95000e+00	5.745672e+04	
40	-2.00000e+00	6.696284e+04	
41	-2.05000e+00	7.947078e+04	
42	-2.10000e+00	9.611056e+04	
43	-2.15000e+00	1.182192e+05	
44	-2.20000e+00	1.470020e+05	
45	-2.25000e+00	1.828729e+05	
46	-2.30000e+00	2.247933e+05	
47	-2.35000e+00	2.702683e+05	
48	-2.40000e+00	3.162382e+05	
49	-2.45000e+00	3.601882e+05	
50	-2.50000e+00	4.006917e+05	
51	-2.55000e+00	4.373019e+05	
52	-2.60000e+00	4.701759e+05	
53	-2.65000e+00	4.997373e+05	
54	-2.70000e+00	5.264714e+05	

Index   v-sweep         rds             
--------------------------------------------------------------------------------
55	-2.75000e+00	5.508282e+05	
56	-2.80000e+00	5.731903e+05	
57	-2.85000e+00	5.938697e+05	
58	-2.90000e+00	6.131162e+05	
59	-2.95000e+00	6.311295e+05	
60	-3.00000e+00	6.480693e+05	
61	-3.05000e+00	6.640647e+05	
62	-3.10000e+00	6.792207e+05	
63	-3.15000e+00	6.936238e+05	
64	-3.20000e+00	7.073463e+05	
65	-3.25000e+00	7.204491e+05	
66	-3.30000e+00	7.329842e+05	
67	-3.35000e+00	7.449964e+05	
68	-3.40000e+00	7.565245e+05	
69	-3.45000e+00	7.676028e+05	
70	-3.50000e+00	7.782616e+05	
71	-3.55000e+00	7.885279e+05	
72	-3.60000e+00	7.984258e+05	
73	-3.65000e+00	8.079772e+05	
74	-3.70000e+00	8.172020e+05	
75	-3.75000e+00	8.261182e+05	
76	-3.80000e+00	8.347424e+05	
77	-3.85000e+00	8.430898e+05	
78	-3.90000e+00	8.511743e+05	
79	-3.95000e+00	8.590091e+05	
80	-4.00000e+00	8.666061e+05	
81	-4.05000e+00	8.739765e+05	
82	-4.10000e+00	8.811307e+05	
83	-4.15000e+00	8.880785e+05	
84	-4.20000e+00	8.948290e+05	
85	-4.25000e+00	9.013908e+05	
86	-4.30000e+00	9.077718e+05	
87	-4.35000e+00	9.139797e+05	
88	-4.40000e+00	9.200216e+05	
89	-4.45000e+00	9.259040e+05	
90	-4.50000e+00	9.316335e+05	
91	-4.55000e+00	9.372159e+05	
92	-4.60000e+00	9.426570e+05	
93	-4.65000e+00	9.479620e+05	
94	-4.70000e+00	9.531361e+05	
95	-4.75000e+00	9.581842e+05	
96	-4.80000e+00	9.631107e+05	
97	-4.85000e+00	9.679200e+05	
98	-4.90000e+00	9.726164e+05	
99	-4.95000e+00	9.772037e+05	
100	-5.00000e+00	9.816857e+05	
101	-5.05000e+00	9.860659e+05	
102	-5.10000e+00	9.903479e+05	
103	-5.15000e+00	9.945347e+05	
104	-5.20000e+00	9.986297e+05	
105	-5.25000e+00	1.002636e+06	
106	-5.30000e+00	1.006555e+06	
107	-5.35000e+00	1.010392e+06	
108	-5.40000e+00	1.014147e+06	
109	-5.45000e+00	1.017824e+06	
110	-5.50000e+00	1.021426e+06	
111	-5.55000e+00	1.024953e+06	
112	-5.60000e+00	1.028409e+06	

Index   v-sweep         rds             
--------------------------------------------------------------------------------
113	-5.65000e+00	1.031795e+06	
114	-5.70000e+00	1.035114e+06	
115	-5.75000e+00	1.038367e+06	
116	-5.80000e+00	1.041557e+06	
117	-5.85000e+00	1.044685e+06	
118	-5.90000e+00	1.047752e+06	
119	-5.95000e+00	1.050761e+06	
120	-6.00000e+00	1.053712e+06	
121	-6.05000e+00	1.056608e+06	
122	-6.10000e+00	1.059450e+06	
123	-6.15000e+00	1.062238e+06	
124	-6.20000e+00	1.064976e+06	
125	-6.25000e+00	1.067662e+06	
126	-6.30000e+00	1.070300e+06	
127	-6.35000e+00	1.072890e+06	
128	-6.40000e+00	1.075433e+06	
129	-6.45000e+00	1.077930e+06	
130	-6.50000e+00	1.080383e+06	
131	-6.55000e+00	1.082792e+06	
132	-6.60000e+00	1.085158e+06	
Reset re-loads circuit ***************************

Circuit: ***************************

Doing analysis at TEMP = 25.000000 and TNOM = 25.000000


No. of Data Rows : 133
                          ***************************
                          DC transfer characteristic  Mon Jan  9 13:57:54  2023
--------------------------------------------------------------------------------
Index   v-sweep         rds             
--------------------------------------------------------------------------------
0	0.000000e+00	6.551001e+03	
1	-5.00000e-02	6.665155e+03	
2	-1.00000e-01	6.783234e+03	
3	-1.50000e-01	6.905443e+03	
4	-2.00000e-01	7.032002e+03	
5	-2.50000e-01	7.163148e+03	
6	-3.00000e-01	7.299135e+03	
7	-3.50000e-01	7.440236e+03	
8	-4.00000e-01	7.586743e+03	
9	-4.50000e-01	7.738976e+03	
10	-5.00000e-01	7.897274e+03	
11	-5.50000e-01	8.062009e+03	
12	-6.00000e-01	8.233580e+03	
13	-6.50000e-01	8.412422e+03	
14	-7.00000e-01	8.599007e+03	
15	-7.50000e-01	8.793848e+03	
16	-8.00000e-01	8.997506e+03	
17	-8.50000e-01	9.210592e+03	
18	-9.00000e-01	9.433776e+03	
19	-9.50000e-01	9.667793e+03	
20	-1.00000e+00	9.913450e+03	
21	-1.05000e+00	1.017164e+04	
22	-1.10000e+00	1.044334e+04	
23	-1.15000e+00	1.072964e+04	
24	-1.20000e+00	1.103175e+04	
25	-1.25000e+00	1.135101e+04	
26	-1.30000e+00	1.168893e+04	
27	-1.35000e+00	1.204718e+04	
28	-1.40000e+00	1.242766e+04	
29	-1.45000e+00	1.283250e+04	
30	-1.50000e+00	1.326410e+04	
31	-1.55000e+00	1.372521e+04	
32	-1.60000e+00	1.421895e+04	
33	-1.65000e+00	1.474889e+04	
34	-1.70000e+00	1.531915e+04	
35	-1.75000e+00	1.593451e+04	
36	-1.80000e+00	1.660050e+04	
37	-1.85000e+00	1.732360e+04	
38	-1.90000e+00	1.811143e+04	
39	-1.95000e+00	1.897304e+04	
40	-2.00000e+00	1.991918e+04	
41	-2.05000e+00	2.096281e+04	
42	-2.10000e+00	2.211962e+04	
43	-2.15000e+00	2.340878e+04	
44	-2.20000e+00	2.485394e+04	
45	-2.25000e+00	2.648457e+04	
46	-2.30000e+00	2.833780e+04	
47	-2.35000e+00	3.046090e+04	
48	-2.40000e+00	3.291475e+04	
49	-2.45000e+00	3.577870e+04	
50	-2.50000e+00	3.915725e+04	
51	-2.55000e+00	4.318934e+04	
52	-2.60000e+00	4.806075e+04	
53	-2.65000e+00	5.401963e+04	
54	-2.70000e+00	6.139346e+04	

Index   v-sweep         rds             
--------------------------------------------------------------------------------
55	-2.75000e+00	7.060043e+04	
56	-2.80000e+00	8.213904e+04	
57	-2.85000e+00	9.652644e+04	
58	-2.90000e+00	1.141529e+05	
59	-2.95000e+00	1.350591e+05	
60	-3.00000e+00	1.587378e+05	
61	-3.05000e+00	1.841376e+05	
62	-3.10000e+00	2.099417e+05	
63	-3.15000e+00	2.349657e+05	
64	-3.20000e+00	2.584213e+05	
65	-3.25000e+00	2.799530e+05	
66	-3.30000e+00	2.995258e+05	
67	-3.35000e+00	3.172835e+05	
68	-3.40000e+00	3.334406e+05	
69	-3.45000e+00	3.482200e+05	
70	-3.50000e+00	3.618243e+05	
71	-3.55000e+00	3.744260e+05	
72	-3.60000e+00	3.861675e+05	
73	-3.65000e+00	3.971648e+05	
74	-3.70000e+00	4.075122e+05	
75	-3.75000e+00	4.172865e+05	
76	-3.80000e+00	4.265507e+05	
77	-3.85000e+00	4.353571e+05	
78	-3.90000e+00	4.437491e+05	
79	-3.95000e+00	4.517638e+05	
80	-4.00000e+00	4.594326e+05	
81	-4.05000e+00	4.667826e+05	
82	-4.10000e+00	4.738375e+05	
83	-4.15000e+00	4.806181e+05	
84	-4.20000e+00	4.871427e+05	
85	-4.25000e+00	4.934277e+05	
86	-4.30000e+00	4.994878e+05	
87	-4.35000e+00	5.053363e+05	
88	-4.40000e+00	5.109853e+05	
89	-4.45000e+00	5.164457e+05	
90	-4.50000e+00	5.217276e+05	
91	-4.55000e+00	5.268403e+05	
92	-4.60000e+00	5.317923e+05	
93	-4.65000e+00	5.365915e+05	
94	-4.70000e+00	5.412452e+05	
95	-4.75000e+00	5.457602e+05	
96	-4.80000e+00	5.501430e+05	
97	-4.85000e+00	5.543994e+05	
98	-4.90000e+00	5.585350e+05	
99	-4.95000e+00	5.625550e+05	
100	-5.00000e+00	5.664643e+05	
101	-5.05000e+00	5.702676e+05	
102	-5.10000e+00	5.739692e+05	
103	-5.15000e+00	5.775731e+05	
104	-5.20000e+00	5.810833e+05	
105	-5.25000e+00	5.845034e+05	
106	-5.30000e+00	5.878369e+05	
107	-5.35000e+00	5.910870e+05	
108	-5.40000e+00	5.942569e+05	
109	-5.45000e+00	5.973495e+05	
110	-5.50000e+00	6.003676e+05	
111	-5.55000e+00	6.033139e+05	
112	-5.60000e+00	6.061910e+05	

Index   v-sweep         rds             
--------------------------------------------------------------------------------
113	-5.65000e+00	6.090011e+05	
114	-5.70000e+00	6.117468e+05	
115	-5.75000e+00	6.144300e+05	
116	-5.80000e+00	6.170530e+05	
117	-5.85000e+00	6.196177e+05	
118	-5.90000e+00	6.221261e+05	
119	-5.95000e+00	6.245798e+05	
120	-6.00000e+00	6.269808e+05	
121	-6.05000e+00	6.293306e+05	
122	-6.10000e+00	6.316309e+05	
123	-6.15000e+00	6.338831e+05	
124	-6.20000e+00	6.360887e+05	
125	-6.25000e+00	6.382491e+05	
126	-6.30000e+00	6.403657e+05	
127	-6.35000e+00	6.424397e+05	
128	-6.40000e+00	6.444723e+05	
129	-6.45000e+00	6.464647e+05	
130	-6.50000e+00	6.484181e+05	
131	-6.55000e+00	6.503335e+05	
132	-6.60000e+00	6.522119e+05	
Reset re-loads circuit ***************************

Circuit: ***************************

Doing analysis at TEMP = 25.000000 and TNOM = 25.000000


No. of Data Rows : 133
                          ***************************
                          DC transfer characteristic  Mon Jan  9 13:57:54  2023
--------------------------------------------------------------------------------
Index   v-sweep         rds             
--------------------------------------------------------------------------------
0	0.000000e+00	5.693338e+03	
1	-5.00000e-02	5.772552e+03	
2	-1.00000e-01	5.853920e+03	
3	-1.50000e-01	5.937531e+03	
4	-2.00000e-01	6.023480e+03	
5	-2.50000e-01	6.111866e+03	
6	-3.00000e-01	6.202793e+03	
7	-3.50000e-01	6.296374e+03	
8	-4.00000e-01	6.392727e+03	
9	-4.50000e-01	6.491975e+03	
10	-5.00000e-01	6.594251e+03	
11	-5.50000e-01	6.699697e+03	
12	-6.00000e-01	6.808461e+03	
13	-6.50000e-01	6.920703e+03	
14	-7.00000e-01	7.036593e+03	
15	-7.50000e-01	7.156310e+03	
16	-8.00000e-01	7.280048e+03	
17	-8.50000e-01	7.408012e+03	
18	-9.00000e-01	7.540424e+03	
19	-9.50000e-01	7.677517e+03	
20	-1.00000e+00	7.819546e+03	
21	-1.05000e+00	7.966781e+03	
22	-1.10000e+00	8.119514e+03	
23	-1.15000e+00	8.278059e+03	
24	-1.20000e+00	8.442752e+03	
25	-1.25000e+00	8.613960e+03	
26	-1.30000e+00	8.792075e+03	
27	-1.35000e+00	8.977525e+03	
28	-1.40000e+00	9.170770e+03	
29	-1.45000e+00	9.372314e+03	
30	-1.50000e+00	9.582701e+03	
31	-1.55000e+00	9.802526e+03	
32	-1.60000e+00	1.003244e+04	
33	-1.65000e+00	1.027315e+04	
34	-1.70000e+00	1.052543e+04	
35	-1.75000e+00	1.079014e+04	
36	-1.80000e+00	1.106822e+04	
37	-1.85000e+00	1.136071e+04	
38	-1.90000e+00	1.166874e+04	
39	-1.95000e+00	1.199361e+04	
40	-2.00000e+00	1.233671e+04	
41	-2.05000e+00	1.269962e+04	
42	-2.10000e+00	1.308411e+04	
43	-2.15000e+00	1.349216e+04	
44	-2.20000e+00	1.392598e+04	
45	-2.25000e+00	1.438810e+04	
46	-2.30000e+00	1.488135e+04	
47	-2.35000e+00	1.540899e+04	
48	-2.40000e+00	1.597472e+04	
49	-2.45000e+00	1.658278e+04	
50	-2.50000e+00	1.723808e+04	
51	-2.55000e+00	1.794631e+04	
52	-2.60000e+00	1.871408e+04	
53	-2.65000e+00	1.954915e+04	
54	-2.70000e+00	2.046065e+04	

Index   v-sweep         rds             
--------------------------------------------------------------------------------
55	-2.75000e+00	2.145943e+04	
56	-2.80000e+00	2.255843e+04	
57	-2.85000e+00	2.377320e+04	
58	-2.90000e+00	2.512261e+04	
59	-2.95000e+00	2.662966e+04	
60	-3.00000e+00	2.832267e+04	
61	-3.05000e+00	3.023679e+04	
62	-3.10000e+00	3.241595e+04	
63	-3.15000e+00	3.491549e+04	
64	-3.20000e+00	3.780555e+04	
65	-3.25000e+00	4.117536e+04	
66	-3.30000e+00	4.513841e+04	
67	-3.35000e+00	4.983807e+04	
68	-3.40000e+00	5.545222e+04	
69	-3.45000e+00	6.219371e+04	
70	-3.50000e+00	7.030019e+04	
71	-3.55000e+00	8.000402e+04	
72	-3.60000e+00	9.147304e+04	
73	-3.65000e+00	1.047251e+05	
74	-3.70000e+00	1.195462e+05	
75	-3.75000e+00	1.354688e+05	
76	-3.80000e+00	1.518523e+05	
77	-3.85000e+00	1.680412e+05	
78	-3.90000e+00	1.835159e+05	
79	-3.95000e+00	1.979639e+05	
80	-4.00000e+00	2.112662e+05	
81	-4.05000e+00	2.234396e+05	
82	-4.10000e+00	2.345743e+05	
83	-4.15000e+00	2.447892e+05	
84	-4.20000e+00	2.542048e+05	
85	-4.25000e+00	2.629306e+05	
86	-4.30000e+00	2.710607e+05	
87	-4.35000e+00	2.786737e+05	
88	-4.40000e+00	2.858348e+05	
89	-4.45000e+00	2.925972e+05	
90	-4.50000e+00	2.990051e+05	
91	-4.55000e+00	3.050950e+05	
92	-4.60000e+00	3.108976e+05	
93	-4.65000e+00	3.164387e+05	
94	-4.70000e+00	3.217402e+05	
95	-4.75000e+00	3.268212e+05	
96	-4.80000e+00	3.316981e+05	
97	-4.85000e+00	3.363854e+05	
98	-4.90000e+00	3.408957e+05	
99	-4.95000e+00	3.452405e+05	
100	-5.00000e+00	3.494299e+05	
101	-5.05000e+00	3.534731e+05	
102	-5.10000e+00	3.573785e+05	
103	-5.15000e+00	3.611535e+05	
104	-5.20000e+00	3.648052e+05	
105	-5.25000e+00	3.683400e+05	
106	-5.30000e+00	3.717637e+05	
107	-5.35000e+00	3.750817e+05	
108	-5.40000e+00	3.782992e+05	
109	-5.45000e+00	3.814209e+05	
110	-5.50000e+00	3.844510e+05	
111	-5.55000e+00	3.873938e+05	
112	-5.60000e+00	3.902530e+05	

Index   v-sweep         rds             
--------------------------------------------------------------------------------
113	-5.65000e+00	3.930323e+05	
114	-5.70000e+00	3.957350e+05	
115	-5.75000e+00	3.983643e+05	
116	-5.80000e+00	4.009233e+05	
117	-5.85000e+00	4.034147e+05	
118	-5.90000e+00	4.058412e+05	
119	-5.95000e+00	4.082053e+05	
120	-6.00000e+00	4.105096e+05	
121	-6.05000e+00	4.127561e+05	
122	-6.10000e+00	4.149471e+05	
123	-6.15000e+00	4.170846e+05	
124	-6.20000e+00	4.191706e+05	
125	-6.25000e+00	4.212068e+05	
126	-6.30000e+00	4.231951e+05	
127	-6.35000e+00	4.251371e+05	
128	-6.40000e+00	4.270345e+05	
129	-6.45000e+00	4.288887e+05	
130	-6.50000e+00	4.307011e+05	
131	-6.55000e+00	4.324732e+05	
132	-6.60000e+00	4.342063e+05	
Reset re-loads circuit ***************************

Circuit: ***************************

Note: No ".plot", ".print", or ".fourier" lines; no simulations run
