
Note: Compatibility modes selected: hs

Warning: m=xx on .subckt line will override multiplier m hierarchy!


Circuit: ***************************

Doing analysis at TEMP = 125.000000 and TNOM = 125.000000


No. of Data Rows : 133
                          ***************************
                          DC transfer characteristic  Mon Jan  9 13:57:55  2023
--------------------------------------------------------------------------------
Index   v-sweep         rds             
--------------------------------------------------------------------------------
0	0.000000e+00	6.029338e+05	
1	-5.00000e-02	7.436649e+05	
2	-1.00000e-01	9.671708e+05	
3	-1.50000e-01	1.369649e+06	
4	-2.00000e-01	2.242194e+06	
5	-2.50000e-01	4.584385e+06	
6	-3.00000e-01	1.101349e+07	
7	-3.50000e-01	2.326276e+07	
8	-4.00000e-01	3.728580e+07	
9	-4.50000e-01	4.869863e+07	
10	-5.00000e-01	5.698941e+07	
11	-5.50000e-01	6.313405e+07	
12	-6.00000e-01	6.798974e+07	
13	-6.50000e-01	7.208006e+07	
14	-7.00000e-01	7.570138e+07	
15	-7.50000e-01	7.902190e+07	
16	-8.00000e-01	8.213968e+07	
17	-8.50000e-01	8.511396e+07	
18	-9.00000e-01	8.798178e+07	
19	-9.50000e-01	9.076712e+07	
20	-1.00000e+00	9.348601e+07	
21	-1.05000e+00	9.614945e+07	
22	-1.10000e+00	9.876523e+07	
23	-1.15000e+00	1.013390e+08	
24	-1.20000e+00	1.038749e+08	
25	-1.25000e+00	1.063761e+08	
26	-1.30000e+00	1.088451e+08	
27	-1.35000e+00	1.112838e+08	
28	-1.40000e+00	1.136938e+08	
29	-1.45000e+00	1.160764e+08	
30	-1.50000e+00	1.184326e+08	
31	-1.55000e+00	1.207633e+08	
32	-1.60000e+00	1.230693e+08	
33	-1.65000e+00	1.253514e+08	
34	-1.70000e+00	1.276101e+08	
35	-1.75000e+00	1.298460e+08	
36	-1.80000e+00	1.320595e+08	
37	-1.85000e+00	1.342511e+08	
38	-1.90000e+00	1.364212e+08	
39	-1.95000e+00	1.385703e+08	
40	-2.00000e+00	1.406987e+08	
41	-2.05000e+00	1.428066e+08	
42	-2.10000e+00	1.448946e+08	
43	-2.15000e+00	1.469628e+08	
44	-2.20000e+00	1.490116e+08	
45	-2.25000e+00	1.510413e+08	
46	-2.30000e+00	1.530520e+08	
47	-2.35000e+00	1.550442e+08	
48	-2.40000e+00	1.570181e+08	
49	-2.45000e+00	1.589738e+08	
50	-2.50000e+00	1.609118e+08	
51	-2.55000e+00	1.628321e+08	
52	-2.60000e+00	1.647350e+08	
53	-2.65000e+00	1.666208e+08	
54	-2.70000e+00	1.684897e+08	

Index   v-sweep         rds             
--------------------------------------------------------------------------------
55	-2.75000e+00	1.703419e+08	
56	-2.80000e+00	1.721775e+08	
57	-2.85000e+00	1.739969e+08	
58	-2.90000e+00	1.758002e+08	
59	-2.95000e+00	1.775875e+08	
60	-3.00000e+00	1.793592e+08	
61	-3.05000e+00	1.811154e+08	
62	-3.10000e+00	1.828562e+08	
63	-3.15000e+00	1.845819e+08	
64	-3.20000e+00	1.862926e+08	
65	-3.25000e+00	1.879885e+08	
66	-3.30000e+00	1.896698e+08	
67	-3.35000e+00	1.913366e+08	
68	-3.40000e+00	1.929891e+08	
69	-3.45000e+00	1.946274e+08	
70	-3.50000e+00	1.962518e+08	
71	-3.55000e+00	1.978623e+08	
72	-3.60000e+00	1.994590e+08	
73	-3.65000e+00	2.010423e+08	
74	-3.70000e+00	2.026120e+08	
75	-3.75000e+00	2.041685e+08	
76	-3.80000e+00	2.057118e+08	
77	-3.85000e+00	2.072420e+08	
78	-3.90000e+00	2.087593e+08	
79	-3.95000e+00	2.102638e+08	
80	-4.00000e+00	2.117556e+08	
81	-4.05000e+00	2.132347e+08	
82	-4.10000e+00	2.147014e+08	
83	-4.15000e+00	2.161556e+08	
84	-4.20000e+00	2.175975e+08	
85	-4.25000e+00	2.190272e+08	
86	-4.30000e+00	2.204447e+08	
87	-4.35000e+00	2.218501e+08	
88	-4.40000e+00	2.232436e+08	
89	-4.45000e+00	2.246251e+08	
90	-4.50000e+00	2.259948e+08	
91	-4.55000e+00	2.273526e+08	
92	-4.60000e+00	2.286988e+08	
93	-4.65000e+00	2.300332e+08	
94	-4.70000e+00	2.313560e+08	
95	-4.75000e+00	2.326672e+08	
96	-4.80000e+00	2.339669e+08	
97	-4.85000e+00	2.352550e+08	
98	-4.90000e+00	2.365317e+08	
99	-4.95000e+00	2.377969e+08	
100	-5.00000e+00	2.390508e+08	
101	-5.05000e+00	2.402932e+08	
102	-5.10000e+00	2.415243e+08	
103	-5.15000e+00	2.427441e+08	
104	-5.20000e+00	2.439525e+08	
105	-5.25000e+00	2.451496e+08	
106	-5.30000e+00	2.463355e+08	
107	-5.35000e+00	2.475100e+08	
108	-5.40000e+00	2.486733e+08	
109	-5.45000e+00	2.498253e+08	
110	-5.50000e+00	2.509660e+08	
111	-5.55000e+00	2.520954e+08	
112	-5.60000e+00	2.532136e+08	

Index   v-sweep         rds             
--------------------------------------------------------------------------------
113	-5.65000e+00	2.543205e+08	
114	-5.70000e+00	2.554162e+08	
115	-5.75000e+00	2.565005e+08	
116	-5.80000e+00	2.575736e+08	
117	-5.85000e+00	2.586354e+08	
118	-5.90000e+00	2.596859e+08	
119	-5.95000e+00	2.607251e+08	
120	-6.00000e+00	2.617530e+08	
121	-6.05000e+00	2.627695e+08	
122	-6.10000e+00	2.637747e+08	
123	-6.15000e+00	2.647686e+08	
124	-6.20000e+00	2.657511e+08	
125	-6.25000e+00	2.667222e+08	
126	-6.30000e+00	2.676820e+08	
127	-6.35000e+00	2.686304e+08	
128	-6.40000e+00	2.695673e+08	
129	-6.45000e+00	2.704929e+08	
130	-6.50000e+00	2.714071e+08	
131	-6.55000e+00	2.723098e+08	
132	-6.60000e+00	2.732011e+08	
Reset re-loads circuit ***************************

Circuit: ***************************

Doing analysis at TEMP = 125.000000 and TNOM = 125.000000


No. of Data Rows : 133
                          ***************************
                          DC transfer characteristic  Mon Jan  9 13:57:55  2023
--------------------------------------------------------------------------------
Index   v-sweep         rds             
--------------------------------------------------------------------------------
0	0.000000e+00	1.449965e+05	
1	-5.00000e-02	1.527295e+05	
2	-1.00000e-01	1.613107e+05	
3	-1.50000e-01	1.708876e+05	
4	-2.00000e-01	1.816436e+05	
5	-2.50000e-01	1.938102e+05	
6	-3.00000e-01	2.076834e+05	
7	-3.50000e-01	2.236474e+05	
8	-4.00000e-01	2.422106e+05	
9	-4.50000e-01	2.640584e+05	
10	-5.00000e-01	2.901369e+05	
11	-5.50000e-01	3.217859e+05	
12	-6.00000e-01	3.609601e+05	
13	-6.50000e-01	4.106073e+05	
14	-7.00000e-01	4.753369e+05	
15	-7.50000e-01	5.626262e+05	
16	-8.00000e-01	6.849752e+05	
17	-8.50000e-01	8.633831e+05	
18	-9.00000e-01	1.130941e+06	
19	-9.50000e-01	1.528467e+06	
20	-1.00000e+00	2.074488e+06	
21	-1.05000e+00	2.719104e+06	
22	-1.10000e+00	3.358409e+06	
23	-1.15000e+00	3.915415e+06	
24	-1.20000e+00	4.374268e+06	
25	-1.25000e+00	4.752940e+06	
26	-1.30000e+00	5.074913e+06	
27	-1.35000e+00	5.358673e+06	
28	-1.40000e+00	5.616727e+06	
29	-1.45000e+00	5.857131e+06	
30	-1.50000e+00	6.085028e+06	
31	-1.55000e+00	6.303738e+06	
32	-1.60000e+00	6.515442e+06	
33	-1.65000e+00	6.721601e+06	
34	-1.70000e+00	6.923222e+06	
35	-1.75000e+00	7.121010e+06	
36	-1.80000e+00	7.315472e+06	
37	-1.85000e+00	7.506979e+06	
38	-1.90000e+00	7.695811e+06	
39	-1.95000e+00	7.882180e+06	
40	-2.00000e+00	8.066253e+06	
41	-2.05000e+00	8.248161e+06	
42	-2.10000e+00	8.428011e+06	
43	-2.15000e+00	8.605892e+06	
44	-2.20000e+00	8.781876e+06	
45	-2.25000e+00	8.956026e+06	
46	-2.30000e+00	9.128397e+06	
47	-2.35000e+00	9.299037e+06	
48	-2.40000e+00	9.467987e+06	
49	-2.45000e+00	9.635286e+06	
50	-2.50000e+00	9.800968e+06	
51	-2.55000e+00	9.965064e+06	
52	-2.60000e+00	1.012761e+07	
53	-2.65000e+00	1.028862e+07	
54	-2.70000e+00	1.044813e+07	

Index   v-sweep         rds             
--------------------------------------------------------------------------------
55	-2.75000e+00	1.060616e+07	
56	-2.80000e+00	1.076274e+07	
57	-2.85000e+00	1.091788e+07	
58	-2.90000e+00	1.107162e+07	
59	-2.95000e+00	1.122396e+07	
60	-3.00000e+00	1.137493e+07	
61	-3.05000e+00	1.152455e+07	
62	-3.10000e+00	1.167283e+07	
63	-3.15000e+00	1.181980e+07	
64	-3.20000e+00	1.196547e+07	
65	-3.25000e+00	1.210985e+07	
66	-3.30000e+00	1.225298e+07	
67	-3.35000e+00	1.239485e+07	
68	-3.40000e+00	1.253549e+07	
69	-3.45000e+00	1.267492e+07	
70	-3.50000e+00	1.281314e+07	
71	-3.55000e+00	1.295017e+07	
72	-3.60000e+00	1.308603e+07	
73	-3.65000e+00	1.322073e+07	
74	-3.70000e+00	1.335428e+07	
75	-3.75000e+00	1.348671e+07	
76	-3.80000e+00	1.361801e+07	
77	-3.85000e+00	1.374821e+07	
78	-3.90000e+00	1.387732e+07	
79	-3.95000e+00	1.400534e+07	
80	-4.00000e+00	1.413230e+07	
81	-4.05000e+00	1.425820e+07	
82	-4.10000e+00	1.438305e+07	
83	-4.15000e+00	1.450687e+07	
84	-4.20000e+00	1.462967e+07	
85	-4.25000e+00	1.475145e+07	
86	-4.30000e+00	1.487223e+07	
87	-4.35000e+00	1.499202e+07	
88	-4.40000e+00	1.511082e+07	
89	-4.45000e+00	1.522865e+07	
90	-4.50000e+00	1.534552e+07	
91	-4.55000e+00	1.546143e+07	
92	-4.60000e+00	1.557639e+07	
93	-4.65000e+00	1.569041e+07	
94	-4.70000e+00	1.580350e+07	
95	-4.75000e+00	1.591566e+07	
96	-4.80000e+00	1.602691e+07	
97	-4.85000e+00	1.613724e+07	
98	-4.90000e+00	1.624667e+07	
99	-4.95000e+00	1.635519e+07	
100	-5.00000e+00	1.646283e+07	
101	-5.05000e+00	1.656957e+07	
102	-5.10000e+00	1.667543e+07	
103	-5.15000e+00	1.678041e+07	
104	-5.20000e+00	1.688452e+07	
105	-5.25000e+00	1.698776e+07	
106	-5.30000e+00	1.709012e+07	
107	-5.35000e+00	1.719163e+07	
108	-5.40000e+00	1.729227e+07	
109	-5.45000e+00	1.739205e+07	
110	-5.50000e+00	1.749098e+07	
111	-5.55000e+00	1.758905e+07	
112	-5.60000e+00	1.768627e+07	

Index   v-sweep         rds             
--------------------------------------------------------------------------------
113	-5.65000e+00	1.778264e+07	
114	-5.70000e+00	1.787817e+07	
115	-5.75000e+00	1.797284e+07	
116	-5.80000e+00	1.806667e+07	
117	-5.85000e+00	1.815965e+07	
118	-5.90000e+00	1.825178e+07	
119	-5.95000e+00	1.834307e+07	
120	-6.00000e+00	1.843351e+07	
121	-6.05000e+00	1.852311e+07	
122	-6.10000e+00	1.861185e+07	
123	-6.15000e+00	1.869976e+07	
124	-6.20000e+00	1.878681e+07	
125	-6.25000e+00	1.887302e+07	
126	-6.30000e+00	1.895837e+07	
127	-6.35000e+00	1.904288e+07	
128	-6.40000e+00	1.912653e+07	
129	-6.45000e+00	1.920933e+07	
130	-6.50000e+00	1.929128e+07	
131	-6.55000e+00	1.937237e+07	
132	-6.60000e+00	1.945260e+07	
Reset re-loads circuit ***************************

Circuit: ***************************

Doing analysis at TEMP = 125.000000 and TNOM = 125.000000


No. of Data Rows : 133
                          ***************************
                          DC transfer characteristic  Mon Jan  9 13:57:55  2023
--------------------------------------------------------------------------------
Index   v-sweep         rds             
--------------------------------------------------------------------------------
0	0.000000e+00	8.702185e+04	
1	-5.00000e-02	8.967509e+04	
2	-1.00000e-01	9.248890e+04	
3	-1.50000e-01	9.547829e+04	
4	-2.00000e-01	9.866021e+04	
5	-2.50000e-01	1.020539e+05	
6	-3.00000e-01	1.056811e+05	
7	-3.50000e-01	1.095668e+05	
8	-4.00000e-01	1.137397e+05	
9	-4.50000e-01	1.182327e+05	
10	-5.00000e-01	1.230841e+05	
11	-5.50000e-01	1.283385e+05	
12	-6.00000e-01	1.340481e+05	
13	-6.50000e-01	1.402746e+05	
14	-7.00000e-01	1.470912e+05	
15	-7.50000e-01	1.545858e+05	
16	-8.00000e-01	1.628643e+05	
17	-8.50000e-01	1.720557e+05	
18	-9.00000e-01	1.823189e+05	
19	-9.50000e-01	1.938511e+05	
20	-1.00000e+00	2.069007e+05	
21	-1.05000e+00	2.217838e+05	
22	-1.10000e+00	2.389087e+05	
23	-1.15000e+00	2.588105e+05	
24	-1.20000e+00	2.822012e+05	
25	-1.25000e+00	3.100435e+05	
26	-1.30000e+00	3.436582e+05	
27	-1.35000e+00	3.848785e+05	
28	-1.40000e+00	4.362568e+05	
29	-1.45000e+00	5.012966e+05	
30	-1.50000e+00	5.845611e+05	
31	-1.55000e+00	6.912274e+05	
32	-1.60000e+00	8.252664e+05	
33	-1.65000e+00	9.857731e+05	
34	-1.70000e+00	1.163615e+06	
35	-1.75000e+00	1.343394e+06	
36	-1.80000e+00	1.511170e+06	
37	-1.85000e+00	1.660319e+06	
38	-1.90000e+00	1.790979e+06	
39	-1.95000e+00	1.906463e+06	
40	-2.00000e+00	2.010546e+06	
41	-2.05000e+00	2.106352e+06	
42	-2.10000e+00	2.196165e+06	
43	-2.15000e+00	2.281578e+06	
44	-2.20000e+00	2.363676e+06	
45	-2.25000e+00	2.443205e+06	
46	-2.30000e+00	2.520675e+06	
47	-2.35000e+00	2.596446e+06	
48	-2.40000e+00	2.670774e+06	
49	-2.45000e+00	2.743843e+06	
50	-2.50000e+00	2.815789e+06	
51	-2.55000e+00	2.886716e+06	
52	-2.60000e+00	2.956701e+06	
53	-2.65000e+00	3.025806e+06	
54	-2.70000e+00	3.094080e+06	

Index   v-sweep         rds             
--------------------------------------------------------------------------------
55	-2.75000e+00	3.161564e+06	
56	-2.80000e+00	3.228288e+06	
57	-2.85000e+00	3.294282e+06	
58	-2.90000e+00	3.359568e+06	
59	-2.95000e+00	3.424167e+06	
60	-3.00000e+00	3.488096e+06	
61	-3.05000e+00	3.551373e+06	
62	-3.10000e+00	3.614011e+06	
63	-3.15000e+00	3.676023e+06	
64	-3.20000e+00	3.737421e+06	
65	-3.25000e+00	3.798218e+06	
66	-3.30000e+00	3.858423e+06	
67	-3.35000e+00	3.918046e+06	
68	-3.40000e+00	3.977098e+06	
69	-3.45000e+00	4.035586e+06	
70	-3.50000e+00	4.093521e+06	
71	-3.55000e+00	4.150909e+06	
72	-3.60000e+00	4.207759e+06	
73	-3.65000e+00	4.264079e+06	
74	-3.70000e+00	4.319877e+06	
75	-3.75000e+00	4.375159e+06	
76	-3.80000e+00	4.429932e+06	
77	-3.85000e+00	4.484205e+06	
78	-3.90000e+00	4.537983e+06	
79	-3.95000e+00	4.591273e+06	
80	-4.00000e+00	4.644081e+06	
81	-4.05000e+00	4.696414e+06	
82	-4.10000e+00	4.748277e+06	
83	-4.15000e+00	4.799678e+06	
84	-4.20000e+00	4.850621e+06	
85	-4.25000e+00	4.901113e+06	
86	-4.30000e+00	4.951159e+06	
87	-4.35000e+00	5.000764e+06	
88	-4.40000e+00	5.049935e+06	
89	-4.45000e+00	5.098676e+06	
90	-4.50000e+00	5.146993e+06	
91	-4.55000e+00	5.194890e+06	
92	-4.60000e+00	5.242372e+06	
93	-4.65000e+00	5.289445e+06	
94	-4.70000e+00	5.336113e+06	
95	-4.75000e+00	5.382380e+06	
96	-4.80000e+00	5.428252e+06	
97	-4.85000e+00	5.473731e+06	
98	-4.90000e+00	5.518824e+06	
99	-4.95000e+00	5.563533e+06	
100	-5.00000e+00	5.607863e+06	
101	-5.05000e+00	5.651817e+06	
102	-5.10000e+00	5.695400e+06	
103	-5.15000e+00	5.738614e+06	
104	-5.20000e+00	5.781464e+06	
105	-5.25000e+00	5.823952e+06	
106	-5.30000e+00	5.866082e+06	
107	-5.35000e+00	5.907857e+06	
108	-5.40000e+00	5.949279e+06	
109	-5.45000e+00	5.990352e+06	
110	-5.50000e+00	6.031079e+06	
111	-5.55000e+00	6.071461e+06	
112	-5.60000e+00	6.111501e+06	

Index   v-sweep         rds             
--------------------------------------------------------------------------------
113	-5.65000e+00	6.151202e+06	
114	-5.70000e+00	6.190565e+06	
115	-5.75000e+00	6.229592e+06	
116	-5.80000e+00	6.268286e+06	
117	-5.85000e+00	6.306648e+06	
118	-5.90000e+00	6.344680e+06	
119	-5.95000e+00	6.382383e+06	
120	-6.00000e+00	6.419758e+06	
121	-6.05000e+00	6.456808e+06	
122	-6.10000e+00	6.493532e+06	
123	-6.15000e+00	6.529932e+06	
124	-6.20000e+00	6.566009e+06	
125	-6.25000e+00	6.601763e+06	
126	-6.30000e+00	6.637196e+06	
127	-6.35000e+00	6.672307e+06	
128	-6.40000e+00	6.707098e+06	
129	-6.45000e+00	6.741569e+06	
130	-6.50000e+00	6.775719e+06	
131	-6.55000e+00	6.809550e+06	
132	-6.60000e+00	6.843061e+06	
Reset re-loads circuit ***************************

Circuit: ***************************

Doing analysis at TEMP = 125.000000 and TNOM = 125.000000


No. of Data Rows : 133
                          ***************************
                          DC transfer characteristic  Mon Jan  9 13:57:55  2023
--------------------------------------------------------------------------------
Index   v-sweep         rds             
--------------------------------------------------------------------------------
0	0.000000e+00	6.399932e+04	
1	-5.00000e-02	6.537143e+04	
2	-1.00000e-01	6.680080e+04	
3	-1.50000e-01	6.829111e+04	
4	-2.00000e-01	6.984632e+04	
5	-2.50000e-01	7.147078e+04	
6	-3.00000e-01	7.316919e+04	
7	-3.50000e-01	7.494674e+04	
8	-4.00000e-01	7.680908e+04	
9	-4.50000e-01	7.876241e+04	
10	-5.00000e-01	8.081357e+04	
11	-5.50000e-01	8.297009e+04	
12	-6.00000e-01	8.524029e+04	
13	-6.50000e-01	8.763340e+04	
14	-7.00000e-01	9.015965e+04	
15	-7.50000e-01	9.283047e+04	
16	-8.00000e-01	9.565862e+04	
17	-8.50000e-01	9.865838e+04	
18	-9.00000e-01	1.018458e+05	
19	-9.50000e-01	1.052392e+05	
20	-1.00000e+00	1.088589e+05	
21	-1.05000e+00	1.127284e+05	
22	-1.10000e+00	1.168745e+05	
23	-1.15000e+00	1.213277e+05	
24	-1.20000e+00	1.261233e+05	
25	-1.25000e+00	1.313023e+05	
26	-1.30000e+00	1.369122e+05	
27	-1.35000e+00	1.430090e+05	
28	-1.40000e+00	1.496582e+05	
29	-1.45000e+00	1.569380e+05	
30	-1.50000e+00	1.649415e+05	
31	-1.55000e+00	1.737808e+05	
32	-1.60000e+00	1.835919e+05	
33	-1.65000e+00	1.945410e+05	
34	-1.70000e+00	2.068333e+05	
35	-1.75000e+00	2.207236e+05	
36	-1.80000e+00	2.365318e+05	
37	-1.85000e+00	2.546618e+05	
38	-1.90000e+00	2.756263e+05	
39	-1.95000e+00	3.000766e+05	
40	-2.00000e+00	3.288349e+05	
41	-2.05000e+00	3.629160e+05	
42	-2.10000e+00	4.035125e+05	
43	-2.15000e+00	4.518820e+05	
44	-2.20000e+00	5.090433e+05	
45	-2.25000e+00	5.752077e+05	
46	-2.30000e+00	6.490758e+05	
47	-2.35000e+00	7.275276e+05	
48	-2.40000e+00	8.063333e+05	
49	-2.45000e+00	8.816922e+05	
50	-2.50000e+00	9.514377e+05	
51	-2.55000e+00	1.015133e+06	
52	-2.60000e+00	1.073417e+06	
53	-2.65000e+00	1.127308e+06	
54	-2.70000e+00	1.177794e+06	

Index   v-sweep         rds             
--------------------------------------------------------------------------------
55	-2.75000e+00	1.225682e+06	
56	-2.80000e+00	1.271579e+06	
57	-2.85000e+00	1.315923e+06	
58	-2.90000e+00	1.359027e+06	
59	-2.95000e+00	1.401114e+06	
60	-3.00000e+00	1.442345e+06	
61	-3.05000e+00	1.482835e+06	
62	-3.10000e+00	1.522669e+06	
63	-3.15000e+00	1.561911e+06	
64	-3.20000e+00	1.600609e+06	
65	-3.25000e+00	1.638800e+06	
66	-3.30000e+00	1.676515e+06	
67	-3.35000e+00	1.713776e+06	
68	-3.40000e+00	1.750603e+06	
69	-3.45000e+00	1.787013e+06	
70	-3.50000e+00	1.823018e+06	
71	-3.55000e+00	1.858630e+06	
72	-3.60000e+00	1.893861e+06	
73	-3.65000e+00	1.928719e+06	
74	-3.70000e+00	1.963212e+06	
75	-3.75000e+00	1.997348e+06	
76	-3.80000e+00	2.031134e+06	
77	-3.85000e+00	2.064577e+06	
78	-3.90000e+00	2.097683e+06	
79	-3.95000e+00	2.130457e+06	
80	-4.00000e+00	2.162905e+06	
81	-4.05000e+00	2.195032e+06	
82	-4.10000e+00	2.226843e+06	
83	-4.15000e+00	2.258343e+06	
84	-4.20000e+00	2.289537e+06	
85	-4.25000e+00	2.320429e+06	
86	-4.30000e+00	2.351023e+06	
87	-4.35000e+00	2.381324e+06	
88	-4.40000e+00	2.411336e+06	
89	-4.45000e+00	2.441063e+06	
90	-4.50000e+00	2.470509e+06	
91	-4.55000e+00	2.499678e+06	
92	-4.60000e+00	2.528573e+06	
93	-4.65000e+00	2.557198e+06	
94	-4.70000e+00	2.585557e+06	
95	-4.75000e+00	2.613654e+06	
96	-4.80000e+00	2.641491e+06	
97	-4.85000e+00	2.669072e+06	
98	-4.90000e+00	2.696401e+06	
99	-4.95000e+00	2.723480e+06	
100	-5.00000e+00	2.750313e+06	
101	-5.05000e+00	2.776904e+06	
102	-5.10000e+00	2.803254e+06	
103	-5.15000e+00	2.829367e+06	
104	-5.20000e+00	2.855247e+06	
105	-5.25000e+00	2.880895e+06	
106	-5.30000e+00	2.906314e+06	
107	-5.35000e+00	2.931508e+06	
108	-5.40000e+00	2.956479e+06	
109	-5.45000e+00	2.981229e+06	
110	-5.50000e+00	3.005762e+06	
111	-5.55000e+00	3.030078e+06	
112	-5.60000e+00	3.054182e+06	

Index   v-sweep         rds             
--------------------------------------------------------------------------------
113	-5.65000e+00	3.078074e+06	
114	-5.70000e+00	3.101758e+06	
115	-5.75000e+00	3.125236e+06	
116	-5.80000e+00	3.148508e+06	
117	-5.85000e+00	3.171579e+06	
118	-5.90000e+00	3.194448e+06	
119	-5.95000e+00	3.217120e+06	
120	-6.00000e+00	3.239594e+06	
121	-6.05000e+00	3.261872e+06	
122	-6.10000e+00	3.283958e+06	
123	-6.15000e+00	3.305851e+06	
124	-6.20000e+00	3.327553e+06	
125	-6.25000e+00	3.349066e+06	
126	-6.30000e+00	3.370392e+06	
127	-6.35000e+00	3.391530e+06	
128	-6.40000e+00	3.412483e+06	
129	-6.45000e+00	3.433251e+06	
130	-6.50000e+00	3.453837e+06	
131	-6.55000e+00	3.474239e+06	
132	-6.60000e+00	3.494460e+06	
Reset re-loads circuit ***************************

Circuit: ***************************

Doing analysis at TEMP = 125.000000 and TNOM = 125.000000


No. of Data Rows : 133
                          ***************************
                          DC transfer characteristic  Mon Jan  9 13:57:55  2023
--------------------------------------------------------------------------------
Index   v-sweep         rds             
--------------------------------------------------------------------------------
0	0.000000e+00	5.154416e+04	
1	-5.00000e-02	5.239804e+04	
2	-1.00000e-01	5.327908e+04	
3	-1.50000e-01	5.418862e+04	
4	-2.00000e-01	5.512804e+04	
5	-2.50000e-01	5.609885e+04	
6	-3.00000e-01	5.710264e+04	
7	-3.50000e-01	5.814112e+04	
8	-4.00000e-01	5.921613e+04	
9	-4.50000e-01	6.032962e+04	
10	-5.00000e-01	6.148369e+04	
11	-5.50000e-01	6.268060e+04	
12	-6.00000e-01	6.392278e+04	
13	-6.50000e-01	6.521285e+04	
14	-7.00000e-01	6.655363e+04	
15	-7.50000e-01	6.794816e+04	
16	-8.00000e-01	6.939974e+04	
17	-8.50000e-01	7.091195e+04	
18	-9.00000e-01	7.248864e+04	
19	-9.50000e-01	7.413405e+04	
20	-1.00000e+00	7.585274e+04	
21	-1.05000e+00	7.764974e+04	
22	-1.10000e+00	7.953049e+04	
23	-1.15000e+00	8.150099e+04	
24	-1.20000e+00	8.356781e+04	
25	-1.25000e+00	8.573818e+04	
26	-1.30000e+00	8.802006e+04	
27	-1.35000e+00	9.042226e+04	
28	-1.40000e+00	9.295453e+04	
29	-1.45000e+00	9.562770e+04	
30	-1.50000e+00	9.845383e+04	
31	-1.55000e+00	1.014464e+05	
32	-1.60000e+00	1.046205e+05	
33	-1.65000e+00	1.079931e+05	
34	-1.70000e+00	1.115834e+05	
35	-1.75000e+00	1.154129e+05	
36	-1.80000e+00	1.195064e+05	
37	-1.85000e+00	1.238918e+05	
38	-1.90000e+00	1.286014e+05	
39	-1.95000e+00	1.336720e+05	
40	-2.00000e+00	1.391465e+05	
41	-2.05000e+00	1.450745e+05	
42	-2.10000e+00	1.515138e+05	
43	-2.15000e+00	1.585325e+05	
44	-2.20000e+00	1.662105e+05	
45	-2.25000e+00	1.746429e+05	
46	-2.30000e+00	1.839427e+05	
47	-2.35000e+00	1.942454e+05	
48	-2.40000e+00	2.057135e+05	
49	-2.45000e+00	2.185430e+05	
50	-2.50000e+00	2.329696e+05	
51	-2.55000e+00	2.492758e+05	
52	-2.60000e+00	2.677956e+05	
53	-2.65000e+00	2.889144e+05	
54	-2.70000e+00	3.130554e+05	

Index   v-sweep         rds             
--------------------------------------------------------------------------------
55	-2.75000e+00	3.406403e+05	
56	-2.80000e+00	3.720065e+05	
57	-2.85000e+00	4.072685e+05	
58	-2.90000e+00	4.461372e+05	
59	-2.95000e+00	4.877798e+05	
60	-3.00000e+00	5.308589e+05	
61	-3.05000e+00	5.738306e+05	
62	-3.10000e+00	6.153823e+05	
63	-3.15000e+00	6.547370e+05	
64	-3.20000e+00	6.916763e+05	
65	-3.25000e+00	7.263629e+05	
66	-3.30000e+00	7.591301e+05	
67	-3.35000e+00	7.903371e+05	
68	-3.40000e+00	8.202989e+05	
69	-3.45000e+00	8.492663e+05	
70	-3.50000e+00	8.774291e+05	
71	-3.55000e+00	9.049276e+05	
72	-3.60000e+00	9.318644e+05	
73	-3.65000e+00	9.583150e+05	
74	-3.70000e+00	9.843348e+05	
75	-3.75000e+00	1.009965e+06	
76	-3.80000e+00	1.035238e+06	
77	-3.85000e+00	1.060177e+06	
78	-3.90000e+00	1.084801e+06	
79	-3.95000e+00	1.109126e+06	
80	-4.00000e+00	1.133163e+06	
81	-4.05000e+00	1.156923e+06	
82	-4.10000e+00	1.180414e+06	
83	-4.15000e+00	1.203645e+06	
84	-4.20000e+00	1.226621e+06	
85	-4.25000e+00	1.249349e+06	
86	-4.30000e+00	1.271833e+06	
87	-4.35000e+00	1.294079e+06	
88	-4.40000e+00	1.316091e+06	
89	-4.45000e+00	1.337873e+06	
90	-4.50000e+00	1.359430e+06	
91	-4.55000e+00	1.380764e+06	
92	-4.60000e+00	1.401881e+06	
93	-4.65000e+00	1.422782e+06	
94	-4.70000e+00	1.443472e+06	
95	-4.75000e+00	1.463953e+06	
96	-4.80000e+00	1.484230e+06	
97	-4.85000e+00	1.504304e+06	
98	-4.90000e+00	1.524178e+06	
99	-4.95000e+00	1.543856e+06	
100	-5.00000e+00	1.563341e+06	
101	-5.05000e+00	1.582635e+06	
102	-5.10000e+00	1.601741e+06	
103	-5.15000e+00	1.620661e+06	
104	-5.20000e+00	1.639397e+06	
105	-5.25000e+00	1.657954e+06	
106	-5.30000e+00	1.676332e+06	
107	-5.35000e+00	1.694535e+06	
108	-5.40000e+00	1.712565e+06	
109	-5.45000e+00	1.730423e+06	
110	-5.50000e+00	1.748113e+06	
111	-5.55000e+00	1.765637e+06	
112	-5.60000e+00	1.782996e+06	

Index   v-sweep         rds             
--------------------------------------------------------------------------------
113	-5.65000e+00	1.800193e+06	
114	-5.70000e+00	1.817230e+06	
115	-5.75000e+00	1.834109e+06	
116	-5.80000e+00	1.850832e+06	
117	-5.85000e+00	1.867401e+06	
118	-5.90000e+00	1.883818e+06	
119	-5.95000e+00	1.900085e+06	
120	-6.00000e+00	1.916203e+06	
121	-6.05000e+00	1.932175e+06	
122	-6.10000e+00	1.948002e+06	
123	-6.15000e+00	1.963685e+06	
124	-6.20000e+00	1.979227e+06	
125	-6.25000e+00	1.994630e+06	
126	-6.30000e+00	2.009893e+06	
127	-6.35000e+00	2.025020e+06	
128	-6.40000e+00	2.040012e+06	
129	-6.45000e+00	2.054869e+06	
130	-6.50000e+00	2.069594e+06	
131	-6.55000e+00	2.084187e+06	
132	-6.60000e+00	2.098650e+06	
Reset re-loads circuit ***************************

Circuit: ***************************

Doing analysis at TEMP = 125.000000 and TNOM = 125.000000


No. of Data Rows : 133
                          ***************************
                          DC transfer characteristic  Mon Jan  9 13:57:55  2023
--------------------------------------------------------------------------------
Index   v-sweep         rds             
--------------------------------------------------------------------------------
0	0.000000e+00	4.368371e+04	
1	-5.00000e-02	4.427389e+04	
2	-1.00000e-01	4.487923e+04	
3	-1.50000e-01	4.550031e+04	
4	-2.00000e-01	4.613776e+04	
5	-2.50000e-01	4.679223e+04	
6	-3.00000e-01	4.746442e+04	
7	-3.50000e-01	4.815505e+04	
8	-4.00000e-01	4.886489e+04	
9	-4.50000e-01	4.959475e+04	
10	-5.00000e-01	5.034549e+04	
11	-5.50000e-01	5.111803e+04	
12	-6.00000e-01	5.191331e+04	
13	-6.50000e-01	5.273237e+04	
14	-7.00000e-01	5.357629e+04	
15	-7.50000e-01	5.444620e+04	
16	-8.00000e-01	5.534333e+04	
17	-8.50000e-01	5.626898e+04	
18	-9.00000e-01	5.722453e+04	
19	-9.50000e-01	5.821144e+04	
20	-1.00000e+00	5.923129e+04	
21	-1.05000e+00	6.028576e+04	
22	-1.10000e+00	6.137663e+04	
23	-1.15000e+00	6.250581e+04	
24	-1.20000e+00	6.367537e+04	
25	-1.25000e+00	6.488751e+04	
26	-1.30000e+00	6.614458e+04	
27	-1.35000e+00	6.744914e+04	
28	-1.40000e+00	6.880391e+04	
29	-1.45000e+00	7.021187e+04	
30	-1.50000e+00	7.167618e+04	
31	-1.55000e+00	7.320031e+04	
32	-1.60000e+00	7.478798e+04	
33	-1.65000e+00	7.644324e+04	
34	-1.70000e+00	7.817051e+04	
35	-1.75000e+00	7.997457e+04	
36	-1.80000e+00	8.186064e+04	
37	-1.85000e+00	8.383444e+04	
38	-1.90000e+00	8.590221e+04	
39	-1.95000e+00	8.807081e+04	
40	-2.00000e+00	9.034777e+04	
41	-2.05000e+00	9.274140e+04	
42	-2.10000e+00	9.526085e+04	
43	-2.15000e+00	9.791627e+04	
44	-2.20000e+00	1.007189e+05	
45	-2.25000e+00	1.036813e+05	
46	-2.30000e+00	1.068174e+05	
47	-2.35000e+00	1.101429e+05	
48	-2.40000e+00	1.136753e+05	
49	-2.45000e+00	1.174343e+05	
50	-2.50000e+00	1.214422e+05	
51	-2.55000e+00	1.257242e+05	
52	-2.60000e+00	1.303092e+05	
53	-2.65000e+00	1.352298e+05	
54	-2.70000e+00	1.405235e+05	

Index   v-sweep         rds             
--------------------------------------------------------------------------------
55	-2.75000e+00	1.462335e+05	
56	-2.80000e+00	1.524092e+05	
57	-2.85000e+00	1.591082e+05	
58	-2.90000e+00	1.663970e+05	
59	-2.95000e+00	1.743530e+05	
60	-3.00000e+00	1.830658e+05	
61	-3.05000e+00	1.926401e+05	
62	-3.10000e+00	2.031965e+05	
63	-3.15000e+00	2.148736e+05	
64	-3.20000e+00	2.278277e+05	
65	-3.25000e+00	2.422305e+05	
66	-3.30000e+00	2.582615e+05	
67	-3.35000e+00	2.760912e+05	
68	-3.40000e+00	2.958526e+05	
69	-3.45000e+00	3.175954e+05	
70	-3.50000e+00	3.412290e+05	
71	-3.55000e+00	3.664700e+05	
72	-3.60000e+00	3.928284e+05	
73	-3.65000e+00	4.196683e+05	
74	-3.70000e+00	4.463390e+05	
75	-3.75000e+00	4.723209e+05	
76	-3.80000e+00	4.973108e+05	
77	-3.85000e+00	5.212164e+05	
78	-3.90000e+00	5.440916e+05	
79	-3.95000e+00	5.660619e+05	
80	-4.00000e+00	5.872701e+05	
81	-4.05000e+00	6.078466e+05	
82	-4.10000e+00	6.278989e+05	
83	-4.15000e+00	6.475107e+05	
84	-4.20000e+00	6.667455e+05	
85	-4.25000e+00	6.856505e+05	
86	-4.30000e+00	7.042608e+05	
87	-4.35000e+00	7.226028e+05	
88	-4.40000e+00	7.406963e+05	
89	-4.45000e+00	7.585566e+05	
90	-4.50000e+00	7.761957e+05	
91	-4.55000e+00	7.936228e+05	
92	-4.60000e+00	8.108458e+05	
93	-4.65000e+00	8.278710e+05	
94	-4.70000e+00	8.447039e+05	
95	-4.75000e+00	8.613491e+05	
96	-4.80000e+00	8.778109e+05	
97	-4.85000e+00	8.940930e+05	
98	-4.90000e+00	9.101989e+05	
99	-4.95000e+00	9.261318e+05	
100	-5.00000e+00	9.418945e+05	
101	-5.05000e+00	9.574901e+05	
102	-5.10000e+00	9.729211e+05	
103	-5.15000e+00	9.881902e+05	
104	-5.20000e+00	1.003300e+06	
105	-5.25000e+00	1.018252e+06	
106	-5.30000e+00	1.033050e+06	
107	-5.35000e+00	1.047696e+06	
108	-5.40000e+00	1.062191e+06	
109	-5.45000e+00	1.076539e+06	
110	-5.50000e+00	1.090740e+06	
111	-5.55000e+00	1.104798e+06	
112	-5.60000e+00	1.118713e+06	

Index   v-sweep         rds             
--------------------------------------------------------------------------------
113	-5.65000e+00	1.132490e+06	
114	-5.70000e+00	1.146128e+06	
115	-5.75000e+00	1.159630e+06	
116	-5.80000e+00	1.172999e+06	
117	-5.85000e+00	1.186235e+06	
118	-5.90000e+00	1.199341e+06	
119	-5.95000e+00	1.212318e+06	
120	-6.00000e+00	1.225169e+06	
121	-6.05000e+00	1.237895e+06	
122	-6.10000e+00	1.250497e+06	
123	-6.15000e+00	1.262977e+06	
124	-6.20000e+00	1.275338e+06	
125	-6.25000e+00	1.287580e+06	
126	-6.30000e+00	1.299705e+06	
127	-6.35000e+00	1.311714e+06	
128	-6.40000e+00	1.323610e+06	
129	-6.45000e+00	1.335394e+06	
130	-6.50000e+00	1.347066e+06	
131	-6.55000e+00	1.358629e+06	
132	-6.60000e+00	1.370083e+06	
Reset re-loads circuit ***************************

Circuit: ***************************

Note: No ".plot", ".print", or ".fourier" lines; no simulations run
