
Note: Compatibility modes selected: hs

Warning: m=xx on .subckt line will override multiplier m hierarchy!


Circuit: ***************************

Doing analysis at TEMP = 25.000000 and TNOM = 25.000000


No. of Data Rows : 133
                          ***************************
                          DC transfer characteristic  Mon Jan  9 13:57:54  2023
--------------------------------------------------------------------------------
Index   v-sweep         rds             
--------------------------------------------------------------------------------
0	0.000000e+00	3.490358e+05	
1	-5.00000e-02	6.278467e+05	
2	-1.00000e-01	1.792748e+06	
3	-1.50000e-01	8.233636e+06	
4	-2.00000e-01	3.041425e+07	
5	-2.50000e-01	7.280041e+07	
6	-3.00000e-01	1.265561e+08	
7	-3.50000e-01	1.799749e+08	
8	-4.00000e-01	2.270255e+08	
9	-4.50000e-01	2.666915e+08	
10	-5.00000e-01	3.000022e+08	
11	-5.50000e-01	3.283467e+08	
12	-6.00000e-01	3.529125e+08	
13	-6.50000e-01	3.745941e+08	
14	-7.00000e-01	3.940384e+08	
15	-7.50000e-01	4.117103e+08	
16	-8.00000e-01	4.279466e+08	
17	-8.50000e-01	4.429953e+08	
18	-9.00000e-01	4.570421e+08	
19	-9.50000e-01	4.702289e+08	
20	-1.00000e+00	4.826667e+08	
21	-1.05000e+00	4.944432e+08	
22	-1.10000e+00	5.056297e+08	
23	-1.15000e+00	5.162846e+08	
24	-1.20000e+00	5.264568e+08	
25	-1.25000e+00	5.361875e+08	
26	-1.30000e+00	5.455121e+08	
27	-1.35000e+00	5.544612e+08	
28	-1.40000e+00	5.630617e+08	
29	-1.45000e+00	5.713373e+08	
30	-1.50000e+00	5.793089e+08	
31	-1.55000e+00	5.869955e+08	
32	-1.60000e+00	5.944139e+08	
33	-1.65000e+00	6.015797e+08	
34	-1.70000e+00	6.085067e+08	
35	-1.75000e+00	6.152080e+08	
36	-1.80000e+00	6.216952e+08	
37	-1.85000e+00	6.279791e+08	
38	-1.90000e+00	6.340699e+08	
39	-1.95000e+00	6.399768e+08	
40	-2.00000e+00	6.457085e+08	
41	-2.05000e+00	6.512730e+08	
42	-2.10000e+00	6.566779e+08	
43	-2.15000e+00	6.619301e+08	
44	-2.20000e+00	6.670364e+08	
45	-2.25000e+00	6.720028e+08	
46	-2.30000e+00	6.768352e+08	
47	-2.35000e+00	6.815391e+08	
48	-2.40000e+00	6.861197e+08	
49	-2.45000e+00	6.905818e+08	
50	-2.50000e+00	6.949301e+08	
51	-2.55000e+00	6.991689e+08	
52	-2.60000e+00	7.033023e+08	
53	-2.65000e+00	7.073344e+08	
54	-2.70000e+00	7.112687e+08	

Index   v-sweep         rds             
--------------------------------------------------------------------------------
55	-2.75000e+00	7.151088e+08	
56	-2.80000e+00	7.188582e+08	
57	-2.85000e+00	7.225199e+08	
58	-2.90000e+00	7.260971e+08	
59	-2.95000e+00	7.295925e+08	
60	-3.00000e+00	7.330091e+08	
61	-3.05000e+00	7.363493e+08	
62	-3.10000e+00	7.396158e+08	
63	-3.15000e+00	7.428108e+08	
64	-3.20000e+00	7.459368e+08	
65	-3.25000e+00	7.489959e+08	
66	-3.30000e+00	7.519901e+08	
67	-3.35000e+00	7.549216e+08	
68	-3.40000e+00	7.577921e+08	
69	-3.45000e+00	7.606035e+08	
70	-3.50000e+00	7.633577e+08	
71	-3.55000e+00	7.660561e+08	
72	-3.60000e+00	7.687006e+08	
73	-3.65000e+00	7.712925e+08	
74	-3.70000e+00	7.738334e+08	
75	-3.75000e+00	7.763247e+08	
76	-3.80000e+00	7.787677e+08	
77	-3.85000e+00	7.811638e+08	
78	-3.90000e+00	7.835142e+08	
79	-3.95000e+00	7.858200e+08	
80	-4.00000e+00	7.880825e+08	
81	-4.05000e+00	7.903028e+08	
82	-4.10000e+00	7.924818e+08	
83	-4.15000e+00	7.946206e+08	
84	-4.20000e+00	7.967202e+08	
85	-4.25000e+00	7.987816e+08	
86	-4.30000e+00	8.008056e+08	
87	-4.35000e+00	8.027930e+08	
88	-4.40000e+00	8.047448e+08	
89	-4.45000e+00	8.066617e+08	
90	-4.50000e+00	8.085445e+08	
91	-4.55000e+00	8.103939e+08	
92	-4.60000e+00	8.122106e+08	
93	-4.65000e+00	8.139953e+08	
94	-4.70000e+00	8.157487e+08	
95	-4.75000e+00	8.174714e+08	
96	-4.80000e+00	8.191641e+08	
97	-4.85000e+00	8.208272e+08	
98	-4.90000e+00	8.224614e+08	
99	-4.95000e+00	8.240672e+08	
100	-5.00000e+00	8.256451e+08	
101	-5.05000e+00	8.271956e+08	
102	-5.10000e+00	8.287193e+08	
103	-5.15000e+00	8.302166e+08	
104	-5.20000e+00	8.316879e+08	
105	-5.25000e+00	8.331337e+08	
106	-5.30000e+00	8.345544e+08	
107	-5.35000e+00	8.359504e+08	
108	-5.40000e+00	8.373221e+08	
109	-5.45000e+00	8.386699e+08	
110	-5.50000e+00	8.399942e+08	
111	-5.55000e+00	8.412953e+08	
112	-5.60000e+00	8.425736e+08	

Index   v-sweep         rds             
--------------------------------------------------------------------------------
113	-5.65000e+00	8.438294e+08	
114	-5.70000e+00	8.450630e+08	
115	-5.75000e+00	8.462747e+08	
116	-5.80000e+00	8.474649e+08	
117	-5.85000e+00	8.486339e+08	
118	-5.90000e+00	8.497819e+08	
119	-5.95000e+00	8.509092e+08	
120	-6.00000e+00	8.520162e+08	
121	-6.05000e+00	8.531030e+08	
122	-6.10000e+00	8.541699e+08	
123	-6.15000e+00	8.552172e+08	
124	-6.20000e+00	8.562451e+08	
125	-6.25000e+00	8.572539e+08	
126	-6.30000e+00	8.582438e+08	
127	-6.35000e+00	8.592151e+08	
128	-6.40000e+00	8.601679e+08	
129	-6.45000e+00	8.611024e+08	
130	-6.50000e+00	8.620190e+08	
131	-6.55000e+00	8.629178e+08	
132	-6.60000e+00	8.637990e+08	
Reset re-loads circuit ***************************

Circuit: ***************************

Doing analysis at TEMP = 25.000000 and TNOM = 25.000000


No. of Data Rows : 133
                          ***************************
                          DC transfer characteristic  Mon Jan  9 13:57:54  2023
--------------------------------------------------------------------------------
Index   v-sweep         rds             
--------------------------------------------------------------------------------
0	0.000000e+00	3.785640e+04	
1	-5.00000e-02	4.038874e+04	
2	-1.00000e-01	4.327978e+04	
3	-1.50000e-01	4.661134e+04	
4	-2.00000e-01	5.049205e+04	
5	-2.50000e-01	5.506919e+04	
6	-3.00000e-01	6.054744e+04	
7	-3.50000e-01	6.721939e+04	
8	-4.00000e-01	7.551748e+04	
9	-4.50000e-01	8.610625e+04	
10	-5.00000e-01	1.000553e+05	
11	-5.50000e-01	1.191814e+05	
12	-6.00000e-01	1.467667e+05	
13	-6.50000e-01	1.891344e+05	
14	-7.00000e-01	2.591249e+05	
15	-7.50000e-01	3.829321e+05	
16	-8.00000e-01	6.083069e+05	
17	-8.50000e-01	9.972312e+05	
18	-9.00000e-01	1.580146e+06	
19	-9.50000e-01	2.308790e+06	
20	-1.00000e+00	3.082322e+06	
21	-1.05000e+00	3.815540e+06	
22	-1.10000e+00	4.468849e+06	
23	-1.15000e+00	5.036975e+06	
24	-1.20000e+00	5.529924e+06	
25	-1.25000e+00	5.961300e+06	
26	-1.30000e+00	6.343526e+06	
27	-1.35000e+00	6.686598e+06	
28	-1.40000e+00	6.998181e+06	
29	-1.45000e+00	7.284061e+06	
30	-1.50000e+00	7.548607e+06	
31	-1.55000e+00	7.795146e+06	
32	-1.60000e+00	8.026250e+06	
33	-1.65000e+00	8.243931e+06	
34	-1.70000e+00	8.449794e+06	
35	-1.75000e+00	8.645136e+06	
36	-1.80000e+00	8.831021e+06	
37	-1.85000e+00	9.008339e+06	
38	-1.90000e+00	9.177837e+06	
39	-1.95000e+00	9.340155e+06	
40	-2.00000e+00	9.495847e+06	
41	-2.05000e+00	9.645395e+06	
42	-2.10000e+00	9.789224e+06	
43	-2.15000e+00	9.927709e+06	
44	-2.20000e+00	1.006119e+07	
45	-2.25000e+00	1.018997e+07	
46	-2.30000e+00	1.031431e+07	
47	-2.35000e+00	1.043448e+07	
48	-2.40000e+00	1.055070e+07	
49	-2.45000e+00	1.066317e+07	
50	-2.50000e+00	1.077209e+07	
51	-2.55000e+00	1.087764e+07	
52	-2.60000e+00	1.097997e+07	
53	-2.65000e+00	1.107925e+07	
54	-2.70000e+00	1.117562e+07	

Index   v-sweep         rds             
--------------------------------------------------------------------------------
55	-2.75000e+00	1.126920e+07	
56	-2.80000e+00	1.136012e+07	
57	-2.85000e+00	1.144850e+07	
58	-2.90000e+00	1.153444e+07	
59	-2.95000e+00	1.161805e+07	
60	-3.00000e+00	1.169943e+07	
61	-3.05000e+00	1.177866e+07	
62	-3.10000e+00	1.185582e+07	
63	-3.15000e+00	1.193102e+07	
64	-3.20000e+00	1.200430e+07	
65	-3.25000e+00	1.207576e+07	
66	-3.30000e+00	1.214546e+07	
67	-3.35000e+00	1.221346e+07	
68	-3.40000e+00	1.227983e+07	
69	-3.45000e+00	1.234462e+07	
70	-3.50000e+00	1.240789e+07	
71	-3.55000e+00	1.246969e+07	
72	-3.60000e+00	1.253008e+07	
73	-3.65000e+00	1.258909e+07	
74	-3.70000e+00	1.264679e+07	
75	-3.75000e+00	1.270321e+07	
76	-3.80000e+00	1.275839e+07	
77	-3.85000e+00	1.281237e+07	
78	-3.90000e+00	1.286520e+07	
79	-3.95000e+00	1.291690e+07	
80	-4.00000e+00	1.296752e+07	
81	-4.05000e+00	1.301708e+07	
82	-4.10000e+00	1.306562e+07	
83	-4.15000e+00	1.311317e+07	
84	-4.20000e+00	1.315975e+07	
85	-4.25000e+00	1.320540e+07	
86	-4.30000e+00	1.325015e+07	
87	-4.35000e+00	1.329401e+07	
88	-4.40000e+00	1.333702e+07	
89	-4.45000e+00	1.337919e+07	
90	-4.50000e+00	1.342055e+07	
91	-4.55000e+00	1.346112e+07	
92	-4.60000e+00	1.350092e+07	
93	-4.65000e+00	1.353997e+07	
94	-4.70000e+00	1.357830e+07	
95	-4.75000e+00	1.361591e+07	
96	-4.80000e+00	1.365283e+07	
97	-4.85000e+00	1.368908e+07	
98	-4.90000e+00	1.372466e+07	
99	-4.95000e+00	1.375960e+07	
100	-5.00000e+00	1.379391e+07	
101	-5.05000e+00	1.382760e+07	
102	-5.10000e+00	1.386070e+07	
103	-5.15000e+00	1.389320e+07	
104	-5.20000e+00	1.392513e+07	
105	-5.25000e+00	1.395650e+07	
106	-5.30000e+00	1.398732e+07	
107	-5.35000e+00	1.401759e+07	
108	-5.40000e+00	1.404734e+07	
109	-5.45000e+00	1.407657e+07	
110	-5.50000e+00	1.410529e+07	
111	-5.55000e+00	1.413352e+07	
112	-5.60000e+00	1.416125e+07	

Index   v-sweep         rds             
--------------------------------------------------------------------------------
113	-5.65000e+00	1.418851e+07	
114	-5.70000e+00	1.421529e+07	
115	-5.75000e+00	1.424161e+07	
116	-5.80000e+00	1.426748e+07	
117	-5.85000e+00	1.429290e+07	
118	-5.90000e+00	1.431788e+07	
119	-5.95000e+00	1.434243e+07	
120	-6.00000e+00	1.436655e+07	
121	-6.05000e+00	1.439026e+07	
122	-6.10000e+00	1.441355e+07	
123	-6.15000e+00	1.443644e+07	
124	-6.20000e+00	1.445893e+07	
125	-6.25000e+00	1.448103e+07	
126	-6.30000e+00	1.450274e+07	
127	-6.35000e+00	1.452407e+07	
128	-6.40000e+00	1.454502e+07	
129	-6.45000e+00	1.456560e+07	
130	-6.50000e+00	1.458582e+07	
131	-6.55000e+00	1.460567e+07	
132	-6.60000e+00	1.462517e+07	
Reset re-loads circuit ***************************

Circuit: ***************************

Doing analysis at TEMP = 25.000000 and TNOM = 25.000000


No. of Data Rows : 133
                          ***************************
                          DC transfer characteristic  Mon Jan  9 13:57:54  2023
--------------------------------------------------------------------------------
Index   v-sweep         rds             
--------------------------------------------------------------------------------
0	0.000000e+00	2.170950e+04	
1	-5.00000e-02	2.245887e+04	
2	-1.00000e-01	2.326083e+04	
3	-1.50000e-01	2.412113e+04	
4	-2.00000e-01	2.504636e+04	
5	-2.50000e-01	2.604415e+04	
6	-3.00000e-01	2.712339e+04	
7	-3.50000e-01	2.829445e+04	
8	-4.00000e-01	2.956956e+04	
9	-4.50000e-01	3.096320e+04	
10	-5.00000e-01	3.249268e+04	
11	-5.50000e-01	3.417881e+04	
12	-6.00000e-01	3.604691e+04	
13	-6.50000e-01	3.812800e+04	
14	-7.00000e-01	4.046056e+04	
15	-7.50000e-01	4.309283e+04	
16	-8.00000e-01	4.608618e+04	
17	-8.50000e-01	4.951974e+04	
18	-9.00000e-01	5.349723e+04	
19	-9.50000e-01	5.815719e+04	
20	-1.00000e+00	6.368839e+04	
21	-1.05000e+00	7.035404e+04	
22	-1.10000e+00	7.853062e+04	
23	-1.15000e+00	8.877182e+04	
24	-1.20000e+00	1.019164e+05	
25	-1.25000e+00	1.192729e+05	
26	-1.30000e+00	1.429343e+05	
27	-1.35000e+00	1.762863e+05	
28	-1.40000e+00	2.247029e+05	
29	-1.45000e+00	2.960489e+05	
30	-1.50000e+00	3.997184e+05	
31	-1.55000e+00	5.424007e+05	
32	-1.60000e+00	7.216308e+05	
33	-1.65000e+00	9.236512e+05	
34	-1.70000e+00	1.129782e+06	
35	-1.75000e+00	1.325169e+06	
36	-1.80000e+00	1.502375e+06	
37	-1.85000e+00	1.659898e+06	
38	-1.90000e+00	1.799341e+06	
39	-1.95000e+00	1.923353e+06	
40	-2.00000e+00	2.034594e+06	
41	-2.05000e+00	2.135353e+06	
42	-2.10000e+00	2.227477e+06	
43	-2.15000e+00	2.312416e+06	
44	-2.20000e+00	2.391302e+06	
45	-2.25000e+00	2.465018e+06	
46	-2.30000e+00	2.534261e+06	
47	-2.35000e+00	2.599585e+06	
48	-2.40000e+00	2.661439e+06	
49	-2.45000e+00	2.720188e+06	
50	-2.50000e+00	2.776136e+06	
51	-2.55000e+00	2.829539e+06	
52	-2.60000e+00	2.880613e+06	
53	-2.65000e+00	2.929545e+06	
54	-2.70000e+00	2.976495e+06	

Index   v-sweep         rds             
--------------------------------------------------------------------------------
55	-2.75000e+00	3.021605e+06	
56	-2.80000e+00	3.065001e+06	
57	-2.85000e+00	3.106794e+06	
58	-2.90000e+00	3.147083e+06	
59	-2.95000e+00	3.185958e+06	
60	-3.00000e+00	3.223500e+06	
61	-3.05000e+00	3.259785e+06	
62	-3.10000e+00	3.294880e+06	
63	-3.15000e+00	3.328847e+06	
64	-3.20000e+00	3.361743e+06	
65	-3.25000e+00	3.393622e+06	
66	-3.30000e+00	3.424533e+06	
67	-3.35000e+00	3.454522e+06	
68	-3.40000e+00	3.483630e+06	
69	-3.45000e+00	3.511899e+06	
70	-3.50000e+00	3.539365e+06	
71	-3.55000e+00	3.566064e+06	
72	-3.60000e+00	3.592027e+06	
73	-3.65000e+00	3.617286e+06	
74	-3.70000e+00	3.641869e+06	
75	-3.75000e+00	3.665805e+06	
76	-3.80000e+00	3.689118e+06	
77	-3.85000e+00	3.711833e+06	
78	-3.90000e+00	3.733973e+06	
79	-3.95000e+00	3.755561e+06	
80	-4.00000e+00	3.776616e+06	
81	-4.05000e+00	3.797159e+06	
82	-4.10000e+00	3.817207e+06	
83	-4.15000e+00	3.836780e+06	
84	-4.20000e+00	3.855893e+06	
85	-4.25000e+00	3.874562e+06	
86	-4.30000e+00	3.892803e+06	
87	-4.35000e+00	3.910631e+06	
88	-4.40000e+00	3.928059e+06	
89	-4.45000e+00	3.945101e+06	
90	-4.50000e+00	3.961769e+06	
91	-4.55000e+00	3.978075e+06	
92	-4.60000e+00	3.994031e+06	
93	-4.65000e+00	4.009648e+06	
94	-4.70000e+00	4.024936e+06	
95	-4.75000e+00	4.039906e+06	
96	-4.80000e+00	4.054566e+06	
97	-4.85000e+00	4.068927e+06	
98	-4.90000e+00	4.082997e+06	
99	-4.95000e+00	4.096784e+06	
100	-5.00000e+00	4.110297e+06	
101	-5.05000e+00	4.123544e+06	
102	-5.10000e+00	4.136531e+06	
103	-5.15000e+00	4.149267e+06	
104	-5.20000e+00	4.161757e+06	
105	-5.25000e+00	4.174009e+06	
106	-5.30000e+00	4.186028e+06	
107	-5.35000e+00	4.197821e+06	
108	-5.40000e+00	4.209393e+06	
109	-5.45000e+00	4.220750e+06	
110	-5.50000e+00	4.231898e+06	
111	-5.55000e+00	4.242841e+06	
112	-5.60000e+00	4.253585e+06	

Index   v-sweep         rds             
--------------------------------------------------------------------------------
113	-5.65000e+00	4.264134e+06	
114	-5.70000e+00	4.274492e+06	
115	-5.75000e+00	4.284665e+06	
116	-5.80000e+00	4.294655e+06	
117	-5.85000e+00	4.304468e+06	
118	-5.90000e+00	4.314106e+06	
119	-5.95000e+00	4.323575e+06	
120	-6.00000e+00	4.332877e+06	
121	-6.05000e+00	4.342015e+06	
122	-6.10000e+00	4.350994e+06	
123	-6.15000e+00	4.359815e+06	
124	-6.20000e+00	4.368483e+06	
125	-6.25000e+00	4.377001e+06	
126	-6.30000e+00	4.385370e+06	
127	-6.35000e+00	4.393594e+06	
128	-6.40000e+00	4.401675e+06	
129	-6.45000e+00	4.409617e+06	
130	-6.50000e+00	4.417420e+06	
131	-6.55000e+00	4.425089e+06	
132	-6.60000e+00	4.432624e+06	
Reset re-loads circuit ***************************

Circuit: ***************************

Doing analysis at TEMP = 25.000000 and TNOM = 25.000000


No. of Data Rows : 133
                          ***************************
                          DC transfer characteristic  Mon Jan  9 13:57:54  2023
--------------------------------------------------------------------------------
Index   v-sweep         rds             
--------------------------------------------------------------------------------
0	0.000000e+00	1.603370e+04	
1	-5.00000e-02	1.640563e+04	
2	-1.00000e-01	1.679479e+04	
3	-1.50000e-01	1.720240e+04	
4	-2.00000e-01	1.762981e+04	
5	-2.50000e-01	1.807849e+04	
6	-3.00000e-01	1.855008e+04	
7	-3.50000e-01	1.904636e+04	
8	-4.00000e-01	1.956934e+04	
9	-4.50000e-01	2.012122e+04	
10	-5.00000e-01	2.070447e+04	
11	-5.50000e-01	2.132184e+04	
12	-6.00000e-01	2.197640e+04	
13	-6.50000e-01	2.267163e+04	
14	-7.00000e-01	2.341142e+04	
15	-7.50000e-01	2.420020e+04	
16	-8.00000e-01	2.504299e+04	
17	-8.50000e-01	2.594554e+04	
18	-9.00000e-01	2.691441e+04	
19	-9.50000e-01	2.795719e+04	
20	-1.00000e+00	2.908264e+04	
21	-1.05000e+00	3.030098e+04	
22	-1.10000e+00	3.162416e+04	
23	-1.15000e+00	3.306629e+04	
24	-1.20000e+00	3.464408e+04	
25	-1.25000e+00	3.637753e+04	
26	-1.30000e+00	3.829074e+04	
27	-1.35000e+00	4.041300e+04	
28	-1.40000e+00	4.278026e+04	
29	-1.45000e+00	4.543711e+04	
30	-1.50000e+00	4.843946e+04	
31	-1.55000e+00	5.185834e+04	
32	-1.60000e+00	5.578514e+04	
33	-1.65000e+00	6.033925e+04	
34	-1.70000e+00	6.567909e+04	
35	-1.75000e+00	7.201847e+04	
36	-1.80000e+00	7.965101e+04	
37	-1.85000e+00	8.898698e+04	
38	-1.90000e+00	1.006087e+05	
39	-1.95000e+00	1.153518e+05	
40	-2.00000e+00	1.344163e+05	
41	-2.05000e+00	1.594953e+05	
42	-2.10000e+00	1.928508e+05	
43	-2.15000e+00	2.371587e+05	
44	-2.20000e+00	2.948309e+05	
45	-2.25000e+00	3.666960e+05	
46	-2.30000e+00	4.506758e+05	
47	-2.35000e+00	5.417784e+05	
48	-2.40000e+00	6.338808e+05	
49	-2.45000e+00	7.219505e+05	
50	-2.50000e+00	8.031308e+05	
51	-2.55000e+00	8.765260e+05	
52	-2.60000e+00	9.424486e+05	
53	-2.65000e+00	1.001745e+06	
54	-2.70000e+00	1.055383e+06	

Index   v-sweep         rds             
--------------------------------------------------------------------------------
55	-2.75000e+00	1.104265e+06	
56	-2.80000e+00	1.149153e+06	
57	-2.85000e+00	1.190672e+06	
58	-2.90000e+00	1.229321e+06	
59	-2.95000e+00	1.265500e+06	
60	-3.00000e+00	1.299528e+06	
61	-3.05000e+00	1.331663e+06	
62	-3.10000e+00	1.362116e+06	
63	-3.15000e+00	1.391058e+06	
64	-3.20000e+00	1.418636e+06	
65	-3.25000e+00	1.444971e+06	
66	-3.30000e+00	1.470167e+06	
67	-3.35000e+00	1.494314e+06	
68	-3.40000e+00	1.517489e+06	
69	-3.45000e+00	1.539762e+06	
70	-3.50000e+00	1.561192e+06	
71	-3.55000e+00	1.581835e+06	
72	-3.60000e+00	1.601737e+06	
73	-3.65000e+00	1.620945e+06	
74	-3.70000e+00	1.639496e+06	
75	-3.75000e+00	1.657427e+06	
76	-3.80000e+00	1.674772e+06	
77	-3.85000e+00	1.691561e+06	
78	-3.90000e+00	1.707822e+06	
79	-3.95000e+00	1.723581e+06	
80	-4.00000e+00	1.738862e+06	
81	-4.05000e+00	1.753688e+06	
82	-4.10000e+00	1.768080e+06	
83	-4.15000e+00	1.782057e+06	
84	-4.20000e+00	1.795638e+06	
85	-4.25000e+00	1.808839e+06	
86	-4.30000e+00	1.821677e+06	
87	-4.35000e+00	1.834167e+06	
88	-4.40000e+00	1.846323e+06	
89	-4.45000e+00	1.858159e+06	
90	-4.50000e+00	1.869687e+06	
91	-4.55000e+00	1.880920e+06	
92	-4.60000e+00	1.891868e+06	
93	-4.65000e+00	1.902543e+06	
94	-4.70000e+00	1.912955e+06	
95	-4.75000e+00	1.923113e+06	
96	-4.80000e+00	1.933027e+06	
97	-4.85000e+00	1.942706e+06	
98	-4.90000e+00	1.952157e+06	
99	-4.95000e+00	1.961389e+06	
100	-5.00000e+00	1.970409e+06	
101	-5.05000e+00	1.979225e+06	
102	-5.10000e+00	1.987843e+06	
103	-5.15000e+00	1.996269e+06	
104	-5.20000e+00	2.004511e+06	
105	-5.25000e+00	2.012574e+06	
106	-5.30000e+00	2.020464e+06	
107	-5.35000e+00	2.028185e+06	
108	-5.40000e+00	2.035744e+06	
109	-5.45000e+00	2.043146e+06	
110	-5.50000e+00	2.050395e+06	
111	-5.55000e+00	2.057495e+06	
112	-5.60000e+00	2.064452e+06	

Index   v-sweep         rds             
--------------------------------------------------------------------------------
113	-5.65000e+00	2.071268e+06	
114	-5.70000e+00	2.077949e+06	
115	-5.75000e+00	2.084498e+06	
116	-5.80000e+00	2.090919e+06	
117	-5.85000e+00	2.097215e+06	
118	-5.90000e+00	2.103390e+06	
119	-5.95000e+00	2.109447e+06	
120	-6.00000e+00	2.115389e+06	
121	-6.05000e+00	2.121219e+06	
122	-6.10000e+00	2.126939e+06	
123	-6.15000e+00	2.132554e+06	
124	-6.20000e+00	2.138065e+06	
125	-6.25000e+00	2.143474e+06	
126	-6.30000e+00	2.148785e+06	
127	-6.35000e+00	2.153999e+06	
128	-6.40000e+00	2.159119e+06	
129	-6.45000e+00	2.164147e+06	
130	-6.50000e+00	2.169085e+06	
131	-6.55000e+00	2.173935e+06	
132	-6.60000e+00	2.178699e+06	
Reset re-loads circuit ***************************

Circuit: ***************************

Doing analysis at TEMP = 25.000000 and TNOM = 25.000000


No. of Data Rows : 133
                          ***************************
                          DC transfer characteristic  Mon Jan  9 13:57:54  2023
--------------------------------------------------------------------------------
Index   v-sweep         rds             
--------------------------------------------------------------------------------
0	0.000000e+00	1.315144e+04	
1	-5.00000e-02	1.338054e+04	
2	-1.00000e-01	1.361751e+04	
3	-1.50000e-01	1.386277e+04	
4	-2.00000e-01	1.411676e+04	
5	-2.50000e-01	1.437996e+04	
6	-3.00000e-01	1.465287e+04	
7	-3.50000e-01	1.493604e+04	
8	-4.00000e-01	1.523006e+04	
9	-4.50000e-01	1.553557e+04	
10	-5.00000e-01	1.585326e+04	
11	-5.50000e-01	1.618386e+04	
12	-6.00000e-01	1.652818e+04	
13	-6.50000e-01	1.688709e+04	
14	-7.00000e-01	1.726154e+04	
15	-7.50000e-01	1.765256e+04	
16	-8.00000e-01	1.806127e+04	
17	-8.50000e-01	1.848890e+04	
18	-9.00000e-01	1.893679e+04	
19	-9.50000e-01	1.940642e+04	
20	-1.00000e+00	1.989941e+04	
21	-1.05000e+00	2.041755e+04	
22	-1.10000e+00	2.096280e+04	
23	-1.15000e+00	2.153735e+04	
24	-1.20000e+00	2.214362e+04	
25	-1.25000e+00	2.278432e+04	
26	-1.30000e+00	2.346244e+04	
27	-1.35000e+00	2.418138e+04	
28	-1.40000e+00	2.494492e+04	
29	-1.45000e+00	2.575732e+04	
30	-1.50000e+00	2.662344e+04	
31	-1.55000e+00	2.754876e+04	
32	-1.60000e+00	2.853955e+04	
33	-1.65000e+00	2.960299e+04	
34	-1.70000e+00	3.074734e+04	
35	-1.75000e+00	3.198217e+04	
36	-1.80000e+00	3.331859e+04	
37	-1.85000e+00	3.476959e+04	
38	-1.90000e+00	3.635049e+04	
39	-1.95000e+00	3.807939e+04	
40	-2.00000e+00	3.997792e+04	
41	-2.05000e+00	4.207204e+04	
42	-2.10000e+00	4.439322e+04	
43	-2.15000e+00	4.697993e+04	
44	-2.20000e+00	4.987960e+04	
45	-2.25000e+00	5.315137e+04	
46	-2.30000e+00	5.686969e+04	
47	-2.35000e+00	6.112935e+04	
48	-2.40000e+00	6.605247e+04	
49	-2.45000e+00	7.179816e+04	
50	-2.50000e+00	7.857597e+04	
51	-2.55000e+00	8.666444e+04	
52	-2.60000e+00	9.643594e+04	
53	-2.65000e+00	1.083878e+05	
54	-2.70000e+00	1.231760e+05	

Index   v-sweep         rds             
--------------------------------------------------------------------------------
55	-2.75000e+00	1.416378e+05	
56	-2.80000e+00	1.647706e+05	
57	-2.85000e+00	1.936074e+05	
58	-2.90000e+00	2.289254e+05	
59	-2.95000e+00	2.707998e+05	
60	-3.00000e+00	3.182103e+05	
61	-3.05000e+00	3.690505e+05	
62	-3.10000e+00	4.206890e+05	
63	-3.15000e+00	4.707622e+05	
64	-3.20000e+00	5.177000e+05	
65	-3.25000e+00	5.607956e+05	
66	-3.30000e+00	5.999806e+05	
67	-3.35000e+00	6.355423e+05	
68	-3.40000e+00	6.679087e+05	
69	-3.45000e+00	6.975247e+05	
70	-3.50000e+00	7.247936e+05	
71	-3.55000e+00	7.500594e+05	
72	-3.60000e+00	7.736060e+05	
73	-3.65000e+00	7.956648e+05	
74	-3.70000e+00	8.164238e+05	
75	-3.75000e+00	8.360363e+05	
76	-3.80000e+00	8.546280e+05	
77	-3.85000e+00	8.723031e+05	
78	-3.90000e+00	8.891486e+05	
79	-3.95000e+00	9.052383e+05	
80	-4.00000e+00	9.206350e+05	
81	-4.05000e+00	9.353930e+05	
82	-4.10000e+00	9.495596e+05	
83	-4.15000e+00	9.631762e+05	
84	-4.20000e+00	9.762797e+05	
85	-4.25000e+00	9.889028e+05	
86	-4.30000e+00	1.001075e+06	
87	-4.35000e+00	1.012823e+06	
88	-4.40000e+00	1.024170e+06	
89	-4.45000e+00	1.035140e+06	
90	-4.50000e+00	1.045751e+06	
91	-4.55000e+00	1.056023e+06	
92	-4.60000e+00	1.065972e+06	
93	-4.65000e+00	1.075614e+06	
94	-4.70000e+00	1.084965e+06	
95	-4.75000e+00	1.094038e+06	
96	-4.80000e+00	1.102844e+06	
97	-4.85000e+00	1.111398e+06	
98	-4.90000e+00	1.119708e+06	
99	-4.95000e+00	1.127787e+06	
100	-5.00000e+00	1.135644e+06	
101	-5.05000e+00	1.143287e+06	
102	-5.10000e+00	1.150727e+06	
103	-5.15000e+00	1.157970e+06	
104	-5.20000e+00	1.165026e+06	
105	-5.25000e+00	1.171900e+06	
106	-5.30000e+00	1.178600e+06	
107	-5.35000e+00	1.185133e+06	
108	-5.40000e+00	1.191505e+06	
109	-5.45000e+00	1.197721e+06	
110	-5.50000e+00	1.203788e+06	
111	-5.55000e+00	1.209711e+06	
112	-5.60000e+00	1.215495e+06	

Index   v-sweep         rds             
--------------------------------------------------------------------------------
113	-5.65000e+00	1.221144e+06	
114	-5.70000e+00	1.226664e+06	
115	-5.75000e+00	1.232058e+06	
116	-5.80000e+00	1.237332e+06	
117	-5.85000e+00	1.242488e+06	
118	-5.90000e+00	1.247531e+06	
119	-5.95000e+00	1.252464e+06	
120	-6.00000e+00	1.257292e+06	
121	-6.05000e+00	1.262016e+06	
122	-6.10000e+00	1.266641e+06	
123	-6.15000e+00	1.271170e+06	
124	-6.20000e+00	1.275605e+06	
125	-6.25000e+00	1.279949e+06	
126	-6.30000e+00	1.284204e+06	
127	-6.35000e+00	1.288375e+06	
128	-6.40000e+00	1.292462e+06	
129	-6.45000e+00	1.296469e+06	
130	-6.50000e+00	1.300396e+06	
131	-6.55000e+00	1.304248e+06	
132	-6.60000e+00	1.308025e+06	
Reset re-loads circuit ***************************

Circuit: ***************************

Doing analysis at TEMP = 25.000000 and TNOM = 25.000000


No. of Data Rows : 133
                          ***************************
                          DC transfer characteristic  Mon Jan  9 13:57:54  2023
--------------------------------------------------------------------------------
Index   v-sweep         rds             
--------------------------------------------------------------------------------
0	0.000000e+00	1.141650e+04	
1	-5.00000e-02	1.157530e+04	
2	-1.00000e-01	1.173841e+04	
3	-1.50000e-01	1.190602e+04	
4	-2.00000e-01	1.207832e+04	
5	-2.50000e-01	1.225550e+04	
6	-3.00000e-01	1.243778e+04	
7	-3.50000e-01	1.262538e+04	
8	-4.00000e-01	1.281854e+04	
9	-4.50000e-01	1.301750e+04	
10	-5.00000e-01	1.322253e+04	
11	-5.50000e-01	1.343391e+04	
12	-6.00000e-01	1.365195e+04	
13	-6.50000e-01	1.387696e+04	
14	-7.00000e-01	1.410928e+04	
15	-7.50000e-01	1.434928e+04	
16	-8.00000e-01	1.459733e+04	
17	-8.50000e-01	1.485386e+04	
18	-9.00000e-01	1.511931e+04	
19	-9.50000e-01	1.539414e+04	
20	-1.00000e+00	1.567887e+04	
21	-1.05000e+00	1.597403e+04	
22	-1.10000e+00	1.628022e+04	
23	-1.15000e+00	1.659806e+04	
24	-1.20000e+00	1.692822e+04	
25	-1.25000e+00	1.727145e+04	
26	-1.30000e+00	1.762852e+04	
27	-1.35000e+00	1.800030e+04	
28	-1.40000e+00	1.838771e+04	
29	-1.45000e+00	1.879175e+04	
30	-1.50000e+00	1.921353e+04	
31	-1.55000e+00	1.965423e+04	
32	-1.60000e+00	2.011515e+04	
33	-1.65000e+00	2.059772e+04	
34	-1.70000e+00	2.110349e+04	
35	-1.75000e+00	2.163418e+04	
36	-1.80000e+00	2.219168e+04	
37	-1.85000e+00	2.277805e+04	
38	-1.90000e+00	2.339562e+04	
39	-1.95000e+00	2.404691e+04	
40	-2.00000e+00	2.473477e+04	
41	-2.05000e+00	2.546236e+04	
42	-2.10000e+00	2.623321e+04	
43	-2.15000e+00	2.705129e+04	
44	-2.20000e+00	2.792106e+04	
45	-2.25000e+00	2.884755e+04	
46	-2.30000e+00	2.983649e+04	
47	-2.35000e+00	3.089437e+04	
48	-2.40000e+00	3.202861e+04	
49	-2.45000e+00	3.324776e+04	
50	-2.50000e+00	3.456163e+04	
51	-2.55000e+00	3.598162e+04	
52	-2.60000e+00	3.752102e+04	
53	-2.65000e+00	3.919536e+04	
54	-2.70000e+00	4.102299e+04	

Index   v-sweep         rds             
--------------------------------------------------------------------------------
55	-2.75000e+00	4.302563e+04	
56	-2.80000e+00	4.522925e+04	
57	-2.85000e+00	4.766505e+04	
58	-2.90000e+00	5.037084e+04	
59	-2.95000e+00	5.339279e+04	
60	-3.00000e+00	5.678769e+04	
61	-3.05000e+00	6.062602e+04	
62	-3.10000e+00	6.499589e+04	
63	-3.15000e+00	7.000830e+04	
64	-3.20000e+00	7.580389e+04	
65	-3.25000e+00	8.256157e+04	
66	-3.30000e+00	9.050883e+04	
67	-3.35000e+00	9.993296e+04	
68	-3.40000e+00	1.111902e+05	
69	-3.45000e+00	1.247065e+05	
70	-3.50000e+00	1.409567e+05	
71	-3.55000e+00	1.604036e+05	
72	-3.60000e+00	1.833796e+05	
73	-3.65000e+00	2.099147e+05	
74	-3.70000e+00	2.395752e+05	
75	-3.75000e+00	2.714220e+05	
76	-3.80000e+00	3.041742e+05	
77	-3.85000e+00	3.365262e+05	
78	-3.90000e+00	3.674459e+05	
79	-3.95000e+00	3.963147e+05	
80	-4.00000e+00	4.228991e+05	
81	-4.05000e+00	4.472338e+05	
82	-4.10000e+00	4.694999e+05	
83	-4.15000e+00	4.899339e+05	
84	-4.20000e+00	5.087754e+05	
85	-4.25000e+00	5.262421e+05	
86	-4.30000e+00	5.425212e+05	
87	-4.35000e+00	5.577690e+05	
88	-4.40000e+00	5.721148e+05	
89	-4.45000e+00	5.856648e+05	
90	-4.50000e+00	5.985067e+05	
91	-4.55000e+00	6.107133e+05	
92	-4.60000e+00	6.223456e+05	
93	-4.65000e+00	6.334550e+05	
94	-4.70000e+00	6.440854e+05	
95	-4.75000e+00	6.542745e+05	
96	-4.80000e+00	6.640553e+05	
97	-4.85000e+00	6.734564e+05	
98	-4.90000e+00	6.825034e+05	
99	-4.95000e+00	6.912190e+05	
100	-5.00000e+00	6.996234e+05	
101	-5.05000e+00	7.077350e+05	
102	-5.10000e+00	7.155705e+05	
103	-5.15000e+00	7.231449e+05	
104	-5.20000e+00	7.304723e+05	
105	-5.25000e+00	7.375653e+05	
106	-5.30000e+00	7.444357e+05	
107	-5.35000e+00	7.510944e+05	
108	-5.40000e+00	7.575516e+05	
109	-5.45000e+00	7.638166e+05	
110	-5.50000e+00	7.698982e+05	
111	-5.55000e+00	7.758046e+05	
112	-5.60000e+00	7.815436e+05	

Index   v-sweep         rds             
--------------------------------------------------------------------------------
113	-5.65000e+00	7.871223e+05	
114	-5.70000e+00	7.925474e+05	
115	-5.75000e+00	7.978255e+05	
116	-5.80000e+00	8.029624e+05	
117	-5.85000e+00	8.079638e+05	
118	-5.90000e+00	8.128351e+05	
119	-5.95000e+00	8.175814e+05	
120	-6.00000e+00	8.222075e+05	
121	-6.05000e+00	8.267178e+05	
122	-6.10000e+00	8.311167e+05	
123	-6.15000e+00	8.354084e+05	
124	-6.20000e+00	8.395966e+05	
125	-6.25000e+00	8.436852e+05	
126	-6.30000e+00	8.476775e+05	
127	-6.35000e+00	8.515770e+05	
128	-6.40000e+00	8.553868e+05	
129	-6.45000e+00	8.591101e+05	
130	-6.50000e+00	8.627496e+05	
131	-6.55000e+00	8.663082e+05	
132	-6.60000e+00	8.697885e+05	
Reset re-loads circuit ***************************

Circuit: ***************************

Note: No ".plot", ".print", or ".fourier" lines; no simulations run
