
Note: Compatibility modes selected: hs

Warning: m=xx on .subckt line will override multiplier m hierarchy!


Circuit: ***************************

Doing analysis at TEMP = 25.000000 and TNOM = 25.000000


No. of Data Rows : 133
                          ***************************
                          DC transfer characteristic  Mon Jan  9 13:57:54  2023
--------------------------------------------------------------------------------
Index   v-sweep         rds             
--------------------------------------------------------------------------------
0	0.000000e+00	2.780183e+04	
1	-5.00000e-02	4.525846e+04	
2	-1.00000e-01	1.016262e+05	
3	-1.50000e-01	3.587685e+05	
4	-2.00000e-01	1.157952e+06	
5	-2.50000e-01	2.310585e+06	
6	-3.00000e-01	3.333429e+06	
7	-3.50000e-01	4.125891e+06	
8	-4.00000e-01	4.757089e+06	
9	-4.50000e-01	5.291140e+06	
10	-5.00000e-01	5.766130e+06	
11	-5.50000e-01	6.203188e+06	
12	-6.00000e-01	6.614221e+06	
13	-6.50000e-01	7.006209e+06	
14	-7.00000e-01	7.383429e+06	
15	-7.50000e-01	7.748622e+06	
16	-8.00000e-01	8.103617e+06	
17	-8.50000e-01	8.449685e+06	
18	-9.00000e-01	8.787742e+06	
19	-9.50000e-01	9.118473e+06	
20	-1.00000e+00	9.442403e+06	
21	-1.05000e+00	9.759951e+06	
22	-1.10000e+00	1.007146e+07	
23	-1.15000e+00	1.037721e+07	
24	-1.20000e+00	1.067745e+07	
25	-1.25000e+00	1.097239e+07	
26	-1.30000e+00	1.126221e+07	
27	-1.35000e+00	1.154709e+07	
28	-1.40000e+00	1.182718e+07	
29	-1.45000e+00	1.210262e+07	
30	-1.50000e+00	1.237354e+07	
31	-1.55000e+00	1.264006e+07	
32	-1.60000e+00	1.290230e+07	
33	-1.65000e+00	1.316037e+07	
34	-1.70000e+00	1.341436e+07	
35	-1.75000e+00	1.366438e+07	
36	-1.80000e+00	1.391053e+07	
37	-1.85000e+00	1.415288e+07	
38	-1.90000e+00	1.439153e+07	
39	-1.95000e+00	1.462656e+07	
40	-2.00000e+00	1.485804e+07	
41	-2.05000e+00	1.508607e+07	
42	-2.10000e+00	1.531070e+07	
43	-2.15000e+00	1.553202e+07	
44	-2.20000e+00	1.575009e+07	
45	-2.25000e+00	1.596499e+07	
46	-2.30000e+00	1.617677e+07	
47	-2.35000e+00	1.638549e+07	
48	-2.40000e+00	1.659124e+07	
49	-2.45000e+00	1.679405e+07	
50	-2.50000e+00	1.699399e+07	
51	-2.55000e+00	1.719112e+07	
52	-2.60000e+00	1.738550e+07	
53	-2.65000e+00	1.757716e+07	
54	-2.70000e+00	1.776618e+07	

Index   v-sweep         rds             
--------------------------------------------------------------------------------
55	-2.75000e+00	1.795260e+07	
56	-2.80000e+00	1.813646e+07	
57	-2.85000e+00	1.831782e+07	
58	-2.90000e+00	1.849673e+07	
59	-2.95000e+00	1.867322e+07	
60	-3.00000e+00	1.884735e+07	
61	-3.05000e+00	1.901915e+07	
62	-3.10000e+00	1.918867e+07	
63	-3.15000e+00	1.935595e+07	
64	-3.20000e+00	1.952102e+07	
65	-3.25000e+00	1.968394e+07	
66	-3.30000e+00	1.984473e+07	
67	-3.35000e+00	2.000343e+07	
68	-3.40000e+00	2.016007e+07	
69	-3.45000e+00	2.031470e+07	
70	-3.50000e+00	2.046734e+07	
71	-3.55000e+00	2.061802e+07	
72	-3.60000e+00	2.076678e+07	
73	-3.65000e+00	2.091365e+07	
74	-3.70000e+00	2.105866e+07	
75	-3.75000e+00	2.120182e+07	
76	-3.80000e+00	2.134319e+07	
77	-3.85000e+00	2.148276e+07	
78	-3.90000e+00	2.162059e+07	
79	-3.95000e+00	2.175668e+07	
80	-4.00000e+00	2.189106e+07	
81	-4.05000e+00	2.202376e+07	
82	-4.10000e+00	2.215480e+07	
83	-4.15000e+00	2.228419e+07	
84	-4.20000e+00	2.241196e+07	
85	-4.25000e+00	2.253814e+07	
86	-4.30000e+00	2.266272e+07	
87	-4.35000e+00	2.278575e+07	
88	-4.40000e+00	2.290722e+07	
89	-4.45000e+00	2.302717e+07	
90	-4.50000e+00	2.314560e+07	
91	-4.55000e+00	2.326253e+07	
92	-4.60000e+00	2.337797e+07	
93	-4.65000e+00	2.349195e+07	
94	-4.70000e+00	2.360446e+07	
95	-4.75000e+00	2.371553e+07	
96	-4.80000e+00	2.382517e+07	
97	-4.85000e+00	2.393339e+07	
98	-4.90000e+00	2.404019e+07	
99	-4.95000e+00	2.414559e+07	
100	-5.00000e+00	2.424961e+07	
101	-5.05000e+00	2.435224e+07	
102	-5.10000e+00	2.445350e+07	
103	-5.15000e+00	2.455340e+07	
104	-5.20000e+00	2.465195e+07	
105	-5.25000e+00	2.474915e+07	
106	-5.30000e+00	2.484500e+07	
107	-5.35000e+00	2.493953e+07	
108	-5.40000e+00	2.503273e+07	
109	-5.45000e+00	2.512461e+07	
110	-5.50000e+00	2.521518e+07	
111	-5.55000e+00	2.530445e+07	
112	-5.60000e+00	2.539241e+07	

Index   v-sweep         rds             
--------------------------------------------------------------------------------
113	-5.65000e+00	2.547908e+07	
114	-5.70000e+00	2.556445e+07	
115	-5.75000e+00	2.564855e+07	
116	-5.80000e+00	2.573136e+07	
117	-5.85000e+00	2.581290e+07	
118	-5.90000e+00	2.589316e+07	
119	-5.95000e+00	2.597217e+07	
120	-6.00000e+00	2.604991e+07	
121	-6.05000e+00	2.612639e+07	
122	-6.10000e+00	2.620162e+07	
123	-6.15000e+00	2.627560e+07	
124	-6.20000e+00	2.634834e+07	
125	-6.25000e+00	2.641983e+07	
126	-6.30000e+00	2.649009e+07	
127	-6.35000e+00	2.655912e+07	
128	-6.40000e+00	2.662692e+07	
129	-6.45000e+00	2.669349e+07	
130	-6.50000e+00	2.675885e+07	
131	-6.55000e+00	2.682299e+07	
132	-6.60000e+00	2.688592e+07	
Reset re-loads circuit ***************************

Circuit: ***************************

Doing analysis at TEMP = 25.000000 and TNOM = 25.000000


No. of Data Rows : 133
                          ***************************
                          DC transfer characteristic  Mon Jan  9 13:57:54  2023
--------------------------------------------------------------------------------
Index   v-sweep         rds             
--------------------------------------------------------------------------------
0	0.000000e+00	3.438158e+03	
1	-5.00000e-02	3.661789e+03	
2	-1.00000e-01	3.914586e+03	
3	-1.50000e-01	4.202638e+03	
4	-2.00000e-01	4.533842e+03	
5	-2.50000e-01	4.918635e+03	
6	-3.00000e-01	5.371086e+03	
7	-3.50000e-01	5.910602e+03	
8	-4.00000e-01	6.564679e+03	
9	-4.50000e-01	7.373481e+03	
10	-5.00000e-01	8.397772e+03	
11	-5.50000e-01	9.733169e+03	
12	-6.00000e-01	1.153666e+04	
13	-6.50000e-01	1.407641e+04	
14	-7.00000e-01	1.782024e+04	
15	-7.50000e-01	2.355399e+04	
16	-8.00000e-01	3.236310e+04	
17	-8.50000e-01	4.499391e+04	
18	-9.00000e-01	6.065174e+04	
19	-9.50000e-01	7.715282e+04	
20	-1.00000e+00	9.273702e+04	
21	-1.05000e+00	1.068580e+05	
22	-1.10000e+00	1.196643e+05	
23	-1.15000e+00	1.314653e+05	
24	-1.20000e+00	1.425275e+05	
25	-1.25000e+00	1.530409e+05	
26	-1.30000e+00	1.631334e+05	
27	-1.35000e+00	1.728910e+05	
28	-1.40000e+00	1.823714e+05	
29	-1.45000e+00	1.916150e+05	
30	-1.50000e+00	2.006501e+05	
31	-1.55000e+00	2.094977e+05	
32	-1.60000e+00	2.181734e+05	
33	-1.65000e+00	2.266893e+05	
34	-1.70000e+00	2.350549e+05	
35	-1.75000e+00	2.432781e+05	
36	-1.80000e+00	2.513652e+05	
37	-1.85000e+00	2.593220e+05	
38	-1.90000e+00	2.671531e+05	
39	-1.95000e+00	2.748627e+05	
40	-2.00000e+00	2.824547e+05	
41	-2.05000e+00	2.899325e+05	
42	-2.10000e+00	2.972992e+05	
43	-2.15000e+00	3.045578e+05	
44	-2.20000e+00	3.117109e+05	
45	-2.25000e+00	3.187612e+05	
46	-2.30000e+00	3.257111e+05	
47	-2.35000e+00	3.325628e+05	
48	-2.40000e+00	3.393186e+05	
49	-2.45000e+00	3.459804e+05	
50	-2.50000e+00	3.525505e+05	
51	-2.55000e+00	3.590306e+05	
52	-2.60000e+00	3.654227e+05	
53	-2.65000e+00	3.717285e+05	
54	-2.70000e+00	3.779498e+05	

Index   v-sweep         rds             
--------------------------------------------------------------------------------
55	-2.75000e+00	3.840882e+05	
56	-2.80000e+00	3.901454e+05	
57	-2.85000e+00	3.961230e+05	
58	-2.90000e+00	4.020225e+05	
59	-2.95000e+00	4.078454e+05	
60	-3.00000e+00	4.135932e+05	
61	-3.05000e+00	4.192672e+05	
62	-3.10000e+00	4.248688e+05	
63	-3.15000e+00	4.303994e+05	
64	-3.20000e+00	4.358602e+05	
65	-3.25000e+00	4.412526e+05	
66	-3.30000e+00	4.465777e+05	
67	-3.35000e+00	4.518369e+05	
68	-3.40000e+00	4.570311e+05	
69	-3.45000e+00	4.621617e+05	
70	-3.50000e+00	4.672296e+05	
71	-3.55000e+00	4.722360e+05	
72	-3.60000e+00	4.771820e+05	
73	-3.65000e+00	4.820685e+05	
74	-3.70000e+00	4.868966e+05	
75	-3.75000e+00	4.916673e+05	
76	-3.80000e+00	4.963814e+05	
77	-3.85000e+00	5.010400e+05	
78	-3.90000e+00	5.056438e+05	
79	-3.95000e+00	5.101939e+05	
80	-4.00000e+00	5.146910e+05	
81	-4.05000e+00	5.191360e+05	
82	-4.10000e+00	5.235297e+05	
83	-4.15000e+00	5.278728e+05	
84	-4.20000e+00	5.321660e+05	
85	-4.25000e+00	5.364102e+05	
86	-4.30000e+00	5.406060e+05	
87	-4.35000e+00	5.447542e+05	
88	-4.40000e+00	5.488552e+05	
89	-4.45000e+00	5.529098e+05	
90	-4.50000e+00	5.569187e+05	
91	-4.55000e+00	5.608823e+05	
92	-4.60000e+00	5.648012e+05	
93	-4.65000e+00	5.686760e+05	
94	-4.70000e+00	5.725072e+05	
95	-4.75000e+00	5.762953e+05	
96	-4.80000e+00	5.800408e+05	
97	-4.85000e+00	5.837441e+05	
98	-4.90000e+00	5.874056e+05	
99	-4.95000e+00	5.910257e+05	
100	-5.00000e+00	5.946050e+05	
101	-5.05000e+00	5.981436e+05	
102	-5.10000e+00	6.016420e+05	
103	-5.15000e+00	6.051005e+05	
104	-5.20000e+00	6.085194e+05	
105	-5.25000e+00	6.118991e+05	
106	-5.30000e+00	6.152397e+05	
107	-5.35000e+00	6.185415e+05	
108	-5.40000e+00	6.218049e+05	
109	-5.45000e+00	6.250300e+05	
110	-5.50000e+00	6.282170e+05	
111	-5.55000e+00	6.313661e+05	
112	-5.60000e+00	6.344776e+05	

Index   v-sweep         rds             
--------------------------------------------------------------------------------
113	-5.65000e+00	6.375515e+05	
114	-5.70000e+00	6.405881e+05	
115	-5.75000e+00	6.435875e+05	
116	-5.80000e+00	6.465498e+05	
117	-5.85000e+00	6.494751e+05	
118	-5.90000e+00	6.523636e+05	
119	-5.95000e+00	6.552154e+05	
120	-6.00000e+00	6.580305e+05	
121	-6.05000e+00	6.608090e+05	
122	-6.10000e+00	6.635511e+05	
123	-6.15000e+00	6.662567e+05	
124	-6.20000e+00	6.689260e+05	
125	-6.25000e+00	6.715590e+05	
126	-6.30000e+00	6.741557e+05	
127	-6.35000e+00	6.767162e+05	
128	-6.40000e+00	6.792405e+05	
129	-6.45000e+00	6.817287e+05	
130	-6.50000e+00	6.841808e+05	
131	-6.55000e+00	6.865969e+05	
132	-6.60000e+00	6.889768e+05	
Reset re-loads circuit ***************************

Circuit: ***************************

Doing analysis at TEMP = 25.000000 and TNOM = 25.000000


No. of Data Rows : 133
                          ***************************
                          DC transfer characteristic  Mon Jan  9 13:57:54  2023
--------------------------------------------------------------------------------
Index   v-sweep         rds             
--------------------------------------------------------------------------------
0	0.000000e+00	2.039600e+03	
1	-5.00000e-02	2.112299e+03	
2	-1.00000e-01	2.189858e+03	
3	-1.50000e-01	2.272782e+03	
4	-2.00000e-01	2.361644e+03	
5	-2.50000e-01	2.457106e+03	
6	-3.00000e-01	2.559929e+03	
7	-3.50000e-01	2.670998e+03	
8	-4.00000e-01	2.791343e+03	
9	-4.50000e-01	2.922175e+03	
10	-5.00000e-01	3.064922e+03	
11	-5.50000e-01	3.221285e+03	
12	-6.00000e-01	3.393302e+03	
13	-6.50000e-01	3.583438e+03	
14	-7.00000e-01	3.794701e+03	
15	-7.50000e-01	4.030797e+03	
16	-8.00000e-01	4.296345e+03	
17	-8.50000e-01	4.597167e+03	
18	-9.00000e-01	4.940707e+03	
19	-9.50000e-01	5.336608e+03	
20	-1.00000e+00	5.797565e+03	
21	-1.05000e+00	6.340564e+03	
22	-1.10000e+00	6.988716e+03	
23	-1.15000e+00	7.773970e+03	
24	-1.20000e+00	8.741045e+03	
25	-1.25000e+00	9.952749e+03	
26	-1.30000e+00	1.149586e+04	
27	-1.35000e+00	1.348342e+04	
28	-1.40000e+00	1.604171e+04	
29	-1.45000e+00	1.926340e+04	
30	-1.50000e+00	2.312741e+04	
31	-1.55000e+00	2.745289e+04	
32	-1.60000e+00	3.196970e+04	
33	-1.65000e+00	3.645178e+04	
34	-1.70000e+00	4.078168e+04	
35	-1.75000e+00	4.492835e+04	
36	-1.80000e+00	4.890256e+04	
37	-1.85000e+00	5.272743e+04	
38	-1.90000e+00	5.642566e+04	
39	-1.95000e+00	6.001585e+04	
40	-2.00000e+00	6.351223e+04	
41	-2.05000e+00	6.692553e+04	
42	-2.10000e+00	7.026380e+04	
43	-2.15000e+00	7.353322e+04	
44	-2.20000e+00	7.673859e+04	
45	-2.25000e+00	7.988374e+04	
46	-2.30000e+00	8.297180e+04	
47	-2.35000e+00	8.600537e+04	
48	-2.40000e+00	8.898668e+04	
49	-2.45000e+00	9.191767e+04	
50	-2.50000e+00	9.480004e+04	
51	-2.55000e+00	9.763535e+04	
52	-2.60000e+00	1.004250e+05	
53	-2.65000e+00	1.031703e+05	
54	-2.70000e+00	1.058723e+05	

Index   v-sweep         rds             
--------------------------------------------------------------------------------
55	-2.75000e+00	1.085324e+05	
56	-2.80000e+00	1.111514e+05	
57	-2.85000e+00	1.137305e+05	
58	-2.90000e+00	1.162705e+05	
59	-2.95000e+00	1.187725e+05	
60	-3.00000e+00	1.212372e+05	
61	-3.05000e+00	1.236654e+05	
62	-3.10000e+00	1.260581e+05	
63	-3.15000e+00	1.284160e+05	
64	-3.20000e+00	1.307398e+05	
65	-3.25000e+00	1.330303e+05	
66	-3.30000e+00	1.352881e+05	
67	-3.35000e+00	1.375140e+05	
68	-3.40000e+00	1.397086e+05	
69	-3.45000e+00	1.418726e+05	
70	-3.50000e+00	1.440065e+05	
71	-3.55000e+00	1.461111e+05	
72	-3.60000e+00	1.481868e+05	
73	-3.65000e+00	1.502342e+05	
74	-3.70000e+00	1.522540e+05	
75	-3.75000e+00	1.542466e+05	
76	-3.80000e+00	1.562126e+05	
77	-3.85000e+00	1.581524e+05	
78	-3.90000e+00	1.600667e+05	
79	-3.95000e+00	1.619558e+05	
80	-4.00000e+00	1.638203e+05	
81	-4.05000e+00	1.656605e+05	
82	-4.10000e+00	1.674771e+05	
83	-4.15000e+00	1.692703e+05	
84	-4.20000e+00	1.710406e+05	
85	-4.25000e+00	1.727885e+05	
86	-4.30000e+00	1.745143e+05	
87	-4.35000e+00	1.762184e+05	
88	-4.40000e+00	1.779013e+05	
89	-4.45000e+00	1.795632e+05	
90	-4.50000e+00	1.812046e+05	
91	-4.55000e+00	1.828258e+05	
92	-4.60000e+00	1.844271e+05	
93	-4.65000e+00	1.860089e+05	
94	-4.70000e+00	1.875714e+05	
95	-4.75000e+00	1.891151e+05	
96	-4.80000e+00	1.906401e+05	
97	-4.85000e+00	1.921469e+05	
98	-4.90000e+00	1.936356e+05	
99	-4.95000e+00	1.951065e+05	
100	-5.00000e+00	1.965600e+05	
101	-5.05000e+00	1.979962e+05	
102	-5.10000e+00	1.994154e+05	
103	-5.15000e+00	2.008178e+05	
104	-5.20000e+00	2.022037e+05	
105	-5.25000e+00	2.035732e+05	
106	-5.30000e+00	2.049267e+05	
107	-5.35000e+00	2.062642e+05	
108	-5.40000e+00	2.075860e+05	
109	-5.45000e+00	2.088922e+05	
110	-5.50000e+00	2.101831e+05	
111	-5.55000e+00	2.114587e+05	
112	-5.60000e+00	2.127193e+05	

Index   v-sweep         rds             
--------------------------------------------------------------------------------
113	-5.65000e+00	2.139650e+05	
114	-5.70000e+00	2.151960e+05	
115	-5.75000e+00	2.164123e+05	
116	-5.80000e+00	2.176140e+05	
117	-5.85000e+00	2.188015e+05	
118	-5.90000e+00	2.199746e+05	
119	-5.95000e+00	2.211335e+05	
120	-6.00000e+00	2.222784e+05	
121	-6.05000e+00	2.234094e+05	
122	-6.10000e+00	2.245264e+05	
123	-6.15000e+00	2.256296e+05	
124	-6.20000e+00	2.267191e+05	
125	-6.25000e+00	2.277949e+05	
126	-6.30000e+00	2.288571e+05	
127	-6.35000e+00	2.299057e+05	
128	-6.40000e+00	2.309409e+05	
129	-6.45000e+00	2.319626e+05	
130	-6.50000e+00	2.329710e+05	
131	-6.55000e+00	2.339659e+05	
132	-6.60000e+00	2.349476e+05	
Reset re-loads circuit ***************************

Circuit: ***************************

Doing analysis at TEMP = 25.000000 and TNOM = 25.000000


No. of Data Rows : 133
                          ***************************
                          DC transfer characteristic  Mon Jan  9 13:57:54  2023
--------------------------------------------------------------------------------
Index   v-sweep         rds             
--------------------------------------------------------------------------------
0	0.000000e+00	1.539509e+03	
1	-5.00000e-02	1.578045e+03	
2	-1.00000e-01	1.618319e+03	
3	-1.50000e-01	1.660451e+03	
4	-2.00000e-01	1.704572e+03	
5	-2.50000e-01	1.750825e+03	
6	-3.00000e-01	1.799370e+03	
7	-3.50000e-01	1.850379e+03	
8	-4.00000e-01	1.904046e+03	
9	-4.50000e-01	1.960584e+03	
10	-5.00000e-01	2.020227e+03	
11	-5.50000e-01	2.083239e+03	
12	-6.00000e-01	2.149914e+03	
13	-6.50000e-01	2.220578e+03	
14	-7.00000e-01	2.295601e+03	
15	-7.50000e-01	2.375397e+03	
16	-8.00000e-01	2.460436e+03	
17	-8.50000e-01	2.551251e+03	
18	-9.00000e-01	2.648449e+03	
19	-9.50000e-01	2.752725e+03	
20	-1.00000e+00	2.864880e+03	
21	-1.05000e+00	2.985837e+03	
22	-1.10000e+00	3.116670e+03	
23	-1.15000e+00	3.258635e+03	
24	-1.20000e+00	3.413206e+03	
25	-1.25000e+00	3.582131e+03	
26	-1.30000e+00	3.767488e+03	
27	-1.35000e+00	3.971773e+03	
28	-1.40000e+00	4.198008e+03	
29	-1.45000e+00	4.449875e+03	
30	-1.50000e+00	4.731909e+03	
31	-1.55000e+00	5.049740e+03	
32	-1.60000e+00	5.410423e+03	
33	-1.65000e+00	5.822876e+03	
34	-1.70000e+00	6.298454e+03	
35	-1.75000e+00	6.851679e+03	
36	-1.80000e+00	7.501097e+03	
37	-1.85000e+00	8.270112e+03	
38	-1.90000e+00	9.187320e+03	
39	-1.95000e+00	1.028529e+04	
40	-2.00000e+00	1.159594e+04	
41	-2.05000e+00	1.314073e+04	
42	-2.10000e+00	1.491712e+04	
43	-2.15000e+00	1.688970e+04	
44	-2.20000e+00	1.899669e+04	
45	-2.25000e+00	2.117067e+04	
46	-2.30000e+00	2.335796e+04	
47	-2.35000e+00	2.552530e+04	
48	-2.40000e+00	2.765620e+04	
49	-2.45000e+00	2.974438e+04	
50	-2.50000e+00	3.178873e+04	
51	-2.55000e+00	3.379031e+04	
52	-2.60000e+00	3.575094e+04	
53	-2.65000e+00	3.767253e+04	
54	-2.70000e+00	3.955690e+04	

Index   v-sweep         rds             
--------------------------------------------------------------------------------
55	-2.75000e+00	4.140564e+04	
56	-2.80000e+00	4.322018e+04	
57	-2.85000e+00	4.500177e+04	
58	-2.90000e+00	4.675156e+04	
59	-2.95000e+00	4.847056e+04	
60	-3.00000e+00	5.015970e+04	
61	-3.05000e+00	5.181985e+04	
62	-3.10000e+00	5.345182e+04	
63	-3.15000e+00	5.505635e+04	
64	-3.20000e+00	5.663418e+04	
65	-3.25000e+00	5.818597e+04	
66	-3.30000e+00	5.971237e+04	
67	-3.35000e+00	6.121401e+04	
68	-3.40000e+00	6.269149e+04	
69	-3.45000e+00	6.414537e+04	
70	-3.50000e+00	6.557621e+04	
71	-3.55000e+00	6.698454e+04	
72	-3.60000e+00	6.837089e+04	
73	-3.65000e+00	6.973573e+04	
74	-3.70000e+00	7.107957e+04	
75	-3.75000e+00	7.240287e+04	
76	-3.80000e+00	7.370608e+04	
77	-3.85000e+00	7.498965e+04	
78	-3.90000e+00	7.625399e+04	
79	-3.95000e+00	7.749953e+04	
80	-4.00000e+00	7.872666e+04	
81	-4.05000e+00	7.993579e+04	
82	-4.10000e+00	8.112728e+04	
83	-4.15000e+00	8.230152e+04	
84	-4.20000e+00	8.345885e+04	
85	-4.25000e+00	8.459964e+04	
86	-4.30000e+00	8.572421e+04	
87	-4.35000e+00	8.683290e+04	
88	-4.40000e+00	8.792604e+04	
89	-4.45000e+00	8.900393e+04	
90	-4.50000e+00	9.006689e+04	
91	-4.55000e+00	9.111520e+04	
92	-4.60000e+00	9.214917e+04	
93	-4.65000e+00	9.316906e+04	
94	-4.70000e+00	9.417515e+04	
95	-4.75000e+00	9.516772e+04	
96	-4.80000e+00	9.614701e+04	
97	-4.85000e+00	9.711328e+04	
98	-4.90000e+00	9.806678e+04	
99	-4.95000e+00	9.900775e+04	
100	-5.00000e+00	9.993641e+04	
101	-5.05000e+00	1.008530e+05	
102	-5.10000e+00	1.017577e+05	
103	-5.15000e+00	1.026508e+05	
104	-5.20000e+00	1.035324e+05	
105	-5.25000e+00	1.044028e+05	
106	-5.30000e+00	1.052622e+05	
107	-5.35000e+00	1.061107e+05	
108	-5.40000e+00	1.069485e+05	
109	-5.45000e+00	1.077758e+05	
110	-5.50000e+00	1.085928e+05	
111	-5.55000e+00	1.093996e+05	
112	-5.60000e+00	1.101964e+05	

Index   v-sweep         rds             
--------------------------------------------------------------------------------
113	-5.65000e+00	1.109834e+05	
114	-5.70000e+00	1.117606e+05	
115	-5.75000e+00	1.125283e+05	
116	-5.80000e+00	1.132865e+05	
117	-5.85000e+00	1.140354e+05	
118	-5.90000e+00	1.147752e+05	
119	-5.95000e+00	1.155059e+05	
120	-6.00000e+00	1.162277e+05	
121	-6.05000e+00	1.169406e+05	
122	-6.10000e+00	1.176448e+05	
123	-6.15000e+00	1.183404e+05	
124	-6.20000e+00	1.190274e+05	
125	-6.25000e+00	1.197060e+05	
126	-6.30000e+00	1.203763e+05	
127	-6.35000e+00	1.210382e+05	
128	-6.40000e+00	1.216920e+05	
129	-6.45000e+00	1.223376e+05	
130	-6.50000e+00	1.229752e+05	
131	-6.55000e+00	1.236047e+05	
132	-6.60000e+00	1.242264e+05	
Reset re-loads circuit ***************************

Circuit: ***************************

Doing analysis at TEMP = 25.000000 and TNOM = 25.000000


No. of Data Rows : 133
                          ***************************
                          DC transfer characteristic  Mon Jan  9 13:57:54  2023
--------------------------------------------------------------------------------
Index   v-sweep         rds             
--------------------------------------------------------------------------------
0	0.000000e+00	1.282854e+03	
1	-5.00000e-02	1.307858e+03	
2	-1.00000e-01	1.333714e+03	
3	-1.50000e-01	1.360466e+03	
4	-2.00000e-01	1.388160e+03	
5	-2.50000e-01	1.416849e+03	
6	-3.00000e-01	1.446586e+03	
7	-3.50000e-01	1.477429e+03	
8	-4.00000e-01	1.509442e+03	
9	-4.50000e-01	1.542691e+03	
10	-5.00000e-01	1.577250e+03	
11	-5.50000e-01	1.613198e+03	
12	-6.00000e-01	1.650619e+03	
13	-6.50000e-01	1.689606e+03	
14	-7.00000e-01	1.730259e+03	
15	-7.50000e-01	1.772687e+03	
16	-8.00000e-01	1.817008e+03	
17	-8.50000e-01	1.863352e+03	
18	-9.00000e-01	1.911860e+03	
19	-9.50000e-01	1.962687e+03	
20	-1.00000e+00	2.016003e+03	
21	-1.05000e+00	2.071994e+03	
22	-1.10000e+00	2.130868e+03	
23	-1.15000e+00	2.192850e+03	
24	-1.20000e+00	2.258195e+03	
25	-1.25000e+00	2.327182e+03	
26	-1.30000e+00	2.400124e+03	
27	-1.35000e+00	2.477369e+03	
28	-1.40000e+00	2.559309e+03	
29	-1.45000e+00	2.646383e+03	
30	-1.50000e+00	2.739088e+03	
31	-1.55000e+00	2.837986e+03	
32	-1.60000e+00	2.943715e+03	
33	-1.65000e+00	3.057004e+03	
34	-1.70000e+00	3.178690e+03	
35	-1.75000e+00	3.309734e+03	
36	-1.80000e+00	3.451250e+03	
37	-1.85000e+00	3.604532e+03	
38	-1.90000e+00	3.771095e+03	
39	-1.95000e+00	3.952716e+03	
40	-2.00000e+00	4.151500e+03	
41	-2.05000e+00	4.369946e+03	
42	-2.10000e+00	4.611044e+03	
43	-2.15000e+00	4.878389e+03	
44	-2.20000e+00	5.176327e+03	
45	-2.25000e+00	5.510126e+03	
46	-2.30000e+00	5.886187e+03	
47	-2.35000e+00	6.312261e+03	
48	-2.40000e+00	6.797657e+03	
49	-2.45000e+00	7.353320e+03	
50	-2.50000e+00	7.991611e+03	
51	-2.55000e+00	8.725463e+03	
52	-2.60000e+00	9.566521e+03	
53	-2.65000e+00	1.052208e+04	
54	-2.70000e+00	1.159146e+04	

Index   v-sweep         rds             
--------------------------------------------------------------------------------
55	-2.75000e+00	1.276365e+04	
56	-2.80000e+00	1.401843e+04	
57	-2.85000e+00	1.533091e+04	
58	-2.90000e+00	1.667718e+04	
59	-2.95000e+00	1.803794e+04	
60	-3.00000e+00	1.939939e+04	
61	-3.05000e+00	2.075251e+04	
62	-3.10000e+00	2.209165e+04	
63	-3.15000e+00	2.341346e+04	
64	-3.20000e+00	2.471599e+04	
65	-3.25000e+00	2.599819e+04	
66	-3.30000e+00	2.725955e+04	
67	-3.35000e+00	2.849988e+04	
68	-3.40000e+00	2.971924e+04	
69	-3.45000e+00	3.091780e+04	
70	-3.50000e+00	3.209582e+04	
71	-3.55000e+00	3.325363e+04	
72	-3.60000e+00	3.439159e+04	
73	-3.65000e+00	3.551007e+04	
74	-3.70000e+00	3.660948e+04	
75	-3.75000e+00	3.769019e+04	
76	-3.80000e+00	3.875263e+04	
77	-3.85000e+00	3.979718e+04	
78	-3.90000e+00	4.082424e+04	
79	-3.95000e+00	4.183420e+04	
80	-4.00000e+00	4.282744e+04	
81	-4.05000e+00	4.380434e+04	
82	-4.10000e+00	4.476527e+04	
83	-4.15000e+00	4.571058e+04	
84	-4.20000e+00	4.664062e+04	
85	-4.25000e+00	4.755574e+04	
86	-4.30000e+00	4.845627e+04	
87	-4.35000e+00	4.934254e+04	
88	-4.40000e+00	5.021486e+04	
89	-4.45000e+00	5.107354e+04	
90	-4.50000e+00	5.191889e+04	
91	-4.55000e+00	5.275119e+04	
92	-4.60000e+00	5.357073e+04	
93	-4.65000e+00	5.437780e+04	
94	-4.70000e+00	5.517265e+04	
95	-4.75000e+00	5.595555e+04	
96	-4.80000e+00	5.672676e+04	
97	-4.85000e+00	5.748652e+04	
98	-4.90000e+00	5.823508e+04	
99	-4.95000e+00	5.897268e+04	
100	-5.00000e+00	5.969953e+04	
101	-5.05000e+00	6.041588e+04	
102	-5.10000e+00	6.112193e+04	
103	-5.15000e+00	6.181789e+04	
104	-5.20000e+00	6.250397e+04	
105	-5.25000e+00	6.318037e+04	
106	-5.30000e+00	6.384729e+04	
107	-5.35000e+00	6.450492e+04	
108	-5.40000e+00	6.515343e+04	
109	-5.45000e+00	6.579301e+04	
110	-5.50000e+00	6.642383e+04	
111	-5.55000e+00	6.704607e+04	
112	-5.60000e+00	6.765988e+04	

Index   v-sweep         rds             
--------------------------------------------------------------------------------
113	-5.65000e+00	6.826543e+04	
114	-5.70000e+00	6.886287e+04	
115	-5.75000e+00	6.945235e+04	
116	-5.80000e+00	7.003401e+04	
117	-5.85000e+00	7.060801e+04	
118	-5.90000e+00	7.117447e+04	
119	-5.95000e+00	7.173353e+04	
120	-6.00000e+00	7.228532e+04	
121	-6.05000e+00	7.282996e+04	
122	-6.10000e+00	7.336757e+04	
123	-6.15000e+00	7.389827e+04	
124	-6.20000e+00	7.442216e+04	
125	-6.25000e+00	7.493937e+04	
126	-6.30000e+00	7.544998e+04	
127	-6.35000e+00	7.595410e+04	
128	-6.40000e+00	7.645182e+04	
129	-6.45000e+00	7.694324e+04	
130	-6.50000e+00	7.742845e+04	
131	-6.55000e+00	7.790752e+04	
132	-6.60000e+00	7.838055e+04	
Reset re-loads circuit ***************************

Circuit: ***************************

Doing analysis at TEMP = 25.000000 and TNOM = 25.000000


No. of Data Rows : 133
                          ***************************
                          DC transfer characteristic  Mon Jan  9 13:57:54  2023
--------------------------------------------------------------------------------
Index   v-sweep         rds             
--------------------------------------------------------------------------------
0	0.000000e+00	1.126948e+03	
1	-5.00000e-02	1.145042e+03	
2	-1.00000e-01	1.163632e+03	
3	-1.50000e-01	1.182738e+03	
4	-2.00000e-01	1.202382e+03	
5	-2.50000e-01	1.222587e+03	
6	-3.00000e-01	1.243377e+03	
7	-3.50000e-01	1.264777e+03	
8	-4.00000e-01	1.286816e+03	
9	-4.50000e-01	1.309521e+03	
10	-5.00000e-01	1.332924e+03	
11	-5.50000e-01	1.357057e+03	
12	-6.00000e-01	1.381954e+03	
13	-6.50000e-01	1.407653e+03	
14	-7.00000e-01	1.434192e+03	
15	-7.50000e-01	1.461614e+03	
16	-8.00000e-01	1.489963e+03	
17	-8.50000e-01	1.519286e+03	
18	-9.00000e-01	1.549635e+03	
19	-9.50000e-01	1.581064e+03	
20	-1.00000e+00	1.613631e+03	
21	-1.05000e+00	1.647401e+03	
22	-1.10000e+00	1.682439e+03	
23	-1.15000e+00	1.718820e+03	
24	-1.20000e+00	1.756621e+03	
25	-1.25000e+00	1.795926e+03	
26	-1.30000e+00	1.836828e+03	
27	-1.35000e+00	1.879426e+03	
28	-1.40000e+00	1.923826e+03	
29	-1.45000e+00	1.970145e+03	
30	-1.50000e+00	2.018510e+03	
31	-1.55000e+00	2.069059e+03	
32	-1.60000e+00	2.121944e+03	
33	-1.65000e+00	2.177329e+03	
34	-1.70000e+00	2.235396e+03	
35	-1.75000e+00	2.296342e+03	
36	-1.80000e+00	2.360388e+03	
37	-1.85000e+00	2.427775e+03	
38	-1.90000e+00	2.498770e+03	
39	-1.95000e+00	2.573670e+03	
40	-2.00000e+00	2.652804e+03	
41	-2.05000e+00	2.736541e+03	
42	-2.10000e+00	2.825291e+03	
43	-2.15000e+00	2.919515e+03	
44	-2.20000e+00	3.019733e+03	
45	-2.25000e+00	3.126531e+03	
46	-2.30000e+00	3.240573e+03	
47	-2.35000e+00	3.362615e+03	
48	-2.40000e+00	3.493517e+03	
49	-2.45000e+00	3.634269e+03	
50	-2.50000e+00	3.786007e+03	
51	-2.55000e+00	3.950044e+03	
52	-2.60000e+00	4.127903e+03	
53	-2.65000e+00	4.321359e+03	
54	-2.70000e+00	4.532483e+03	

Index   v-sweep         rds             
--------------------------------------------------------------------------------
55	-2.75000e+00	4.763706e+03	
56	-2.80000e+00	5.017883e+03	
57	-2.85000e+00	5.298369e+03	
58	-2.90000e+00	5.609099e+03	
59	-2.95000e+00	5.954655e+03	
60	-3.00000e+00	6.340310e+03	
61	-3.05000e+00	6.771975e+03	
62	-3.10000e+00	7.256007e+03	
63	-3.15000e+00	7.798739e+03	
64	-3.20000e+00	8.405649e+03	
65	-3.25000e+00	9.080154e+03	
66	-3.30000e+00	9.822273e+03	
67	-3.35000e+00	1.062771e+04	
68	-3.40000e+00	1.148800e+04	
69	-3.45000e+00	1.239178e+04	
70	-3.50000e+00	1.332679e+04	
71	-3.55000e+00	1.428160e+04	
72	-3.60000e+00	1.524663e+04	
73	-3.65000e+00	1.621440e+04	
74	-3.70000e+00	1.717940e+04	
75	-3.75000e+00	1.813766e+04	
76	-3.80000e+00	1.908642e+04	
77	-3.85000e+00	2.002378e+04	
78	-3.90000e+00	2.094848e+04	
79	-3.95000e+00	2.185969e+04	
80	-4.00000e+00	2.275691e+04	
81	-4.05000e+00	2.363985e+04	
82	-4.10000e+00	2.450839e+04	
83	-4.15000e+00	2.536252e+04	
84	-4.20000e+00	2.620233e+04	
85	-4.25000e+00	2.702795e+04	
86	-4.30000e+00	2.783955e+04	
87	-4.35000e+00	2.863736e+04	
88	-4.40000e+00	2.942159e+04	
89	-4.45000e+00	3.019250e+04	
90	-4.50000e+00	3.095034e+04	
91	-4.55000e+00	3.169537e+04	
92	-4.60000e+00	3.242786e+04	
93	-4.65000e+00	3.314806e+04	
94	-4.70000e+00	3.385624e+04	
95	-4.75000e+00	3.455266e+04	
96	-4.80000e+00	3.523758e+04	
97	-4.85000e+00	3.591124e+04	
98	-4.90000e+00	3.657390e+04	
99	-4.95000e+00	3.722581e+04	
100	-5.00000e+00	3.786719e+04	
101	-5.05000e+00	3.849828e+04	
102	-5.10000e+00	3.911931e+04	
103	-5.15000e+00	3.973050e+04	
104	-5.20000e+00	4.033208e+04	
105	-5.25000e+00	4.092424e+04	
106	-5.30000e+00	4.150720e+04	
107	-5.35000e+00	4.208116e+04	
108	-5.40000e+00	4.264631e+04	
109	-5.45000e+00	4.320284e+04	
110	-5.50000e+00	4.375095e+04	
111	-5.55000e+00	4.429080e+04	
112	-5.60000e+00	4.482259e+04	

Index   v-sweep         rds             
--------------------------------------------------------------------------------
113	-5.65000e+00	4.534647e+04	
114	-5.70000e+00	4.586261e+04	
115	-5.75000e+00	4.637119e+04	
116	-5.80000e+00	4.687235e+04	
117	-5.85000e+00	4.736625e+04	
118	-5.90000e+00	4.785303e+04	
119	-5.95000e+00	4.833285e+04	
120	-6.00000e+00	4.880585e+04	
121	-6.05000e+00	4.927216e+04	
122	-6.10000e+00	4.973191e+04	
123	-6.15000e+00	5.018525e+04	
124	-6.20000e+00	5.063228e+04	
125	-6.25000e+00	5.107314e+04	
126	-6.30000e+00	5.150794e+04	
127	-6.35000e+00	5.193680e+04	
128	-6.40000e+00	5.235983e+04	
129	-6.45000e+00	5.277713e+04	
130	-6.50000e+00	5.318882e+04	
131	-6.55000e+00	5.359500e+04	
132	-6.60000e+00	5.399575e+04	
Reset re-loads circuit ***************************

Circuit: ***************************

Note: No ".plot", ".print", or ".fourier" lines; no simulations run
