
Note: Compatibility modes selected: hs

Warning: m=xx on .subckt line will override multiplier m hierarchy!


Circuit: ***************************

Doing analysis at TEMP = -40.000000 and TNOM = -40.000000


No. of Data Rows : 133
                          ***************************
                          DC transfer characteristic  Mon Jan  9 13:57:54  2023
--------------------------------------------------------------------------------
Index   v-sweep         rds             
--------------------------------------------------------------------------------
0	0.000000e+00	1.685763e+07	
1	-5.00000e-02	5.654468e+07	
2	-1.00000e-01	4.156447e+08	
3	-1.50000e-01	2.027133e+09	
4	-2.00000e-01	5.545068e+09	
5	-2.50000e-01	1.051214e+10	
6	-3.00000e-01	1.591156e+10	
7	-3.50000e-01	2.098044e+10	
8	-4.00000e-01	2.541062e+10	
9	-4.50000e-01	2.917868e+10	
10	-5.00000e-01	3.237134e+10	
11	-5.50000e-01	3.509585e+10	
12	-6.00000e-01	3.744753e+10	
13	-6.50000e-01	3.950262e+10	
14	-7.00000e-01	4.131976e+10	
15	-7.50000e-01	4.294359e+10	
16	-8.00000e-01	4.440819e+10	
17	-8.50000e-01	4.573978e+10	
18	-9.00000e-01	4.695882e+10	
19	-9.50000e-01	4.808146e+10	
20	-1.00000e+00	4.912062e+10	
21	-1.05000e+00	5.008682e+10	
22	-1.10000e+00	5.098866e+10	
23	-1.15000e+00	5.183332e+10	
24	-1.20000e+00	5.262680e+10	
25	-1.25000e+00	5.337424e+10	
26	-1.30000e+00	5.407998e+10	
27	-1.35000e+00	5.474782e+10	
28	-1.40000e+00	5.538104e+10	
29	-1.45000e+00	5.598251e+10	
30	-1.50000e+00	5.655476e+10	
31	-1.55000e+00	5.710005e+10	
32	-1.60000e+00	5.762037e+10	
33	-1.65000e+00	5.811751e+10	
34	-1.70000e+00	5.859309e+10	
35	-1.75000e+00	5.904855e+10	
36	-1.80000e+00	5.948521e+10	
37	-1.85000e+00	5.990427e+10	
38	-1.90000e+00	6.030681e+10	
39	-1.95000e+00	6.069383e+10	
40	-2.00000e+00	6.106624e+10	
41	-2.05000e+00	6.142489e+10	
42	-2.10000e+00	6.177054e+10	
43	-2.15000e+00	6.210390e+10	
44	-2.20000e+00	6.242564e+10	
45	-2.25000e+00	6.273637e+10	
46	-2.30000e+00	6.303665e+10	
47	-2.35000e+00	6.332702e+10	
48	-2.40000e+00	6.360796e+10	
49	-2.45000e+00	6.387993e+10	
50	-2.50000e+00	6.414336e+10	
51	-2.55000e+00	6.439865e+10	
52	-2.60000e+00	6.464617e+10	
53	-2.65000e+00	6.488628e+10	
54	-2.70000e+00	6.511931e+10	

Index   v-sweep         rds             
--------------------------------------------------------------------------------
55	-2.75000e+00	6.534556e+10	
56	-2.80000e+00	6.556534e+10	
57	-2.85000e+00	6.577891e+10	
58	-2.90000e+00	6.598653e+10	
59	-2.95000e+00	6.618845e+10	
60	-3.00000e+00	6.638489e+10	
61	-3.05000e+00	6.657609e+10	
62	-3.10000e+00	6.676224e+10	
63	-3.15000e+00	6.694354e+10	
64	-3.20000e+00	6.712017e+10	
65	-3.25000e+00	6.729231e+10	
66	-3.30000e+00	6.746013e+10	
67	-3.35000e+00	6.762379e+10	
68	-3.40000e+00	6.778343e+10	
69	-3.45000e+00	6.793920e+10	
70	-3.50000e+00	6.809123e+10	
71	-3.55000e+00	6.823965e+10	
72	-3.60000e+00	6.838459e+10	
73	-3.65000e+00	6.852616e+10	
74	-3.70000e+00	6.866448e+10	
75	-3.75000e+00	6.879965e+10	
76	-3.80000e+00	6.893177e+10	
77	-3.85000e+00	6.906093e+10	
78	-3.90000e+00	6.918724e+10	
79	-3.95000e+00	6.931078e+10	
80	-4.00000e+00	6.943163e+10	
81	-4.05000e+00	6.954987e+10	
82	-4.10000e+00	6.966559e+10	
83	-4.15000e+00	6.977885e+10	
84	-4.20000e+00	6.988972e+10	
85	-4.25000e+00	6.999827e+10	
86	-4.30000e+00	7.010457e+10	
87	-4.35000e+00	7.020868e+10	
88	-4.40000e+00	7.031066e+10	
89	-4.45000e+00	7.041056e+10	
90	-4.50000e+00	7.050843e+10	
91	-4.55000e+00	7.060434e+10	
92	-4.60000e+00	7.069832e+10	
93	-4.65000e+00	7.079043e+10	
94	-4.70000e+00	7.088072e+10	
95	-4.75000e+00	7.096922e+10	
96	-4.80000e+00	7.105599e+10	
97	-4.85000e+00	7.114105e+10	
98	-4.90000e+00	7.122445e+10	
99	-4.95000e+00	7.130623e+10	
100	-5.00000e+00	7.138643e+10	
101	-5.05000e+00	7.146507e+10	
102	-5.10000e+00	7.154219e+10	
103	-5.15000e+00	7.161783e+10	
104	-5.20000e+00	7.169202e+10	
105	-5.25000e+00	7.176478e+10	
106	-5.30000e+00	7.183614e+10	
107	-5.35000e+00	7.190614e+10	
108	-5.40000e+00	7.197479e+10	
109	-5.45000e+00	7.204213e+10	
110	-5.50000e+00	7.210818e+10	
111	-5.55000e+00	7.217297e+10	
112	-5.60000e+00	7.223651e+10	

Index   v-sweep         rds             
--------------------------------------------------------------------------------
113	-5.65000e+00	7.229883e+10	
114	-5.70000e+00	7.235996e+10	
115	-5.75000e+00	7.241991e+10	
116	-5.80000e+00	7.247870e+10	
117	-5.85000e+00	7.253636e+10	
118	-5.90000e+00	7.259290e+10	
119	-5.95000e+00	7.264835e+10	
120	-6.00000e+00	7.270271e+10	
121	-6.05000e+00	7.275602e+10	
122	-6.10000e+00	7.280828e+10	
123	-6.15000e+00	7.285951e+10	
124	-6.20000e+00	7.290973e+10	
125	-6.25000e+00	7.295895e+10	
126	-6.30000e+00	7.300720e+10	
127	-6.35000e+00	7.305447e+10	
128	-6.40000e+00	7.310080e+10	
129	-6.45000e+00	7.314619e+10	
130	-6.50000e+00	7.319066e+10	
131	-6.55000e+00	7.323422e+10	
132	-6.60000e+00	7.327688e+10	
Reset re-loads circuit ***************************

Circuit: ***************************

Doing analysis at TEMP = -40.000000 and TNOM = -40.000000


No. of Data Rows : 133
                          ***************************
                          DC transfer characteristic  Mon Jan  9 13:57:55  2023
--------------------------------------------------------------------------------
Index   v-sweep         rds             
--------------------------------------------------------------------------------
0	0.000000e+00	9.254769e+05	
1	-5.00000e-02	9.940993e+05	
2	-1.00000e-01	1.073629e+06	
3	-1.50000e-01	1.166882e+06	
4	-2.00000e-01	1.277729e+06	
5	-2.50000e-01	1.411633e+06	
6	-3.00000e-01	1.576553e+06	
7	-3.50000e-01	1.784522e+06	
8	-4.00000e-01	2.054550e+06	
9	-4.50000e-01	2.418292e+06	
10	-5.00000e-01	2.931847e+06	
11	-5.50000e-01	3.701947e+06	
12	-6.00000e-01	4.947090e+06	
13	-6.50000e-01	7.139277e+06	
14	-7.00000e-01	1.128238e+07	
15	-7.50000e-01	1.918570e+07	
16	-8.00000e-01	3.299288e+07	
17	-8.50000e-01	5.347122e+07	
18	-9.00000e-01	7.882101e+07	
19	-9.50000e-01	1.058016e+08	
20	-1.00000e+00	1.316847e+08	
21	-1.05000e+00	1.550590e+08	
22	-1.10000e+00	1.755643e+08	
23	-1.15000e+00	1.933829e+08	
24	-1.20000e+00	2.088867e+08	
25	-1.25000e+00	2.224648e+08	
26	-1.30000e+00	2.344593e+08	
27	-1.35000e+00	2.451507e+08	
28	-1.40000e+00	2.547625e+08	
29	-1.45000e+00	2.634717e+08	
30	-1.50000e+00	2.714180e+08	
31	-1.55000e+00	2.787127e+08	
32	-1.60000e+00	2.854453e+08	
33	-1.65000e+00	2.916884e+08	
34	-1.70000e+00	2.975015e+08	
35	-1.75000e+00	3.029339e+08	
36	-1.80000e+00	3.080270e+08	
37	-1.85000e+00	3.128158e+08	
38	-1.90000e+00	3.173299e+08	
39	-1.95000e+00	3.215951e+08	
40	-2.00000e+00	3.256335e+08	
41	-2.05000e+00	3.294646e+08	
42	-2.10000e+00	3.331052e+08	
43	-2.15000e+00	3.365705e+08	
44	-2.20000e+00	3.398738e+08	
45	-2.25000e+00	3.430270e+08	
46	-2.30000e+00	3.460407e+08	
47	-2.35000e+00	3.489247e+08	
48	-2.40000e+00	3.516874e+08	
49	-2.45000e+00	3.543369e+08	
50	-2.50000e+00	3.568803e+08	
51	-2.55000e+00	3.593241e+08	
52	-2.60000e+00	3.616742e+08	
53	-2.65000e+00	3.639363e+08	
54	-2.70000e+00	3.661152e+08	

Index   v-sweep         rds             
--------------------------------------------------------------------------------
55	-2.75000e+00	3.682156e+08	
56	-2.80000e+00	3.702419e+08	
57	-2.85000e+00	3.721979e+08	
58	-2.90000e+00	3.740874e+08	
59	-2.95000e+00	3.759139e+08	
60	-3.00000e+00	3.776803e+08	
61	-3.05000e+00	3.793898e+08	
62	-3.10000e+00	3.810451e+08	
63	-3.15000e+00	3.826488e+08	
64	-3.20000e+00	3.842032e+08	
65	-3.25000e+00	3.857106e+08	
66	-3.30000e+00	3.871733e+08	
67	-3.35000e+00	3.885931e+08	
68	-3.40000e+00	3.899719e+08	
69	-3.45000e+00	3.913115e+08	
70	-3.50000e+00	3.926136e+08	
71	-3.55000e+00	3.938796e+08	
72	-3.60000e+00	3.951112e+08	
73	-3.65000e+00	3.963097e+08	
74	-3.70000e+00	3.974764e+08	
75	-3.75000e+00	3.986125e+08	
76	-3.80000e+00	3.997193e+08	
77	-3.85000e+00	4.007979e+08	
78	-3.90000e+00	4.018493e+08	
79	-3.95000e+00	4.028745e+08	
80	-4.00000e+00	4.038745e+08	
81	-4.05000e+00	4.048502e+08	
82	-4.10000e+00	4.058024e+08	
83	-4.15000e+00	4.067320e+08	
84	-4.20000e+00	4.076398e+08	
85	-4.25000e+00	4.085265e+08	
86	-4.30000e+00	4.093928e+08	
87	-4.35000e+00	4.102394e+08	
88	-4.40000e+00	4.110669e+08	
89	-4.45000e+00	4.118760e+08	
90	-4.50000e+00	4.126672e+08	
91	-4.55000e+00	4.134410e+08	
92	-4.60000e+00	4.141981e+08	
93	-4.65000e+00	4.149389e+08	
94	-4.70000e+00	4.156640e+08	
95	-4.75000e+00	4.163737e+08	
96	-4.80000e+00	4.170685e+08	
97	-4.85000e+00	4.177489e+08	
98	-4.90000e+00	4.184153e+08	
99	-4.95000e+00	4.190680e+08	
100	-5.00000e+00	4.197074e+08	
101	-5.05000e+00	4.203339e+08	
102	-5.10000e+00	4.209478e+08	
103	-5.15000e+00	4.215494e+08	
104	-5.20000e+00	4.221391e+08	
105	-5.25000e+00	4.227172e+08	
106	-5.30000e+00	4.232839e+08	
107	-5.35000e+00	4.238396e+08	
108	-5.40000e+00	4.243844e+08	
109	-5.45000e+00	4.249188e+08	
110	-5.50000e+00	4.254428e+08	
111	-5.55000e+00	4.259567e+08	
112	-5.60000e+00	4.264608e+08	

Index   v-sweep         rds             
--------------------------------------------------------------------------------
113	-5.65000e+00	4.269553e+08	
114	-5.70000e+00	4.274404e+08	
115	-5.75000e+00	4.279163e+08	
116	-5.80000e+00	4.283831e+08	
117	-5.85000e+00	4.288412e+08	
118	-5.90000e+00	4.292906e+08	
119	-5.95000e+00	4.297315e+08	
120	-6.00000e+00	4.301641e+08	
121	-6.05000e+00	4.305886e+08	
122	-6.10000e+00	4.310051e+08	
123	-6.15000e+00	4.314138e+08	
124	-6.20000e+00	4.318148e+08	
125	-6.25000e+00	4.322083e+08	
126	-6.30000e+00	4.325944e+08	
127	-6.35000e+00	4.329732e+08	
128	-6.40000e+00	4.333448e+08	
129	-6.45000e+00	4.337094e+08	
130	-6.50000e+00	4.340672e+08	
131	-6.55000e+00	4.344181e+08	
132	-6.60000e+00	4.347624e+08	
Reset re-loads circuit ***************************

Circuit: ***************************

Doing analysis at TEMP = -40.000000 and TNOM = -40.000000


No. of Data Rows : 133
                          ***************************
                          DC transfer characteristic  Mon Jan  9 13:57:55  2023
--------------------------------------------------------------------------------
Index   v-sweep         rds             
--------------------------------------------------------------------------------
0	0.000000e+00	4.986109e+05	
1	-5.00000e-02	5.168576e+05	
2	-1.00000e-01	5.364758e+05	
3	-1.50000e-01	5.576262e+05	
4	-2.00000e-01	5.804954e+05	
5	-2.50000e-01	6.053016e+05	
6	-3.00000e-01	6.323014e+05	
7	-3.50000e-01	6.617989e+05	
8	-4.00000e-01	6.941568e+05	
9	-4.50000e-01	7.298116e+05	
10	-5.00000e-01	7.692930e+05	
11	-5.50000e-01	8.132500e+05	
12	-6.00000e-01	8.624867e+05	
13	-6.50000e-01	9.180108e+05	
14	-7.00000e-01	9.811020e+05	
15	-7.50000e-01	1.053409e+06	
16	-8.00000e-01	1.137092e+06	
17	-8.50000e-01	1.235032e+06	
18	-9.00000e-01	1.351155e+06	
19	-9.50000e-01	1.490932e+06	
20	-1.00000e+00	1.662196e+06	
21	-1.05000e+00	1.876493e+06	
22	-1.10000e+00	2.151398e+06	
23	-1.15000e+00	2.514585e+06	
24	-1.20000e+00	3.011083e+06	
25	-1.25000e+00	3.716008e+06	
26	-1.30000e+00	4.755200e+06	
27	-1.35000e+00	6.331206e+06	
28	-1.40000e+00	8.732048e+06	
29	-1.45000e+00	1.226631e+07	
30	-1.50000e+00	1.708538e+07	
31	-1.55000e+00	2.300282e+07	
32	-1.60000e+00	2.952315e+07	
33	-1.65000e+00	3.608227e+07	
34	-1.70000e+00	4.226696e+07	
35	-1.75000e+00	4.787369e+07	
36	-1.80000e+00	5.285654e+07	
37	-1.85000e+00	5.725432e+07	
38	-1.90000e+00	6.113849e+07	
39	-1.95000e+00	6.458535e+07	
40	-2.00000e+00	6.766424e+07	
41	-2.05000e+00	7.043398e+07	
42	-2.10000e+00	7.294291e+07	
43	-2.15000e+00	7.523029e+07	
44	-2.20000e+00	7.732792e+07	
45	-2.25000e+00	7.926165e+07	
46	-2.30000e+00	8.105259e+07	
47	-2.35000e+00	8.271816e+07	
48	-2.40000e+00	8.427285e+07	
49	-2.45000e+00	8.572878e+07	
50	-2.50000e+00	8.709624e+07	
51	-2.55000e+00	8.838398e+07	
52	-2.60000e+00	8.959952e+07	
53	-2.65000e+00	9.074939e+07	
54	-2.70000e+00	9.183927e+07	

Index   v-sweep         rds             
--------------------------------------------------------------------------------
55	-2.75000e+00	9.287414e+07	
56	-2.80000e+00	9.385840e+07	
57	-2.85000e+00	9.479596e+07	
58	-2.90000e+00	9.569028e+07	
59	-2.95000e+00	9.654449e+07	
60	-3.00000e+00	9.736137e+07	
61	-3.05000e+00	9.814346e+07	
62	-3.10000e+00	9.889304e+07	
63	-3.15000e+00	9.961220e+07	
64	-3.20000e+00	1.003028e+08	
65	-3.25000e+00	1.009666e+08	
66	-3.30000e+00	1.016053e+08	
67	-3.35000e+00	1.022201e+08	
68	-3.40000e+00	1.028125e+08	
69	-3.45000e+00	1.033838e+08	
70	-3.50000e+00	1.039350e+08	
71	-3.55000e+00	1.044673e+08	
72	-3.60000e+00	1.049816e+08	
73	-3.65000e+00	1.054788e+08	
74	-3.70000e+00	1.059597e+08	
75	-3.75000e+00	1.064253e+08	
76	-3.80000e+00	1.068762e+08	
77	-3.85000e+00	1.073131e+08	
78	-3.90000e+00	1.077366e+08	
79	-3.95000e+00	1.081474e+08	
80	-4.00000e+00	1.085461e+08	
81	-4.05000e+00	1.089332e+08	
82	-4.10000e+00	1.093091e+08	
83	-4.15000e+00	1.096744e+08	
84	-4.20000e+00	1.100294e+08	
85	-4.25000e+00	1.103748e+08	
86	-4.30000e+00	1.107107e+08	
87	-4.35000e+00	1.110377e+08	
88	-4.40000e+00	1.113560e+08	
89	-4.45000e+00	1.116660e+08	
90	-4.50000e+00	1.119680e+08	
91	-4.55000e+00	1.122624e+08	
92	-4.60000e+00	1.125494e+08	
93	-4.65000e+00	1.128292e+08	
94	-4.70000e+00	1.131022e+08	
95	-4.75000e+00	1.133686e+08	
96	-4.80000e+00	1.136286e+08	
97	-4.85000e+00	1.138824e+08	
98	-4.90000e+00	1.141303e+08	
99	-4.95000e+00	1.143725e+08	
100	-5.00000e+00	1.146091e+08	
101	-5.05000e+00	1.148403e+08	
102	-5.10000e+00	1.150663e+08	
103	-5.15000e+00	1.152874e+08	
104	-5.20000e+00	1.155035e+08	
105	-5.25000e+00	1.157149e+08	
106	-5.30000e+00	1.159218e+08	
107	-5.35000e+00	1.161242e+08	
108	-5.40000e+00	1.163223e+08	
109	-5.45000e+00	1.165162e+08	
110	-5.50000e+00	1.167061e+08	
111	-5.55000e+00	1.168920e+08	
112	-5.60000e+00	1.170741e+08	

Index   v-sweep         rds             
--------------------------------------------------------------------------------
113	-5.65000e+00	1.172525e+08	
114	-5.70000e+00	1.174272e+08	
115	-5.75000e+00	1.175985e+08	
116	-5.80000e+00	1.177663e+08	
117	-5.85000e+00	1.179307e+08	
118	-5.90000e+00	1.180919e+08	
119	-5.95000e+00	1.182499e+08	
120	-6.00000e+00	1.184048e+08	
121	-6.05000e+00	1.185567e+08	
122	-6.10000e+00	1.187056e+08	
123	-6.15000e+00	1.188517e+08	
124	-6.20000e+00	1.189949e+08	
125	-6.25000e+00	1.191354e+08	
126	-6.30000e+00	1.192732e+08	
127	-6.35000e+00	1.194083e+08	
128	-6.40000e+00	1.195409e+08	
129	-6.45000e+00	1.196710e+08	
130	-6.50000e+00	1.197986e+08	
131	-6.55000e+00	1.199238e+08	
132	-6.60000e+00	1.200466e+08	
Reset re-loads circuit ***************************

Circuit: ***************************

Doing analysis at TEMP = -40.000000 and TNOM = -40.000000


No. of Data Rows : 133
                          ***************************
                          DC transfer characteristic  Mon Jan  9 13:57:55  2023
--------------------------------------------------------------------------------
Index   v-sweep         rds             
--------------------------------------------------------------------------------
0	0.000000e+00	3.551153e+05	
1	-5.00000e-02	3.636932e+05	
2	-1.00000e-01	3.726900e+05	
3	-1.50000e-01	3.821369e+05	
4	-2.00000e-01	3.920687e+05	
5	-2.50000e-01	4.025237e+05	
6	-3.00000e-01	4.135443e+05	
7	-3.50000e-01	4.251776e+05	
8	-4.00000e-01	4.374761e+05	
9	-4.50000e-01	4.504987e+05	
10	-5.00000e-01	4.643110e+05	
11	-5.50000e-01	4.789872e+05	
12	-6.00000e-01	4.946107e+05	
13	-6.50000e-01	5.112763e+05	
14	-7.00000e-01	5.290918e+05	
15	-7.50000e-01	5.481802e+05	
16	-8.00000e-01	5.686827e+05	
17	-8.50000e-01	5.907623e+05	
18	-9.00000e-01	6.146079e+05	
19	-9.50000e-01	6.404397e+05	
20	-1.00000e+00	6.685160e+05	
21	-1.05000e+00	6.991415e+05	
22	-1.10000e+00	7.326788e+05	
23	-1.15000e+00	7.695621e+05	
24	-1.20000e+00	8.103156e+05	
25	-1.25000e+00	8.555785e+05	
26	-1.30000e+00	9.061375e+05	
27	-1.35000e+00	9.629711e+05	
28	-1.40000e+00	1.027311e+06	
29	-1.45000e+00	1.100729e+06	
30	-1.50000e+00	1.185257e+06	
31	-1.55000e+00	1.283566e+06	
32	-1.60000e+00	1.399224e+06	
33	-1.65000e+00	1.537091e+06	
34	-1.70000e+00	1.703910e+06	
35	-1.75000e+00	1.909237e+06	
36	-1.80000e+00	2.166874e+06	
37	-1.85000e+00	2.497090e+06	
38	-1.90000e+00	2.929924e+06	
39	-1.95000e+00	3.509633e+06	
40	-2.00000e+00	4.299200e+06	
41	-2.05000e+00	5.380865e+06	
42	-2.10000e+00	6.844006e+06	
43	-2.15000e+00	8.751607e+06	
44	-2.20000e+00	1.109327e+07	
45	-2.25000e+00	1.376056e+07	
46	-2.30000e+00	1.657676e+07	
47	-2.35000e+00	1.936292e+07	
48	-2.40000e+00	2.198981e+07	
49	-2.45000e+00	2.439113e+07	
50	-2.50000e+00	2.654961e+07	
51	-2.55000e+00	2.847666e+07	
52	-2.60000e+00	3.019632e+07	
53	-2.65000e+00	3.173583e+07	
54	-2.70000e+00	3.312103e+07	

Index   v-sweep         rds             
--------------------------------------------------------------------------------
55	-2.75000e+00	3.437459e+07	
56	-2.80000e+00	3.551563e+07	
57	-2.85000e+00	3.656007e+07	
58	-2.90000e+00	3.752102e+07	
59	-2.95000e+00	3.840929e+07	
60	-3.00000e+00	3.923386e+07	
61	-3.05000e+00	4.000220e+07	
62	-3.10000e+00	4.072057e+07	
63	-3.15000e+00	4.139426e+07	
64	-3.20000e+00	4.202780e+07	
65	-3.25000e+00	4.262505e+07	
66	-3.30000e+00	4.318936e+07	
67	-3.35000e+00	4.372362e+07	
68	-3.40000e+00	4.423040e+07	
69	-3.45000e+00	4.471192e+07	
70	-3.50000e+00	4.517017e+07	
71	-3.55000e+00	4.560692e+07	
72	-3.60000e+00	4.602374e+07	
73	-3.65000e+00	4.642204e+07	
74	-3.70000e+00	4.680311e+07	
75	-3.75000e+00	4.716808e+07	
76	-3.80000e+00	4.751800e+07	
77	-3.85000e+00	4.785383e+07	
78	-3.90000e+00	4.817644e+07	
79	-3.95000e+00	4.848661e+07	
80	-4.00000e+00	4.878508e+07	
81	-4.05000e+00	4.907252e+07	
82	-4.10000e+00	4.934954e+07	
83	-4.15000e+00	4.961672e+07	
84	-4.20000e+00	4.987458e+07	
85	-4.25000e+00	5.012362e+07	
86	-4.30000e+00	5.036428e+07	
87	-4.35000e+00	5.059699e+07	
88	-4.40000e+00	5.082215e+07	
89	-4.45000e+00	5.104012e+07	
90	-4.50000e+00	5.125125e+07	
91	-4.55000e+00	5.145586e+07	
92	-4.60000e+00	5.165424e+07	
93	-4.65000e+00	5.184669e+07	
94	-4.70000e+00	5.203346e+07	
95	-4.75000e+00	5.221480e+07	
96	-4.80000e+00	5.239096e+07	
97	-4.85000e+00	5.256215e+07	
98	-4.90000e+00	5.272858e+07	
99	-4.95000e+00	5.289044e+07	
100	-5.00000e+00	5.304792e+07	
101	-5.05000e+00	5.320121e+07	
102	-5.10000e+00	5.335045e+07	
103	-5.15000e+00	5.349581e+07	
104	-5.20000e+00	5.363745e+07	
105	-5.25000e+00	5.377549e+07	
106	-5.30000e+00	5.391007e+07	
107	-5.35000e+00	5.404133e+07	
108	-5.40000e+00	5.416938e+07	
109	-5.45000e+00	5.429433e+07	
110	-5.50000e+00	5.441630e+07	
111	-5.55000e+00	5.453538e+07	
112	-5.60000e+00	5.465169e+07	

Index   v-sweep         rds             
--------------------------------------------------------------------------------
113	-5.65000e+00	5.476530e+07	
114	-5.70000e+00	5.487632e+07	
115	-5.75000e+00	5.498482e+07	
116	-5.80000e+00	5.509089e+07	
117	-5.85000e+00	5.519460e+07	
118	-5.90000e+00	5.529604e+07	
119	-5.95000e+00	5.539526e+07	
120	-6.00000e+00	5.549234e+07	
121	-6.05000e+00	5.558734e+07	
122	-6.10000e+00	5.568032e+07	
123	-6.15000e+00	5.577135e+07	
124	-6.20000e+00	5.586048e+07	
125	-6.25000e+00	5.594775e+07	
126	-6.30000e+00	5.603324e+07	
127	-6.35000e+00	5.611697e+07	
128	-6.40000e+00	5.619901e+07	
129	-6.45000e+00	5.627939e+07	
130	-6.50000e+00	5.635816e+07	
131	-6.55000e+00	5.643537e+07	
132	-6.60000e+00	5.651104e+07	
Reset re-loads circuit ***************************

Circuit: ***************************

Doing analysis at TEMP = -40.000000 and TNOM = -40.000000


No. of Data Rows : 133
                          ***************************
                          DC transfer characteristic  Mon Jan  9 13:57:55  2023
--------------------------------------------------------------------------------
Index   v-sweep         rds             
--------------------------------------------------------------------------------
0	0.000000e+00	2.834920e+05	
1	-5.00000e-02	2.885781e+05	
2	-1.00000e-01	2.938469e+05	
3	-1.50000e-01	2.993084e+05	
4	-2.00000e-01	3.049735e+05	
5	-2.50000e-01	3.108536e+05	
6	-3.00000e-01	3.169613e+05	
7	-3.50000e-01	3.233101e+05	
8	-4.00000e-01	3.299145e+05	
9	-4.50000e-01	3.367902e+05	
10	-5.00000e-01	3.439543e+05	
11	-5.50000e-01	3.514253e+05	
12	-6.00000e-01	3.592235e+05	
13	-6.50000e-01	3.673706e+05	
14	-7.00000e-01	3.758908e+05	
15	-7.50000e-01	3.848101e+05	
16	-8.00000e-01	3.941574e+05	
17	-8.50000e-01	4.039640e+05	
18	-9.00000e-01	4.142648e+05	
19	-9.50000e-01	4.250980e+05	
20	-1.00000e+00	4.365059e+05	
21	-1.05000e+00	4.485354e+05	
22	-1.10000e+00	4.612388e+05	
23	-1.15000e+00	4.746743e+05	
24	-1.20000e+00	4.889068e+05	
25	-1.25000e+00	5.040094e+05	
26	-1.30000e+00	5.200642e+05	
27	-1.35000e+00	5.371641e+05	
28	-1.40000e+00	5.554143e+05	
29	-1.45000e+00	5.749347e+05	
30	-1.50000e+00	5.958622e+05	
31	-1.55000e+00	6.183543e+05	
32	-1.60000e+00	6.425925e+05	
33	-1.65000e+00	6.687877e+05	
34	-1.70000e+00	6.971857e+05	
35	-1.75000e+00	7.280751e+05	
36	-1.80000e+00	7.617966e+05	
37	-1.85000e+00	7.987557e+05	
38	-1.90000e+00	8.394382e+05	
39	-1.95000e+00	8.844307e+05	
40	-2.00000e+00	9.344481e+05	
41	-2.05000e+00	9.903697e+05	
42	-2.10000e+00	1.053288e+06	
43	-2.15000e+00	1.124574e+06	
44	-2.20000e+00	1.205971e+06	
45	-2.25000e+00	1.299722e+06	
46	-2.30000e+00	1.408750e+06	
47	-2.35000e+00	1.536916e+06	
48	-2.40000e+00	1.689389e+06	
49	-2.45000e+00	1.873171e+06	
50	-2.50000e+00	2.097843e+06	
51	-2.55000e+00	2.376563e+06	
52	-2.60000e+00	2.727301e+06	
53	-2.65000e+00	3.174033e+06	
54	-2.70000e+00	3.747091e+06	

Index   v-sweep         rds             
--------------------------------------------------------------------------------
55	-2.75000e+00	4.480923e+06	
56	-2.80000e+00	5.406883e+06	
57	-2.85000e+00	6.540090e+06	
58	-2.90000e+00	7.864862e+06	
59	-2.95000e+00	9.329346e+06	
60	-3.00000e+00	1.085713e+07	
61	-3.05000e+00	1.237026e+07	
62	-3.10000e+00	1.380892e+07	
63	-3.15000e+00	1.513869e+07	
64	-3.20000e+00	1.634715e+07	
65	-3.25000e+00	1.743639e+07	
66	-3.30000e+00	1.841600e+07	
67	-3.35000e+00	1.929840e+07	
68	-3.40000e+00	2.009615e+07	
69	-3.45000e+00	2.082077e+07	
70	-3.50000e+00	2.148226e+07	
71	-3.55000e+00	2.208914e+07	
72	-3.60000e+00	2.264853e+07	
73	-3.65000e+00	2.316639e+07	
74	-3.70000e+00	2.364772e+07	
75	-3.75000e+00	2.409670e+07	
76	-3.80000e+00	2.451685e+07	
77	-3.85000e+00	2.491119e+07	
78	-3.90000e+00	2.528228e+07	
79	-3.95000e+00	2.563232e+07	
80	-4.00000e+00	2.596324e+07	
81	-4.05000e+00	2.627669e+07	
82	-4.10000e+00	2.657414e+07	
83	-4.15000e+00	2.685688e+07	
84	-4.20000e+00	2.712606e+07	
85	-4.25000e+00	2.738269e+07	
86	-4.30000e+00	2.762768e+07	
87	-4.35000e+00	2.786185e+07	
88	-4.40000e+00	2.808595e+07	
89	-4.45000e+00	2.830063e+07	
90	-4.50000e+00	2.850651e+07	
91	-4.55000e+00	2.870413e+07	
92	-4.60000e+00	2.889401e+07	
93	-4.65000e+00	2.907660e+07	
94	-4.70000e+00	2.925233e+07	
95	-4.75000e+00	2.942159e+07	
96	-4.80000e+00	2.958475e+07	
97	-4.85000e+00	2.974212e+07	
98	-4.90000e+00	2.989402e+07	
99	-4.95000e+00	3.004074e+07	
100	-5.00000e+00	3.018255e+07	
101	-5.05000e+00	3.031968e+07	
102	-5.10000e+00	3.045238e+07	
103	-5.15000e+00	3.058085e+07	
104	-5.20000e+00	3.070530e+07	
105	-5.25000e+00	3.082591e+07	
106	-5.30000e+00	3.094286e+07	
107	-5.35000e+00	3.105632e+07	
108	-5.40000e+00	3.116644e+07	
109	-5.45000e+00	3.127337e+07	
110	-5.50000e+00	3.137725e+07	
111	-5.55000e+00	3.147820e+07	
112	-5.60000e+00	3.157635e+07	

Index   v-sweep         rds             
--------------------------------------------------------------------------------
113	-5.65000e+00	3.167181e+07	
114	-5.70000e+00	3.176470e+07	
115	-5.75000e+00	3.185511e+07	
116	-5.80000e+00	3.194314e+07	
117	-5.85000e+00	3.202889e+07	
118	-5.90000e+00	3.211244e+07	
119	-5.95000e+00	3.219387e+07	
120	-6.00000e+00	3.227327e+07	
121	-6.05000e+00	3.235070e+07	
122	-6.10000e+00	3.242625e+07	
123	-6.15000e+00	3.249997e+07	
124	-6.20000e+00	3.257193e+07	
125	-6.25000e+00	3.264220e+07	
126	-6.30000e+00	3.271083e+07	
127	-6.35000e+00	3.277787e+07	
128	-6.40000e+00	3.284337e+07	
129	-6.45000e+00	3.290740e+07	
130	-6.50000e+00	3.296999e+07	
131	-6.55000e+00	3.303120e+07	
132	-6.60000e+00	3.309106e+07	
Reset re-loads circuit ***************************

Circuit: ***************************

Doing analysis at TEMP = -40.000000 and TNOM = -40.000000


No. of Data Rows : 133
                          ***************************
                          DC transfer characteristic  Mon Jan  9 13:57:55  2023
--------------------------------------------------------------------------------
Index   v-sweep         rds             
--------------------------------------------------------------------------------
0	0.000000e+00	2.407428e+05	
1	-5.00000e-02	2.441634e+05	
2	-1.00000e-01	2.476808e+05	
3	-1.50000e-01	2.512990e+05	
4	-2.00000e-01	2.550225e+05	
5	-2.50000e-01	2.588559e+05	
6	-3.00000e-01	2.628042e+05	
7	-3.50000e-01	2.668725e+05	
8	-4.00000e-01	2.710665e+05	
9	-4.50000e-01	2.753921e+05	
10	-5.00000e-01	2.798556e+05	
11	-5.50000e-01	2.844636e+05	
12	-6.00000e-01	2.892233e+05	
13	-6.50000e-01	2.941423e+05	
14	-7.00000e-01	2.992287e+05	
15	-7.50000e-01	3.044912e+05	
16	-8.00000e-01	3.099392e+05	
17	-8.50000e-01	3.155826e+05	
18	-9.00000e-01	3.214321e+05	
19	-9.50000e-01	3.274992e+05	
20	-1.00000e+00	3.337962e+05	
21	-1.05000e+00	3.403366e+05	
22	-1.10000e+00	3.471346e+05	
23	-1.15000e+00	3.542057e+05	
24	-1.20000e+00	3.615669e+05	
25	-1.25000e+00	3.692362e+05	
26	-1.30000e+00	3.772334e+05	
27	-1.35000e+00	3.855799e+05	
28	-1.40000e+00	3.942993e+05	
29	-1.45000e+00	4.034169e+05	
30	-1.50000e+00	4.129607e+05	
31	-1.55000e+00	4.229613e+05	
32	-1.60000e+00	4.334522e+05	
33	-1.65000e+00	4.444703e+05	
34	-1.70000e+00	4.560562e+05	
35	-1.75000e+00	4.682552e+05	
36	-1.80000e+00	4.811168e+05	
37	-1.85000e+00	4.946968e+05	
38	-1.90000e+00	5.090566e+05	
39	-1.95000e+00	5.242655e+05	
40	-2.00000e+00	5.404007e+05	
41	-2.05000e+00	5.575493e+05	
42	-2.10000e+00	5.758096e+05	
43	-2.15000e+00	5.952929e+05	
44	-2.20000e+00	6.161258e+05	
45	-2.25000e+00	6.384529e+05	
46	-2.30000e+00	6.624402e+05	
47	-2.35000e+00	6.882788e+05	
48	-2.40000e+00	7.161902e+05	
49	-2.45000e+00	7.464322e+05	
50	-2.50000e+00	7.793070e+05	
51	-2.55000e+00	8.151703e+05	
52	-2.60000e+00	8.544442e+05	
53	-2.65000e+00	8.976325e+05	
54	-2.70000e+00	9.453412e+05	

Index   v-sweep         rds             
--------------------------------------------------------------------------------
55	-2.75000e+00	9.983051e+05	
56	-2.80000e+00	1.057422e+06	
57	-2.85000e+00	1.123800e+06	
58	-2.90000e+00	1.198818e+06	
59	-2.95000e+00	1.284206e+06	
60	-3.00000e+00	1.382161e+06	
61	-3.05000e+00	1.495494e+06	
62	-3.10000e+00	1.627832e+06	
63	-3.15000e+00	1.783890e+06	
64	-3.20000e+00	1.969808e+06	
65	-3.25000e+00	2.193563e+06	
66	-3.30000e+00	2.465390e+06	
67	-3.35000e+00	2.798037e+06	
68	-3.40000e+00	3.206503e+06	
69	-3.45000e+00	3.706628e+06	
70	-3.50000e+00	4.311836e+06	
71	-3.55000e+00	5.027868e+06	
72	-3.60000e+00	5.847050e+06	
73	-3.65000e+00	6.745524e+06	
74	-3.70000e+00	7.686627e+06	
75	-3.75000e+00	8.629765e+06	
76	-3.80000e+00	9.540036e+06	
77	-3.85000e+00	1.039388e+07	
78	-3.90000e+00	1.117959e+07	
79	-3.95000e+00	1.189467e+07	
80	-4.00000e+00	1.254230e+07	
81	-4.05000e+00	1.312850e+07	
82	-4.10000e+00	1.366019e+07	
83	-4.15000e+00	1.414415e+07	
84	-4.20000e+00	1.458656e+07	
85	-4.25000e+00	1.499279e+07	
86	-4.30000e+00	1.536745e+07	
87	-4.35000e+00	1.571442e+07	
88	-4.40000e+00	1.603699e+07	
89	-4.45000e+00	1.633794e+07	
90	-4.50000e+00	1.661962e+07	
91	-4.55000e+00	1.688402e+07	
92	-4.60000e+00	1.713285e+07	
93	-4.65000e+00	1.736760e+07	
94	-4.70000e+00	1.758954e+07	
95	-4.75000e+00	1.779979e+07	
96	-4.80000e+00	1.799933e+07	
97	-4.85000e+00	1.818902e+07	
98	-4.90000e+00	1.836962e+07	
99	-4.95000e+00	1.854181e+07	
100	-5.00000e+00	1.870621e+07	
101	-5.05000e+00	1.886335e+07	
102	-5.10000e+00	1.901375e+07	
103	-5.15000e+00	1.915783e+07	
104	-5.20000e+00	1.929602e+07	
105	-5.25000e+00	1.942867e+07	
106	-5.30000e+00	1.955612e+07	
107	-5.35000e+00	1.967869e+07	
108	-5.40000e+00	1.979666e+07	
109	-5.45000e+00	1.991029e+07	
110	-5.50000e+00	2.001982e+07	
111	-5.55000e+00	2.012548e+07	
112	-5.60000e+00	2.022746e+07	

Index   v-sweep         rds             
--------------------------------------------------------------------------------
113	-5.65000e+00	2.032597e+07	
114	-5.70000e+00	2.042117e+07	
115	-5.75000e+00	2.051324e+07	
116	-5.80000e+00	2.060234e+07	
117	-5.85000e+00	2.068859e+07	
118	-5.90000e+00	2.077215e+07	
119	-5.95000e+00	2.085313e+07	
120	-6.00000e+00	2.093165e+07	
121	-6.05000e+00	2.100783e+07	
122	-6.10000e+00	2.108177e+07	
123	-6.15000e+00	2.115356e+07	
124	-6.20000e+00	2.122331e+07	
125	-6.25000e+00	2.129109e+07	
126	-6.30000e+00	2.135698e+07	
127	-6.35000e+00	2.142108e+07	
128	-6.40000e+00	2.148344e+07	
129	-6.45000e+00	2.154414e+07	
130	-6.50000e+00	2.160324e+07	
131	-6.55000e+00	2.166081e+07	
132	-6.60000e+00	2.171690e+07	
Reset re-loads circuit ***************************

Circuit: ***************************

Note: No ".plot", ".print", or ".fourier" lines; no simulations run
