
Note: Compatibility modes selected: hs

Warning: m=xx on .subckt line will override multiplier m hierarchy!


Circuit: ***************************

Doing analysis at TEMP = 125.000000 and TNOM = 125.000000


No. of Data Rows : 133
                          ***************************
                          DC transfer characteristic  Mon Jan  9 13:57:55  2023
--------------------------------------------------------------------------------
Index   v-sweep         rds             
--------------------------------------------------------------------------------
0	0.000000e+00	2.743546e+05	
1	-5.00000e-02	3.250196e+05	
2	-1.00000e-01	3.977570e+05	
3	-1.50000e-01	5.103389e+05	
4	-2.00000e-01	7.042212e+05	
5	-2.50000e-01	1.090309e+06	
6	-3.00000e-01	1.974834e+06	
7	-3.50000e-01	3.894379e+06	
8	-4.00000e-01	6.670676e+06	
9	-4.50000e-01	9.086720e+06	
10	-5.00000e-01	1.066972e+07	
11	-5.50000e-01	1.166945e+07	
12	-6.00000e-01	1.235331e+07	
13	-6.50000e-01	1.287102e+07	
14	-7.00000e-01	1.329732e+07	
15	-7.50000e-01	1.366982e+07	
16	-8.00000e-01	1.400828e+07	
17	-8.50000e-01	1.432361e+07	
18	-9.00000e-01	1.462213e+07	
19	-9.50000e-01	1.490771e+07	
20	-1.00000e+00	1.518279e+07	
21	-1.05000e+00	1.544900e+07	
22	-1.10000e+00	1.570746e+07	
23	-1.15000e+00	1.595897e+07	
24	-1.20000e+00	1.620412e+07	
25	-1.25000e+00	1.644336e+07	
26	-1.30000e+00	1.667704e+07	
27	-1.35000e+00	1.690546e+07	
28	-1.40000e+00	1.712886e+07	
29	-1.45000e+00	1.734745e+07	
30	-1.50000e+00	1.756140e+07	
31	-1.55000e+00	1.777087e+07	
32	-1.60000e+00	1.797602e+07	
33	-1.65000e+00	1.817696e+07	
34	-1.70000e+00	1.837382e+07	
35	-1.75000e+00	1.856672e+07	
36	-1.80000e+00	1.875576e+07	
37	-1.85000e+00	1.894104e+07	
38	-1.90000e+00	1.912265e+07	
39	-1.95000e+00	1.930070e+07	
40	-2.00000e+00	1.947525e+07	
41	-2.05000e+00	1.964641e+07	
42	-2.10000e+00	1.981424e+07	
43	-2.15000e+00	1.997882e+07	
44	-2.20000e+00	2.014023e+07	
45	-2.25000e+00	2.029855e+07	
46	-2.30000e+00	2.045383e+07	
47	-2.35000e+00	2.060615e+07	
48	-2.40000e+00	2.075557e+07	
49	-2.45000e+00	2.090216e+07	
50	-2.50000e+00	2.104598e+07	
51	-2.55000e+00	2.118708e+07	
52	-2.60000e+00	2.132553e+07	
53	-2.65000e+00	2.146138e+07	
54	-2.70000e+00	2.159469e+07	

Index   v-sweep         rds             
--------------------------------------------------------------------------------
55	-2.75000e+00	2.172550e+07	
56	-2.80000e+00	2.185388e+07	
57	-2.85000e+00	2.197988e+07	
58	-2.90000e+00	2.210353e+07	
59	-2.95000e+00	2.222489e+07	
60	-3.00000e+00	2.234401e+07	
61	-3.05000e+00	2.246093e+07	
62	-3.10000e+00	2.257570e+07	
63	-3.15000e+00	2.268835e+07	
64	-3.20000e+00	2.279894e+07	
65	-3.25000e+00	2.290750e+07	
66	-3.30000e+00	2.301406e+07	
67	-3.35000e+00	2.311868e+07	
68	-3.40000e+00	2.322139e+07	
69	-3.45000e+00	2.332222e+07	
70	-3.50000e+00	2.342120e+07	
71	-3.55000e+00	2.351839e+07	
72	-3.60000e+00	2.361380e+07	
73	-3.65000e+00	2.370747e+07	
74	-3.70000e+00	2.379943e+07	
75	-3.75000e+00	2.388972e+07	
76	-3.80000e+00	2.397836e+07	
77	-3.85000e+00	2.406539e+07	
78	-3.90000e+00	2.415082e+07	
79	-3.95000e+00	2.423470e+07	
80	-4.00000e+00	2.431704e+07	
81	-4.05000e+00	2.439787e+07	
82	-4.10000e+00	2.447722e+07	
83	-4.15000e+00	2.455511e+07	
84	-4.20000e+00	2.463156e+07	
85	-4.25000e+00	2.470661e+07	
86	-4.30000e+00	2.478026e+07	
87	-4.35000e+00	2.485255e+07	
88	-4.40000e+00	2.492349e+07	
89	-4.45000e+00	2.499310e+07	
90	-4.50000e+00	2.506141e+07	
91	-4.55000e+00	2.512843e+07	
92	-4.60000e+00	2.519418e+07	
93	-4.65000e+00	2.525868e+07	
94	-4.70000e+00	2.532195e+07	
95	-4.75000e+00	2.538400e+07	
96	-4.80000e+00	2.544485e+07	
97	-4.85000e+00	2.550451e+07	
98	-4.90000e+00	2.556301e+07	
99	-4.95000e+00	2.562035e+07	
100	-5.00000e+00	2.567655e+07	
101	-5.05000e+00	2.573162e+07	
102	-5.10000e+00	2.578558e+07	
103	-5.15000e+00	2.583844e+07	
104	-5.20000e+00	2.589021e+07	
105	-5.25000e+00	2.594091e+07	
106	-5.30000e+00	2.599055e+07	
107	-5.35000e+00	2.603913e+07	
108	-5.40000e+00	2.608667e+07	
109	-5.45000e+00	2.613319e+07	
110	-5.50000e+00	2.617868e+07	
111	-5.55000e+00	2.622316e+07	
112	-5.60000e+00	2.626665e+07	

Index   v-sweep         rds             
--------------------------------------------------------------------------------
113	-5.65000e+00	2.630915e+07	
114	-5.70000e+00	2.635066e+07	
115	-5.75000e+00	2.639121e+07	
116	-5.80000e+00	2.643079e+07	
117	-5.85000e+00	2.646943e+07	
118	-5.90000e+00	2.650711e+07	
119	-5.95000e+00	2.654386e+07	
120	-6.00000e+00	2.657969e+07	
121	-6.05000e+00	2.661459e+07	
122	-6.10000e+00	2.664858e+07	
123	-6.15000e+00	2.668167e+07	
124	-6.20000e+00	2.671386e+07	
125	-6.25000e+00	2.674515e+07	
126	-6.30000e+00	2.677557e+07	
127	-6.35000e+00	2.680511e+07	
128	-6.40000e+00	2.683378e+07	
129	-6.45000e+00	2.686159e+07	
130	-6.50000e+00	2.688855e+07	
131	-6.55000e+00	2.691466e+07	
132	-6.60000e+00	2.693992e+07	
Reset re-loads circuit ***************************

Circuit: ***************************

Doing analysis at TEMP = 125.000000 and TNOM = 125.000000


No. of Data Rows : 133
                          ***************************
                          DC transfer characteristic  Mon Jan  9 13:57:55  2023
--------------------------------------------------------------------------------
Index   v-sweep         rds             
--------------------------------------------------------------------------------
0	0.000000e+00	7.554646e+04	
1	-5.00000e-02	7.933255e+04	
2	-1.00000e-01	8.349474e+04	
3	-1.50000e-01	8.809187e+04	
4	-2.00000e-01	9.319572e+04	
5	-2.50000e-01	9.889470e+04	
6	-3.00000e-01	1.052989e+05	
7	-3.50000e-01	1.125474e+05	
8	-4.00000e-01	1.208179e+05	
9	-4.50000e-01	1.303412e+05	
10	-5.00000e-01	1.414225e+05	
11	-5.50000e-01	1.544729e+05	
12	-6.00000e-01	1.700583e+05	
13	-6.50000e-01	1.889763e+05	
14	-7.00000e-01	2.123798e+05	
15	-7.50000e-01	2.419779e+05	
16	-8.00000e-01	2.803590e+05	
17	-8.50000e-01	3.314711e+05	
18	-9.00000e-01	4.011489e+05	
19	-9.50000e-01	4.969312e+05	
20	-1.00000e+00	6.248493e+05	
21	-1.05000e+00	7.808933e+05	
22	-1.10000e+00	9.447565e+05	
23	-1.15000e+00	1.091527e+06	
24	-1.20000e+00	1.209868e+06	
25	-1.25000e+00	1.302582e+06	
26	-1.30000e+00	1.377121e+06	
27	-1.35000e+00	1.439926e+06	
28	-1.40000e+00	1.495311e+06	
29	-1.45000e+00	1.545928e+06	
30	-1.50000e+00	1.593373e+06	
31	-1.55000e+00	1.638612e+06	
32	-1.60000e+00	1.682245e+06	
33	-1.65000e+00	1.724649e+06	
34	-1.70000e+00	1.766073e+06	
35	-1.75000e+00	1.806683e+06	
36	-1.80000e+00	1.846591e+06	
37	-1.85000e+00	1.885878e+06	
38	-1.90000e+00	1.924602e+06	
39	-1.95000e+00	1.962806e+06	
40	-2.00000e+00	2.000523e+06	
41	-2.05000e+00	2.037778e+06	
42	-2.10000e+00	2.074591e+06	
43	-2.15000e+00	2.110980e+06	
44	-2.20000e+00	2.146956e+06	
45	-2.25000e+00	2.182533e+06	
46	-2.30000e+00	2.217719e+06	
47	-2.35000e+00	2.252525e+06	
48	-2.40000e+00	2.286957e+06	
49	-2.45000e+00	2.321023e+06	
50	-2.50000e+00	2.354730e+06	
51	-2.55000e+00	2.388083e+06	
52	-2.60000e+00	2.421088e+06	
53	-2.65000e+00	2.453751e+06	
54	-2.70000e+00	2.486077e+06	

Index   v-sweep         rds             
--------------------------------------------------------------------------------
55	-2.75000e+00	2.518070e+06	
56	-2.80000e+00	2.549736e+06	
57	-2.85000e+00	2.581078e+06	
58	-2.90000e+00	2.612102e+06	
59	-2.95000e+00	2.642810e+06	
60	-3.00000e+00	2.673209e+06	
61	-3.05000e+00	2.703301e+06	
62	-3.10000e+00	2.733090e+06	
63	-3.15000e+00	2.762581e+06	
64	-3.20000e+00	2.791776e+06	
65	-3.25000e+00	2.820681e+06	
66	-3.30000e+00	2.849298e+06	
67	-3.35000e+00	2.877630e+06	
68	-3.40000e+00	2.905682e+06	
69	-3.45000e+00	2.933457e+06	
70	-3.50000e+00	2.960958e+06	
71	-3.55000e+00	2.988188e+06	
72	-3.60000e+00	3.015151e+06	
73	-3.65000e+00	3.041850e+06	
74	-3.70000e+00	3.068287e+06	
75	-3.75000e+00	3.094467e+06	
76	-3.80000e+00	3.120391e+06	
77	-3.85000e+00	3.146064e+06	
78	-3.90000e+00	3.171487e+06	
79	-3.95000e+00	3.196664e+06	
80	-4.00000e+00	3.221597e+06	
81	-4.05000e+00	3.246289e+06	
82	-4.10000e+00	3.270743e+06	
83	-4.15000e+00	3.294961e+06	
84	-4.20000e+00	3.318946e+06	
85	-4.25000e+00	3.342701e+06	
86	-4.30000e+00	3.366227e+06	
87	-4.35000e+00	3.389527e+06	
88	-4.40000e+00	3.412604e+06	
89	-4.45000e+00	3.435459e+06	
90	-4.50000e+00	3.458094e+06	
91	-4.55000e+00	3.480513e+06	
92	-4.60000e+00	3.502716e+06	
93	-4.65000e+00	3.524706e+06	
94	-4.70000e+00	3.546485e+06	
95	-4.75000e+00	3.568054e+06	
96	-4.80000e+00	3.589415e+06	
97	-4.85000e+00	3.610570e+06	
98	-4.90000e+00	3.631521e+06	
99	-4.95000e+00	3.652268e+06	
100	-5.00000e+00	3.672814e+06	
101	-5.05000e+00	3.693159e+06	
102	-5.10000e+00	3.713306e+06	
103	-5.15000e+00	3.733254e+06	
104	-5.20000e+00	3.753007e+06	
105	-5.25000e+00	3.772564e+06	
106	-5.30000e+00	3.791927e+06	
107	-5.35000e+00	3.811096e+06	
108	-5.40000e+00	3.830073e+06	
109	-5.45000e+00	3.848859e+06	
110	-5.50000e+00	3.867454e+06	
111	-5.55000e+00	3.885858e+06	
112	-5.60000e+00	3.904074e+06	

Index   v-sweep         rds             
--------------------------------------------------------------------------------
113	-5.65000e+00	3.922101e+06	
114	-5.70000e+00	3.939940e+06	
115	-5.75000e+00	3.957591e+06	
116	-5.80000e+00	3.975055e+06	
117	-5.85000e+00	3.992333e+06	
118	-5.90000e+00	4.009424e+06	
119	-5.95000e+00	4.026330e+06	
120	-6.00000e+00	4.043049e+06	
121	-6.05000e+00	4.059584e+06	
122	-6.10000e+00	4.075933e+06	
123	-6.15000e+00	4.092097e+06	
124	-6.20000e+00	4.108077e+06	
125	-6.25000e+00	4.123871e+06	
126	-6.30000e+00	4.139481e+06	
127	-6.35000e+00	4.154907e+06	
128	-6.40000e+00	4.170148e+06	
129	-6.45000e+00	4.185205e+06	
130	-6.50000e+00	4.200077e+06	
131	-6.55000e+00	4.214764e+06	
132	-6.60000e+00	4.229267e+06	
Reset re-loads circuit ***************************

Circuit: ***************************

Doing analysis at TEMP = 125.000000 and TNOM = 125.000000


No. of Data Rows : 133
                          ***************************
                          DC transfer characteristic  Mon Jan  9 13:57:55  2023
--------------------------------------------------------------------------------
Index   v-sweep         rds             
--------------------------------------------------------------------------------
0	0.000000e+00	4.653603e+04	
1	-5.00000e-02	4.792738e+04	
2	-1.00000e-01	4.939747e+04	
3	-1.50000e-01	5.095315e+04	
4	-2.00000e-01	5.260211e+04	
5	-2.50000e-01	5.435300e+04	
6	-3.00000e-01	5.621554e+04	
7	-3.50000e-01	5.820075e+04	
8	-4.00000e-01	6.032114e+04	
9	-4.50000e-01	6.259097e+04	
10	-5.00000e-01	6.502657e+04	
11	-5.50000e-01	6.764676e+04	
12	-6.00000e-01	7.047328e+04	
13	-6.50000e-01	7.353143e+04	
14	-7.00000e-01	7.685076e+04	
15	-7.50000e-01	8.046610e+04	
16	-8.00000e-01	8.441868e+04	
17	-8.50000e-01	8.875769e+04	
18	-9.00000e-01	9.354226e+04	
19	-9.50000e-01	9.884410e+04	
20	-1.00000e+00	1.047509e+05	
21	-1.05000e+00	1.113708e+05	
22	-1.10000e+00	1.188389e+05	
23	-1.15000e+00	1.273251e+05	
24	-1.20000e+00	1.370455e+05	
25	-1.25000e+00	1.482783e+05	
26	-1.30000e+00	1.613829e+05	
27	-1.35000e+00	1.768265e+05	
28	-1.40000e+00	1.952121e+05	
29	-1.45000e+00	2.172982e+05	
30	-1.50000e+00	2.439787e+05	
31	-1.55000e+00	2.761455e+05	
32	-1.60000e+00	3.143099e+05	
33	-1.65000e+00	3.579218e+05	
34	-1.70000e+00	4.047354e+05	
35	-1.75000e+00	4.511376e+05	
36	-1.80000e+00	4.937718e+05	
37	-1.85000e+00	5.310457e+05	
38	-1.90000e+00	5.631548e+05	
39	-1.95000e+00	5.911573e+05	
40	-2.00000e+00	6.161946e+05	
41	-2.05000e+00	6.391726e+05	
42	-2.10000e+00	6.607256e+05	
43	-2.15000e+00	6.812748e+05	
44	-2.20000e+00	7.010950e+05	
45	-2.25000e+00	7.203659e+05	
46	-2.30000e+00	7.392062e+05	
47	-2.35000e+00	7.576954e+05	
48	-2.40000e+00	7.758881e+05	
49	-2.45000e+00	7.938223e+05	
50	-2.50000e+00	8.115251e+05	
51	-2.55000e+00	8.290163e+05	
52	-2.60000e+00	8.463106e+05	
53	-2.65000e+00	8.634192e+05	
54	-2.70000e+00	8.803509e+05	

Index   v-sweep         rds             
--------------------------------------------------------------------------------
55	-2.75000e+00	8.971125e+05	
56	-2.80000e+00	9.137096e+05	
57	-2.85000e+00	9.301471e+05	
58	-2.90000e+00	9.464287e+05	
59	-2.95000e+00	9.625580e+05	
60	-3.00000e+00	9.785380e+05	
61	-3.05000e+00	9.943713e+05	
62	-3.10000e+00	1.010060e+06	
63	-3.15000e+00	1.025607e+06	
64	-3.20000e+00	1.041015e+06	
65	-3.25000e+00	1.056284e+06	
66	-3.30000e+00	1.071417e+06	
67	-3.35000e+00	1.086416e+06	
68	-3.40000e+00	1.101282e+06	
69	-3.45000e+00	1.116017e+06	
70	-3.50000e+00	1.130623e+06	
71	-3.55000e+00	1.145101e+06	
72	-3.60000e+00	1.159453e+06	
73	-3.65000e+00	1.173679e+06	
74	-3.70000e+00	1.187782e+06	
75	-3.75000e+00	1.201762e+06	
76	-3.80000e+00	1.215622e+06	
77	-3.85000e+00	1.229363e+06	
78	-3.90000e+00	1.242985e+06	
79	-3.95000e+00	1.256490e+06	
80	-4.00000e+00	1.269880e+06	
81	-4.05000e+00	1.283155e+06	
82	-4.10000e+00	1.296317e+06	
83	-4.15000e+00	1.309367e+06	
84	-4.20000e+00	1.322306e+06	
85	-4.25000e+00	1.335135e+06	
86	-4.30000e+00	1.347856e+06	
87	-4.35000e+00	1.360470e+06	
88	-4.40000e+00	1.372977e+06	
89	-4.45000e+00	1.385379e+06	
90	-4.50000e+00	1.397677e+06	
91	-4.55000e+00	1.409872e+06	
92	-4.60000e+00	1.421965e+06	
93	-4.65000e+00	1.433957e+06	
94	-4.70000e+00	1.445849e+06	
95	-4.75000e+00	1.457641e+06	
96	-4.80000e+00	1.469336e+06	
97	-4.85000e+00	1.480933e+06	
98	-4.90000e+00	1.492434e+06	
99	-4.95000e+00	1.503839e+06	
100	-5.00000e+00	1.515149e+06	
101	-5.05000e+00	1.526366e+06	
102	-5.10000e+00	1.537489e+06	
103	-5.15000e+00	1.548520e+06	
104	-5.20000e+00	1.559459e+06	
105	-5.25000e+00	1.570308e+06	
106	-5.30000e+00	1.581066e+06	
107	-5.35000e+00	1.591734e+06	
108	-5.40000e+00	1.602313e+06	
109	-5.45000e+00	1.612804e+06	
110	-5.50000e+00	1.623207e+06	
111	-5.55000e+00	1.633522e+06	
112	-5.60000e+00	1.643750e+06	

Index   v-sweep         rds             
--------------------------------------------------------------------------------
113	-5.65000e+00	1.653892e+06	
114	-5.70000e+00	1.663947e+06	
115	-5.75000e+00	1.673917e+06	
116	-5.80000e+00	1.683801e+06	
117	-5.85000e+00	1.693600e+06	
118	-5.90000e+00	1.703314e+06	
119	-5.95000e+00	1.712944e+06	
120	-6.00000e+00	1.722489e+06	
121	-6.05000e+00	1.731950e+06	
122	-6.10000e+00	1.741327e+06	
123	-6.15000e+00	1.750620e+06	
124	-6.20000e+00	1.759829e+06	
125	-6.25000e+00	1.768955e+06	
126	-6.30000e+00	1.777996e+06	
127	-6.35000e+00	1.786955e+06	
128	-6.40000e+00	1.795829e+06	
129	-6.45000e+00	1.804620e+06	
130	-6.50000e+00	1.813327e+06	
131	-6.55000e+00	1.821951e+06	
132	-6.60000e+00	1.830490e+06	
Reset re-loads circuit ***************************

Circuit: ***************************

Doing analysis at TEMP = 125.000000 and TNOM = 125.000000


No. of Data Rows : 133
                          ***************************
                          DC transfer characteristic  Mon Jan  9 13:57:55  2023
--------------------------------------------------------------------------------
Index   v-sweep         rds             
--------------------------------------------------------------------------------
0	0.000000e+00	3.484488e+04	
1	-5.00000e-02	3.559597e+04	
2	-1.00000e-01	3.637687e+04	
3	-1.50000e-01	3.718937e+04	
4	-2.00000e-01	3.803542e+04	
5	-2.50000e-01	3.891716e+04	
6	-3.00000e-01	3.983687e+04	
7	-3.50000e-01	4.079707e+04	
8	-4.00000e-01	4.180047e+04	
9	-4.50000e-01	4.285007e+04	
10	-5.00000e-01	4.394912e+04	
11	-5.50000e-01	4.510118e+04	
12	-6.00000e-01	4.631019e+04	
13	-6.50000e-01	4.758047e+04	
14	-7.00000e-01	4.891678e+04	
15	-7.50000e-01	5.032440e+04	
16	-8.00000e-01	5.180918e+04	
17	-8.50000e-01	5.337763e+04	
18	-9.00000e-01	5.503701e+04	
19	-9.50000e-01	5.679543e+04	
20	-1.00000e+00	5.866200e+04	
21	-1.05000e+00	6.064699e+04	
22	-1.10000e+00	6.276199e+04	
23	-1.15000e+00	6.502014e+04	
24	-1.20000e+00	6.743640e+04	
25	-1.25000e+00	7.002790e+04	
26	-1.30000e+00	7.281427e+04	
27	-1.35000e+00	7.581817e+04	
28	-1.40000e+00	7.906587e+04	
29	-1.45000e+00	8.258794e+04	
30	-1.50000e+00	8.642021e+04	
31	-1.55000e+00	9.060483e+04	
32	-1.60000e+00	9.519169e+04	
33	-1.65000e+00	1.002402e+05	
34	-1.70000e+00	1.058212e+05	
35	-1.75000e+00	1.120202e+05	
36	-1.80000e+00	1.189397e+05	
37	-1.85000e+00	1.267035e+05	
38	-1.90000e+00	1.354601e+05	
39	-1.95000e+00	1.453852e+05	
40	-2.00000e+00	1.566817e+05	
41	-2.05000e+00	1.695708e+05	
42	-2.10000e+00	1.842660e+05	
43	-2.15000e+00	2.009172e+05	
44	-2.20000e+00	2.195124e+05	
45	-2.25000e+00	2.397503e+05	
46	-2.30000e+00	2.609589e+05	
47	-2.35000e+00	2.821826e+05	
48	-2.40000e+00	3.024797e+05	
49	-2.45000e+00	3.212479e+05	
50	-2.50000e+00	3.383363e+05	
51	-2.55000e+00	3.539184e+05	
52	-2.60000e+00	3.682972e+05	
53	-2.65000e+00	3.817716e+05	
54	-2.70000e+00	3.945819e+05	

Index   v-sweep         rds             
--------------------------------------------------------------------------------
55	-2.75000e+00	4.069037e+05	
56	-2.80000e+00	4.188593e+05	
57	-2.85000e+00	4.305324e+05	
58	-2.90000e+00	4.419799e+05	
59	-2.95000e+00	4.532407e+05	
60	-3.00000e+00	4.643418e+05	
61	-3.05000e+00	4.753021e+05	
62	-3.10000e+00	4.861351e+05	
63	-3.15000e+00	4.968508e+05	
64	-3.20000e+00	5.074563e+05	
65	-3.25000e+00	5.179573e+05	
66	-3.30000e+00	5.283581e+05	
67	-3.35000e+00	5.386621e+05	
68	-3.40000e+00	5.488721e+05	
69	-3.45000e+00	5.589903e+05	
70	-3.50000e+00	5.690188e+05	
71	-3.55000e+00	5.789593e+05	
72	-3.60000e+00	5.888132e+05	
73	-3.65000e+00	5.985820e+05	
74	-3.70000e+00	6.082669e+05	
75	-3.75000e+00	6.178690e+05	
76	-3.80000e+00	6.273894e+05	
77	-3.85000e+00	6.368291e+05	
78	-3.90000e+00	6.461892e+05	
79	-3.95000e+00	6.554705e+05	
80	-4.00000e+00	6.646740e+05	
81	-4.05000e+00	6.738005e+05	
82	-4.10000e+00	6.828509e+05	
83	-4.15000e+00	6.918260e+05	
84	-4.20000e+00	7.007266e+05	
85	-4.25000e+00	7.095536e+05	
86	-4.30000e+00	7.183077e+05	
87	-4.35000e+00	7.269896e+05	
88	-4.40000e+00	7.356003e+05	
89	-4.45000e+00	7.441403e+05	
90	-4.50000e+00	7.526104e+05	
91	-4.55000e+00	7.610113e+05	
92	-4.60000e+00	7.693438e+05	
93	-4.65000e+00	7.776086e+05	
94	-4.70000e+00	7.858063e+05	
95	-4.75000e+00	7.939377e+05	
96	-4.80000e+00	8.020033e+05	
97	-4.85000e+00	8.100039e+05	
98	-4.90000e+00	8.179402e+05	
99	-4.95000e+00	8.258126e+05	
100	-5.00000e+00	8.336220e+05	
101	-5.05000e+00	8.413689e+05	
102	-5.10000e+00	8.490538e+05	
103	-5.15000e+00	8.566775e+05	
104	-5.20000e+00	8.642405e+05	
105	-5.25000e+00	8.717434e+05	
106	-5.30000e+00	8.791866e+05	
107	-5.35000e+00	8.865709e+05	
108	-5.40000e+00	8.938966e+05	
109	-5.45000e+00	9.011644e+05	
110	-5.50000e+00	9.083747e+05	
111	-5.55000e+00	9.155280e+05	
112	-5.60000e+00	9.226248e+05	

Index   v-sweep         rds             
--------------------------------------------------------------------------------
113	-5.65000e+00	9.296655e+05	
114	-5.70000e+00	9.366505e+05	
115	-5.75000e+00	9.435804e+05	
116	-5.80000e+00	9.504555e+05	
117	-5.85000e+00	9.572761e+05	
118	-5.90000e+00	9.640427e+05	
119	-5.95000e+00	9.707555e+05	
120	-6.00000e+00	9.774150e+05	
121	-6.05000e+00	9.840214e+05	
122	-6.10000e+00	9.905749e+05	
123	-6.15000e+00	9.970760e+05	
124	-6.20000e+00	1.003525e+06	
125	-6.25000e+00	1.009921e+06	
126	-6.30000e+00	1.016266e+06	
127	-6.35000e+00	1.022559e+06	
128	-6.40000e+00	1.028801e+06	
129	-6.45000e+00	1.034991e+06	
130	-6.50000e+00	1.041130e+06	
131	-6.55000e+00	1.047218e+06	
132	-6.60000e+00	1.053255e+06	
Reset re-loads circuit ***************************

Circuit: ***************************

Doing analysis at TEMP = 125.000000 and TNOM = 125.000000


No. of Data Rows : 133
                          ***************************
                          DC transfer characteristic  Mon Jan  9 13:57:55  2023
--------------------------------------------------------------------------------
Index   v-sweep         rds             
--------------------------------------------------------------------------------
0	0.000000e+00	2.853955e+04	
1	-5.00000e-02	2.902316e+04	
2	-1.00000e-01	2.952155e+04	
3	-1.50000e-01	3.003543e+04	
4	-2.00000e-01	3.056551e+04	
5	-2.50000e-01	3.111257e+04	
6	-3.00000e-01	3.167745e+04	
7	-3.50000e-01	3.226103e+04	
8	-4.00000e-01	3.286424e+04	
9	-4.50000e-01	3.348809e+04	
10	-5.00000e-01	3.413367e+04	
11	-5.50000e-01	3.480212e+04	
12	-6.00000e-01	3.549467e+04	
13	-6.50000e-01	3.621265e+04	
14	-7.00000e-01	3.695750e+04	
15	-7.50000e-01	3.773073e+04	
16	-8.00000e-01	3.853400e+04	
17	-8.50000e-01	3.936910e+04	
18	-9.00000e-01	4.023795e+04	
19	-9.50000e-01	4.114262e+04	
20	-1.00000e+00	4.208539e+04	
21	-1.05000e+00	4.306870e+04	
22	-1.10000e+00	4.409521e+04	
23	-1.15000e+00	4.516784e+04	
24	-1.20000e+00	4.628976e+04	
25	-1.25000e+00	4.746442e+04	
26	-1.30000e+00	4.869563e+04	
27	-1.35000e+00	4.998756e+04	
28	-1.40000e+00	5.134479e+04	
29	-1.45000e+00	5.277240e+04	
30	-1.50000e+00	5.427596e+04	
31	-1.55000e+00	5.586169e+04	
32	-1.60000e+00	5.753646e+04	
33	-1.65000e+00	5.930795e+04	
34	-1.70000e+00	6.118473e+04	
35	-1.75000e+00	6.317640e+04	
36	-1.80000e+00	6.529375e+04	
37	-1.85000e+00	6.754893e+04	
38	-1.90000e+00	6.995570e+04	
39	-1.95000e+00	7.252966e+04	
40	-2.00000e+00	7.528855e+04	
41	-2.05000e+00	7.825265e+04	
42	-2.10000e+00	8.144520e+04	
43	-2.15000e+00	8.489285e+04	
44	-2.20000e+00	8.862637e+04	
45	-2.25000e+00	9.268121e+04	
46	-2.30000e+00	9.709835e+04	
47	-2.35000e+00	1.019250e+05	
48	-2.40000e+00	1.072156e+05	
49	-2.45000e+00	1.130318e+05	
50	-2.50000e+00	1.194430e+05	
51	-2.55000e+00	1.265243e+05	
52	-2.60000e+00	1.343530e+05	
53	-2.65000e+00	1.429994e+05	
54	-2.70000e+00	1.525121e+05	

Index   v-sweep         rds             
--------------------------------------------------------------------------------
55	-2.75000e+00	1.628928e+05	
56	-2.80000e+00	1.740645e+05	
57	-2.85000e+00	1.858428e+05	
58	-2.90000e+00	1.979336e+05	
59	-2.95000e+00	2.099811e+05	
60	-3.00000e+00	2.216587e+05	
61	-3.05000e+00	2.327552e+05	
62	-3.10000e+00	2.432036e+05	
63	-3.15000e+00	2.530474e+05	
64	-3.20000e+00	2.623842e+05	
65	-3.25000e+00	2.713205e+05	
66	-3.30000e+00	2.799487e+05	
67	-3.35000e+00	2.883400e+05	
68	-3.40000e+00	2.965465e+05	
69	-3.45000e+00	3.046046e+05	
70	-3.50000e+00	3.125400e+05	
71	-3.55000e+00	3.203703e+05	
72	-3.60000e+00	3.281078e+05	
73	-3.65000e+00	3.357612e+05	
74	-3.70000e+00	3.433368e+05	
75	-3.75000e+00	3.508391e+05	
76	-3.80000e+00	3.582714e+05	
77	-3.85000e+00	3.656363e+05	
78	-3.90000e+00	3.729359e+05	
79	-3.95000e+00	3.801717e+05	
80	-4.00000e+00	3.873451e+05	
81	-4.05000e+00	3.944571e+05	
82	-4.10000e+00	4.015089e+05	
83	-4.15000e+00	4.085011e+05	
84	-4.20000e+00	4.154347e+05	
85	-4.25000e+00	4.223103e+05	
86	-4.30000e+00	4.291287e+05	
87	-4.35000e+00	4.358905e+05	
88	-4.40000e+00	4.425962e+05	
89	-4.45000e+00	4.492467e+05	
90	-4.50000e+00	4.558423e+05	
91	-4.55000e+00	4.623837e+05	
92	-4.60000e+00	4.688715e+05	
93	-4.65000e+00	4.753062e+05	
94	-4.70000e+00	4.816883e+05	
95	-4.75000e+00	4.880184e+05	
96	-4.80000e+00	4.942970e+05	
97	-4.85000e+00	5.005246e+05	
98	-4.90000e+00	5.067018e+05	
99	-4.95000e+00	5.128291e+05	
100	-5.00000e+00	5.189069e+05	
101	-5.05000e+00	5.249357e+05	
102	-5.10000e+00	5.309161e+05	
103	-5.15000e+00	5.368486e+05	
104	-5.20000e+00	5.427335e+05	
105	-5.25000e+00	5.485715e+05	
106	-5.30000e+00	5.543629e+05	
107	-5.35000e+00	5.601082e+05	
108	-5.40000e+00	5.658079e+05	
109	-5.45000e+00	5.714625e+05	
110	-5.50000e+00	5.770723e+05	
111	-5.55000e+00	5.826378e+05	
112	-5.60000e+00	5.881595e+05	

Index   v-sweep         rds             
--------------------------------------------------------------------------------
113	-5.65000e+00	5.936378e+05	
114	-5.70000e+00	5.990731e+05	
115	-5.75000e+00	6.044657e+05	
116	-5.80000e+00	6.098162e+05	
117	-5.85000e+00	6.151248e+05	
118	-5.90000e+00	6.203920e+05	
119	-5.95000e+00	6.256181e+05	
120	-6.00000e+00	6.308036e+05	
121	-6.05000e+00	6.359487e+05	
122	-6.10000e+00	6.410539e+05	
123	-6.15000e+00	6.461193e+05	
124	-6.20000e+00	6.511454e+05	
125	-6.25000e+00	6.561325e+05	
126	-6.30000e+00	6.610809e+05	
127	-6.35000e+00	6.659907e+05	
128	-6.40000e+00	6.708624e+05	
129	-6.45000e+00	6.756962e+05	
130	-6.50000e+00	6.804922e+05	
131	-6.55000e+00	6.852508e+05	
132	-6.60000e+00	6.899722e+05	
Reset re-loads circuit ***************************

Circuit: ***************************

Doing analysis at TEMP = 125.000000 and TNOM = 125.000000


No. of Data Rows : 133
                          ***************************
                          DC transfer characteristic  Mon Jan  9 13:57:55  2023
--------------------------------------------------------------------------------
Index   v-sweep         rds             
--------------------------------------------------------------------------------
0	0.000000e+00	2.460029e+04	
1	-5.00000e-02	2.494457e+04	
2	-1.00000e-01	2.529742e+04	
3	-1.50000e-01	2.565917e+04	
4	-2.00000e-01	2.603014e+04	
5	-2.50000e-01	2.641071e+04	
6	-3.00000e-01	2.680124e+04	
7	-3.50000e-01	2.720213e+04	
8	-4.00000e-01	2.761380e+04	
9	-4.50000e-01	2.803669e+04	
10	-5.00000e-01	2.847125e+04	
11	-5.50000e-01	2.891799e+04	
12	-6.00000e-01	2.937742e+04	
13	-6.50000e-01	2.985008e+04	
14	-7.00000e-01	3.033656e+04	
15	-7.50000e-01	3.083747e+04	
16	-8.00000e-01	3.135345e+04	
17	-8.50000e-01	3.188520e+04	
18	-9.00000e-01	3.243345e+04	
19	-9.50000e-01	3.299899e+04	
20	-1.00000e+00	3.358263e+04	
21	-1.05000e+00	3.418526e+04	
22	-1.10000e+00	3.480781e+04	
23	-1.15000e+00	3.545131e+04	
24	-1.20000e+00	3.611680e+04	
25	-1.25000e+00	3.680545e+04	
26	-1.30000e+00	3.751847e+04	
27	-1.35000e+00	3.825719e+04	
28	-1.40000e+00	3.902300e+04	
29	-1.45000e+00	3.981743e+04	
30	-1.50000e+00	4.064211e+04	
31	-1.55000e+00	4.149879e+04	
32	-1.60000e+00	4.238937e+04	
33	-1.65000e+00	4.331589e+04	
34	-1.70000e+00	4.428056e+04	
35	-1.75000e+00	4.528579e+04	
36	-1.80000e+00	4.633417e+04	
37	-1.85000e+00	4.742854e+04	
38	-1.90000e+00	4.857196e+04	
39	-1.95000e+00	4.976781e+04	
40	-2.00000e+00	5.101974e+04	
41	-2.05000e+00	5.233177e+04	
42	-2.10000e+00	5.370831e+04	
43	-2.15000e+00	5.515420e+04	
44	-2.20000e+00	5.667476e+04	
45	-2.25000e+00	5.827588e+04	
46	-2.30000e+00	5.996406e+04	
47	-2.35000e+00	6.174651e+04	
48	-2.40000e+00	6.363124e+04	
49	-2.45000e+00	6.562715e+04	
50	-2.50000e+00	6.774419e+04	
51	-2.55000e+00	6.999347e+04	
52	-2.60000e+00	7.238743e+04	
53	-2.65000e+00	7.494004e+04	
54	-2.70000e+00	7.766697e+04	

Index   v-sweep         rds             
--------------------------------------------------------------------------------
55	-2.75000e+00	8.058583e+04	
56	-2.80000e+00	8.371642e+04	
57	-2.85000e+00	8.708093e+04	
58	-2.90000e+00	9.070412e+04	
59	-2.95000e+00	9.461346e+04	
60	-3.00000e+00	9.883903e+04	
61	-3.05000e+00	1.034131e+05	
62	-3.10000e+00	1.083689e+05	
63	-3.15000e+00	1.137390e+05	
64	-3.20000e+00	1.195512e+05	
65	-3.25000e+00	1.258228e+05	
66	-3.30000e+00	1.325525e+05	
67	-3.35000e+00	1.397093e+05	
68	-3.40000e+00	1.472228e+05	
69	-3.45000e+00	1.549799e+05	
70	-3.50000e+00	1.628343e+05	
71	-3.55000e+00	1.706329e+05	
72	-3.60000e+00	1.782494e+05	
73	-3.65000e+00	1.856089e+05	
74	-3.70000e+00	1.926907e+05	
75	-3.75000e+00	1.995139e+05	
76	-3.80000e+00	2.061169e+05	
77	-3.85000e+00	2.125410e+05	
78	-3.90000e+00	2.188228e+05	
79	-3.95000e+00	2.249906e+05	
80	-4.00000e+00	2.310654e+05	
81	-4.05000e+00	2.370619e+05	
82	-4.10000e+00	2.429904e+05	
83	-4.15000e+00	2.488578e+05	
84	-4.20000e+00	2.546690e+05	
85	-4.25000e+00	2.604273e+05	
86	-4.30000e+00	2.661350e+05	
87	-4.35000e+00	2.717937e+05	
88	-4.40000e+00	2.774048e+05	
89	-4.45000e+00	2.829692e+05	
90	-4.50000e+00	2.884875e+05	
91	-4.55000e+00	2.939604e+05	
92	-4.60000e+00	2.993884e+05	
93	-4.65000e+00	3.047719e+05	
94	-4.70000e+00	3.101114e+05	
95	-4.75000e+00	3.154073e+05	
96	-4.80000e+00	3.206600e+05	
97	-4.85000e+00	3.258698e+05	
98	-4.90000e+00	3.310372e+05	
99	-4.95000e+00	3.361624e+05	
100	-5.00000e+00	3.412460e+05	
101	-5.05000e+00	3.462882e+05	
102	-5.10000e+00	3.512894e+05	
103	-5.15000e+00	3.562501e+05	
104	-5.20000e+00	3.611705e+05	
105	-5.25000e+00	3.660511e+05	
106	-5.30000e+00	3.708922e+05	
107	-5.35000e+00	3.756942e+05	
108	-5.40000e+00	3.804574e+05	
109	-5.45000e+00	3.851823e+05	
110	-5.50000e+00	3.898693e+05	
111	-5.55000e+00	3.945186e+05	
112	-5.60000e+00	3.991306e+05	

Index   v-sweep         rds             
--------------------------------------------------------------------------------
113	-5.65000e+00	4.037057e+05	
114	-5.70000e+00	4.082443e+05	
115	-5.75000e+00	4.127468e+05	
116	-5.80000e+00	4.172134e+05	
117	-5.85000e+00	4.216445e+05	
118	-5.90000e+00	4.260405e+05	
119	-5.95000e+00	4.304018e+05	
120	-6.00000e+00	4.347286e+05	
121	-6.05000e+00	4.390213e+05	
122	-6.10000e+00	4.432802e+05	
123	-6.15000e+00	4.475057e+05	
124	-6.20000e+00	4.516981e+05	
125	-6.25000e+00	4.558576e+05	
126	-6.30000e+00	4.599847e+05	
127	-6.35000e+00	4.640796e+05	
128	-6.40000e+00	4.681426e+05	
129	-6.45000e+00	4.721741e+05	
130	-6.50000e+00	4.761742e+05	
131	-6.55000e+00	4.801433e+05	
132	-6.60000e+00	4.840817e+05	
Reset re-loads circuit ***************************

Circuit: ***************************

Note: No ".plot", ".print", or ".fourier" lines; no simulations run
