
Note: Compatibility modes selected: hs

Warning: m=xx on .subckt line will override multiplier m hierarchy!


Circuit: ***************************

Doing analysis at TEMP = 25.000000 and TNOM = 25.000000


No. of Data Rows : 133
                          ***************************
                          DC transfer characteristic  Mon Jan  9 13:57:54  2023
--------------------------------------------------------------------------------
Index   v-sweep         rds             
--------------------------------------------------------------------------------
0	0.000000e+00	7.172672e+05	
1	-5.00000e-02	1.308698e+06	
2	-1.00000e-01	3.866092e+06	
3	-1.50000e-01	1.831274e+07	
4	-2.00000e-01	6.936362e+07	
5	-2.50000e-01	1.740350e+08	
6	-3.00000e-01	3.208538e+08	
7	-3.50000e-01	4.812427e+08	
8	-4.00000e-01	6.317481e+08	
9	-4.50000e-01	7.620377e+08	
10	-5.00000e-01	8.710241e+08	
11	-5.50000e-01	9.615053e+08	
12	-6.00000e-01	1.037094e+09	
13	-6.50000e-01	1.101028e+09	
14	-7.00000e-01	1.155882e+09	
15	-7.50000e-01	1.203616e+09	
16	-8.00000e-01	1.245696e+09	
17	-8.50000e-01	1.283222e+09	
18	-9.00000e-01	1.317022e+09	
19	-9.50000e-01	1.347730e+09	
20	-1.00000e+00	1.375836e+09	
21	-1.05000e+00	1.401724e+09	
22	-1.10000e+00	1.425700e+09	
23	-1.15000e+00	1.448010e+09	
24	-1.20000e+00	1.468855e+09	
25	-1.25000e+00	1.488402e+09	
26	-1.30000e+00	1.506789e+09	
27	-1.35000e+00	1.524134e+09	
28	-1.40000e+00	1.540537e+09	
29	-1.45000e+00	1.556083e+09	
30	-1.50000e+00	1.570846e+09	
31	-1.55000e+00	1.584893e+09	
32	-1.60000e+00	1.598279e+09	
33	-1.65000e+00	1.611056e+09	
34	-1.70000e+00	1.623268e+09	
35	-1.75000e+00	1.634955e+09	
36	-1.80000e+00	1.646153e+09	
37	-1.85000e+00	1.656895e+09	
38	-1.90000e+00	1.667210e+09	
39	-1.95000e+00	1.677124e+09	
40	-2.00000e+00	1.686662e+09	
41	-2.05000e+00	1.695847e+09	
42	-2.10000e+00	1.704698e+09	
43	-2.15000e+00	1.713234e+09	
44	-2.20000e+00	1.721473e+09	
45	-2.25000e+00	1.729430e+09	
46	-2.30000e+00	1.737120e+09	
47	-2.35000e+00	1.744557e+09	
48	-2.40000e+00	1.751753e+09	
49	-2.45000e+00	1.758720e+09	
50	-2.50000e+00	1.765470e+09	
51	-2.55000e+00	1.772013e+09	
52	-2.60000e+00	1.778357e+09	
53	-2.65000e+00	1.784513e+09	
54	-2.70000e+00	1.790489e+09	

Index   v-sweep         rds             
--------------------------------------------------------------------------------
55	-2.75000e+00	1.796292e+09	
56	-2.80000e+00	1.801930e+09	
57	-2.85000e+00	1.807410e+09	
58	-2.90000e+00	1.812739e+09	
59	-2.95000e+00	1.817923e+09	
60	-3.00000e+00	1.822968e+09	
61	-3.05000e+00	1.827879e+09	
62	-3.10000e+00	1.832661e+09	
63	-3.15000e+00	1.837320e+09	
64	-3.20000e+00	1.841861e+09	
65	-3.25000e+00	1.846287e+09	
66	-3.30000e+00	1.850603e+09	
67	-3.35000e+00	1.854813e+09	
68	-3.40000e+00	1.858921e+09	
69	-3.45000e+00	1.862931e+09	
70	-3.50000e+00	1.866845e+09	
71	-3.55000e+00	1.870667e+09	
72	-3.60000e+00	1.874401e+09	
73	-3.65000e+00	1.878049e+09	
74	-3.70000e+00	1.881614e+09	
75	-3.75000e+00	1.885099e+09	
76	-3.80000e+00	1.888506e+09	
77	-3.85000e+00	1.891837e+09	
78	-3.90000e+00	1.895096e+09	
79	-3.95000e+00	1.898284e+09	
80	-4.00000e+00	1.901404e+09	
81	-4.05000e+00	1.904457e+09	
82	-4.10000e+00	1.907446e+09	
83	-4.15000e+00	1.910372e+09	
84	-4.20000e+00	1.913237e+09	
85	-4.25000e+00	1.916043e+09	
86	-4.30000e+00	1.918791e+09	
87	-4.35000e+00	1.921483e+09	
88	-4.40000e+00	1.924121e+09	
89	-4.45000e+00	1.926705e+09	
90	-4.50000e+00	1.929238e+09	
91	-4.55000e+00	1.931721e+09	
92	-4.60000e+00	1.934154e+09	
93	-4.65000e+00	1.936539e+09	
94	-4.70000e+00	1.938878e+09	
95	-4.75000e+00	1.941171e+09	
96	-4.80000e+00	1.943419e+09	
97	-4.85000e+00	1.945624e+09	
98	-4.90000e+00	1.947786e+09	
99	-4.95000e+00	1.949907e+09	
100	-5.00000e+00	1.951986e+09	
101	-5.05000e+00	1.954026e+09	
102	-5.10000e+00	1.956027e+09	
103	-5.15000e+00	1.957990e+09	
104	-5.20000e+00	1.959915e+09	
105	-5.25000e+00	1.961804e+09	
106	-5.30000e+00	1.963657e+09	
107	-5.35000e+00	1.965474e+09	
108	-5.40000e+00	1.967257e+09	
109	-5.45000e+00	1.969007e+09	
110	-5.50000e+00	1.970722e+09	
111	-5.55000e+00	1.972406e+09	
112	-5.60000e+00	1.974057e+09	

Index   v-sweep         rds             
--------------------------------------------------------------------------------
113	-5.65000e+00	1.975676e+09	
114	-5.70000e+00	1.977265e+09	
115	-5.75000e+00	1.978823e+09	
116	-5.80000e+00	1.980352e+09	
117	-5.85000e+00	1.981851e+09	
118	-5.90000e+00	1.983321e+09	
119	-5.95000e+00	1.984763e+09	
120	-6.00000e+00	1.986176e+09	
121	-6.05000e+00	1.987562e+09	
122	-6.10000e+00	1.988921e+09	
123	-6.15000e+00	1.990254e+09	
124	-6.20000e+00	1.991560e+09	
125	-6.25000e+00	1.992840e+09	
126	-6.30000e+00	1.994095e+09	
127	-6.35000e+00	1.995324e+09	
128	-6.40000e+00	1.996529e+09	
129	-6.45000e+00	1.997710e+09	
130	-6.50000e+00	1.998866e+09	
131	-6.55000e+00	1.999999e+09	
132	-6.60000e+00	2.001108e+09	
Reset re-loads circuit ***************************

Circuit: ***************************

Doing analysis at TEMP = 25.000000 and TNOM = 25.000000


No. of Data Rows : 133
                          ***************************
                          DC transfer characteristic  Mon Jan  9 13:57:54  2023
--------------------------------------------------------------------------------
Index   v-sweep         rds             
--------------------------------------------------------------------------------
0	0.000000e+00	7.659546e+04	
1	-5.00000e-02	8.174543e+04	
2	-1.00000e-01	8.763293e+04	
3	-1.50000e-01	9.442818e+04	
4	-2.00000e-01	1.023579e+05	
5	-2.50000e-01	1.117305e+05	
6	-3.00000e-01	1.229767e+05	
7	-3.50000e-01	1.367150e+05	
8	-4.00000e-01	1.538652e+05	
9	-4.50000e-01	1.758513e+05	
10	-5.00000e-01	2.049858e+05	
11	-5.50000e-01	2.452419e+05	
12	-6.00000e-01	3.039014e+05	
13	-6.50000e-01	3.952554e+05	
14	-7.00000e-01	5.490353e+05	
15	-7.50000e-01	8.279373e+05	
16	-8.00000e-01	1.352511e+06	
17	-8.50000e-01	2.298349e+06	
18	-9.00000e-01	3.801579e+06	
19	-9.50000e-01	5.815478e+06	
20	-1.00000e+00	8.099497e+06	
21	-1.05000e+00	1.037092e+07	
22	-1.10000e+00	1.244103e+07	
23	-1.15000e+00	1.423786e+07	
24	-1.20000e+00	1.576478e+07	
25	-1.25000e+00	1.705719e+07	
26	-1.30000e+00	1.815719e+07	
27	-1.35000e+00	1.910295e+07	
28	-1.40000e+00	1.992570e+07	
29	-1.45000e+00	2.064991e+07	
30	-1.50000e+00	2.129440e+07	
31	-1.55000e+00	2.187364e+07	
32	-1.60000e+00	2.239877e+07	
33	-1.65000e+00	2.287847e+07	
34	-1.70000e+00	2.331956e+07	
35	-1.75000e+00	2.372746e+07	
36	-1.80000e+00	2.410654e+07	
37	-1.85000e+00	2.446035e+07	
38	-1.90000e+00	2.479181e+07	
39	-1.95000e+00	2.510337e+07	
40	-2.00000e+00	2.539708e+07	
41	-2.05000e+00	2.567468e+07	
42	-2.10000e+00	2.593767e+07	
43	-2.15000e+00	2.618734e+07	
44	-2.20000e+00	2.642481e+07	
45	-2.25000e+00	2.665106e+07	
46	-2.30000e+00	2.686697e+07	
47	-2.35000e+00	2.707330e+07	
48	-2.40000e+00	2.727073e+07	
49	-2.45000e+00	2.745990e+07	
50	-2.50000e+00	2.764134e+07	
51	-2.55000e+00	2.781556e+07	
52	-2.60000e+00	2.798301e+07	
53	-2.65000e+00	2.814411e+07	
54	-2.70000e+00	2.829923e+07	

Index   v-sweep         rds             
--------------------------------------------------------------------------------
55	-2.75000e+00	2.844872e+07	
56	-2.80000e+00	2.859290e+07	
57	-2.85000e+00	2.873206e+07	
58	-2.90000e+00	2.886646e+07	
59	-2.95000e+00	2.899636e+07	
60	-3.00000e+00	2.912200e+07	
61	-3.05000e+00	2.924357e+07	
62	-3.10000e+00	2.936129e+07	
63	-3.15000e+00	2.947534e+07	
64	-3.20000e+00	2.958589e+07	
65	-3.25000e+00	2.969311e+07	
66	-3.30000e+00	2.979715e+07	
67	-3.35000e+00	2.989815e+07	
68	-3.40000e+00	2.999625e+07	
69	-3.45000e+00	3.009156e+07	
70	-3.50000e+00	3.018422e+07	
71	-3.55000e+00	3.027432e+07	
72	-3.60000e+00	3.036198e+07	
73	-3.65000e+00	3.044730e+07	
74	-3.70000e+00	3.053037e+07	
75	-3.75000e+00	3.061127e+07	
76	-3.80000e+00	3.069009e+07	
77	-3.85000e+00	3.076692e+07	
78	-3.90000e+00	3.084182e+07	
79	-3.95000e+00	3.091486e+07	
80	-4.00000e+00	3.098613e+07	
81	-4.05000e+00	3.105567e+07	
82	-4.10000e+00	3.112355e+07	
83	-4.15000e+00	3.118983e+07	
84	-4.20000e+00	3.125456e+07	
85	-4.25000e+00	3.131780e+07	
86	-4.30000e+00	3.137959e+07	
87	-4.35000e+00	3.143999e+07	
88	-4.40000e+00	3.149904e+07	
89	-4.45000e+00	3.155678e+07	
90	-4.50000e+00	3.161325e+07	
91	-4.55000e+00	3.166850e+07	
92	-4.60000e+00	3.172255e+07	
93	-4.65000e+00	3.177546e+07	
94	-4.70000e+00	3.182724e+07	
95	-4.75000e+00	3.187794e+07	
96	-4.80000e+00	3.192758e+07	
97	-4.85000e+00	3.197620e+07	
98	-4.90000e+00	3.202382e+07	
99	-4.95000e+00	3.207047e+07	
100	-5.00000e+00	3.211618e+07	
101	-5.05000e+00	3.216098e+07	
102	-5.10000e+00	3.220487e+07	
103	-5.15000e+00	3.224790e+07	
104	-5.20000e+00	3.229009e+07	
105	-5.25000e+00	3.233144e+07	
106	-5.30000e+00	3.237199e+07	
107	-5.35000e+00	3.241175e+07	
108	-5.40000e+00	3.245074e+07	
109	-5.45000e+00	3.248898e+07	
110	-5.50000e+00	3.252649e+07	
111	-5.55000e+00	3.256329e+07	
112	-5.60000e+00	3.259938e+07	

Index   v-sweep         rds             
--------------------------------------------------------------------------------
113	-5.65000e+00	3.263479e+07	
114	-5.70000e+00	3.266953e+07	
115	-5.75000e+00	3.270361e+07	
116	-5.80000e+00	3.273705e+07	
117	-5.85000e+00	3.276985e+07	
118	-5.90000e+00	3.280205e+07	
119	-5.95000e+00	3.283364e+07	
120	-6.00000e+00	3.286463e+07	
121	-6.05000e+00	3.289505e+07	
122	-6.10000e+00	3.292489e+07	
123	-6.15000e+00	3.295418e+07	
124	-6.20000e+00	3.298291e+07	
125	-6.25000e+00	3.301111e+07	
126	-6.30000e+00	3.303877e+07	
127	-6.35000e+00	3.306592e+07	
128	-6.40000e+00	3.309255e+07	
129	-6.45000e+00	3.311868e+07	
130	-6.50000e+00	3.314431e+07	
131	-6.55000e+00	3.316946e+07	
132	-6.60000e+00	3.319413e+07	
Reset re-loads circuit ***************************

Circuit: ***************************

Doing analysis at TEMP = 25.000000 and TNOM = 25.000000


No. of Data Rows : 133
                          ***************************
                          DC transfer characteristic  Mon Jan  9 13:57:54  2023
--------------------------------------------------------------------------------
Index   v-sweep         rds             
--------------------------------------------------------------------------------
0	0.000000e+00	4.375414e+04	
1	-5.00000e-02	4.526061e+04	
2	-1.00000e-01	4.687350e+04	
3	-1.50000e-01	4.860452e+04	
4	-2.00000e-01	5.046712e+04	
5	-2.50000e-01	5.247687e+04	
6	-3.00000e-01	5.465193e+04	
7	-3.50000e-01	5.701352e+04	
8	-4.00000e-01	5.958670e+04	
9	-4.50000e-01	6.240117e+04	
10	-5.00000e-01	6.549248e+04	
11	-5.50000e-01	6.890349e+04	
12	-6.00000e-01	7.268637e+04	
13	-6.50000e-01	7.690519e+04	
14	-7.00000e-01	8.163963e+04	
15	-7.50000e-01	8.698983e+04	
16	-8.00000e-01	9.308350e+04	
17	-8.50000e-01	1.000859e+05	
18	-9.00000e-01	1.082143e+05	
19	-9.50000e-01	1.177604e+05	
20	-1.00000e+00	1.291235e+05	
21	-1.05000e+00	1.428636e+05	
22	-1.10000e+00	1.597876e+05	
23	-1.15000e+00	1.810932e+05	
24	-1.20000e+00	2.086149e+05	
25	-1.25000e+00	2.452590e+05	
26	-1.30000e+00	2.957703e+05	
27	-1.35000e+00	3.680576e+05	
28	-1.40000e+00	4.752577e+05	
29	-1.45000e+00	6.380854e+05	
30	-1.50000e+00	8.848977e+05	
31	-1.55000e+00	1.243974e+06	
32	-1.60000e+00	1.725484e+06	
33	-1.65000e+00	2.305262e+06	
34	-1.70000e+00	2.930166e+06	
35	-1.75000e+00	3.543260e+06	
36	-1.80000e+00	4.105408e+06	
37	-1.85000e+00	4.599973e+06	
38	-1.90000e+00	5.026333e+06	
39	-1.95000e+00	5.391755e+06	
40	-2.00000e+00	5.705888e+06	
41	-2.05000e+00	5.978027e+06	
42	-2.10000e+00	6.216114e+06	
43	-2.15000e+00	6.426568e+06	
44	-2.20000e+00	6.614454e+06	
45	-2.25000e+00	6.783730e+06	
46	-2.30000e+00	6.937494e+06	
47	-2.35000e+00	7.078177e+06	
48	-2.40000e+00	7.207708e+06	
49	-2.45000e+00	7.327629e+06	
50	-2.50000e+00	7.439188e+06	
51	-2.55000e+00	7.543405e+06	
52	-2.60000e+00	7.641123e+06	
53	-2.65000e+00	7.733043e+06	
54	-2.70000e+00	7.819759e+06	

Index   v-sweep         rds             
--------------------------------------------------------------------------------
55	-2.75000e+00	7.901775e+06	
56	-2.80000e+00	7.979523e+06	
57	-2.85000e+00	8.053376e+06	
58	-2.90000e+00	8.123661e+06	
59	-2.95000e+00	8.190662e+06	
60	-3.00000e+00	8.254632e+06	
61	-3.05000e+00	8.315794e+06	
62	-3.10000e+00	8.374348e+06	
63	-3.15000e+00	8.430473e+06	
64	-3.20000e+00	8.484330e+06	
65	-3.25000e+00	8.536065e+06	
66	-3.30000e+00	8.585809e+06	
67	-3.35000e+00	8.633684e+06	
68	-3.40000e+00	8.679799e+06	
69	-3.45000e+00	8.724256e+06	
70	-3.50000e+00	8.767146e+06	
71	-3.55000e+00	8.808556e+06	
72	-3.60000e+00	8.848564e+06	
73	-3.65000e+00	8.887244e+06	
74	-3.70000e+00	8.924662e+06	
75	-3.75000e+00	8.960882e+06	
76	-3.80000e+00	8.995963e+06	
77	-3.85000e+00	9.029958e+06	
78	-3.90000e+00	9.062919e+06	
79	-3.95000e+00	9.094894e+06	
80	-4.00000e+00	9.125928e+06	
81	-4.05000e+00	9.156061e+06	
82	-4.10000e+00	9.185334e+06	
83	-4.15000e+00	9.213784e+06	
84	-4.20000e+00	9.241445e+06	
85	-4.25000e+00	9.268350e+06	
86	-4.30000e+00	9.294530e+06	
87	-4.35000e+00	9.320014e+06	
88	-4.40000e+00	9.344831e+06	
89	-4.45000e+00	9.369005e+06	
90	-4.50000e+00	9.392563e+06	
91	-4.55000e+00	9.415526e+06	
92	-4.60000e+00	9.437918e+06	
93	-4.65000e+00	9.459759e+06	
94	-4.70000e+00	9.481070e+06	
95	-4.75000e+00	9.501869e+06	
96	-4.80000e+00	9.522174e+06	
97	-4.85000e+00	9.542003e+06	
98	-4.90000e+00	9.561372e+06	
99	-4.95000e+00	9.580296e+06	
100	-5.00000e+00	9.598790e+06	
101	-5.05000e+00	9.616869e+06	
102	-5.10000e+00	9.634546e+06	
103	-5.15000e+00	9.651833e+06	
104	-5.20000e+00	9.668743e+06	
105	-5.25000e+00	9.685287e+06	
106	-5.30000e+00	9.701477e+06	
107	-5.35000e+00	9.717323e+06	
108	-5.40000e+00	9.732836e+06	
109	-5.45000e+00	9.748025e+06	
110	-5.50000e+00	9.762899e+06	
111	-5.55000e+00	9.777467e+06	
112	-5.60000e+00	9.791739e+06	

Index   v-sweep         rds             
--------------------------------------------------------------------------------
113	-5.65000e+00	9.805721e+06	
114	-5.70000e+00	9.819422e+06	
115	-5.75000e+00	9.832849e+06	
116	-5.80000e+00	9.846009e+06	
117	-5.85000e+00	9.858910e+06	
118	-5.90000e+00	9.871558e+06	
119	-5.95000e+00	9.883958e+06	
120	-6.00000e+00	9.896118e+06	
121	-6.05000e+00	9.908042e+06	
122	-6.10000e+00	9.919737e+06	
123	-6.15000e+00	9.931208e+06	
124	-6.20000e+00	9.942460e+06	
125	-6.25000e+00	9.953497e+06	
126	-6.30000e+00	9.964325e+06	
127	-6.35000e+00	9.974948e+06	
128	-6.40000e+00	9.985371e+06	
129	-6.45000e+00	9.995597e+06	
130	-6.50000e+00	1.000563e+07	
131	-6.55000e+00	1.001548e+07	
132	-6.60000e+00	1.002514e+07	
Reset re-loads circuit ***************************

Circuit: ***************************

Doing analysis at TEMP = 25.000000 and TNOM = 25.000000


No. of Data Rows : 133
                          ***************************
                          DC transfer characteristic  Mon Jan  9 13:57:54  2023
--------------------------------------------------------------------------------
Index   v-sweep         rds             
--------------------------------------------------------------------------------
0	0.000000e+00	3.223359e+04	
1	-5.00000e-02	3.297482e+04	
2	-1.00000e-01	3.375050e+04	
3	-1.50000e-01	3.456310e+04	
4	-2.00000e-01	3.541532e+04	
5	-2.50000e-01	3.631012e+04	
6	-3.00000e-01	3.725077e+04	
7	-3.50000e-01	3.824089e+04	
8	-4.00000e-01	3.928449e+04	
9	-4.50000e-01	4.038602e+04	
10	-5.00000e-01	4.155043e+04	
11	-5.50000e-01	4.278325e+04	
12	-6.00000e-01	4.409071e+04	
13	-6.50000e-01	4.547978e+04	
14	-7.00000e-01	4.695834e+04	
15	-7.50000e-01	4.853532e+04	
16	-8.00000e-01	5.022087e+04	
17	-8.50000e-01	5.202658e+04	
18	-9.00000e-01	5.396575e+04	
19	-9.50000e-01	5.605373e+04	
20	-1.00000e+00	5.830828e+04	
21	-1.05000e+00	6.075012e+04	
22	-1.10000e+00	6.340352e+04	
23	-1.15000e+00	6.629714e+04	
24	-1.20000e+00	6.946500e+04	
25	-1.25000e+00	7.294785e+04	
26	-1.30000e+00	7.679487e+04	
27	-1.35000e+00	8.106594e+04	
28	-1.40000e+00	8.583469e+04	
29	-1.45000e+00	9.119263e+04	
30	-1.50000e+00	9.725483e+04	
31	-1.55000e+00	1.041678e+05	
32	-1.60000e+00	1.121209e+05	
33	-1.65000e+00	1.213622e+05	
34	-1.70000e+00	1.322229e+05	
35	-1.75000e+00	1.451525e+05	
36	-1.80000e+00	1.607736e+05	
37	-1.85000e+00	1.799657e+05	
38	-1.90000e+00	2.039959e+05	
39	-1.95000e+00	2.347220e+05	
40	-2.00000e+00	2.748982e+05	
41	-2.05000e+00	3.286018e+05	
42	-2.10000e+00	4.017171e+05	
43	-2.15000e+00	5.021712e+05	
44	-2.20000e+00	6.391646e+05	
45	-2.25000e+00	8.203541e+05	
46	-2.30000e+00	1.047001e+06	
47	-2.35000e+00	1.309991e+06	
48	-2.40000e+00	1.591064e+06	
49	-2.45000e+00	1.869527e+06	
50	-2.50000e+00	2.129333e+06	
51	-2.55000e+00	2.362008e+06	
52	-2.60000e+00	2.565555e+06	
53	-2.65000e+00	2.741863e+06	
54	-2.70000e+00	2.894472e+06	

Index   v-sweep         rds             
--------------------------------------------------------------------------------
55	-2.75000e+00	3.027220e+06	
56	-2.80000e+00	3.143604e+06	
57	-2.85000e+00	3.246573e+06	
58	-2.90000e+00	3.338518e+06	
59	-2.95000e+00	3.421340e+06	
60	-3.00000e+00	3.496546e+06	
61	-3.05000e+00	3.565328e+06	
62	-3.10000e+00	3.628637e+06	
63	-3.15000e+00	3.687233e+06	
64	-3.20000e+00	3.741734e+06	
65	-3.25000e+00	3.792642e+06	
66	-3.30000e+00	3.840373e+06	
67	-3.35000e+00	3.885274e+06	
68	-3.40000e+00	3.927636e+06	
69	-3.45000e+00	3.967707e+06	
70	-3.50000e+00	4.005698e+06	
71	-3.55000e+00	4.041793e+06	
72	-3.60000e+00	4.076150e+06	
73	-3.65000e+00	4.108910e+06	
74	-3.70000e+00	4.140194e+06	
75	-3.75000e+00	4.170112e+06	
76	-3.80000e+00	4.198761e+06	
77	-3.85000e+00	4.226227e+06	
78	-3.90000e+00	4.252590e+06	
79	-3.95000e+00	4.277920e+06	
80	-4.00000e+00	4.302280e+06	
81	-4.05000e+00	4.325730e+06	
82	-4.10000e+00	4.348324e+06	
83	-4.15000e+00	4.370109e+06	
84	-4.20000e+00	4.391131e+06	
85	-4.25000e+00	4.411431e+06	
86	-4.30000e+00	4.431048e+06	
87	-4.35000e+00	4.450017e+06	
88	-4.40000e+00	4.468370e+06	
89	-4.45000e+00	4.486140e+06	
90	-4.50000e+00	4.503352e+06	
91	-4.55000e+00	4.520036e+06	
92	-4.60000e+00	4.536214e+06	
93	-4.65000e+00	4.551910e+06	
94	-4.70000e+00	4.567147e+06	
95	-4.75000e+00	4.581944e+06	
96	-4.80000e+00	4.596320e+06	
97	-4.85000e+00	4.610294e+06	
98	-4.90000e+00	4.623882e+06	
99	-4.95000e+00	4.637101e+06	
100	-5.00000e+00	4.649964e+06	
101	-5.05000e+00	4.662488e+06	
102	-5.10000e+00	4.674685e+06	
103	-5.15000e+00	4.686567e+06	
104	-5.20000e+00	4.698148e+06	
105	-5.25000e+00	4.709437e+06	
106	-5.30000e+00	4.720447e+06	
107	-5.35000e+00	4.731187e+06	
108	-5.40000e+00	4.741667e+06	
109	-5.45000e+00	4.751896e+06	
110	-5.50000e+00	4.761884e+06	
111	-5.55000e+00	4.771638e+06	
112	-5.60000e+00	4.781167e+06	

Index   v-sweep         rds             
--------------------------------------------------------------------------------
113	-5.65000e+00	4.790477e+06	
114	-5.70000e+00	4.799577e+06	
115	-5.75000e+00	4.808474e+06	
116	-5.80000e+00	4.817173e+06	
117	-5.85000e+00	4.825681e+06	
118	-5.90000e+00	4.834004e+06	
119	-5.95000e+00	4.842147e+06	
120	-6.00000e+00	4.850117e+06	
121	-6.05000e+00	4.857918e+06	
122	-6.10000e+00	4.865556e+06	
123	-6.15000e+00	4.873034e+06	
124	-6.20000e+00	4.880359e+06	
125	-6.25000e+00	4.887533e+06	
126	-6.30000e+00	4.894561e+06	
127	-6.35000e+00	4.901447e+06	
128	-6.40000e+00	4.908196e+06	
129	-6.45000e+00	4.914810e+06	
130	-6.50000e+00	4.921293e+06	
131	-6.55000e+00	4.927648e+06	
132	-6.60000e+00	4.933879e+06	
Reset re-loads circuit ***************************

Circuit: ***************************

Doing analysis at TEMP = 25.000000 and TNOM = 25.000000


No. of Data Rows : 133
                          ***************************
                          DC transfer characteristic  Mon Jan  9 13:57:54  2023
--------------------------------------------------------------------------------
Index   v-sweep         rds             
--------------------------------------------------------------------------------
0	0.000000e+00	2.639095e+04	
1	-5.00000e-02	2.684420e+04	
2	-1.00000e-01	2.731303e+04	
3	-1.50000e-01	2.779829e+04	
4	-2.00000e-01	2.830083e+04	
5	-2.50000e-01	2.882161e+04	
6	-3.00000e-01	2.936162e+04	
7	-3.50000e-01	2.992197e+04	
8	-4.00000e-01	3.050381e+04	
9	-4.50000e-01	3.110841e+04	
10	-5.00000e-01	3.173713e+04	
11	-5.50000e-01	3.239144e+04	
12	-6.00000e-01	3.307294e+04	
13	-6.50000e-01	3.378335e+04	
14	-7.00000e-01	3.452456e+04	
15	-7.50000e-01	3.529861e+04	
16	-8.00000e-01	3.610773e+04	
17	-8.50000e-01	3.695435e+04	
18	-9.00000e-01	3.784116e+04	
19	-9.50000e-01	3.877106e+04	
20	-1.00000e+00	3.974729e+04	
21	-1.05000e+00	4.077339e+04	
22	-1.10000e+00	4.185327e+04	
23	-1.15000e+00	4.299127e+04	
24	-1.20000e+00	4.419222e+04	
25	-1.25000e+00	4.546146e+04	
26	-1.30000e+00	4.680501e+04	
27	-1.35000e+00	4.822955e+04	
28	-1.40000e+00	4.974263e+04	
29	-1.45000e+00	5.135276e+04	
30	-1.50000e+00	5.306956e+04	
31	-1.55000e+00	5.490397e+04	
32	-1.60000e+00	5.686846e+04	
33	-1.65000e+00	5.897735e+04	
34	-1.70000e+00	6.124709e+04	
35	-1.75000e+00	6.369674e+04	
36	-1.80000e+00	6.634849e+04	
37	-1.85000e+00	6.922828e+04	
38	-1.90000e+00	7.236667e+04	
39	-1.95000e+00	7.579986e+04	
40	-2.00000e+00	7.957110e+04	
41	-2.05000e+00	8.373239e+04	
42	-2.10000e+00	8.834683e+04	
43	-2.15000e+00	9.349165e+04	
44	-2.20000e+00	9.926229e+04	
45	-2.25000e+00	1.057780e+05	
46	-2.30000e+00	1.131892e+05	
47	-2.35000e+00	1.216886e+05	
48	-2.40000e+00	1.315253e+05	
49	-2.45000e+00	1.430262e+05	
50	-2.50000e+00	1.566262e+05	
51	-2.55000e+00	1.729114e+05	
52	-2.60000e+00	1.926808e+05	
53	-2.65000e+00	2.170331e+05	
54	-2.70000e+00	2.474823e+05	

Index   v-sweep         rds             
--------------------------------------------------------------------------------
55	-2.75000e+00	2.860951e+05	
56	-2.80000e+00	3.356122e+05	
57	-2.85000e+00	3.994419e+05	
58	-2.90000e+00	4.813121e+05	
59	-2.95000e+00	5.843085e+05	
60	-3.00000e+00	7.092652e+05	
61	-3.05000e+00	8.531742e+05	
62	-3.10000e+00	1.008923e+06	
63	-3.15000e+00	1.167101e+06	
64	-3.20000e+00	1.318921e+06	
65	-3.25000e+00	1.458378e+06	
66	-3.30000e+00	1.582745e+06	
67	-3.35000e+00	1.691828e+06	
68	-3.40000e+00	1.786896e+06	
69	-3.45000e+00	1.869808e+06	
70	-3.50000e+00	1.942487e+06	
71	-3.55000e+00	2.006672e+06	
72	-3.60000e+00	2.063836e+06	
73	-3.65000e+00	2.115180e+06	
74	-3.70000e+00	2.161673e+06	
75	-3.75000e+00	2.204086e+06	
76	-3.80000e+00	2.243036e+06	
77	-3.85000e+00	2.279018e+06	
78	-3.90000e+00	2.312431e+06	
79	-3.95000e+00	2.343600e+06	
80	-4.00000e+00	2.372793e+06	
81	-4.05000e+00	2.400232e+06	
82	-4.10000e+00	2.426101e+06	
83	-4.15000e+00	2.450559e+06	
84	-4.20000e+00	2.473737e+06	
85	-4.25000e+00	2.495752e+06	
86	-4.30000e+00	2.516703e+06	
87	-4.35000e+00	2.536676e+06	
88	-4.40000e+00	2.555747e+06	
89	-4.45000e+00	2.573985e+06	
90	-4.50000e+00	2.591448e+06	
91	-4.55000e+00	2.608190e+06	
92	-4.60000e+00	2.624260e+06	
93	-4.65000e+00	2.639700e+06	
94	-4.70000e+00	2.654551e+06	
95	-4.75000e+00	2.668847e+06	
96	-4.80000e+00	2.682622e+06	
97	-4.85000e+00	2.695905e+06	
98	-4.90000e+00	2.708723e+06	
99	-4.95000e+00	2.721102e+06	
100	-5.00000e+00	2.733066e+06	
101	-5.05000e+00	2.744635e+06	
102	-5.10000e+00	2.755829e+06	
103	-5.15000e+00	2.766668e+06	
104	-5.20000e+00	2.777168e+06	
105	-5.25000e+00	2.787346e+06	
106	-5.30000e+00	2.797217e+06	
107	-5.35000e+00	2.806794e+06	
108	-5.40000e+00	2.816091e+06	
109	-5.45000e+00	2.825120e+06	
110	-5.50000e+00	2.833894e+06	
111	-5.55000e+00	2.842422e+06	
112	-5.60000e+00	2.850715e+06	

Index   v-sweep         rds             
--------------------------------------------------------------------------------
113	-5.65000e+00	2.858783e+06	
114	-5.70000e+00	2.866635e+06	
115	-5.75000e+00	2.874280e+06	
116	-5.80000e+00	2.881725e+06	
117	-5.85000e+00	2.888979e+06	
118	-5.90000e+00	2.896049e+06	
119	-5.95000e+00	2.902942e+06	
120	-6.00000e+00	2.909664e+06	
121	-6.05000e+00	2.916222e+06	
122	-6.10000e+00	2.922621e+06	
123	-6.15000e+00	2.928868e+06	
124	-6.20000e+00	2.934967e+06	
125	-6.25000e+00	2.940923e+06	
126	-6.30000e+00	2.946743e+06	
127	-6.35000e+00	2.952429e+06	
128	-6.40000e+00	2.957987e+06	
129	-6.45000e+00	2.963420e+06	
130	-6.50000e+00	2.968734e+06	
131	-6.55000e+00	2.973931e+06	
132	-6.60000e+00	2.979015e+06	
Reset re-loads circuit ***************************

Circuit: ***************************

Doing analysis at TEMP = 25.000000 and TNOM = 25.000000


No. of Data Rows : 133
                          ***************************
                          DC transfer characteristic  Mon Jan  9 13:57:54  2023
--------------------------------------------------------------------------------
Index   v-sweep         rds             
--------------------------------------------------------------------------------
0	0.000000e+00	2.287822e+04	
1	-5.00000e-02	2.319037e+04	
2	-1.00000e-01	2.351100e+04	
3	-1.50000e-01	2.384046e+04	
4	-2.00000e-01	2.417911e+04	
5	-2.50000e-01	2.452736e+04	
6	-3.00000e-01	2.488560e+04	
7	-3.50000e-01	2.525428e+04	
8	-4.00000e-01	2.563387e+04	
9	-4.50000e-01	2.602484e+04	
10	-5.00000e-01	2.642773e+04	
11	-5.50000e-01	2.684308e+04	
12	-6.00000e-01	2.727148e+04	
13	-6.50000e-01	2.771356e+04	
14	-7.00000e-01	2.816999e+04	
15	-7.50000e-01	2.864146e+04	
16	-8.00000e-01	2.912874e+04	
17	-8.50000e-01	2.963264e+04	
18	-9.00000e-01	3.015402e+04	
19	-9.50000e-01	3.069381e+04	
20	-1.00000e+00	3.125299e+04	
21	-1.05000e+00	3.183264e+04	
22	-1.10000e+00	3.243389e+04	
23	-1.15000e+00	3.305798e+04	
24	-1.20000e+00	3.370623e+04	
25	-1.25000e+00	3.438006e+04	
26	-1.30000e+00	3.508104e+04	
27	-1.35000e+00	3.581082e+04	
28	-1.40000e+00	3.657122e+04	
29	-1.45000e+00	3.736421e+04	
30	-1.50000e+00	3.819191e+04	
31	-1.55000e+00	3.905668e+04	
32	-1.60000e+00	3.996104e+04	
33	-1.65000e+00	4.090777e+04	
34	-1.70000e+00	4.189992e+04	
35	-1.75000e+00	4.294085e+04	
36	-1.80000e+00	4.403421e+04	
37	-1.85000e+00	4.518409e+04	
38	-1.90000e+00	4.639496e+04	
39	-1.95000e+00	4.767180e+04	
40	-2.00000e+00	4.902015e+04	
41	-2.05000e+00	5.044616e+04	
42	-2.10000e+00	5.195673e+04	
43	-2.15000e+00	5.355959e+04	
44	-2.20000e+00	5.526343e+04	
45	-2.25000e+00	5.707808e+04	
46	-2.30000e+00	5.901467e+04	
47	-2.35000e+00	6.108585e+04	
48	-2.40000e+00	6.330609e+04	
49	-2.45000e+00	6.569201e+04	
50	-2.50000e+00	6.826272e+04	
51	-2.55000e+00	7.104043e+04	
52	-2.60000e+00	7.405096e+04	
53	-2.65000e+00	7.732458e+04	
54	-2.70000e+00	8.089698e+04	

Index   v-sweep         rds             
--------------------------------------------------------------------------------
55	-2.75000e+00	8.481048e+04	
56	-2.80000e+00	8.911565e+04	
57	-2.85000e+00	9.387335e+04	
58	-2.90000e+00	9.915738e+04	
59	-2.95000e+00	1.050580e+05	
60	-3.00000e+00	1.116866e+05	
61	-3.05000e+00	1.191819e+05	
62	-3.10000e+00	1.277183e+05	
63	-3.15000e+00	1.375172e+05	
64	-3.20000e+00	1.488623e+05	
65	-3.25000e+00	1.621203e+05	
66	-3.30000e+00	1.777690e+05	
67	-3.35000e+00	1.964332e+05	
68	-3.40000e+00	2.189290e+05	
69	-3.45000e+00	2.463133e+05	
70	-3.50000e+00	2.799213e+05	
71	-3.55000e+00	3.213616e+05	
72	-3.60000e+00	3.724019e+05	
73	-3.65000e+00	4.346595e+05	
74	-3.70000e+00	5.090395e+05	
75	-3.75000e+00	5.950179e+05	
76	-3.80000e+00	6.901302e+05	
77	-3.85000e+00	7.901344e+05	
78	-3.90000e+00	8.899895e+05	
79	-3.95000e+00	9.851703e+05	
80	-4.00000e+00	1.072603e+06	
81	-4.05000e+00	1.150876e+06	
82	-4.10000e+00	1.219899e+06	
83	-4.15000e+00	1.280382e+06	
84	-4.20000e+00	1.333389e+06	
85	-4.25000e+00	1.380046e+06	
86	-4.30000e+00	1.421392e+06	
87	-4.35000e+00	1.458320e+06	
88	-4.40000e+00	1.491570e+06	
89	-4.45000e+00	1.521742e+06	
90	-4.50000e+00	1.549320e+06	
91	-4.55000e+00	1.574692e+06	
92	-4.60000e+00	1.598170e+06	
93	-4.65000e+00	1.620006e+06	
94	-4.70000e+00	1.640408e+06	
95	-4.75000e+00	1.659544e+06	
96	-4.80000e+00	1.677556e+06	
97	-4.85000e+00	1.694561e+06	
98	-4.90000e+00	1.710658e+06	
99	-4.95000e+00	1.725934e+06	
100	-5.00000e+00	1.740459e+06	
101	-5.05000e+00	1.754298e+06	
102	-5.10000e+00	1.767506e+06	
103	-5.15000e+00	1.780131e+06	
104	-5.20000e+00	1.792216e+06	
105	-5.25000e+00	1.803798e+06	
106	-5.30000e+00	1.814913e+06	
107	-5.35000e+00	1.825591e+06	
108	-5.40000e+00	1.835859e+06	
109	-5.45000e+00	1.845742e+06	
110	-5.50000e+00	1.855264e+06	
111	-5.55000e+00	1.864445e+06	
112	-5.60000e+00	1.873304e+06	

Index   v-sweep         rds             
--------------------------------------------------------------------------------
113	-5.65000e+00	1.881860e+06	
114	-5.70000e+00	1.890127e+06	
115	-5.75000e+00	1.898121e+06	
116	-5.80000e+00	1.905857e+06	
117	-5.85000e+00	1.913346e+06	
118	-5.90000e+00	1.920601e+06	
119	-5.95000e+00	1.927633e+06	
120	-6.00000e+00	1.934453e+06	
121	-6.05000e+00	1.941070e+06	
122	-6.10000e+00	1.947493e+06	
123	-6.15000e+00	1.953731e+06	
124	-6.20000e+00	1.959791e+06	
125	-6.25000e+00	1.965683e+06	
126	-6.30000e+00	1.971412e+06	
127	-6.35000e+00	1.976985e+06	
128	-6.40000e+00	1.982409e+06	
129	-6.45000e+00	1.987690e+06	
130	-6.50000e+00	1.992833e+06	
131	-6.55000e+00	1.997843e+06	
132	-6.60000e+00	2.002726e+06	
Reset re-loads circuit ***************************

Circuit: ***************************

Note: No ".plot", ".print", or ".fourier" lines; no simulations run
