
Note: Compatibility modes selected: hs

Warning: m=xx on .subckt line will override multiplier m hierarchy!


Circuit: ***************************

Doing analysis at TEMP = -40.000000 and TNOM = -40.000000


No. of Data Rows : 133
                          ***************************
                          DC transfer characteristic  Mon Jan  9 13:57:54  2023
--------------------------------------------------------------------------------
Index   v-sweep         rds             
--------------------------------------------------------------------------------
0	0.000000e+00	7.933818e+06	
1	-5.00000e-02	2.512406e+07	
2	-1.00000e-01	1.743359e+08	
3	-1.50000e-01	8.282147e+08	
4	-2.00000e-01	2.138870e+09	
5	-2.50000e-01	3.778260e+09	
6	-3.00000e-01	5.381300e+09	
7	-3.50000e-01	6.793999e+09	
8	-4.00000e-01	8.004039e+09	
9	-4.50000e-01	9.045080e+09	
10	-5.00000e-01	9.954685e+09	
11	-5.50000e-01	1.076314e+10	
12	-6.00000e-01	1.149276e+10	
13	-6.50000e-01	1.215961e+10	
14	-7.00000e-01	1.277533e+10	
15	-7.50000e-01	1.334844e+10	
16	-8.00000e-01	1.388533e+10	
17	-8.50000e-01	1.439090e+10	
18	-9.00000e-01	1.486896e+10	
19	-9.50000e-01	1.532257e+10	
20	-1.00000e+00	1.575421e+10	
21	-1.05000e+00	1.616595e+10	
22	-1.10000e+00	1.655950e+10	
23	-1.15000e+00	1.693635e+10	
24	-1.20000e+00	1.729776e+10	
25	-1.25000e+00	1.764484e+10	
26	-1.30000e+00	1.797858e+10	
27	-1.35000e+00	1.829984e+10	
28	-1.40000e+00	1.860941e+10	
29	-1.45000e+00	1.890798e+10	
30	-1.50000e+00	1.919619e+10	
31	-1.55000e+00	1.947461e+10	
32	-1.60000e+00	1.974379e+10	
33	-1.65000e+00	2.000420e+10	
34	-1.70000e+00	2.025629e+10	
35	-1.75000e+00	2.050048e+10	
36	-1.80000e+00	2.073715e+10	
37	-1.85000e+00	2.096666e+10	
38	-1.90000e+00	2.118935e+10	
39	-1.95000e+00	2.140551e+10	
40	-2.00000e+00	2.161545e+10	
41	-2.05000e+00	2.181943e+10	
42	-2.10000e+00	2.201772e+10	
43	-2.15000e+00	2.221055e+10	
44	-2.20000e+00	2.239814e+10	
45	-2.25000e+00	2.258072e+10	
46	-2.30000e+00	2.275848e+10	
47	-2.35000e+00	2.293161e+10	
48	-2.40000e+00	2.310030e+10	
49	-2.45000e+00	2.326471e+10	
50	-2.50000e+00	2.342500e+10	
51	-2.55000e+00	2.358134e+10	
52	-2.60000e+00	2.373386e+10	
53	-2.65000e+00	2.388270e+10	
54	-2.70000e+00	2.402799e+10	

Index   v-sweep         rds             
--------------------------------------------------------------------------------
55	-2.75000e+00	2.416986e+10	
56	-2.80000e+00	2.430843e+10	
57	-2.85000e+00	2.444381e+10	
58	-2.90000e+00	2.457611e+10	
59	-2.95000e+00	2.470543e+10	
60	-3.00000e+00	2.483187e+10	
61	-3.05000e+00	2.495553e+10	
62	-3.10000e+00	2.507649e+10	
63	-3.15000e+00	2.519485e+10	
64	-3.20000e+00	2.531067e+10	
65	-3.25000e+00	2.542405e+10	
66	-3.30000e+00	2.553505e+10	
67	-3.35000e+00	2.564375e+10	
68	-3.40000e+00	2.575022e+10	
69	-3.45000e+00	2.585452e+10	
70	-3.50000e+00	2.595672e+10	
71	-3.55000e+00	2.605687e+10	
72	-3.60000e+00	2.615504e+10	
73	-3.65000e+00	2.625128e+10	
74	-3.70000e+00	2.634565e+10	
75	-3.75000e+00	2.643819e+10	
76	-3.80000e+00	2.652895e+10	
77	-3.85000e+00	2.661799e+10	
78	-3.90000e+00	2.670535e+10	
79	-3.95000e+00	2.679106e+10	
80	-4.00000e+00	2.687518e+10	
81	-4.05000e+00	2.695774e+10	
82	-4.10000e+00	2.703878e+10	
83	-4.15000e+00	2.711835e+10	
84	-4.20000e+00	2.719646e+10	
85	-4.25000e+00	2.727317e+10	
86	-4.30000e+00	2.734849e+10	
87	-4.35000e+00	2.742247e+10	
88	-4.40000e+00	2.749514e+10	
89	-4.45000e+00	2.756651e+10	
90	-4.50000e+00	2.763663e+10	
91	-4.55000e+00	2.770552e+10	
92	-4.60000e+00	2.777320e+10	
93	-4.65000e+00	2.783970e+10	
94	-4.70000e+00	2.790504e+10	
95	-4.75000e+00	2.796926e+10	
96	-4.80000e+00	2.803236e+10	
97	-4.85000e+00	2.809438e+10	
98	-4.90000e+00	2.815532e+10	
99	-4.95000e+00	2.821522e+10	
100	-5.00000e+00	2.827410e+10	
101	-5.05000e+00	2.833196e+10	
102	-5.10000e+00	2.838883e+10	
103	-5.15000e+00	2.844474e+10	
104	-5.20000e+00	2.849968e+10	
105	-5.25000e+00	2.855368e+10	
106	-5.30000e+00	2.860676e+10	
107	-5.35000e+00	2.865894e+10	
108	-5.40000e+00	2.871022e+10	
109	-5.45000e+00	2.876061e+10	
110	-5.50000e+00	2.881015e+10	
111	-5.55000e+00	2.885883e+10	
112	-5.60000e+00	2.890667e+10	

Index   v-sweep         rds             
--------------------------------------------------------------------------------
113	-5.65000e+00	2.895368e+10	
114	-5.70000e+00	2.899989e+10	
115	-5.75000e+00	2.904528e+10	
116	-5.80000e+00	2.908989e+10	
117	-5.85000e+00	2.913372e+10	
118	-5.90000e+00	2.917678e+10	
119	-5.95000e+00	2.921908e+10	
120	-6.00000e+00	2.926064e+10	
121	-6.05000e+00	2.930146e+10	
122	-6.10000e+00	2.934154e+10	
123	-6.15000e+00	2.938092e+10	
124	-6.20000e+00	2.941958e+10	
125	-6.25000e+00	2.945754e+10	
126	-6.30000e+00	2.949482e+10	
127	-6.35000e+00	2.953141e+10	
128	-6.40000e+00	2.956733e+10	
129	-6.45000e+00	2.960258e+10	
130	-6.50000e+00	2.963717e+10	
131	-6.55000e+00	2.967112e+10	
132	-6.60000e+00	2.970443e+10	
Reset re-loads circuit ***************************

Circuit: ***************************

Doing analysis at TEMP = -40.000000 and TNOM = -40.000000


No. of Data Rows : 133
                          ***************************
                          DC transfer characteristic  Mon Jan  9 13:57:55  2023
--------------------------------------------------------------------------------
Index   v-sweep         rds             
--------------------------------------------------------------------------------
0	0.000000e+00	4.585299e+05	
1	-5.00000e-02	4.923057e+05	
2	-1.00000e-01	5.313769e+05	
3	-1.50000e-01	5.770904e+05	
4	-2.00000e-01	6.312892e+05	
5	-2.50000e-01	6.965618e+05	
6	-3.00000e-01	7.766560e+05	
7	-3.50000e-01	8.771954e+05	
8	-4.00000e-01	1.006984e+06	
9	-4.50000e-01	1.180516e+06	
10	-5.00000e-01	1.423107e+06	
11	-5.50000e-01	1.782015e+06	
12	-6.00000e-01	2.351581e+06	
13	-6.50000e-01	3.328701e+06	
14	-7.00000e-01	5.111189e+06	
15	-7.50000e-01	8.352468e+06	
16	-8.00000e-01	1.366233e+07	
17	-8.50000e-01	2.094058e+07	
18	-9.00000e-01	2.926435e+07	
19	-9.50000e-01	3.760091e+07	
20	-1.00000e+00	4.534722e+07	
21	-1.05000e+00	5.231834e+07	
22	-1.10000e+00	5.854639e+07	
23	-1.15000e+00	6.413512e+07	
24	-1.20000e+00	6.919400e+07	
25	-1.25000e+00	7.381668e+07	
26	-1.30000e+00	7.807770e+07	
27	-1.35000e+00	8.203496e+07	
28	-1.40000e+00	8.573333e+07	
29	-1.45000e+00	8.920782e+07	
30	-1.50000e+00	9.248614e+07	
31	-1.55000e+00	9.559052e+07	
32	-1.60000e+00	9.853910e+07	
33	-1.65000e+00	1.013469e+08	
34	-1.70000e+00	1.040265e+08	
35	-1.75000e+00	1.065886e+08	
36	-1.80000e+00	1.090425e+08	
37	-1.85000e+00	1.113962e+08	
38	-1.90000e+00	1.136567e+08	
39	-1.95000e+00	1.158303e+08	
40	-2.00000e+00	1.179226e+08	
41	-2.05000e+00	1.199386e+08	
42	-2.10000e+00	1.218829e+08	
43	-2.15000e+00	1.237595e+08	
44	-2.20000e+00	1.255722e+08	
45	-2.25000e+00	1.273245e+08	
46	-2.30000e+00	1.290195e+08	
47	-2.35000e+00	1.306602e+08	
48	-2.40000e+00	1.322492e+08	
49	-2.45000e+00	1.337891e+08	
50	-2.50000e+00	1.352823e+08	
51	-2.55000e+00	1.367308e+08	
52	-2.60000e+00	1.381368e+08	
53	-2.65000e+00	1.395021e+08	
54	-2.70000e+00	1.408285e+08	

Index   v-sweep         rds             
--------------------------------------------------------------------------------
55	-2.75000e+00	1.421177e+08	
56	-2.80000e+00	1.433712e+08	
57	-2.85000e+00	1.445907e+08	
58	-2.90000e+00	1.457774e+08	
59	-2.95000e+00	1.469326e+08	
60	-3.00000e+00	1.480577e+08	
61	-3.05000e+00	1.491538e+08	
62	-3.10000e+00	1.502220e+08	
63	-3.15000e+00	1.512634e+08	
64	-3.20000e+00	1.522789e+08	
65	-3.25000e+00	1.532696e+08	
66	-3.30000e+00	1.542364e+08	
67	-3.35000e+00	1.551800e+08	
68	-3.40000e+00	1.561014e+08	
69	-3.45000e+00	1.570013e+08	
70	-3.50000e+00	1.578804e+08	
71	-3.55000e+00	1.587394e+08	
72	-3.60000e+00	1.595791e+08	
73	-3.65000e+00	1.604001e+08	
74	-3.70000e+00	1.612029e+08	
75	-3.75000e+00	1.619883e+08	
76	-3.80000e+00	1.627566e+08	
77	-3.85000e+00	1.635085e+08	
78	-3.90000e+00	1.642446e+08	
79	-3.95000e+00	1.649652e+08	
80	-4.00000e+00	1.656708e+08	
81	-4.05000e+00	1.663619e+08	
82	-4.10000e+00	1.670390e+08	
83	-4.15000e+00	1.677024e+08	
84	-4.20000e+00	1.683526e+08	
85	-4.25000e+00	1.689898e+08	
86	-4.30000e+00	1.696146e+08	
87	-4.35000e+00	1.702272e+08	
88	-4.40000e+00	1.708279e+08	
89	-4.45000e+00	1.714171e+08	
90	-4.50000e+00	1.719952e+08	
91	-4.55000e+00	1.725623e+08	
92	-4.60000e+00	1.731188e+08	
93	-4.65000e+00	1.736649e+08	
94	-4.70000e+00	1.742009e+08	
95	-4.75000e+00	1.747271e+08	
96	-4.80000e+00	1.752437e+08	
97	-4.85000e+00	1.757509e+08	
98	-4.90000e+00	1.762490e+08	
99	-4.95000e+00	1.767382e+08	
100	-5.00000e+00	1.772186e+08	
101	-5.05000e+00	1.776905e+08	
102	-5.10000e+00	1.781541e+08	
103	-5.15000e+00	1.786095e+08	
104	-5.20000e+00	1.790569e+08	
105	-5.25000e+00	1.794965e+08	
106	-5.30000e+00	1.799285e+08	
107	-5.35000e+00	1.803530e+08	
108	-5.40000e+00	1.807702e+08	
109	-5.45000e+00	1.811802e+08	
110	-5.50000e+00	1.815831e+08	
111	-5.55000e+00	1.819791e+08	
112	-5.60000e+00	1.823684e+08	

Index   v-sweep         rds             
--------------------------------------------------------------------------------
113	-5.65000e+00	1.827510e+08	
114	-5.70000e+00	1.831270e+08	
115	-5.75000e+00	1.834966e+08	
116	-5.80000e+00	1.838600e+08	
117	-5.85000e+00	1.842171e+08	
118	-5.90000e+00	1.845681e+08	
119	-5.95000e+00	1.849132e+08	
120	-6.00000e+00	1.852524e+08	
121	-6.05000e+00	1.855858e+08	
122	-6.10000e+00	1.859134e+08	
123	-6.15000e+00	1.862355e+08	
124	-6.20000e+00	1.865521e+08	
125	-6.25000e+00	1.868632e+08	
126	-6.30000e+00	1.871689e+08	
127	-6.35000e+00	1.874694e+08	
128	-6.40000e+00	1.877646e+08	
129	-6.45000e+00	1.880548e+08	
130	-6.50000e+00	1.883399e+08	
131	-6.55000e+00	1.886199e+08	
132	-6.60000e+00	1.888951e+08	
Reset re-loads circuit ***************************

Circuit: ***************************

Doing analysis at TEMP = -40.000000 and TNOM = -40.000000


No. of Data Rows : 133
                          ***************************
                          DC transfer characteristic  Mon Jan  9 13:57:55  2023
--------------------------------------------------------------------------------
Index   v-sweep         rds             
--------------------------------------------------------------------------------
0	0.000000e+00	2.490294e+05	
1	-5.00000e-02	2.581721e+05	
2	-1.00000e-01	2.679970e+05	
3	-1.50000e-01	2.785831e+05	
4	-2.00000e-01	2.900224e+05	
5	-2.50000e-01	3.024224e+05	
6	-3.00000e-01	3.159091e+05	
7	-3.50000e-01	3.306317e+05	
8	-4.00000e-01	3.467681e+05	
9	-4.50000e-01	3.645318e+05	
10	-5.00000e-01	3.841812e+05	
11	-5.50000e-01	4.060326e+05	
12	-6.00000e-01	4.304768e+05	
13	-6.50000e-01	4.580023e+05	
14	-7.00000e-01	4.892275e+05	
15	-7.50000e-01	5.249467e+05	
16	-8.00000e-01	5.661962e+05	
17	-8.50000e-01	6.143523e+05	
18	-9.00000e-01	6.712799e+05	
19	-9.50000e-01	7.395627e+05	
20	-1.00000e+00	8.228707e+05	
21	-1.05000e+00	9.265614e+05	
22	-1.10000e+00	1.058690e+06	
23	-1.15000e+00	1.231732e+06	
24	-1.20000e+00	1.465518e+06	
25	-1.25000e+00	1.792012e+06	
26	-1.30000e+00	2.261969e+06	
27	-1.35000e+00	2.950140e+06	
28	-1.40000e+00	3.947107e+06	
29	-1.45000e+00	5.320065e+06	
30	-1.50000e+00	7.052308e+06	
31	-1.55000e+00	9.023965e+06	
32	-1.60000e+00	1.107073e+07	
33	-1.65000e+00	1.306033e+07	
34	-1.70000e+00	1.492186e+07	
35	-1.75000e+00	1.663341e+07	
36	-1.80000e+00	1.819961e+07	
37	-1.85000e+00	1.963557e+07	
38	-1.90000e+00	2.095845e+07	
39	-1.95000e+00	2.218403e+07	
40	-2.00000e+00	2.332578e+07	
41	-2.05000e+00	2.439475e+07	
42	-2.10000e+00	2.539997e+07	
43	-2.15000e+00	2.634883e+07	
44	-2.20000e+00	2.724737e+07	
45	-2.25000e+00	2.810063e+07	
46	-2.30000e+00	2.891284e+07	
47	-2.35000e+00	2.968758e+07	
48	-2.40000e+00	3.042794e+07	
49	-2.45000e+00	3.113658e+07	
50	-2.50000e+00	3.181584e+07	
51	-2.55000e+00	3.246777e+07	
52	-2.60000e+00	3.309421e+07	
53	-2.65000e+00	3.369680e+07	
54	-2.70000e+00	3.427702e+07	

Index   v-sweep         rds             
--------------------------------------------------------------------------------
55	-2.75000e+00	3.483620e+07	
56	-2.80000e+00	3.537555e+07	
57	-2.85000e+00	3.589620e+07	
58	-2.90000e+00	3.639916e+07	
59	-2.95000e+00	3.688536e+07	
60	-3.00000e+00	3.735568e+07	
61	-3.05000e+00	3.781091e+07	
62	-3.10000e+00	3.825179e+07	
63	-3.15000e+00	3.867902e+07	
64	-3.20000e+00	3.909325e+07	
65	-3.25000e+00	3.949507e+07	
66	-3.30000e+00	3.988505e+07	
67	-3.35000e+00	4.026371e+07	
68	-3.40000e+00	4.063155e+07	
69	-3.45000e+00	4.098904e+07	
70	-3.50000e+00	4.133661e+07	
71	-3.55000e+00	4.167468e+07	
72	-3.60000e+00	4.200363e+07	
73	-3.65000e+00	4.232384e+07	
74	-3.70000e+00	4.263564e+07	
75	-3.75000e+00	4.293937e+07	
76	-3.80000e+00	4.323534e+07	
77	-3.85000e+00	4.352385e+07	
78	-3.90000e+00	4.380517e+07	
79	-3.95000e+00	4.407958e+07	
80	-4.00000e+00	4.434731e+07	
81	-4.05000e+00	4.460862e+07	
82	-4.10000e+00	4.486373e+07	
83	-4.15000e+00	4.511286e+07	
84	-4.20000e+00	4.535621e+07	
85	-4.25000e+00	4.559399e+07	
86	-4.30000e+00	4.582638e+07	
87	-4.35000e+00	4.605356e+07	
88	-4.40000e+00	4.627571e+07	
89	-4.45000e+00	4.649298e+07	
90	-4.50000e+00	4.670554e+07	
91	-4.55000e+00	4.691353e+07	
92	-4.60000e+00	4.711710e+07	
93	-4.65000e+00	4.731638e+07	
94	-4.70000e+00	4.751151e+07	
95	-4.75000e+00	4.770260e+07	
96	-4.80000e+00	4.788979e+07	
97	-4.85000e+00	4.807318e+07	
98	-4.90000e+00	4.825289e+07	
99	-4.95000e+00	4.842902e+07	
100	-5.00000e+00	4.860167e+07	
101	-5.05000e+00	4.877094e+07	
102	-5.10000e+00	4.893692e+07	
103	-5.15000e+00	4.909971e+07	
104	-5.20000e+00	4.925938e+07	
105	-5.25000e+00	4.941602e+07	
106	-5.30000e+00	4.956971e+07	
107	-5.35000e+00	4.972053e+07	
108	-5.40000e+00	4.986854e+07	
109	-5.45000e+00	5.001382e+07	
110	-5.50000e+00	5.015644e+07	
111	-5.55000e+00	5.029645e+07	
112	-5.60000e+00	5.043392e+07	

Index   v-sweep         rds             
--------------------------------------------------------------------------------
113	-5.65000e+00	5.056891e+07	
114	-5.70000e+00	5.070148e+07	
115	-5.75000e+00	5.083169e+07	
116	-5.80000e+00	5.095957e+07	
117	-5.85000e+00	5.108520e+07	
118	-5.90000e+00	5.120860e+07	
119	-5.95000e+00	5.132984e+07	
120	-6.00000e+00	5.144896e+07	
121	-6.05000e+00	5.156600e+07	
122	-6.10000e+00	5.168099e+07	
123	-6.15000e+00	5.179400e+07	
124	-6.20000e+00	5.190504e+07	
125	-6.25000e+00	5.201416e+07	
126	-6.30000e+00	5.212140e+07	
127	-6.35000e+00	5.222679e+07	
128	-6.40000e+00	5.233036e+07	
129	-6.45000e+00	5.243215e+07	
130	-6.50000e+00	5.253219e+07	
131	-6.55000e+00	5.263050e+07	
132	-6.60000e+00	5.272712e+07	
Reset re-loads circuit ***************************

Circuit: ***************************

Doing analysis at TEMP = -40.000000 and TNOM = -40.000000


No. of Data Rows : 133
                          ***************************
                          DC transfer characteristic  Mon Jan  9 13:57:55  2023
--------------------------------------------------------------------------------
Index   v-sweep         rds             
--------------------------------------------------------------------------------
0	0.000000e+00	1.782559e+05	
1	-5.00000e-02	1.826056e+05	
2	-1.00000e-01	1.871668e+05	
3	-1.50000e-01	1.919553e+05	
4	-2.00000e-01	1.969885e+05	
5	-2.50000e-01	2.022857e+05	
6	-3.00000e-01	2.078681e+05	
7	-3.50000e-01	2.137594e+05	
8	-4.00000e-01	2.199860e+05	
9	-4.50000e-01	2.265773e+05	
10	-5.00000e-01	2.335662e+05	
11	-5.50000e-01	2.409900e+05	
12	-6.00000e-01	2.488904e+05	
13	-6.50000e-01	2.573147e+05	
14	-7.00000e-01	2.663168e+05	
15	-7.50000e-01	2.759582e+05	
16	-8.00000e-01	2.863095e+05	
17	-8.50000e-01	2.974517e+05	
18	-9.00000e-01	3.094790e+05	
19	-9.50000e-01	3.225010e+05	
20	-1.00000e+00	3.366460e+05	
21	-1.05000e+00	3.520653e+05	
22	-1.10000e+00	3.689387e+05	
23	-1.15000e+00	3.874811e+05	
24	-1.20000e+00	4.079515e+05	
25	-1.25000e+00	4.306652e+05	
26	-1.30000e+00	4.560094e+05	
27	-1.35000e+00	4.844646e+05	
28	-1.40000e+00	5.166340e+05	
29	-1.45000e+00	5.532845e+05	
30	-1.50000e+00	5.954040e+05	
31	-1.55000e+00	6.442847e+05	
32	-1.60000e+00	7.016430e+05	
33	-1.65000e+00	7.697981e+05	
34	-1.70000e+00	8.519369e+05	
35	-1.75000e+00	9.525117e+05	
36	-1.80000e+00	1.077828e+06	
37	-1.85000e+00	1.236882e+06	
38	-1.90000e+00	1.442430e+06	
39	-1.95000e+00	1.712003e+06	
40	-2.00000e+00	2.067878e+06	
41	-2.05000e+00	2.533918e+06	
42	-2.10000e+00	3.127102e+06	
43	-2.15000e+00	3.845429e+06	
44	-2.20000e+00	4.661226e+06	
45	-2.25000e+00	5.528664e+06	
46	-2.30000e+00	6.401041e+06	
47	-2.35000e+00	7.244273e+06	
48	-2.40000e+00	8.040069e+06	
49	-2.45000e+00	8.782243e+06	
50	-2.50000e+00	9.471625e+06	
51	-2.55000e+00	1.011224e+07	
52	-2.60000e+00	1.070909e+07	
53	-2.65000e+00	1.126711e+07	
54	-2.70000e+00	1.179073e+07	

Index   v-sweep         rds             
--------------------------------------------------------------------------------
55	-2.75000e+00	1.228380e+07	
56	-2.80000e+00	1.274956e+07	
57	-2.85000e+00	1.319078e+07	
58	-2.90000e+00	1.360980e+07	
59	-2.95000e+00	1.400861e+07	
60	-3.00000e+00	1.438893e+07	
61	-3.05000e+00	1.475225e+07	
62	-3.10000e+00	1.509986e+07	
63	-3.15000e+00	1.543291e+07	
64	-3.20000e+00	1.575240e+07	
65	-3.25000e+00	1.605925e+07	
66	-3.30000e+00	1.635427e+07	
67	-3.35000e+00	1.663818e+07	
68	-3.40000e+00	1.691166e+07	
69	-3.45000e+00	1.717530e+07	
70	-3.50000e+00	1.742967e+07	
71	-3.55000e+00	1.767526e+07	
72	-3.60000e+00	1.791255e+07	
73	-3.65000e+00	1.814196e+07	
74	-3.70000e+00	1.836391e+07	
75	-3.75000e+00	1.857876e+07	
76	-3.80000e+00	1.878685e+07	
77	-3.85000e+00	1.898851e+07	
78	-3.90000e+00	1.918403e+07	
79	-3.95000e+00	1.937371e+07	
80	-4.00000e+00	1.955780e+07	
81	-4.05000e+00	1.973655e+07	
82	-4.10000e+00	1.991019e+07	
83	-4.15000e+00	2.007894e+07	
84	-4.20000e+00	2.024301e+07	
85	-4.25000e+00	2.040259e+07	
86	-4.30000e+00	2.055787e+07	
87	-4.35000e+00	2.070901e+07	
88	-4.40000e+00	2.085618e+07	
89	-4.45000e+00	2.099953e+07	
90	-4.50000e+00	2.113922e+07	
91	-4.55000e+00	2.127538e+07	
92	-4.60000e+00	2.140814e+07	
93	-4.65000e+00	2.153763e+07	
94	-4.70000e+00	2.166397e+07	
95	-4.75000e+00	2.178727e+07	
96	-4.80000e+00	2.190764e+07	
97	-4.85000e+00	2.202519e+07	
98	-4.90000e+00	2.214000e+07	
99	-4.95000e+00	2.225218e+07	
100	-5.00000e+00	2.236181e+07	
101	-5.05000e+00	2.246898e+07	
102	-5.10000e+00	2.257377e+07	
103	-5.15000e+00	2.267625e+07	
104	-5.20000e+00	2.277650e+07	
105	-5.25000e+00	2.287460e+07	
106	-5.30000e+00	2.297060e+07	
107	-5.35000e+00	2.306458e+07	
108	-5.40000e+00	2.315660e+07	
109	-5.45000e+00	2.324670e+07	
110	-5.50000e+00	2.333497e+07	
111	-5.55000e+00	2.342143e+07	
112	-5.60000e+00	2.350616e+07	

Index   v-sweep         rds             
--------------------------------------------------------------------------------
113	-5.65000e+00	2.358919e+07	
114	-5.70000e+00	2.367058e+07	
115	-5.75000e+00	2.375037e+07	
116	-5.80000e+00	2.382861e+07	
117	-5.85000e+00	2.390533e+07	
118	-5.90000e+00	2.398058e+07	
119	-5.95000e+00	2.405440e+07	
120	-6.00000e+00	2.412683e+07	
121	-6.05000e+00	2.419789e+07	
122	-6.10000e+00	2.426763e+07	
123	-6.15000e+00	2.433608e+07	
124	-6.20000e+00	2.440327e+07	
125	-6.25000e+00	2.446923e+07	
126	-6.30000e+00	2.453398e+07	
127	-6.35000e+00	2.459757e+07	
128	-6.40000e+00	2.466000e+07	
129	-6.45000e+00	2.472132e+07	
130	-6.50000e+00	2.478154e+07	
131	-6.55000e+00	2.484070e+07	
132	-6.60000e+00	2.489880e+07	
Reset re-loads circuit ***************************

Circuit: ***************************

Doing analysis at TEMP = -40.000000 and TNOM = -40.000000


No. of Data Rows : 133
                          ***************************
                          DC transfer characteristic  Mon Jan  9 13:57:55  2023
--------------------------------------------------------------------------------
Index   v-sweep         rds             
--------------------------------------------------------------------------------
0	0.000000e+00	1.428028e+05	
1	-5.00000e-02	1.454055e+05	
2	-1.00000e-01	1.481016e+05	
3	-1.50000e-01	1.508962e+05	
4	-2.00000e-01	1.537948e+05	
5	-2.50000e-01	1.568033e+05	
6	-3.00000e-01	1.599281e+05	
7	-3.50000e-01	1.631759e+05	
8	-4.00000e-01	1.665544e+05	
9	-4.50000e-01	1.700714e+05	
10	-5.00000e-01	1.737357e+05	
11	-5.50000e-01	1.775567e+05	
12	-6.00000e-01	1.815447e+05	
13	-6.50000e-01	1.857109e+05	
14	-7.00000e-01	1.900675e+05	
15	-7.50000e-01	1.946278e+05	
16	-8.00000e-01	1.994065e+05	
17	-8.50000e-01	2.044196e+05	
18	-9.00000e-01	2.096847e+05	
19	-9.50000e-01	2.152215e+05	
20	-1.00000e+00	2.210513e+05	
21	-1.05000e+00	2.271981e+05	
22	-1.10000e+00	2.336885e+05	
23	-1.15000e+00	2.405520e+05	
24	-1.20000e+00	2.478217e+05	
25	-1.25000e+00	2.555347e+05	
26	-1.30000e+00	2.637327e+05	
27	-1.35000e+00	2.724630e+05	
28	-1.40000e+00	2.817789e+05	
29	-1.45000e+00	2.917412e+05	
30	-1.50000e+00	3.024196e+05	
31	-1.55000e+00	3.138937e+05	
32	-1.60000e+00	3.262557e+05	
33	-1.65000e+00	3.396123e+05	
34	-1.70000e+00	3.540879e+05	
35	-1.75000e+00	3.698286e+05	
36	-1.80000e+00	3.870065e+05	
37	-1.85000e+00	4.058264e+05	
38	-1.90000e+00	4.265331e+05	
39	-1.95000e+00	4.494223e+05	
40	-2.00000e+00	4.748534e+05	
41	-2.05000e+00	5.032674e+05	
42	-2.10000e+00	5.352111e+05	
43	-2.15000e+00	5.713688e+05	
44	-2.20000e+00	6.126066e+05	
45	-2.25000e+00	6.600320e+05	
46	-2.30000e+00	7.150782e+05	
47	-2.35000e+00	7.796180e+05	
48	-2.40000e+00	8.561208e+05	
49	-2.45000e+00	9.478599e+05	
50	-2.50000e+00	1.059170e+06	
51	-2.55000e+00	1.195719e+06	
52	-2.60000e+00	1.364684e+06	
53	-2.65000e+00	1.574553e+06	
54	-2.70000e+00	1.834107e+06	

Index   v-sweep         rds             
--------------------------------------------------------------------------------
55	-2.75000e+00	2.150086e+06	
56	-2.80000e+00	2.523763e+06	
57	-2.85000e+00	2.948064e+06	
58	-2.90000e+00	3.407757e+06	
59	-2.95000e+00	3.883510e+06	
60	-3.00000e+00	4.357352e+06	
61	-3.05000e+00	4.816280e+06	
62	-3.10000e+00	5.252934e+06	
63	-3.15000e+00	5.664394e+06	
64	-3.20000e+00	6.050524e+06	
65	-3.25000e+00	6.412636e+06	
66	-3.30000e+00	6.752634e+06	
67	-3.35000e+00	7.072543e+06	
68	-3.40000e+00	7.374291e+06	
69	-3.45000e+00	7.659620e+06	
70	-3.50000e+00	7.930063e+06	
71	-3.55000e+00	8.186961e+06	
72	-3.60000e+00	8.431479e+06	
73	-3.65000e+00	8.664634e+06	
74	-3.70000e+00	8.887317e+06	
75	-3.75000e+00	9.100313e+06	
76	-3.80000e+00	9.304317e+06	
77	-3.85000e+00	9.499948e+06	
78	-3.90000e+00	9.687760e+06	
79	-3.95000e+00	9.868252e+06	
80	-4.00000e+00	1.004188e+07	
81	-4.05000e+00	1.020905e+07	
82	-4.10000e+00	1.037013e+07	
83	-4.15000e+00	1.052548e+07	
84	-4.20000e+00	1.067540e+07	
85	-4.25000e+00	1.082020e+07	
86	-4.30000e+00	1.096012e+07	
87	-4.35000e+00	1.109543e+07	
88	-4.40000e+00	1.122636e+07	
89	-4.45000e+00	1.135311e+07	
90	-4.50000e+00	1.147590e+07	
91	-4.55000e+00	1.159490e+07	
92	-4.60000e+00	1.171030e+07	
93	-4.65000e+00	1.182225e+07	
94	-4.70000e+00	1.193091e+07	
95	-4.75000e+00	1.203642e+07	
96	-4.80000e+00	1.213893e+07	
97	-4.85000e+00	1.223855e+07	
98	-4.90000e+00	1.233541e+07	
99	-4.95000e+00	1.242962e+07	
100	-5.00000e+00	1.252130e+07	
101	-5.05000e+00	1.261053e+07	
102	-5.10000e+00	1.269742e+07	
103	-5.15000e+00	1.278206e+07	
104	-5.20000e+00	1.286454e+07	
105	-5.25000e+00	1.294493e+07	
106	-5.30000e+00	1.302331e+07	
107	-5.35000e+00	1.309977e+07	
108	-5.40000e+00	1.317436e+07	
109	-5.45000e+00	1.324716e+07	
110	-5.50000e+00	1.331823e+07	
111	-5.55000e+00	1.338763e+07	
112	-5.60000e+00	1.345542e+07	

Index   v-sweep         rds             
--------------------------------------------------------------------------------
113	-5.65000e+00	1.352164e+07	
114	-5.70000e+00	1.358637e+07	
115	-5.75000e+00	1.364964e+07	
116	-5.80000e+00	1.371150e+07	
117	-5.85000e+00	1.377200e+07	
118	-5.90000e+00	1.383119e+07	
119	-5.95000e+00	1.388909e+07	
120	-6.00000e+00	1.394577e+07	
121	-6.05000e+00	1.400124e+07	
122	-6.10000e+00	1.405556e+07	
123	-6.15000e+00	1.410875e+07	
124	-6.20000e+00	1.416084e+07	
125	-6.25000e+00	1.421188e+07	
126	-6.30000e+00	1.426189e+07	
127	-6.35000e+00	1.431090e+07	
128	-6.40000e+00	1.435893e+07	
129	-6.45000e+00	1.440602e+07	
130	-6.50000e+00	1.445220e+07	
131	-6.55000e+00	1.449747e+07	
132	-6.60000e+00	1.454188e+07	
Reset re-loads circuit ***************************

Circuit: ***************************

Doing analysis at TEMP = -40.000000 and TNOM = -40.000000


No. of Data Rows : 133
                          ***************************
                          DC transfer characteristic  Mon Jan  9 13:57:55  2023
--------------------------------------------------------------------------------
Index   v-sweep         rds             
--------------------------------------------------------------------------------
0	0.000000e+00	1.215672e+05	
1	-5.00000e-02	1.233306e+05	
2	-1.00000e-01	1.251438e+05	
3	-1.50000e-01	1.270090e+05	
4	-2.00000e-01	1.289286e+05	
5	-2.50000e-01	1.309049e+05	
6	-3.00000e-01	1.329405e+05	
7	-3.50000e-01	1.350381e+05	
8	-4.00000e-01	1.372005e+05	
9	-4.50000e-01	1.394309e+05	
10	-5.00000e-01	1.417324e+05	
11	-5.50000e-01	1.441085e+05	
12	-6.00000e-01	1.465629e+05	
13	-6.50000e-01	1.490996e+05	
14	-7.00000e-01	1.517227e+05	
15	-7.50000e-01	1.544368e+05	
16	-8.00000e-01	1.572466e+05	
17	-8.50000e-01	1.601573e+05	
18	-9.00000e-01	1.631744e+05	
19	-9.50000e-01	1.663039e+05	
20	-1.00000e+00	1.695522e+05	
21	-1.05000e+00	1.729261e+05	
22	-1.10000e+00	1.764331e+05	
23	-1.15000e+00	1.800813e+05	
24	-1.20000e+00	1.838792e+05	
25	-1.25000e+00	1.878364e+05	
26	-1.30000e+00	1.919629e+05	
27	-1.35000e+00	1.962700e+05	
28	-1.40000e+00	2.007698e+05	
29	-1.45000e+00	2.054753e+05	
30	-1.50000e+00	2.104012e+05	
31	-1.55000e+00	2.155632e+05	
32	-1.60000e+00	2.209786e+05	
33	-1.65000e+00	2.266666e+05	
34	-1.70000e+00	2.326482e+05	
35	-1.75000e+00	2.389468e+05	
36	-1.80000e+00	2.455882e+05	
37	-1.85000e+00	2.526011e+05	
38	-1.90000e+00	2.600174e+05	
39	-1.95000e+00	2.678730e+05	
40	-2.00000e+00	2.762079e+05	
41	-2.05000e+00	2.850672e+05	
42	-2.10000e+00	2.945020e+05	
43	-2.15000e+00	3.045697e+05	
44	-2.20000e+00	3.153362e+05	
45	-2.25000e+00	3.268764e+05	
46	-2.30000e+00	3.392762e+05	
47	-2.35000e+00	3.526348e+05	
48	-2.40000e+00	3.670670e+05	
49	-2.45000e+00	3.827064e+05	
50	-2.50000e+00	3.997096e+05	
51	-2.55000e+00	4.182608e+05	
52	-2.60000e+00	4.385784e+05	
53	-2.65000e+00	4.609230e+05	
54	-2.70000e+00	4.856076e+05	

Index   v-sweep         rds             
--------------------------------------------------------------------------------
55	-2.75000e+00	5.130109e+05	
56	-2.80000e+00	5.435946e+05	
57	-2.85000e+00	5.779260e+05	
58	-2.90000e+00	6.167075e+05	
59	-2.95000e+00	6.608148e+05	
60	-3.00000e+00	7.113469e+05	
61	-3.05000e+00	7.696893e+05	
62	-3.10000e+00	8.375908e+05	
63	-3.15000e+00	9.172510e+05	
64	-3.20000e+00	1.011401e+06	
65	-3.25000e+00	1.123342e+06	
66	-3.30000e+00	1.256863e+06	
67	-3.35000e+00	1.415915e+06	
68	-3.40000e+00	1.603904e+06	
69	-3.45000e+00	1.822562e+06	
70	-3.50000e+00	2.070688e+06	
71	-3.55000e+00	2.343431e+06	
72	-3.60000e+00	2.632809e+06	
73	-3.65000e+00	2.929474e+06	
74	-3.70000e+00	3.224804e+06	
75	-3.75000e+00	3.512315e+06	
76	-3.80000e+00	3.788012e+06	
77	-3.85000e+00	4.049991e+06	
78	-3.90000e+00	4.297788e+06	
79	-3.95000e+00	4.531778e+06	
80	-4.00000e+00	4.752758e+06	
81	-4.05000e+00	4.961682e+06	
82	-4.10000e+00	5.159523e+06	
83	-4.15000e+00	5.347202e+06	
84	-4.20000e+00	5.525562e+06	
85	-4.25000e+00	5.695357e+06	
86	-4.30000e+00	5.857263e+06	
87	-4.35000e+00	6.011879e+06	
88	-4.40000e+00	6.159737e+06	
89	-4.45000e+00	6.301314e+06	
90	-4.50000e+00	6.437038e+06	
91	-4.55000e+00	6.567291e+06	
92	-4.60000e+00	6.692422e+06	
93	-4.65000e+00	6.812746e+06	
94	-4.70000e+00	6.928549e+06	
95	-4.75000e+00	7.040093e+06	
96	-4.80000e+00	7.147619e+06	
97	-4.85000e+00	7.251348e+06	
98	-4.90000e+00	7.351485e+06	
99	-4.95000e+00	7.448217e+06	
100	-5.00000e+00	7.541720e+06	
101	-5.05000e+00	7.632155e+06	
102	-5.10000e+00	7.719675e+06	
103	-5.15000e+00	7.804420e+06	
104	-5.20000e+00	7.886522e+06	
105	-5.25000e+00	7.966103e+06	
106	-5.30000e+00	8.043280e+06	
107	-5.35000e+00	8.118160e+06	
108	-5.40000e+00	8.190844e+06	
109	-5.45000e+00	8.261430e+06	
110	-5.50000e+00	8.330005e+06	
111	-5.55000e+00	8.396657e+06	
112	-5.60000e+00	8.461463e+06	

Index   v-sweep         rds             
--------------------------------------------------------------------------------
113	-5.65000e+00	8.524500e+06	
114	-5.70000e+00	8.585840e+06	
115	-5.75000e+00	8.645550e+06	
116	-5.80000e+00	8.703693e+06	
117	-5.85000e+00	8.760331e+06	
118	-5.90000e+00	8.815522e+06	
119	-5.95000e+00	8.869319e+06	
120	-6.00000e+00	8.921774e+06	
121	-6.05000e+00	8.972938e+06	
122	-6.10000e+00	9.022856e+06	
123	-6.15000e+00	9.071573e+06	
124	-6.20000e+00	9.119132e+06	
125	-6.25000e+00	9.165574e+06	
126	-6.30000e+00	9.210937e+06	
127	-6.35000e+00	9.255257e+06	
128	-6.40000e+00	9.298570e+06	
129	-6.45000e+00	9.340909e+06	
130	-6.50000e+00	9.382306e+06	
131	-6.55000e+00	9.422793e+06	
132	-6.60000e+00	9.462397e+06	
Reset re-loads circuit ***************************

Circuit: ***************************

Note: No ".plot", ".print", or ".fourier" lines; no simulations run
