
Note: Compatibility modes selected: hs

Warning: m=xx on .subckt line will override multiplier m hierarchy!


Circuit: ***************************

Doing analysis at TEMP = 25.000000 and TNOM = 25.000000


No. of Data Rows : 133
                          ***************************
                          DC transfer characteristic  Mon Jan  9 13:57:54  2023
--------------------------------------------------------------------------------
Index   v-sweep         rds             
--------------------------------------------------------------------------------
0	0.000000e+00	1.185870e+04	
1	-5.00000e-02	1.759036e+04	
2	-1.00000e-01	3.187800e+04	
3	-1.50000e-01	8.043916e+04	
4	-2.00000e-01	2.163886e+05	
5	-2.50000e-01	3.820337e+05	
6	-3.00000e-01	4.938410e+05	
7	-3.50000e-01	5.635557e+05	
8	-4.00000e-01	6.122287e+05	
9	-4.50000e-01	6.501073e+05	
10	-5.00000e-01	6.817105e+05	
11	-5.50000e-01	7.091747e+05	
12	-6.00000e-01	7.336200e+05	
13	-6.50000e-01	7.556976e+05	
14	-7.00000e-01	7.758236e+05	
15	-7.50000e-01	7.942864e+05	
16	-8.00000e-01	8.112990e+05	
17	-8.50000e-01	8.270270e+05	
18	-9.00000e-01	8.416043e+05	
19	-9.50000e-01	8.551422e+05	
20	-1.00000e+00	8.677354e+05	
21	-1.05000e+00	8.794657e+05	
22	-1.10000e+00	8.904046e+05	
23	-1.15000e+00	9.006152e+05	
24	-1.20000e+00	9.101539e+05	
25	-1.25000e+00	9.190710e+05	
26	-1.30000e+00	9.274120e+05	
27	-1.35000e+00	9.352177e+05	
28	-1.40000e+00	9.425255e+05	
29	-1.45000e+00	9.493692e+05	
30	-1.50000e+00	9.557797e+05	
31	-1.55000e+00	9.617853e+05	
32	-1.60000e+00	9.674120e+05	
33	-1.65000e+00	9.726835e+05	
34	-1.70000e+00	9.776220e+05	
35	-1.75000e+00	9.822476e+05	
36	-1.80000e+00	9.865790e+05	
37	-1.85000e+00	9.906336e+05	
38	-1.90000e+00	9.944275e+05	
39	-1.95000e+00	9.979755e+05	
40	-2.00000e+00	1.001292e+06	
41	-2.05000e+00	1.004388e+06	
42	-2.10000e+00	1.007278e+06	
43	-2.15000e+00	1.009972e+06	
44	-2.20000e+00	1.012481e+06	
45	-2.25000e+00	1.014813e+06	
46	-2.30000e+00	1.016980e+06	
47	-2.35000e+00	1.018988e+06	
48	-2.40000e+00	1.020846e+06	
49	-2.45000e+00	1.022562e+06	
50	-2.50000e+00	1.024143e+06	
51	-2.55000e+00	1.025595e+06	
52	-2.60000e+00	1.026924e+06	
53	-2.65000e+00	1.028137e+06	
54	-2.70000e+00	1.029239e+06	

Index   v-sweep         rds             
--------------------------------------------------------------------------------
55	-2.75000e+00	1.030236e+06	
56	-2.80000e+00	1.031131e+06	
57	-2.85000e+00	1.031931e+06	
58	-2.90000e+00	1.032639e+06	
59	-2.95000e+00	1.033259e+06	
60	-3.00000e+00	1.033795e+06	
61	-3.05000e+00	1.034252e+06	
62	-3.10000e+00	1.034632e+06	
63	-3.15000e+00	1.034940e+06	
64	-3.20000e+00	1.035177e+06	
65	-3.25000e+00	1.035348e+06	
66	-3.30000e+00	1.035455e+06	
67	-3.35000e+00	1.035500e+06	
68	-3.40000e+00	1.035487e+06	
69	-3.45000e+00	1.035417e+06	
70	-3.50000e+00	1.035294e+06	
71	-3.55000e+00	1.035119e+06	
72	-3.60000e+00	1.034894e+06	
73	-3.65000e+00	1.034622e+06	
74	-3.70000e+00	1.034304e+06	
75	-3.75000e+00	1.033942e+06	
76	-3.80000e+00	1.033538e+06	
77	-3.85000e+00	1.033093e+06	
78	-3.90000e+00	1.032609e+06	
79	-3.95000e+00	1.032088e+06	
80	-4.00000e+00	1.031531e+06	
81	-4.05000e+00	1.030938e+06	
82	-4.10000e+00	1.030313e+06	
83	-4.15000e+00	1.029655e+06	
84	-4.20000e+00	1.028966e+06	
85	-4.25000e+00	1.028248e+06	
86	-4.30000e+00	1.027500e+06	
87	-4.35000e+00	1.026724e+06	
88	-4.40000e+00	1.025922e+06	
89	-4.45000e+00	1.025093e+06	
90	-4.50000e+00	1.024240e+06	
91	-4.55000e+00	1.023362e+06	
92	-4.60000e+00	1.022461e+06	
93	-4.65000e+00	1.021537e+06	
94	-4.70000e+00	1.020591e+06	
95	-4.75000e+00	1.019624e+06	
96	-4.80000e+00	1.018636e+06	
97	-4.85000e+00	1.017628e+06	
98	-4.90000e+00	1.016601e+06	
99	-4.95000e+00	1.015556e+06	
100	-5.00000e+00	1.014492e+06	
101	-5.05000e+00	1.013410e+06	
102	-5.10000e+00	1.012311e+06	
103	-5.15000e+00	1.011196e+06	
104	-5.20000e+00	1.010064e+06	
105	-5.25000e+00	1.008917e+06	
106	-5.30000e+00	1.007754e+06	
107	-5.35000e+00	1.006577e+06	
108	-5.40000e+00	1.005384e+06	
109	-5.45000e+00	1.004178e+06	
110	-5.50000e+00	1.002958e+06	
111	-5.55000e+00	1.001725e+06	
112	-5.60000e+00	1.000478e+06	

Index   v-sweep         rds             
--------------------------------------------------------------------------------
113	-5.65000e+00	9.992191e+05	
114	-5.70000e+00	9.979474e+05	
115	-5.75000e+00	9.966636e+05	
116	-5.80000e+00	9.953679e+05	
117	-5.85000e+00	9.940606e+05	
118	-5.90000e+00	9.927420e+05	
119	-5.95000e+00	9.914123e+05	
120	-6.00000e+00	9.900718e+05	
121	-6.05000e+00	9.887207e+05	
122	-6.10000e+00	9.873593e+05	
123	-6.15000e+00	9.859878e+05	
124	-6.20000e+00	9.846064e+05	
125	-6.25000e+00	9.832152e+05	
126	-6.30000e+00	9.818146e+05	
127	-6.35000e+00	9.804047e+05	
128	-6.40000e+00	9.789856e+05	
129	-6.45000e+00	9.775576e+05	
130	-6.50000e+00	9.761209e+05	
131	-6.55000e+00	9.746757e+05	
132	-6.60000e+00	9.732220e+05	
Reset re-loads circuit ***************************

Circuit: ***************************

Doing analysis at TEMP = 25.000000 and TNOM = 25.000000


No. of Data Rows : 133
                          ***************************
                          DC transfer characteristic  Mon Jan  9 13:57:54  2023
--------------------------------------------------------------------------------
Index   v-sweep         rds             
--------------------------------------------------------------------------------
0	0.000000e+00	1.738455e+03	
1	-5.00000e-02	1.850033e+03	
2	-1.00000e-01	1.975016e+03	
3	-1.50000e-01	2.115964e+03	
4	-2.00000e-01	2.276129e+03	
5	-2.50000e-01	2.459703e+03	
6	-3.00000e-01	2.672186e+03	
7	-3.50000e-01	2.920924e+03	
8	-4.00000e-01	3.215943e+03	
9	-4.50000e-01	3.571249e+03	
10	-5.00000e-01	4.006934e+03	
11	-5.50000e-01	4.552631e+03	
12	-6.00000e-01	5.253268e+03	
13	-6.50000e-01	6.178375e+03	
14	-7.00000e-01	7.435200e+03	
15	-7.50000e-01	9.178024e+03	
16	-8.00000e-01	1.157826e+04	
17	-8.50000e-01	1.468999e+04	
18	-9.00000e-01	1.827727e+04	
19	-9.50000e-01	2.192035e+04	
20	-1.00000e+00	2.533965e+04	
21	-1.05000e+00	2.847684e+04	
22	-1.10000e+00	3.137476e+04	
23	-1.15000e+00	3.408892e+04	
24	-1.20000e+00	3.666165e+04	
25	-1.25000e+00	3.912135e+04	
26	-1.30000e+00	4.148668e+04	
27	-1.35000e+00	4.377013e+04	
28	-1.40000e+00	4.598038e+04	
29	-1.45000e+00	4.812375e+04	
30	-1.50000e+00	5.020504e+04	
31	-1.55000e+00	5.222806e+04	
32	-1.60000e+00	5.419598e+04	
33	-1.65000e+00	5.611148e+04	
34	-1.70000e+00	5.797689e+04	
35	-1.75000e+00	5.979433e+04	
36	-1.80000e+00	6.156568e+04	
37	-1.85000e+00	6.329269e+04	
38	-1.90000e+00	6.497700e+04	
39	-1.95000e+00	6.662010e+04	
40	-2.00000e+00	6.822342e+04	
41	-2.05000e+00	6.978831e+04	
42	-2.10000e+00	7.131605e+04	
43	-2.15000e+00	7.280783e+04	
44	-2.20000e+00	7.426483e+04	
45	-2.25000e+00	7.568813e+04	
46	-2.30000e+00	7.707879e+04	
47	-2.35000e+00	7.843781e+04	
48	-2.40000e+00	7.976617e+04	
49	-2.45000e+00	8.106479e+04	
50	-2.50000e+00	8.233455e+04	
51	-2.55000e+00	8.357631e+04	
52	-2.60000e+00	8.479089e+04	
53	-2.65000e+00	8.597908e+04	
54	-2.70000e+00	8.714163e+04	

Index   v-sweep         rds             
--------------------------------------------------------------------------------
55	-2.75000e+00	8.827929e+04	
56	-2.80000e+00	8.939274e+04	
57	-2.85000e+00	9.048267e+04	
58	-2.90000e+00	9.154973e+04	
59	-2.95000e+00	9.259455e+04	
60	-3.00000e+00	9.361774e+04	
61	-3.05000e+00	9.461988e+04	
62	-3.10000e+00	9.560155e+04	
63	-3.15000e+00	9.656328e+04	
64	-3.20000e+00	9.750560e+04	
65	-3.25000e+00	9.842902e+04	
66	-3.30000e+00	9.933404e+04	
67	-3.35000e+00	1.002211e+05	
68	-3.40000e+00	1.010907e+05	
69	-3.45000e+00	1.019433e+05	
70	-3.50000e+00	1.027793e+05	
71	-3.55000e+00	1.035991e+05	
72	-3.60000e+00	1.044031e+05	
73	-3.65000e+00	1.051917e+05	
74	-3.70000e+00	1.059653e+05	
75	-3.75000e+00	1.067242e+05	
76	-3.80000e+00	1.074688e+05	
77	-3.85000e+00	1.081995e+05	
78	-3.90000e+00	1.089165e+05	
79	-3.95000e+00	1.096201e+05	
80	-4.00000e+00	1.103108e+05	
81	-4.05000e+00	1.109887e+05	
82	-4.10000e+00	1.116542e+05	
83	-4.15000e+00	1.123074e+05	
84	-4.20000e+00	1.129488e+05	
85	-4.25000e+00	1.135786e+05	
86	-4.30000e+00	1.141969e+05	
87	-4.35000e+00	1.148040e+05	
88	-4.40000e+00	1.154003e+05	
89	-4.45000e+00	1.159858e+05	
90	-4.50000e+00	1.165608e+05	
91	-4.55000e+00	1.171255e+05	
92	-4.60000e+00	1.176801e+05	
93	-4.65000e+00	1.182249e+05	
94	-4.70000e+00	1.187598e+05	
95	-4.75000e+00	1.192853e+05	
96	-4.80000e+00	1.198013e+05	
97	-4.85000e+00	1.203082e+05	
98	-4.90000e+00	1.208060e+05	
99	-4.95000e+00	1.212948e+05	
100	-5.00000e+00	1.217749e+05	
101	-5.05000e+00	1.222464e+05	
102	-5.10000e+00	1.227094e+05	
103	-5.15000e+00	1.231640e+05	
104	-5.20000e+00	1.236103e+05	
105	-5.25000e+00	1.240485e+05	
106	-5.30000e+00	1.244787e+05	
107	-5.35000e+00	1.249010e+05	
108	-5.40000e+00	1.253154e+05	
109	-5.45000e+00	1.257221e+05	
110	-5.50000e+00	1.261212e+05	
111	-5.55000e+00	1.265128e+05	
112	-5.60000e+00	1.268969e+05	

Index   v-sweep         rds             
--------------------------------------------------------------------------------
113	-5.65000e+00	1.272736e+05	
114	-5.70000e+00	1.276431e+05	
115	-5.75000e+00	1.280053e+05	
116	-5.80000e+00	1.283604e+05	
117	-5.85000e+00	1.287084e+05	
118	-5.90000e+00	1.290493e+05	
119	-5.95000e+00	1.293833e+05	
120	-6.00000e+00	1.297105e+05	
121	-6.05000e+00	1.300308e+05	
122	-6.10000e+00	1.303443e+05	
123	-6.15000e+00	1.306510e+05	
124	-6.20000e+00	1.309512e+05	
125	-6.25000e+00	1.312446e+05	
126	-6.30000e+00	1.315315e+05	
127	-6.35000e+00	1.318119e+05	
128	-6.40000e+00	1.320858e+05	
129	-6.45000e+00	1.323532e+05	
130	-6.50000e+00	1.326142e+05	
131	-6.55000e+00	1.328688e+05	
132	-6.60000e+00	1.331172e+05	
Reset re-loads circuit ***************************

Circuit: ***************************

Doing analysis at TEMP = 25.000000 and TNOM = 25.000000


No. of Data Rows : 133
                          ***************************
                          DC transfer characteristic  Mon Jan  9 13:57:54  2023
--------------------------------------------------------------------------------
Index   v-sweep         rds             
--------------------------------------------------------------------------------
0	0.000000e+00	1.071234e+03	
1	-5.00000e-02	1.111171e+03	
2	-1.00000e-01	1.153655e+03	
3	-1.50000e-01	1.198938e+03	
4	-2.00000e-01	1.247303e+03	
5	-2.50000e-01	1.299075e+03	
6	-3.00000e-01	1.354626e+03	
7	-3.50000e-01	1.414381e+03	
8	-4.00000e-01	1.478836e+03	
9	-4.50000e-01	1.548563e+03	
10	-5.00000e-01	1.624236e+03	
11	-5.50000e-01	1.706643e+03	
12	-6.00000e-01	1.796720e+03	
13	-6.50000e-01	1.895583e+03	
14	-7.00000e-01	2.004574e+03	
15	-7.50000e-01	2.125321e+03	
16	-8.00000e-01	2.259814e+03	
17	-8.50000e-01	2.410512e+03	
18	-9.00000e-01	2.580488e+03	
19	-9.50000e-01	2.773615e+03	
20	-1.00000e+00	2.994839e+03	
21	-1.05000e+00	3.250538e+03	
22	-1.10000e+00	3.549011e+03	
23	-1.15000e+00	3.901112e+03	
24	-1.20000e+00	4.320965e+03	
25	-1.25000e+00	4.826522e+03	
26	-1.30000e+00	5.439162e+03	
27	-1.35000e+00	6.180645e+03	
28	-1.40000e+00	7.065285e+03	
29	-1.45000e+00	8.088408e+03	
30	-1.50000e+00	9.220482e+03	
31	-1.55000e+00	1.041711e+04	
32	-1.60000e+00	1.163767e+04	
33	-1.65000e+00	1.285559e+04	
34	-1.70000e+00	1.405716e+04	
35	-1.75000e+00	1.523648e+04	
36	-1.80000e+00	1.639142e+04	
37	-1.85000e+00	1.752155e+04	
38	-1.90000e+00	1.862710e+04	
39	-1.95000e+00	1.970861e+04	
40	-2.00000e+00	2.076667e+04	
41	-2.05000e+00	2.180192e+04	
42	-2.10000e+00	2.281501e+04	
43	-2.15000e+00	2.380655e+04	
44	-2.20000e+00	2.477714e+04	
45	-2.25000e+00	2.572737e+04	
46	-2.30000e+00	2.665780e+04	
47	-2.35000e+00	2.756899e+04	
48	-2.40000e+00	2.846145e+04	
49	-2.45000e+00	2.933571e+04	
50	-2.50000e+00	3.019226e+04	
51	-2.55000e+00	3.103157e+04	
52	-2.60000e+00	3.185411e+04	
53	-2.65000e+00	3.266033e+04	
54	-2.70000e+00	3.345066e+04	

Index   v-sweep         rds             
--------------------------------------------------------------------------------
55	-2.75000e+00	3.422552e+04	
56	-2.80000e+00	3.498532e+04	
57	-2.85000e+00	3.573045e+04	
58	-2.90000e+00	3.646130e+04	
59	-2.95000e+00	3.717822e+04	
60	-3.00000e+00	3.788158e+04	
61	-3.05000e+00	3.857173e+04	
62	-3.10000e+00	3.924898e+04	
63	-3.15000e+00	3.991368e+04	
64	-3.20000e+00	4.056614e+04	
65	-3.25000e+00	4.120665e+04	
66	-3.30000e+00	4.183551e+04	
67	-3.35000e+00	4.245301e+04	
68	-3.40000e+00	4.305943e+04	
69	-3.45000e+00	4.365502e+04	
70	-3.50000e+00	4.424006e+04	
71	-3.55000e+00	4.481479e+04	
72	-3.60000e+00	4.537945e+04	
73	-3.65000e+00	4.593429e+04	
74	-3.70000e+00	4.647954e+04	
75	-3.75000e+00	4.701541e+04	
76	-3.80000e+00	4.754212e+04	
77	-3.85000e+00	4.805988e+04	
78	-3.90000e+00	4.856890e+04	
79	-3.95000e+00	4.906937e+04	
80	-4.00000e+00	4.956149e+04	
81	-4.05000e+00	5.004544e+04	
82	-4.10000e+00	5.052140e+04	
83	-4.15000e+00	5.098954e+04	
84	-4.20000e+00	5.145004e+04	
85	-4.25000e+00	5.190306e+04	
86	-4.30000e+00	5.234875e+04	
87	-4.35000e+00	5.278728e+04	
88	-4.40000e+00	5.321880e+04	
89	-4.45000e+00	5.364344e+04	
90	-4.50000e+00	5.406135e+04	
91	-4.55000e+00	5.447267e+04	
92	-4.60000e+00	5.487752e+04	
93	-4.65000e+00	5.527604e+04	
94	-4.70000e+00	5.566834e+04	
95	-4.75000e+00	5.605455e+04	
96	-4.80000e+00	5.643479e+04	
97	-4.85000e+00	5.680915e+04	
98	-4.90000e+00	5.717775e+04	
99	-4.95000e+00	5.754070e+04	
100	-5.00000e+00	5.789808e+04	
101	-5.05000e+00	5.825000e+04	
102	-5.10000e+00	5.859655e+04	
103	-5.15000e+00	5.893781e+04	
104	-5.20000e+00	5.927388e+04	
105	-5.25000e+00	5.960482e+04	
106	-5.30000e+00	5.993073e+04	
107	-5.35000e+00	6.025166e+04	
108	-5.40000e+00	6.056770e+04	
109	-5.45000e+00	6.087891e+04	
110	-5.50000e+00	6.118536e+04	
111	-5.55000e+00	6.148711e+04	
112	-5.60000e+00	6.178420e+04	

Index   v-sweep         rds             
--------------------------------------------------------------------------------
113	-5.65000e+00	6.207672e+04	
114	-5.70000e+00	6.236469e+04	
115	-5.75000e+00	6.264818e+04	
116	-5.80000e+00	6.292723e+04	
117	-5.85000e+00	6.320189e+04	
118	-5.90000e+00	6.347219e+04	
119	-5.95000e+00	6.373819e+04	
120	-6.00000e+00	6.399991e+04	
121	-6.05000e+00	6.425739e+04	
122	-6.10000e+00	6.451067e+04	
123	-6.15000e+00	6.475978e+04	
124	-6.20000e+00	6.500474e+04	
125	-6.25000e+00	6.524559e+04	
126	-6.30000e+00	6.548235e+04	
127	-6.35000e+00	6.571504e+04	
128	-6.40000e+00	6.594369e+04	
129	-6.45000e+00	6.616832e+04	
130	-6.50000e+00	6.638895e+04	
131	-6.55000e+00	6.660559e+04	
132	-6.60000e+00	6.681826e+04	
Reset re-loads circuit ***************************

Circuit: ***************************

Doing analysis at TEMP = 25.000000 and TNOM = 25.000000


No. of Data Rows : 133
                          ***************************
                          DC transfer characteristic  Mon Jan  9 13:57:54  2023
--------------------------------------------------------------------------------
Index   v-sweep         rds             
--------------------------------------------------------------------------------
0	0.000000e+00	8.269328e+02	
1	-5.00000e-02	8.493584e+02	
2	-1.00000e-01	8.727682e+02	
3	-1.50000e-01	8.972277e+02	
4	-2.00000e-01	9.228087e+02	
5	-2.50000e-01	9.495896e+02	
6	-3.00000e-01	9.776561e+02	
7	-3.50000e-01	1.007103e+03	
8	-4.00000e-01	1.038032e+03	
9	-4.50000e-01	1.070560e+03	
10	-5.00000e-01	1.104812e+03	
11	-5.50000e-01	1.140928e+03	
12	-6.00000e-01	1.179064e+03	
13	-6.50000e-01	1.219392e+03	
14	-7.00000e-01	1.262107e+03	
15	-7.50000e-01	1.307426e+03	
16	-8.00000e-01	1.355593e+03	
17	-8.50000e-01	1.406884e+03	
18	-9.00000e-01	1.461610e+03	
19	-9.50000e-01	1.520128e+03	
20	-1.00000e+00	1.582843e+03	
21	-1.05000e+00	1.650220e+03	
22	-1.10000e+00	1.722795e+03	
23	-1.15000e+00	1.801190e+03	
24	-1.20000e+00	1.886129e+03	
25	-1.25000e+00	1.978457e+03	
26	-1.30000e+00	2.079174e+03	
27	-1.35000e+00	2.189462e+03	
28	-1.40000e+00	2.310732e+03	
29	-1.45000e+00	2.444679e+03	
30	-1.50000e+00	2.593351e+03	
31	-1.55000e+00	2.759243e+03	
32	-1.60000e+00	2.945404e+03	
33	-1.65000e+00	3.155579e+03	
34	-1.70000e+00	3.394363e+03	
35	-1.75000e+00	3.667348e+03	
36	-1.80000e+00	3.981184e+03	
37	-1.85000e+00	4.343391e+03	
38	-1.90000e+00	4.761607e+03	
39	-1.95000e+00	5.241944e+03	
40	-2.00000e+00	5.786520e+03	
41	-2.05000e+00	6.391322e+03	
42	-2.10000e+00	7.046218e+03	
43	-2.15000e+00	7.737615e+03	
44	-2.20000e+00	8.451945e+03	
45	-2.25000e+00	9.177954e+03	
46	-2.30000e+00	9.907335e+03	
47	-2.35000e+00	1.063437e+04	
48	-2.40000e+00	1.135528e+04	
49	-2.45000e+00	1.206763e+04	
50	-2.50000e+00	1.276987e+04	
51	-2.55000e+00	1.346106e+04	
52	-2.60000e+00	1.414064e+04	
53	-2.65000e+00	1.480834e+04	
54	-2.70000e+00	1.546402e+04	

Index   v-sweep         rds             
--------------------------------------------------------------------------------
55	-2.75000e+00	1.610769e+04	
56	-2.80000e+00	1.673944e+04	
57	-2.85000e+00	1.735941e+04	
58	-2.90000e+00	1.796776e+04	
59	-2.95000e+00	1.856471e+04	
60	-3.00000e+00	1.915046e+04	
61	-3.05000e+00	1.972524e+04	
62	-3.10000e+00	2.028930e+04	
63	-3.15000e+00	2.084286e+04	
64	-3.20000e+00	2.138616e+04	
65	-3.25000e+00	2.191944e+04	
66	-3.30000e+00	2.244292e+04	
67	-3.35000e+00	2.295685e+04	
68	-3.40000e+00	2.346143e+04	
69	-3.45000e+00	2.395690e+04	
70	-3.50000e+00	2.444346e+04	
71	-3.55000e+00	2.492134e+04	
72	-3.60000e+00	2.539073e+04	
73	-3.65000e+00	2.585183e+04	
74	-3.70000e+00	2.630485e+04	
75	-3.75000e+00	2.674996e+04	
76	-3.80000e+00	2.718736e+04	
77	-3.85000e+00	2.761723e+04	
78	-3.90000e+00	2.803973e+04	
79	-3.95000e+00	2.845504e+04	
80	-4.00000e+00	2.886333e+04	
81	-4.05000e+00	2.926476e+04	
82	-4.10000e+00	2.965948e+04	
83	-4.15000e+00	3.004764e+04	
84	-4.20000e+00	3.042939e+04	
85	-4.25000e+00	3.080488e+04	
86	-4.30000e+00	3.117424e+04	
87	-4.35000e+00	3.153761e+04	
88	-4.40000e+00	3.189513e+04	
89	-4.45000e+00	3.224691e+04	
90	-4.50000e+00	3.259309e+04	
91	-4.55000e+00	3.293379e+04	
92	-4.60000e+00	3.326911e+04	
93	-4.65000e+00	3.359919e+04	
94	-4.70000e+00	3.392412e+04	
95	-4.75000e+00	3.424401e+04	
96	-4.80000e+00	3.455897e+04	
97	-4.85000e+00	3.486910e+04	
98	-4.90000e+00	3.517450e+04	
99	-4.95000e+00	3.547527e+04	
100	-5.00000e+00	3.577148e+04	
101	-5.05000e+00	3.606324e+04	
102	-5.10000e+00	3.635063e+04	
103	-5.15000e+00	3.663374e+04	
104	-5.20000e+00	3.691264e+04	
105	-5.25000e+00	3.718741e+04	
106	-5.30000e+00	3.745813e+04	
107	-5.35000e+00	3.772487e+04	
108	-5.40000e+00	3.798770e+04	
109	-5.45000e+00	3.824669e+04	
110	-5.50000e+00	3.850190e+04	
111	-5.55000e+00	3.875339e+04	
112	-5.60000e+00	3.900123e+04	

Index   v-sweep         rds             
--------------------------------------------------------------------------------
113	-5.65000e+00	3.924547e+04	
114	-5.70000e+00	3.948616e+04	
115	-5.75000e+00	3.972336e+04	
116	-5.80000e+00	3.995712e+04	
117	-5.85000e+00	4.018748e+04	
118	-5.90000e+00	4.041450e+04	
119	-5.95000e+00	4.063821e+04	
120	-6.00000e+00	4.085865e+04	
121	-6.05000e+00	4.107586e+04	
122	-6.10000e+00	4.128989e+04	
123	-6.15000e+00	4.150076e+04	
124	-6.20000e+00	4.170850e+04	
125	-6.25000e+00	4.191315e+04	
126	-6.30000e+00	4.211474e+04	
127	-6.35000e+00	4.231329e+04	
128	-6.40000e+00	4.250883e+04	
129	-6.45000e+00	4.270138e+04	
130	-6.50000e+00	4.289096e+04	
131	-6.55000e+00	4.307759e+04	
132	-6.60000e+00	4.326130e+04	
Reset re-loads circuit ***************************

Circuit: ***************************

Doing analysis at TEMP = 25.000000 and TNOM = 25.000000


No. of Data Rows : 133
                          ***************************
                          DC transfer characteristic  Mon Jan  9 13:57:54  2023
--------------------------------------------------------------------------------
Index   v-sweep         rds             
--------------------------------------------------------------------------------
0	0.000000e+00	6.996884e+02	
1	-5.00000e-02	7.148382e+02	
2	-1.00000e-01	7.304975e+02	
3	-1.50000e-01	7.466923e+02	
4	-2.00000e-01	7.634501e+02	
5	-2.50000e-01	7.808006e+02	
6	-3.00000e-01	7.987754e+02	
7	-3.50000e-01	8.174087e+02	
8	-4.00000e-01	8.367367e+02	
9	-4.50000e-01	8.567990e+02	
10	-5.00000e-01	8.776376e+02	
11	-5.50000e-01	8.992983e+02	
12	-6.00000e-01	9.218302e+02	
13	-6.50000e-01	9.452865e+02	
14	-7.00000e-01	9.697251e+02	
15	-7.50000e-01	9.952084e+02	
16	-8.00000e-01	1.021804e+03	
17	-8.50000e-01	1.049587e+03	
18	-9.00000e-01	1.078637e+03	
19	-9.50000e-01	1.109043e+03	
20	-1.00000e+00	1.140901e+03	
21	-1.05000e+00	1.174318e+03	
22	-1.10000e+00	1.209409e+03	
23	-1.15000e+00	1.246303e+03	
24	-1.20000e+00	1.285142e+03	
25	-1.25000e+00	1.326083e+03	
26	-1.30000e+00	1.369300e+03	
27	-1.35000e+00	1.414988e+03	
28	-1.40000e+00	1.463363e+03	
29	-1.45000e+00	1.514668e+03	
30	-1.50000e+00	1.569175e+03	
31	-1.55000e+00	1.627194e+03	
32	-1.60000e+00	1.689071e+03	
33	-1.65000e+00	1.755203e+03	
34	-1.70000e+00	1.826040e+03	
35	-1.75000e+00	1.902100e+03	
36	-1.80000e+00	1.983978e+03	
37	-1.85000e+00	2.072363e+03	
38	-1.90000e+00	2.168056e+03	
39	-1.95000e+00	2.271995e+03	
40	-2.00000e+00	2.385283e+03	
41	-2.05000e+00	2.509231e+03	
42	-2.10000e+00	2.645404e+03	
43	-2.15000e+00	2.795687e+03	
44	-2.20000e+00	2.962366e+03	
45	-2.25000e+00	3.148230e+03	
46	-2.30000e+00	3.356674e+03	
47	-2.35000e+00	3.591763e+03	
48	-2.40000e+00	3.858155e+03	
49	-2.45000e+00	4.160662e+03	
50	-2.50000e+00	4.503274e+03	
51	-2.55000e+00	4.887741e+03	
52	-2.60000e+00	5.312372e+03	
53	-2.65000e+00	5.771963e+03	
54	-2.70000e+00	6.259008e+03	

Index   v-sweep         rds             
--------------------------------------------------------------------------------
55	-2.75000e+00	6.765434e+03	
56	-2.80000e+00	7.283938e+03	
57	-2.85000e+00	7.808596e+03	
58	-2.90000e+00	8.334930e+03	
59	-2.95000e+00	8.859693e+03	
60	-3.00000e+00	9.380595e+03	
61	-3.05000e+00	9.896050e+03	
62	-3.10000e+00	1.040498e+04	
63	-3.15000e+00	1.090666e+04	
64	-3.20000e+00	1.140063e+04	
65	-3.25000e+00	1.188660e+04	
66	-3.30000e+00	1.236441e+04	
67	-3.35000e+00	1.283400e+04	
68	-3.40000e+00	1.329536e+04	
69	-3.45000e+00	1.374856e+04	
70	-3.50000e+00	1.419366e+04	
71	-3.55000e+00	1.463077e+04	
72	-3.60000e+00	1.506003e+04	
73	-3.65000e+00	1.548155e+04	
74	-3.70000e+00	1.589550e+04	
75	-3.75000e+00	1.630201e+04	
76	-3.80000e+00	1.670123e+04	
77	-3.85000e+00	1.709333e+04	
78	-3.90000e+00	1.747846e+04	
79	-3.95000e+00	1.785676e+04	
80	-4.00000e+00	1.822840e+04	
81	-4.05000e+00	1.859351e+04	
82	-4.10000e+00	1.895225e+04	
83	-4.15000e+00	1.930477e+04	
84	-4.20000e+00	1.965119e+04	
85	-4.25000e+00	1.999167e+04	
86	-4.30000e+00	2.032633e+04	
87	-4.35000e+00	2.065531e+04	
88	-4.40000e+00	2.097874e+04	
89	-4.45000e+00	2.129675e+04	
90	-4.50000e+00	2.160945e+04	
91	-4.55000e+00	2.191696e+04	
92	-4.60000e+00	2.221941e+04	
93	-4.65000e+00	2.251690e+04	
94	-4.70000e+00	2.280955e+04	
95	-4.75000e+00	2.309746e+04	
96	-4.80000e+00	2.338074e+04	
97	-4.85000e+00	2.365949e+04	
98	-4.90000e+00	2.393380e+04	
99	-4.95000e+00	2.420378e+04	
100	-5.00000e+00	2.446951e+04	
101	-5.05000e+00	2.473109e+04	
102	-5.10000e+00	2.498861e+04	
103	-5.15000e+00	2.524215e+04	
104	-5.20000e+00	2.549179e+04	
105	-5.25000e+00	2.573762e+04	
106	-5.30000e+00	2.597971e+04	
107	-5.35000e+00	2.621815e+04	
108	-5.40000e+00	2.645300e+04	
109	-5.45000e+00	2.668433e+04	
110	-5.50000e+00	2.691222e+04	
111	-5.55000e+00	2.713673e+04	
112	-5.60000e+00	2.735792e+04	

Index   v-sweep         rds             
--------------------------------------------------------------------------------
113	-5.65000e+00	2.757587e+04	
114	-5.70000e+00	2.779063e+04	
115	-5.75000e+00	2.800226e+04	
116	-5.80000e+00	2.821081e+04	
117	-5.85000e+00	2.841634e+04	
118	-5.90000e+00	2.861891e+04	
119	-5.95000e+00	2.881856e+04	
120	-6.00000e+00	2.901534e+04	
121	-6.05000e+00	2.920930e+04	
122	-6.10000e+00	2.940048e+04	
123	-6.15000e+00	2.958893e+04	
124	-6.20000e+00	2.977468e+04	
125	-6.25000e+00	2.995778e+04	
126	-6.30000e+00	3.013826e+04	
127	-6.35000e+00	3.031615e+04	
128	-6.40000e+00	3.049149e+04	
129	-6.45000e+00	3.066432e+04	
130	-6.50000e+00	3.083465e+04	
131	-6.55000e+00	3.100252e+04	
132	-6.60000e+00	3.116796e+04	
Reset re-loads circuit ***************************

Circuit: ***************************

Doing analysis at TEMP = 25.000000 and TNOM = 25.000000


No. of Data Rows : 133
                          ***************************
                          DC transfer characteristic  Mon Jan  9 13:57:54  2023
--------------------------------------------------------------------------------
Index   v-sweep         rds             
--------------------------------------------------------------------------------
0	0.000000e+00	6.213978e+02	
1	-5.00000e-02	6.326981e+02	
2	-1.00000e-01	6.443076e+02	
3	-1.50000e-01	6.562390e+02	
4	-2.00000e-01	6.685056e+02	
5	-2.50000e-01	6.811217e+02	
6	-3.00000e-01	6.941022e+02	
7	-3.50000e-01	7.074629e+02	
8	-4.00000e-01	7.212206e+02	
9	-4.50000e-01	7.353931e+02	
10	-5.00000e-01	7.499991e+02	
11	-5.50000e-01	7.650588e+02	
12	-6.00000e-01	7.805932e+02	
13	-6.50000e-01	7.966250e+02	
14	-7.00000e-01	8.131784e+02	
15	-7.50000e-01	8.302788e+02	
16	-8.00000e-01	8.479537e+02	
17	-8.50000e-01	8.662322e+02	
18	-9.00000e-01	8.851455e+02	
19	-9.50000e-01	9.047271e+02	
20	-1.00000e+00	9.250126e+02	
21	-1.05000e+00	9.460405e+02	
22	-1.10000e+00	9.678520e+02	
23	-1.15000e+00	9.904914e+02	
24	-1.20000e+00	1.014006e+03	
25	-1.25000e+00	1.038448e+03	
26	-1.30000e+00	1.063873e+03	
27	-1.35000e+00	1.090340e+03	
28	-1.40000e+00	1.117915e+03	
29	-1.45000e+00	1.146668e+03	
30	-1.50000e+00	1.176676e+03	
31	-1.55000e+00	1.208022e+03	
32	-1.60000e+00	1.240798e+03	
33	-1.65000e+00	1.275103e+03	
34	-1.70000e+00	1.311046e+03	
35	-1.75000e+00	1.348746e+03	
36	-1.80000e+00	1.388335e+03	
37	-1.85000e+00	1.429958e+03	
38	-1.90000e+00	1.473774e+03	
39	-1.95000e+00	1.519960e+03	
40	-2.00000e+00	1.568715e+03	
41	-2.05000e+00	1.620256e+03	
42	-2.10000e+00	1.674830e+03	
43	-2.15000e+00	1.732710e+03	
44	-2.20000e+00	1.794208e+03	
45	-2.25000e+00	1.859673e+03	
46	-2.30000e+00	1.929503e+03	
47	-2.35000e+00	2.004153e+03	
48	-2.40000e+00	2.084146e+03	
49	-2.45000e+00	2.170087e+03	
50	-2.50000e+00	2.262686e+03	
51	-2.55000e+00	2.362780e+03	
52	-2.60000e+00	2.471371e+03	
53	-2.65000e+00	2.589676e+03	
54	-2.70000e+00	2.719197e+03	

Index   v-sweep         rds             
--------------------------------------------------------------------------------
55	-2.75000e+00	2.861804e+03	
56	-2.80000e+00	3.019843e+03	
57	-2.85000e+00	3.196220e+03	
58	-2.90000e+00	3.394386e+03	
59	-2.95000e+00	3.618086e+03	
60	-3.00000e+00	3.870744e+03	
61	-3.05000e+00	4.154505e+03	
62	-3.10000e+00	4.469330e+03	
63	-3.15000e+00	4.812675e+03	
64	-3.20000e+00	5.180003e+03	
65	-3.25000e+00	5.565802e+03	
66	-3.30000e+00	5.964581e+03	
67	-3.35000e+00	6.371507e+03	
68	-3.40000e+00	6.782649e+03	
69	-3.45000e+00	7.194974e+03	
70	-3.50000e+00	7.606216e+03	
71	-3.55000e+00	8.014719e+03	
72	-3.60000e+00	8.419294e+03	
73	-3.65000e+00	8.819101e+03	
74	-3.70000e+00	9.213552e+03	
75	-3.75000e+00	9.602251e+03	
76	-3.80000e+00	9.984936e+03	
77	-3.85000e+00	1.036145e+04	
78	-3.90000e+00	1.073171e+04	
79	-3.95000e+00	1.109568e+04	
80	-4.00000e+00	1.145338e+04	
81	-4.05000e+00	1.180484e+04	
82	-4.10000e+00	1.215014e+04	
83	-4.15000e+00	1.248936e+04	
84	-4.20000e+00	1.282257e+04	
85	-4.25000e+00	1.314990e+04	
86	-4.30000e+00	1.347144e+04	
87	-4.35000e+00	1.378730e+04	
88	-4.40000e+00	1.409761e+04	
89	-4.45000e+00	1.440246e+04	
90	-4.50000e+00	1.470198e+04	
91	-4.55000e+00	1.499628e+04	
92	-4.60000e+00	1.528547e+04	
93	-4.65000e+00	1.556967e+04	
94	-4.70000e+00	1.584899e+04	
95	-4.75000e+00	1.612353e+04	
96	-4.80000e+00	1.639341e+04	
97	-4.85000e+00	1.665872e+04	
98	-4.90000e+00	1.691957e+04	
99	-4.95000e+00	1.717605e+04	
100	-5.00000e+00	1.742827e+04	
101	-5.05000e+00	1.767633e+04	
102	-5.10000e+00	1.792031e+04	
103	-5.15000e+00	1.816030e+04	
104	-5.20000e+00	1.839639e+04	
105	-5.25000e+00	1.862868e+04	
106	-5.30000e+00	1.885723e+04	
107	-5.35000e+00	1.908214e+04	
108	-5.40000e+00	1.930348e+04	
109	-5.45000e+00	1.952134e+04	
110	-5.50000e+00	1.973577e+04	
111	-5.55000e+00	1.994687e+04	
112	-5.60000e+00	2.015470e+04	

Index   v-sweep         rds             
--------------------------------------------------------------------------------
113	-5.65000e+00	2.035932e+04	
114	-5.70000e+00	2.056081e+04	
115	-5.75000e+00	2.075924e+04	
116	-5.80000e+00	2.095465e+04	
117	-5.85000e+00	2.114712e+04	
118	-5.90000e+00	2.133671e+04	
119	-5.95000e+00	2.152346e+04	
120	-6.00000e+00	2.170745e+04	
121	-6.05000e+00	2.188872e+04	
122	-6.10000e+00	2.206732e+04	
123	-6.15000e+00	2.224330e+04	
124	-6.20000e+00	2.241673e+04	
125	-6.25000e+00	2.258763e+04	
126	-6.30000e+00	2.275605e+04	
127	-6.35000e+00	2.292205e+04	
128	-6.40000e+00	2.308566e+04	
129	-6.45000e+00	2.324691e+04	
130	-6.50000e+00	2.340586e+04	
131	-6.55000e+00	2.356254e+04	
132	-6.60000e+00	2.371698e+04	
Reset re-loads circuit ***************************

Circuit: ***************************

Note: No ".plot", ".print", or ".fourier" lines; no simulations run
