
Note: Compatibility modes selected: hs

Warning: m=xx on .subckt line will override multiplier m hierarchy!


Circuit: ***************************

Doing analysis at TEMP = -40.000000 and TNOM = -40.000000


No. of Data Rows : 133
                          ***************************
                          DC transfer characteristic  Mon Jan  9 13:57:54  2023
--------------------------------------------------------------------------------
Index   v-sweep         rds             
--------------------------------------------------------------------------------
0	0.000000e+00	1.382894e+05	
1	-5.00000e-02	2.717210e+05	
2	-1.00000e-01	8.633623e+05	
3	-1.50000e-01	2.699559e+06	
4	-2.00000e-01	4.440958e+06	
5	-2.50000e-01	5.375126e+06	
6	-3.00000e-01	5.917799e+06	
7	-3.50000e-01	6.294469e+06	
8	-4.00000e-01	6.587845e+06	
9	-4.50000e-01	6.830998e+06	
10	-5.00000e-01	7.039335e+06	
11	-5.50000e-01	7.221186e+06	
12	-6.00000e-01	7.381667e+06	
13	-6.50000e-01	7.524257e+06	
14	-7.00000e-01	7.651506e+06	
15	-7.50000e-01	7.765391e+06	
16	-8.00000e-01	7.867501e+06	
17	-8.50000e-01	7.959155e+06	
18	-9.00000e-01	8.041463e+06	
19	-9.50000e-01	8.115377e+06	
20	-1.00000e+00	8.181721e+06	
21	-1.05000e+00	8.241216e+06	
22	-1.10000e+00	8.294493e+06	
23	-1.15000e+00	8.342113e+06	
24	-1.20000e+00	8.384574e+06	
25	-1.25000e+00	8.422317e+06	
26	-1.30000e+00	8.455742e+06	
27	-1.35000e+00	8.485204e+06	
28	-1.40000e+00	8.511025e+06	
29	-1.45000e+00	8.533495e+06	
30	-1.50000e+00	8.552877e+06	
31	-1.55000e+00	8.569409e+06	
32	-1.60000e+00	8.583309e+06	
33	-1.65000e+00	8.594773e+06	
34	-1.70000e+00	8.603982e+06	
35	-1.75000e+00	8.611101e+06	
36	-1.80000e+00	8.616281e+06	
37	-1.85000e+00	8.619661e+06	
38	-1.90000e+00	8.621367e+06	
39	-1.95000e+00	8.621518e+06	
40	-2.00000e+00	8.620220e+06	
41	-2.05000e+00	8.617573e+06	
42	-2.10000e+00	8.613670e+06	
43	-2.15000e+00	8.608596e+06	
44	-2.20000e+00	8.602428e+06	
45	-2.25000e+00	8.595241e+06	
46	-2.30000e+00	8.587102e+06	
47	-2.35000e+00	8.578074e+06	
48	-2.40000e+00	8.568215e+06	
49	-2.45000e+00	8.557580e+06	
50	-2.50000e+00	8.546220e+06	
51	-2.55000e+00	8.534182e+06	
52	-2.60000e+00	8.521510e+06	
53	-2.65000e+00	8.508245e+06	
54	-2.70000e+00	8.494426e+06	

Index   v-sweep         rds             
--------------------------------------------------------------------------------
55	-2.75000e+00	8.480089e+06	
56	-2.80000e+00	8.465268e+06	
57	-2.85000e+00	8.449994e+06	
58	-2.90000e+00	8.434297e+06	
59	-2.95000e+00	8.418204e+06	
60	-3.00000e+00	8.401743e+06	
61	-3.05000e+00	8.384936e+06	
62	-3.10000e+00	8.367807e+06	
63	-3.15000e+00	8.350379e+06	
64	-3.20000e+00	8.332670e+06	
65	-3.25000e+00	8.314700e+06	
66	-3.30000e+00	8.296488e+06	
67	-3.35000e+00	8.278049e+06	
68	-3.40000e+00	8.259401e+06	
69	-3.45000e+00	8.240557e+06	
70	-3.50000e+00	8.221532e+06	
71	-3.55000e+00	8.202340e+06	
72	-3.60000e+00	8.182992e+06	
73	-3.65000e+00	8.163502e+06	
74	-3.70000e+00	8.143879e+06	
75	-3.75000e+00	8.124134e+06	
76	-3.80000e+00	8.104278e+06	
77	-3.85000e+00	8.084320e+06	
78	-3.90000e+00	8.064268e+06	
79	-3.95000e+00	8.044132e+06	
80	-4.00000e+00	8.023918e+06	
81	-4.05000e+00	8.003634e+06	
82	-4.10000e+00	7.983287e+06	
83	-4.15000e+00	7.962884e+06	
84	-4.20000e+00	7.942431e+06	
85	-4.25000e+00	7.921934e+06	
86	-4.30000e+00	7.901399e+06	
87	-4.35000e+00	7.880830e+06	
88	-4.40000e+00	7.860233e+06	
89	-4.45000e+00	7.839612e+06	
90	-4.50000e+00	7.818972e+06	
91	-4.55000e+00	7.798317e+06	
92	-4.60000e+00	7.777650e+06	
93	-4.65000e+00	7.756976e+06	
94	-4.70000e+00	7.736298e+06	
95	-4.75000e+00	7.715618e+06	
96	-4.80000e+00	7.694941e+06	
97	-4.85000e+00	7.674269e+06	
98	-4.90000e+00	7.653605e+06	
99	-4.95000e+00	7.632951e+06	
100	-5.00000e+00	7.612309e+06	
101	-5.05000e+00	7.591683e+06	
102	-5.10000e+00	7.571074e+06	
103	-5.15000e+00	7.550484e+06	
104	-5.20000e+00	7.529914e+06	
105	-5.25000e+00	7.509368e+06	
106	-5.30000e+00	7.488846e+06	
107	-5.35000e+00	7.468350e+06	
108	-5.40000e+00	7.447881e+06	
109	-5.45000e+00	7.427441e+06	
110	-5.50000e+00	7.407030e+06	
111	-5.55000e+00	7.386651e+06	
112	-5.60000e+00	7.366304e+06	

Index   v-sweep         rds             
--------------------------------------------------------------------------------
113	-5.65000e+00	7.345991e+06	
114	-5.70000e+00	7.325712e+06	
115	-5.75000e+00	7.305468e+06	
116	-5.80000e+00	7.285259e+06	
117	-5.85000e+00	7.265088e+06	
118	-5.90000e+00	7.244954e+06	
119	-5.95000e+00	7.224859e+06	
120	-6.00000e+00	7.204802e+06	
121	-6.05000e+00	7.184784e+06	
122	-6.10000e+00	7.164806e+06	
123	-6.15000e+00	7.144869e+06	
124	-6.20000e+00	7.124973e+06	
125	-6.25000e+00	7.105118e+06	
126	-6.30000e+00	7.085305e+06	
127	-6.35000e+00	7.065533e+06	
128	-6.40000e+00	7.045804e+06	
129	-6.45000e+00	7.026118e+06	
130	-6.50000e+00	7.006475e+06	
131	-6.55000e+00	6.986875e+06	
132	-6.60000e+00	6.967318e+06	
Reset re-loads circuit ***************************

Circuit: ***************************

Doing analysis at TEMP = -40.000000 and TNOM = -40.000000


No. of Data Rows : 133
                          ***************************
                          DC transfer characteristic  Mon Jan  9 13:57:55  2023
--------------------------------------------------------------------------------
Index   v-sweep         rds             
--------------------------------------------------------------------------------
0	0.000000e+00	1.295904e+04	
1	-5.00000e-02	1.394935e+04	
2	-1.00000e-01	1.507144e+04	
3	-1.50000e-01	1.635326e+04	
4	-2.00000e-01	1.783120e+04	
5	-2.50000e-01	1.955350e+04	
6	-3.00000e-01	2.158543e+04	
7	-3.50000e-01	2.401729e+04	
8	-4.00000e-01	2.697722e+04	
9	-4.50000e-01	3.065197e+04	
10	-5.00000e-01	3.532094e+04	
11	-5.50000e-01	4.141030e+04	
12	-6.00000e-01	4.956641e+04	
13	-6.50000e-01	6.069606e+04	
14	-7.00000e-01	7.574576e+04	
15	-7.50000e-01	9.485310e+04	
16	-8.00000e-01	1.164814e+05	
17	-8.50000e-01	1.383790e+05	
18	-9.00000e-01	1.592803e+05	
19	-9.50000e-01	1.789768e+05	
20	-1.00000e+00	1.976409e+05	
21	-1.05000e+00	2.154701e+05	
22	-1.10000e+00	2.326089e+05	
23	-1.15000e+00	2.491538e+05	
24	-1.20000e+00	2.651698e+05	
25	-1.25000e+00	2.807024e+05	
26	-1.30000e+00	2.957851e+05	
27	-1.35000e+00	3.104444e+05	
28	-1.40000e+00	3.247018e+05	
29	-1.45000e+00	3.385758e+05	
30	-1.50000e+00	3.520826e+05	
31	-1.55000e+00	3.652367e+05	
32	-1.60000e+00	3.780516e+05	
33	-1.65000e+00	3.905396e+05	
34	-1.70000e+00	4.027124e+05	
35	-1.75000e+00	4.145808e+05	
36	-1.80000e+00	4.261552e+05	
37	-1.85000e+00	4.374453e+05	
38	-1.90000e+00	4.484606e+05	
39	-1.95000e+00	4.592100e+05	
40	-2.00000e+00	4.697019e+05	
41	-2.05000e+00	4.799445e+05	
42	-2.10000e+00	4.899456e+05	
43	-2.15000e+00	4.997129e+05	
44	-2.20000e+00	5.092533e+05	
45	-2.25000e+00	5.185739e+05	
46	-2.30000e+00	5.276812e+05	
47	-2.35000e+00	5.365818e+05	
48	-2.40000e+00	5.452816e+05	
49	-2.45000e+00	5.537867e+05	
50	-2.50000e+00	5.621027e+05	
51	-2.55000e+00	5.702350e+05	
52	-2.60000e+00	5.781890e+05	
53	-2.65000e+00	5.859698e+05	
54	-2.70000e+00	5.935822e+05	

Index   v-sweep         rds             
--------------------------------------------------------------------------------
55	-2.75000e+00	6.010310e+05	
56	-2.80000e+00	6.083206e+05	
57	-2.85000e+00	6.154557e+05	
58	-2.90000e+00	6.224402e+05	
59	-2.95000e+00	6.292784e+05	
60	-3.00000e+00	6.359743e+05	
61	-3.05000e+00	6.425315e+05	
62	-3.10000e+00	6.489539e+05	
63	-3.15000e+00	6.552449e+05	
64	-3.20000e+00	6.614080e+05	
65	-3.25000e+00	6.674466e+05	
66	-3.30000e+00	6.733638e+05	
67	-3.35000e+00	6.791628e+05	
68	-3.40000e+00	6.848465e+05	
69	-3.45000e+00	6.904179e+05	
70	-3.50000e+00	6.958797e+05	
71	-3.55000e+00	7.012347e+05	
72	-3.60000e+00	7.064856e+05	
73	-3.65000e+00	7.116347e+05	
74	-3.70000e+00	7.166847e+05	
75	-3.75000e+00	7.216378e+05	
76	-3.80000e+00	7.264964e+05	
77	-3.85000e+00	7.312626e+05	
78	-3.90000e+00	7.359387e+05	
79	-3.95000e+00	7.405266e+05	
80	-4.00000e+00	7.450285e+05	
81	-4.05000e+00	7.494462e+05	
82	-4.10000e+00	7.537815e+05	
83	-4.15000e+00	7.580364e+05	
84	-4.20000e+00	7.622125e+05	
85	-4.25000e+00	7.663115e+05	
86	-4.30000e+00	7.703351e+05	
87	-4.35000e+00	7.742847e+05	
88	-4.40000e+00	7.781620e+05	
89	-4.45000e+00	7.819683e+05	
90	-4.50000e+00	7.857051e+05	
91	-4.55000e+00	7.893737e+05	
92	-4.60000e+00	7.929754e+05	
93	-4.65000e+00	7.965115e+05	
94	-4.70000e+00	7.999832e+05	
95	-4.75000e+00	8.033916e+05	
96	-4.80000e+00	8.067378e+05	
97	-4.85000e+00	8.100230e+05	
98	-4.90000e+00	8.132481e+05	
99	-4.95000e+00	8.164141e+05	
100	-5.00000e+00	8.195221e+05	
101	-5.05000e+00	8.225728e+05	
102	-5.10000e+00	8.255672e+05	
103	-5.15000e+00	8.285062e+05	
104	-5.20000e+00	8.313904e+05	
105	-5.25000e+00	8.342208e+05	
106	-5.30000e+00	8.369980e+05	
107	-5.35000e+00	8.397228e+05	
108	-5.40000e+00	8.423958e+05	
109	-5.45000e+00	8.450178e+05	
110	-5.50000e+00	8.475892e+05	
111	-5.55000e+00	8.501108e+05	
112	-5.60000e+00	8.525831e+05	

Index   v-sweep         rds             
--------------------------------------------------------------------------------
113	-5.65000e+00	8.550066e+05	
114	-5.70000e+00	8.573820e+05	
115	-5.75000e+00	8.597097e+05	
116	-5.80000e+00	8.619901e+05	
117	-5.85000e+00	8.642239e+05	
118	-5.90000e+00	8.664113e+05	
119	-5.95000e+00	8.685530e+05	
120	-6.00000e+00	8.706492e+05	
121	-6.05000e+00	8.727004e+05	
122	-6.10000e+00	8.747069e+05	
123	-6.15000e+00	8.766692e+05	
124	-6.20000e+00	8.785877e+05	
125	-6.25000e+00	8.804625e+05	
126	-6.30000e+00	8.822942e+05	
127	-6.35000e+00	8.840830e+05	
128	-6.40000e+00	8.858293e+05	
129	-6.45000e+00	8.875333e+05	
130	-6.50000e+00	8.891954e+05	
131	-6.55000e+00	8.908159e+05	
132	-6.60000e+00	8.923949e+05	
Reset re-loads circuit ***************************

Circuit: ***************************

Doing analysis at TEMP = -40.000000 and TNOM = -40.000000


No. of Data Rows : 133
                          ***************************
                          DC transfer characteristic  Mon Jan  9 13:57:55  2023
--------------------------------------------------------------------------------
Index   v-sweep         rds             
--------------------------------------------------------------------------------
0	0.000000e+00	7.873757e+03	
1	-5.00000e-02	8.228056e+03	
2	-1.00000e-01	8.606915e+03	
3	-1.50000e-01	9.012945e+03	
4	-2.00000e-01	9.449137e+03	
5	-2.50000e-01	9.918943e+03	
6	-3.00000e-01	1.042636e+04	
7	-3.50000e-01	1.097603e+04	
8	-4.00000e-01	1.157342e+04	
9	-4.50000e-01	1.222495e+04	
10	-5.00000e-01	1.293825e+04	
11	-5.50000e-01	1.372247e+04	
12	-6.00000e-01	1.458860e+04	
13	-6.50000e-01	1.555006e+04	
14	-7.00000e-01	1.662327e+04	
15	-7.50000e-01	1.782865e+04	
16	-8.00000e-01	1.919177e+04	
17	-8.50000e-01	2.074505e+04	
18	-9.00000e-01	2.253005e+04	
19	-9.50000e-01	2.460056e+04	
20	-1.00000e+00	2.702669e+04	
21	-1.05000e+00	2.989964e+04	
22	-1.10000e+00	3.333569e+04	
23	-1.15000e+00	3.747450e+04	
24	-1.20000e+00	4.246010e+04	
25	-1.25000e+00	4.839077e+04	
26	-1.30000e+00	5.524769e+04	
27	-1.35000e+00	6.286540e+04	
28	-1.40000e+00	7.099355e+04	
29	-1.45000e+00	7.939434e+04	
30	-1.50000e+00	8.789391e+04	
31	-1.55000e+00	9.638225e+04	
32	-1.60000e+00	1.047945e+05	
33	-1.65000e+00	1.130935e+05	
34	-1.70000e+00	1.212586e+05	
35	-1.75000e+00	1.292787e+05	
36	-1.80000e+00	1.371481e+05	
37	-1.85000e+00	1.448647e+05	
38	-1.90000e+00	1.524284e+05	
39	-1.95000e+00	1.598406e+05	
40	-2.00000e+00	1.671032e+05	
41	-2.05000e+00	1.742188e+05	
42	-2.10000e+00	1.811903e+05	
43	-2.15000e+00	1.880208e+05	
44	-2.20000e+00	1.947135e+05	
45	-2.25000e+00	2.012716e+05	
46	-2.30000e+00	2.076984e+05	
47	-2.35000e+00	2.139971e+05	
48	-2.40000e+00	2.201708e+05	
49	-2.45000e+00	2.262226e+05	
50	-2.50000e+00	2.321558e+05	
51	-2.55000e+00	2.379731e+05	
52	-2.60000e+00	2.436776e+05	
53	-2.65000e+00	2.492722e+05	
54	-2.70000e+00	2.547595e+05	

Index   v-sweep         rds             
--------------------------------------------------------------------------------
55	-2.75000e+00	2.601423e+05	
56	-2.80000e+00	2.654231e+05	
57	-2.85000e+00	2.706046e+05	
58	-2.90000e+00	2.756893e+05	
59	-2.95000e+00	2.806794e+05	
60	-3.00000e+00	2.855773e+05	
61	-3.05000e+00	2.903854e+05	
62	-3.10000e+00	2.951057e+05	
63	-3.15000e+00	2.997405e+05	
64	-3.20000e+00	3.042917e+05	
65	-3.25000e+00	3.087614e+05	
66	-3.30000e+00	3.131516e+05	
67	-3.35000e+00	3.174640e+05	
68	-3.40000e+00	3.217007e+05	
69	-3.45000e+00	3.258632e+05	
70	-3.50000e+00	3.299534e+05	
71	-3.55000e+00	3.339729e+05	
72	-3.60000e+00	3.379234e+05	
73	-3.65000e+00	3.418064e+05	
74	-3.70000e+00	3.456234e+05	
75	-3.75000e+00	3.493760e+05	
76	-3.80000e+00	3.530656e+05	
77	-3.85000e+00	3.566936e+05	
78	-3.90000e+00	3.602614e+05	
79	-3.95000e+00	3.637702e+05	
80	-4.00000e+00	3.672214e+05	
81	-4.05000e+00	3.706161e+05	
82	-4.10000e+00	3.739557e+05	
83	-4.15000e+00	3.772413e+05	
84	-4.20000e+00	3.804739e+05	
85	-4.25000e+00	3.836548e+05	
86	-4.30000e+00	3.867849e+05	
87	-4.35000e+00	3.898653e+05	
88	-4.40000e+00	3.928971e+05	
89	-4.45000e+00	3.958811e+05	
90	-4.50000e+00	3.988183e+05	
91	-4.55000e+00	4.017096e+05	
92	-4.60000e+00	4.045559e+05	
93	-4.65000e+00	4.073581e+05	
94	-4.70000e+00	4.101169e+05	
95	-4.75000e+00	4.128331e+05	
96	-4.80000e+00	4.155075e+05	
97	-4.85000e+00	4.181409e+05	
98	-4.90000e+00	4.207338e+05	
99	-4.95000e+00	4.232871e+05	
100	-5.00000e+00	4.258013e+05	
101	-5.05000e+00	4.282771e+05	
102	-5.10000e+00	4.307151e+05	
103	-5.15000e+00	4.331159e+05	
104	-5.20000e+00	4.354799e+05	
105	-5.25000e+00	4.378078e+05	
106	-5.30000e+00	4.401000e+05	
107	-5.35000e+00	4.423569e+05	
108	-5.40000e+00	4.445792e+05	
109	-5.45000e+00	4.467672e+05	
110	-5.50000e+00	4.489213e+05	
111	-5.55000e+00	4.510419e+05	
112	-5.60000e+00	4.531294e+05	

Index   v-sweep         rds             
--------------------------------------------------------------------------------
113	-5.65000e+00	4.551841e+05	
114	-5.70000e+00	4.572064e+05	
115	-5.75000e+00	4.591967e+05	
116	-5.80000e+00	4.611551e+05	
117	-5.85000e+00	4.630820e+05	
118	-5.90000e+00	4.649777e+05	
119	-5.95000e+00	4.668424e+05	
120	-6.00000e+00	4.686764e+05	
121	-6.05000e+00	4.704799e+05	
122	-6.10000e+00	4.722530e+05	
123	-6.15000e+00	4.739961e+05	
124	-6.20000e+00	4.757093e+05	
125	-6.25000e+00	4.773927e+05	
126	-6.30000e+00	4.790465e+05	
127	-6.35000e+00	4.806710e+05	
128	-6.40000e+00	4.822661e+05	
129	-6.45000e+00	4.838322e+05	
130	-6.50000e+00	4.853693e+05	
131	-6.55000e+00	4.868774e+05	
132	-6.60000e+00	4.883569e+05	
Reset re-loads circuit ***************************

Circuit: ***************************

Doing analysis at TEMP = -40.000000 and TNOM = -40.000000


No. of Data Rows : 133
                          ***************************
                          DC transfer characteristic  Mon Jan  9 13:57:55  2023
--------------------------------------------------------------------------------
Index   v-sweep         rds             
--------------------------------------------------------------------------------
0	0.000000e+00	6.074424e+03	
1	-5.00000e-02	6.275819e+03	
2	-1.00000e-01	6.486804e+03	
3	-1.50000e-01	6.708065e+03	
4	-2.00000e-01	6.940357e+03	
5	-2.50000e-01	7.184511e+03	
6	-3.00000e-01	7.441443e+03	
7	-3.50000e-01	7.712168e+03	
8	-4.00000e-01	7.997810e+03	
9	-4.50000e-01	8.299618e+03	
10	-5.00000e-01	8.618986e+03	
11	-5.50000e-01	8.957471e+03	
12	-6.00000e-01	9.316824e+03	
13	-6.50000e-01	9.699011e+03	
14	-7.00000e-01	1.010626e+04	
15	-7.50000e-01	1.054108e+04	
16	-8.00000e-01	1.100636e+04	
17	-8.50000e-01	1.150537e+04	
18	-9.00000e-01	1.204189e+04	
19	-9.50000e-01	1.262027e+04	
20	-1.00000e+00	1.324557e+04	
21	-1.05000e+00	1.392370e+04	
22	-1.10000e+00	1.466160e+04	
23	-1.15000e+00	1.546748e+04	
24	-1.20000e+00	1.635116e+04	
25	-1.25000e+00	1.732444e+04	
26	-1.30000e+00	1.840169e+04	
27	-1.35000e+00	1.960058e+04	
28	-1.40000e+00	2.094318e+04	
29	-1.45000e+00	2.245749e+04	
30	-1.50000e+00	2.417951e+04	
31	-1.55000e+00	2.615612e+04	
32	-1.60000e+00	2.844786e+04	
33	-1.65000e+00	3.112917e+04	
34	-1.70000e+00	3.427984e+04	
35	-1.75000e+00	3.796131e+04	
36	-1.80000e+00	4.218390e+04	
37	-1.85000e+00	4.689020e+04	
38	-1.90000e+00	5.197302e+04	
39	-1.95000e+00	5.731198e+04	
40	-2.00000e+00	6.280163e+04	
41	-2.05000e+00	6.836165e+04	
42	-2.10000e+00	7.393551e+04	
43	-2.15000e+00	7.948504e+04	
44	-2.20000e+00	8.498502e+04	
45	-2.25000e+00	9.041902e+04	
46	-2.30000e+00	9.577650e+04	
47	-2.35000e+00	1.010508e+05	
48	-2.40000e+00	1.062381e+05	
49	-2.45000e+00	1.113361e+05	
50	-2.50000e+00	1.163440e+05	
51	-2.55000e+00	1.212616e+05	
52	-2.60000e+00	1.260894e+05	
53	-2.65000e+00	1.308285e+05	
54	-2.70000e+00	1.354801e+05	

Index   v-sweep         rds             
--------------------------------------------------------------------------------
55	-2.75000e+00	1.400455e+05	
56	-2.80000e+00	1.445263e+05	
57	-2.85000e+00	1.489241e+05	
58	-2.90000e+00	1.532407e+05	
59	-2.95000e+00	1.574778e+05	
60	-3.00000e+00	1.616371e+05	
61	-3.05000e+00	1.657203e+05	
62	-3.10000e+00	1.697291e+05	
63	-3.15000e+00	1.736653e+05	
64	-3.20000e+00	1.775305e+05	
65	-3.25000e+00	1.813264e+05	
66	-3.30000e+00	1.850546e+05	
67	-3.35000e+00	1.887165e+05	
68	-3.40000e+00	1.923139e+05	
69	-3.45000e+00	1.958482e+05	
70	-3.50000e+00	1.993207e+05	
71	-3.55000e+00	2.027331e+05	
72	-3.60000e+00	2.060866e+05	
73	-3.65000e+00	2.093827e+05	
74	-3.70000e+00	2.126225e+05	
75	-3.75000e+00	2.158075e+05	
76	-3.80000e+00	2.189389e+05	
77	-3.85000e+00	2.220178e+05	
78	-3.90000e+00	2.250455e+05	
79	-3.95000e+00	2.280231e+05	
80	-4.00000e+00	2.309517e+05	
81	-4.05000e+00	2.338325e+05	
82	-4.10000e+00	2.366664e+05	
83	-4.15000e+00	2.394545e+05	
84	-4.20000e+00	2.421978e+05	
85	-4.25000e+00	2.448972e+05	
86	-4.30000e+00	2.475537e+05	
87	-4.35000e+00	2.501683e+05	
88	-4.40000e+00	2.527418e+05	
89	-4.45000e+00	2.552750e+05	
90	-4.50000e+00	2.577689e+05	
91	-4.55000e+00	2.602242e+05	
92	-4.60000e+00	2.626416e+05	
93	-4.65000e+00	2.650221e+05	
94	-4.70000e+00	2.673663e+05	
95	-4.75000e+00	2.696750e+05	
96	-4.80000e+00	2.719488e+05	
97	-4.85000e+00	2.741884e+05	
98	-4.90000e+00	2.763944e+05	
99	-4.95000e+00	2.785676e+05	
100	-5.00000e+00	2.807085e+05	
101	-5.05000e+00	2.828177e+05	
102	-5.10000e+00	2.848958e+05	
103	-5.15000e+00	2.869433e+05	
104	-5.20000e+00	2.889607e+05	
105	-5.25000e+00	2.909486e+05	
106	-5.30000e+00	2.929075e+05	
107	-5.35000e+00	2.948377e+05	
108	-5.40000e+00	2.967399e+05	
109	-5.45000e+00	2.986143e+05	
110	-5.50000e+00	3.004614e+05	
111	-5.55000e+00	3.022816e+05	
112	-5.60000e+00	3.040753e+05	

Index   v-sweep         rds             
--------------------------------------------------------------------------------
113	-5.65000e+00	3.058428e+05	
114	-5.70000e+00	3.075845e+05	
115	-5.75000e+00	3.093006e+05	
116	-5.80000e+00	3.109916e+05	
117	-5.85000e+00	3.126577e+05	
118	-5.90000e+00	3.142991e+05	
119	-5.95000e+00	3.159161e+05	
120	-6.00000e+00	3.175090e+05	
121	-6.05000e+00	3.190780e+05	
122	-6.10000e+00	3.206233e+05	
123	-6.15000e+00	3.221451e+05	
124	-6.20000e+00	3.236436e+05	
125	-6.25000e+00	3.251189e+05	
126	-6.30000e+00	3.265713e+05	
127	-6.35000e+00	3.280009e+05	
128	-6.40000e+00	3.294077e+05	
129	-6.45000e+00	3.307921e+05	
130	-6.50000e+00	3.321540e+05	
131	-6.55000e+00	3.334935e+05	
132	-6.60000e+00	3.348109e+05	
Reset re-loads circuit ***************************

Circuit: ***************************

Doing analysis at TEMP = -40.000000 and TNOM = -40.000000


No. of Data Rows : 133
                          ***************************
                          DC transfer characteristic  Mon Jan  9 13:57:55  2023
--------------------------------------------------------------------------------
Index   v-sweep         rds             
--------------------------------------------------------------------------------
0	0.000000e+00	5.145791e+03	
1	-5.00000e-02	5.283047e+03	
2	-1.00000e-01	5.425317e+03	
3	-1.50000e-01	5.572873e+03	
4	-2.00000e-01	5.726009e+03	
5	-2.50000e-01	5.885038e+03	
6	-3.00000e-01	6.050301e+03	
7	-3.50000e-01	6.222162e+03	
8	-4.00000e-01	6.401017e+03	
9	-4.50000e-01	6.587293e+03	
10	-5.00000e-01	6.781453e+03	
11	-5.50000e-01	6.984000e+03	
12	-6.00000e-01	7.195479e+03	
13	-6.50000e-01	7.416486e+03	
14	-7.00000e-01	7.647669e+03	
15	-7.50000e-01	7.889738e+03	
16	-8.00000e-01	8.143469e+03	
17	-8.50000e-01	8.409714e+03	
18	-9.00000e-01	8.689412e+03	
19	-9.50000e-01	8.983596e+03	
20	-1.00000e+00	9.293408e+03	
21	-1.05000e+00	9.620116e+03	
22	-1.10000e+00	9.965126e+03	
23	-1.15000e+00	1.033001e+04	
24	-1.20000e+00	1.071651e+04	
25	-1.25000e+00	1.112661e+04	
26	-1.30000e+00	1.156252e+04	
27	-1.35000e+00	1.202675e+04	
28	-1.40000e+00	1.252215e+04	
29	-1.45000e+00	1.305197e+04	
30	-1.50000e+00	1.361997e+04	
31	-1.55000e+00	1.423047e+04	
32	-1.60000e+00	1.488855e+04	
33	-1.65000e+00	1.560018e+04	
34	-1.70000e+00	1.637253e+04	
35	-1.75000e+00	1.721432e+04	
36	-1.80000e+00	1.813640e+04	
37	-1.85000e+00	1.915257e+04	
38	-1.90000e+00	2.028093e+04	
39	-1.95000e+00	2.154579e+04	
40	-2.00000e+00	2.298010e+04	
41	-2.05000e+00	2.462789e+04	
42	-2.10000e+00	2.654422e+04	
43	-2.15000e+00	2.878861e+04	
44	-2.20000e+00	3.140902e+04	
45	-2.25000e+00	3.442148e+04	
46	-2.30000e+00	3.779920e+04	
47	-2.35000e+00	4.148032e+04	
48	-2.40000e+00	4.538767e+04	
49	-2.45000e+00	4.944688e+04	
50	-2.50000e+00	5.359600e+04	
51	-2.55000e+00	5.778765e+04	
52	-2.60000e+00	6.198734e+04	
53	-2.65000e+00	6.617067e+04	
54	-2.70000e+00	7.032065e+04	

Index   v-sweep         rds             
--------------------------------------------------------------------------------
55	-2.75000e+00	7.442560e+04	
56	-2.80000e+00	7.847759e+04	
57	-2.85000e+00	8.247133e+04	
58	-2.90000e+00	8.640340e+04	
59	-2.95000e+00	9.027172e+04	
60	-3.00000e+00	9.407513e+04	
61	-3.05000e+00	9.781317e+04	
62	-3.10000e+00	1.014859e+05	
63	-3.15000e+00	1.050937e+05	
64	-3.20000e+00	1.086372e+05	
65	-3.25000e+00	1.121172e+05	
66	-3.30000e+00	1.155348e+05	
67	-3.35000e+00	1.188910e+05	
68	-3.40000e+00	1.221868e+05	
69	-3.45000e+00	1.254236e+05	
70	-3.50000e+00	1.286025e+05	
71	-3.55000e+00	1.317246e+05	
72	-3.60000e+00	1.347913e+05	
73	-3.65000e+00	1.378036e+05	
74	-3.70000e+00	1.407629e+05	
75	-3.75000e+00	1.436703e+05	
76	-3.80000e+00	1.465269e+05	
77	-3.85000e+00	1.493339e+05	
78	-3.90000e+00	1.520924e+05	
79	-3.95000e+00	1.548035e+05	
80	-4.00000e+00	1.574683e+05	
81	-4.05000e+00	1.600878e+05	
82	-4.10000e+00	1.626631e+05	
83	-4.15000e+00	1.651951e+05	
84	-4.20000e+00	1.676848e+05	
85	-4.25000e+00	1.701332e+05	
86	-4.30000e+00	1.725412e+05	
87	-4.35000e+00	1.749097e+05	
88	-4.40000e+00	1.772396e+05	
89	-4.45000e+00	1.795317e+05	
90	-4.50000e+00	1.817868e+05	
91	-4.55000e+00	1.840058e+05	
92	-4.60000e+00	1.861895e+05	
93	-4.65000e+00	1.883385e+05	
94	-4.70000e+00	1.904537e+05	
95	-4.75000e+00	1.925358e+05	
96	-4.80000e+00	1.945855e+05	
97	-4.85000e+00	1.966034e+05	
98	-4.90000e+00	1.985902e+05	
99	-4.95000e+00	2.005466e+05	
100	-5.00000e+00	2.024732e+05	
101	-5.05000e+00	2.043706e+05	
102	-5.10000e+00	2.062393e+05	
103	-5.15000e+00	2.080800e+05	
104	-5.20000e+00	2.098932e+05	
105	-5.25000e+00	2.116795e+05	
106	-5.30000e+00	2.134393e+05	
107	-5.35000e+00	2.151731e+05	
108	-5.40000e+00	2.168815e+05	
109	-5.45000e+00	2.185649e+05	
110	-5.50000e+00	2.202237e+05	
111	-5.55000e+00	2.218584e+05	
112	-5.60000e+00	2.234693e+05	

Index   v-sweep         rds             
--------------------------------------------------------------------------------
113	-5.65000e+00	2.250570e+05	
114	-5.70000e+00	2.266218e+05	
115	-5.75000e+00	2.281640e+05	
116	-5.80000e+00	2.296840e+05	
117	-5.85000e+00	2.311821e+05	
118	-5.90000e+00	2.326586e+05	
119	-5.95000e+00	2.341140e+05	
120	-6.00000e+00	2.355483e+05	
121	-6.05000e+00	2.369620e+05	
122	-6.10000e+00	2.383553e+05	
123	-6.15000e+00	2.397284e+05	
124	-6.20000e+00	2.410816e+05	
125	-6.25000e+00	2.424150e+05	
126	-6.30000e+00	2.437290e+05	
127	-6.35000e+00	2.450236e+05	
128	-6.40000e+00	2.462991e+05	
129	-6.45000e+00	2.475557e+05	
130	-6.50000e+00	2.487934e+05	
131	-6.55000e+00	2.500125e+05	
132	-6.60000e+00	2.512131e+05	
Reset re-loads circuit ***************************

Circuit: ***************************

Doing analysis at TEMP = -40.000000 and TNOM = -40.000000


No. of Data Rows : 133
                          ***************************
                          DC transfer characteristic  Mon Jan  9 13:57:55  2023
--------------------------------------------------------------------------------
Index   v-sweep         rds             
--------------------------------------------------------------------------------
0	0.000000e+00	4.574804e+03	
1	-5.00000e-02	4.677695e+03	
2	-1.00000e-01	4.783647e+03	
3	-1.50000e-01	4.892794e+03	
4	-2.00000e-01	5.005279e+03	
5	-2.50000e-01	5.121253e+03	
6	-3.00000e-01	5.240876e+03	
7	-3.50000e-01	5.364318e+03	
8	-4.00000e-01	5.491760e+03	
9	-4.50000e-01	5.623395e+03	
10	-5.00000e-01	5.759430e+03	
11	-5.50000e-01	5.900082e+03	
12	-6.00000e-01	6.045586e+03	
13	-6.50000e-01	6.196193e+03	
14	-7.00000e-01	6.352170e+03	
15	-7.50000e-01	6.513804e+03	
16	-8.00000e-01	6.681404e+03	
17	-8.50000e-01	6.855299e+03	
18	-9.00000e-01	7.035846e+03	
19	-9.50000e-01	7.223428e+03	
20	-1.00000e+00	7.418457e+03	
21	-1.05000e+00	7.621381e+03	
22	-1.10000e+00	7.832680e+03	
23	-1.15000e+00	8.052879e+03	
24	-1.20000e+00	8.282543e+03	
25	-1.25000e+00	8.522291e+03	
26	-1.30000e+00	8.772792e+03	
27	-1.35000e+00	9.034781e+03	
28	-1.40000e+00	9.309059e+03	
29	-1.45000e+00	9.596503e+03	
30	-1.50000e+00	9.898080e+03	
31	-1.55000e+00	1.021485e+04	
32	-1.60000e+00	1.054800e+04	
33	-1.65000e+00	1.089882e+04	
34	-1.70000e+00	1.126876e+04	
35	-1.75000e+00	1.165945e+04	
36	-1.80000e+00	1.207271e+04	
37	-1.85000e+00	1.251059e+04	
38	-1.90000e+00	1.297544e+04	
39	-1.95000e+00	1.346995e+04	
40	-2.00000e+00	1.399725e+04	
41	-2.05000e+00	1.456103e+04	
42	-2.10000e+00	1.516571e+04	
43	-2.15000e+00	1.581670e+04	
44	-2.20000e+00	1.652084e+04	
45	-2.25000e+00	1.728694e+04	
46	-2.30000e+00	1.812676e+04	
47	-2.35000e+00	1.905632e+04	
48	-2.40000e+00	2.009766e+04	
49	-2.45000e+00	2.128069e+04	
50	-2.50000e+00	2.264396e+04	
51	-2.55000e+00	2.423230e+04	
52	-2.60000e+00	2.608894e+04	
53	-2.65000e+00	2.824273e+04	
54	-2.70000e+00	3.069658e+04	

Index   v-sweep         rds             
--------------------------------------------------------------------------------
55	-2.75000e+00	3.342462e+04	
56	-2.80000e+00	3.638003e+04	
57	-2.85000e+00	3.950769e+04	
58	-2.90000e+00	4.275478e+04	
59	-2.95000e+00	4.607643e+04	
60	-3.00000e+00	4.943723e+04	
61	-3.05000e+00	5.281044e+04	
62	-3.10000e+00	5.617645e+04	
63	-3.15000e+00	5.952107e+04	
64	-3.20000e+00	6.283422e+04	
65	-3.25000e+00	6.610876e+04	
66	-3.30000e+00	6.933974e+04	
67	-3.35000e+00	7.252378e+04	
68	-3.40000e+00	7.565868e+04	
69	-3.45000e+00	7.874307e+04	
70	-3.50000e+00	8.177621e+04	
71	-3.55000e+00	8.475783e+04	
72	-3.60000e+00	8.768797e+04	
73	-3.65000e+00	9.056697e+04	
74	-3.70000e+00	9.339532e+04	
75	-3.75000e+00	9.617367e+04	
76	-3.80000e+00	9.890276e+04	
77	-3.85000e+00	1.015834e+05	
78	-3.90000e+00	1.042165e+05	
79	-3.95000e+00	1.068029e+05	
80	-4.00000e+00	1.093435e+05	
81	-4.05000e+00	1.118393e+05	
82	-4.10000e+00	1.142913e+05	
83	-4.15000e+00	1.167003e+05	
84	-4.20000e+00	1.190672e+05	
85	-4.25000e+00	1.213931e+05	
86	-4.30000e+00	1.236788e+05	
87	-4.35000e+00	1.259252e+05	
88	-4.40000e+00	1.281332e+05	
89	-4.45000e+00	1.303036e+05	
90	-4.50000e+00	1.324373e+05	
91	-4.55000e+00	1.345352e+05	
92	-4.60000e+00	1.365979e+05	
93	-4.65000e+00	1.386263e+05	
94	-4.70000e+00	1.406212e+05	
95	-4.75000e+00	1.425832e+05	
96	-4.80000e+00	1.445132e+05	
97	-4.85000e+00	1.464119e+05	
98	-4.90000e+00	1.482799e+05	
99	-4.95000e+00	1.501179e+05	
100	-5.00000e+00	1.519265e+05	
101	-5.05000e+00	1.537064e+05	
102	-5.10000e+00	1.554583e+05	
103	-5.15000e+00	1.571827e+05	
104	-5.20000e+00	1.588802e+05	
105	-5.25000e+00	1.605513e+05	
106	-5.30000e+00	1.621967e+05	
107	-5.35000e+00	1.638168e+05	
108	-5.40000e+00	1.654123e+05	
109	-5.45000e+00	1.669835e+05	
110	-5.50000e+00	1.685310e+05	
111	-5.55000e+00	1.700552e+05	
112	-5.60000e+00	1.715567e+05	

Index   v-sweep         rds             
--------------------------------------------------------------------------------
113	-5.65000e+00	1.730359e+05	
114	-5.70000e+00	1.744931e+05	
115	-5.75000e+00	1.759288e+05	
116	-5.80000e+00	1.773435e+05	
117	-5.85000e+00	1.787374e+05	
118	-5.90000e+00	1.801110e+05	
119	-5.95000e+00	1.814647e+05	
120	-6.00000e+00	1.827987e+05	
121	-6.05000e+00	1.841135e+05	
122	-6.10000e+00	1.854092e+05	
123	-6.15000e+00	1.866863e+05	
124	-6.20000e+00	1.879451e+05	
125	-6.25000e+00	1.891857e+05	
126	-6.30000e+00	1.904085e+05	
127	-6.35000e+00	1.916137e+05	
128	-6.40000e+00	1.928015e+05	
129	-6.45000e+00	1.939723e+05	
130	-6.50000e+00	1.951261e+05	
131	-6.55000e+00	1.962633e+05	
132	-6.60000e+00	1.973839e+05	
Reset re-loads circuit ***************************

Circuit: ***************************

Note: No ".plot", ".print", or ".fourier" lines; no simulations run
