
Note: Compatibility modes selected: hs

Warning: m=xx on .subckt line will override multiplier m hierarchy!


Circuit: ***************************

Doing analysis at TEMP = -40.000000 and TNOM = -40.000000


No. of Data Rows : 133
                          ***************************
                          DC transfer characteristic  Mon Jan  9 13:57:54  2023
--------------------------------------------------------------------------------
Index   v-sweep         rds             
--------------------------------------------------------------------------------
0	0.000000e+00	3.326451e+04	
1	-5.00000e-02	7.683585e+04	
2	-1.00000e-01	3.092558e+05	
3	-1.50000e-01	8.494785e+05	
4	-2.00000e-01	1.224227e+06	
5	-2.50000e-01	1.415017e+06	
6	-3.00000e-01	1.528714e+06	
7	-3.50000e-01	1.607995e+06	
8	-4.00000e-01	1.668566e+06	
9	-4.50000e-01	1.717164e+06	
10	-5.00000e-01	1.757208e+06	
11	-5.50000e-01	1.790701e+06	
12	-6.00000e-01	1.818950e+06	
13	-6.50000e-01	1.842882e+06	
14	-7.00000e-01	1.863188e+06	
15	-7.50000e-01	1.880407e+06	
16	-8.00000e-01	1.894970e+06	
17	-8.50000e-01	1.907231e+06	
18	-9.00000e-01	1.917481e+06	
19	-9.50000e-01	1.925967e+06	
20	-1.00000e+00	1.932897e+06	
21	-1.05000e+00	1.938450e+06	
22	-1.10000e+00	1.942780e+06	
23	-1.15000e+00	1.946020e+06	
24	-1.20000e+00	1.948286e+06	
25	-1.25000e+00	1.949679e+06	
26	-1.30000e+00	1.950290e+06	
27	-1.35000e+00	1.950197e+06	
28	-1.40000e+00	1.949469e+06	
29	-1.45000e+00	1.948168e+06	
30	-1.50000e+00	1.946351e+06	
31	-1.55000e+00	1.944065e+06	
32	-1.60000e+00	1.941355e+06	
33	-1.65000e+00	1.938262e+06	
34	-1.70000e+00	1.934820e+06	
35	-1.75000e+00	1.931061e+06	
36	-1.80000e+00	1.927015e+06	
37	-1.85000e+00	1.922708e+06	
38	-1.90000e+00	1.918164e+06	
39	-1.95000e+00	1.913405e+06	
40	-2.00000e+00	1.908449e+06	
41	-2.05000e+00	1.903316e+06	
42	-2.10000e+00	1.898022e+06	
43	-2.15000e+00	1.892582e+06	
44	-2.20000e+00	1.887008e+06	
45	-2.25000e+00	1.881315e+06	
46	-2.30000e+00	1.875513e+06	
47	-2.35000e+00	1.869614e+06	
48	-2.40000e+00	1.863626e+06	
49	-2.45000e+00	1.857559e+06	
50	-2.50000e+00	1.851421e+06	
51	-2.55000e+00	1.845220e+06	
52	-2.60000e+00	1.838962e+06	
53	-2.65000e+00	1.832655e+06	
54	-2.70000e+00	1.826304e+06	

Index   v-sweep         rds             
--------------------------------------------------------------------------------
55	-2.75000e+00	1.819915e+06	
56	-2.80000e+00	1.813492e+06	
57	-2.85000e+00	1.807041e+06	
58	-2.90000e+00	1.800566e+06	
59	-2.95000e+00	1.794071e+06	
60	-3.00000e+00	1.787560e+06	
61	-3.05000e+00	1.781037e+06	
62	-3.10000e+00	1.774503e+06	
63	-3.15000e+00	1.767964e+06	
64	-3.20000e+00	1.761421e+06	
65	-3.25000e+00	1.754876e+06	
66	-3.30000e+00	1.748334e+06	
67	-3.35000e+00	1.741794e+06	
68	-3.40000e+00	1.735261e+06	
69	-3.45000e+00	1.728735e+06	
70	-3.50000e+00	1.722218e+06	
71	-3.55000e+00	1.715712e+06	
72	-3.60000e+00	1.709219e+06	
73	-3.65000e+00	1.702740e+06	
74	-3.70000e+00	1.696276e+06	
75	-3.75000e+00	1.689829e+06	
76	-3.80000e+00	1.683399e+06	
77	-3.85000e+00	1.676987e+06	
78	-3.90000e+00	1.670595e+06	
79	-3.95000e+00	1.664224e+06	
80	-4.00000e+00	1.657874e+06	
81	-4.05000e+00	1.651546e+06	
82	-4.10000e+00	1.645240e+06	
83	-4.15000e+00	1.638958e+06	
84	-4.20000e+00	1.632699e+06	
85	-4.25000e+00	1.626465e+06	
86	-4.30000e+00	1.620256e+06	
87	-4.35000e+00	1.614072e+06	
88	-4.40000e+00	1.607913e+06	
89	-4.45000e+00	1.601781e+06	
90	-4.50000e+00	1.595674e+06	
91	-4.55000e+00	1.589595e+06	
92	-4.60000e+00	1.583541e+06	
93	-4.65000e+00	1.577515e+06	
94	-4.70000e+00	1.571516e+06	
95	-4.75000e+00	1.565545e+06	
96	-4.80000e+00	1.559600e+06	
97	-4.85000e+00	1.553684e+06	
98	-4.90000e+00	1.547795e+06	
99	-4.95000e+00	1.541933e+06	
100	-5.00000e+00	1.536099e+06	
101	-5.05000e+00	1.530293e+06	
102	-5.10000e+00	1.524515e+06	
103	-5.15000e+00	1.518765e+06	
104	-5.20000e+00	1.513042e+06	
105	-5.25000e+00	1.507347e+06	
106	-5.30000e+00	1.501679e+06	
107	-5.35000e+00	1.496039e+06	
108	-5.40000e+00	1.490427e+06	
109	-5.45000e+00	1.484842e+06	
110	-5.50000e+00	1.479284e+06	
111	-5.55000e+00	1.473754e+06	
112	-5.60000e+00	1.468251e+06	

Index   v-sweep         rds             
--------------------------------------------------------------------------------
113	-5.65000e+00	1.462775e+06	
114	-5.70000e+00	1.457325e+06	
115	-5.75000e+00	1.451903e+06	
116	-5.80000e+00	1.446507e+06	
117	-5.85000e+00	1.441138e+06	
118	-5.90000e+00	1.435795e+06	
119	-5.95000e+00	1.430478e+06	
120	-6.00000e+00	1.425188e+06	
121	-6.05000e+00	1.419923e+06	
122	-6.10000e+00	1.414685e+06	
123	-6.15000e+00	1.409472e+06	
124	-6.20000e+00	1.404284e+06	
125	-6.25000e+00	1.399122e+06	
126	-6.30000e+00	1.393985e+06	
127	-6.35000e+00	1.388873e+06	
128	-6.40000e+00	1.383786e+06	
129	-6.45000e+00	1.378723e+06	
130	-6.50000e+00	1.373685e+06	
131	-6.55000e+00	1.368671e+06	
132	-6.60000e+00	1.363682e+06	
Reset re-loads circuit ***************************

Circuit: ***************************

Doing analysis at TEMP = -40.000000 and TNOM = -40.000000


No. of Data Rows : 133
                          ***************************
                          DC transfer characteristic  Mon Jan  9 13:57:55  2023
--------------------------------------------------------------------------------
Index   v-sweep         rds             
--------------------------------------------------------------------------------
0	0.000000e+00	2.452183e+03	
1	-5.00000e-02	2.640685e+03	
2	-1.00000e-01	2.854610e+03	
3	-1.50000e-01	3.099428e+03	
4	-2.00000e-01	3.382289e+03	
5	-2.50000e-01	3.712714e+03	
6	-3.00000e-01	4.103646e+03	
7	-3.50000e-01	4.573103e+03	
8	-4.00000e-01	5.146825e+03	
9	-4.50000e-01	5.862637e+03	
10	-5.00000e-01	6.777698e+03	
11	-5.50000e-01	7.980200e+03	
12	-6.00000e-01	9.605618e+03	
13	-6.50000e-01	1.184641e+04	
14	-7.00000e-01	1.490687e+04	
15	-7.50000e-01	1.883149e+04	
16	-8.00000e-01	2.334155e+04	
17	-8.50000e-01	2.801453e+04	
18	-9.00000e-01	3.258239e+04	
19	-9.50000e-01	3.695823e+04	
20	-1.00000e+00	4.113645e+04	
21	-1.05000e+00	4.513237e+04	
22	-1.10000e+00	4.896269e+04	
23	-1.15000e+00	5.264143e+04	
24	-1.20000e+00	5.617993e+04	
25	-1.25000e+00	5.958751e+04	
26	-1.30000e+00	6.287208e+04	
27	-1.35000e+00	6.604050e+04	
28	-1.40000e+00	6.909888e+04	
29	-1.45000e+00	7.205276e+04	
30	-1.50000e+00	7.490719e+04	
31	-1.55000e+00	7.766684e+04	
32	-1.60000e+00	8.033608e+04	
33	-1.65000e+00	8.291894e+04	
34	-1.70000e+00	8.541925e+04	
35	-1.75000e+00	8.784057e+04	
36	-1.80000e+00	9.018627e+04	
37	-1.85000e+00	9.245954e+04	
38	-1.90000e+00	9.466338e+04	
39	-1.95000e+00	9.680062e+04	
40	-2.00000e+00	9.887397e+04	
41	-2.05000e+00	1.008860e+05	
42	-2.10000e+00	1.028390e+05	
43	-2.15000e+00	1.047355e+05	
44	-2.20000e+00	1.065774e+05	
45	-2.25000e+00	1.083671e+05	
46	-2.30000e+00	1.101063e+05	
47	-2.35000e+00	1.117969e+05	
48	-2.40000e+00	1.134409e+05	
49	-2.45000e+00	1.150398e+05	
50	-2.50000e+00	1.165953e+05	
51	-2.55000e+00	1.181089e+05	
52	-2.60000e+00	1.195822e+05	
53	-2.65000e+00	1.210165e+05	
54	-2.70000e+00	1.224132e+05	

Index   v-sweep         rds             
--------------------------------------------------------------------------------
55	-2.75000e+00	1.237736e+05	
56	-2.80000e+00	1.250989e+05	
57	-2.85000e+00	1.263902e+05	
58	-2.90000e+00	1.276488e+05	
59	-2.95000e+00	1.288757e+05	
60	-3.00000e+00	1.300719e+05	
61	-3.05000e+00	1.312385e+05	
62	-3.10000e+00	1.323763e+05	
63	-3.15000e+00	1.334862e+05	
64	-3.20000e+00	1.345693e+05	
65	-3.25000e+00	1.356262e+05	
66	-3.30000e+00	1.366579e+05	
67	-3.35000e+00	1.376650e+05	
68	-3.40000e+00	1.386483e+05	
69	-3.45000e+00	1.396086e+05	
70	-3.50000e+00	1.405465e+05	
71	-3.55000e+00	1.414626e+05	
72	-3.60000e+00	1.423576e+05	
73	-3.65000e+00	1.432322e+05	
74	-3.70000e+00	1.440868e+05	
75	-3.75000e+00	1.449221e+05	
76	-3.80000e+00	1.457386e+05	
77	-3.85000e+00	1.465368e+05	
78	-3.90000e+00	1.473171e+05	
79	-3.95000e+00	1.480802e+05	
80	-4.00000e+00	1.488264e+05	
81	-4.05000e+00	1.495562e+05	
82	-4.10000e+00	1.502701e+05	
83	-4.15000e+00	1.509683e+05	
84	-4.20000e+00	1.516514e+05	
85	-4.25000e+00	1.523196e+05	
86	-4.30000e+00	1.529734e+05	
87	-4.35000e+00	1.536131e+05	
88	-4.40000e+00	1.542391e+05	
89	-4.45000e+00	1.548516e+05	
90	-4.50000e+00	1.554510e+05	
91	-4.55000e+00	1.560375e+05	
92	-4.60000e+00	1.566115e+05	
93	-4.65000e+00	1.571731e+05	
94	-4.70000e+00	1.577228e+05	
95	-4.75000e+00	1.582607e+05	
96	-4.80000e+00	1.587871e+05	
97	-4.85000e+00	1.593021e+05	
98	-4.90000e+00	1.598061e+05	
99	-4.95000e+00	1.602992e+05	
100	-5.00000e+00	1.607816e+05	
101	-5.05000e+00	1.612535e+05	
102	-5.10000e+00	1.617152e+05	
103	-5.15000e+00	1.621667e+05	
104	-5.20000e+00	1.626083e+05	
105	-5.25000e+00	1.630401e+05	
106	-5.30000e+00	1.634623e+05	
107	-5.35000e+00	1.638749e+05	
108	-5.40000e+00	1.642783e+05	
109	-5.45000e+00	1.646724e+05	
110	-5.50000e+00	1.650575e+05	
111	-5.55000e+00	1.654336e+05	
112	-5.60000e+00	1.658009e+05	

Index   v-sweep         rds             
--------------------------------------------------------------------------------
113	-5.65000e+00	1.661594e+05	
114	-5.70000e+00	1.665094e+05	
115	-5.75000e+00	1.668508e+05	
116	-5.80000e+00	1.671838e+05	
117	-5.85000e+00	1.675086e+05	
118	-5.90000e+00	1.678251e+05	
119	-5.95000e+00	1.681335e+05	
120	-6.00000e+00	1.684338e+05	
121	-6.05000e+00	1.687262e+05	
122	-6.10000e+00	1.690107e+05	
123	-6.15000e+00	1.692874e+05	
124	-6.20000e+00	1.695564e+05	
125	-6.25000e+00	1.698177e+05	
126	-6.30000e+00	1.700714e+05	
127	-6.35000e+00	1.703175e+05	
128	-6.40000e+00	1.705563e+05	
129	-6.45000e+00	1.707876e+05	
130	-6.50000e+00	1.710115e+05	
131	-6.55000e+00	1.712282e+05	
132	-6.60000e+00	1.714377e+05	
Reset re-loads circuit ***************************

Circuit: ***************************

Doing analysis at TEMP = -40.000000 and TNOM = -40.000000


No. of Data Rows : 133
                          ***************************
                          DC transfer characteristic  Mon Jan  9 13:57:55  2023
--------------------------------------------------------------------------------
Index   v-sweep         rds             
--------------------------------------------------------------------------------
0	0.000000e+00	1.495274e+03	
1	-5.00000e-02	1.562209e+03	
2	-1.00000e-01	1.633791e+03	
3	-1.50000e-01	1.710514e+03	
4	-2.00000e-01	1.792947e+03	
5	-2.50000e-01	1.881743e+03	
6	-3.00000e-01	1.977662e+03	
7	-3.50000e-01	2.081587e+03	
8	-4.00000e-01	2.194554e+03	
9	-4.50000e-01	2.317785e+03	
10	-5.00000e-01	2.452735e+03	
11	-5.50000e-01	2.601142e+03	
12	-6.00000e-01	2.765106e+03	
13	-6.50000e-01	2.947187e+03	
14	-7.00000e-01	3.150533e+03	
15	-7.50000e-01	3.379059e+03	
16	-8.00000e-01	3.637693e+03	
17	-8.50000e-01	3.932717e+03	
18	-9.00000e-01	4.272247e+03	
19	-9.50000e-01	4.666919e+03	
20	-1.00000e+00	5.130856e+03	
21	-1.05000e+00	5.682979e+03	
22	-1.10000e+00	6.348570e+03	
23	-1.15000e+00	7.160338e+03	
24	-1.20000e+00	8.156559e+03	
25	-1.25000e+00	9.371647e+03	
26	-1.30000e+00	1.081766e+04	
27	-1.35000e+00	1.246949e+04	
28	-1.40000e+00	1.427213e+04	
29	-1.45000e+00	1.616426e+04	
30	-1.50000e+00	1.809595e+04	
31	-1.55000e+00	2.003295e+04	
32	-1.60000e+00	2.195382e+04	
33	-1.65000e+00	2.384578e+04	
34	-1.70000e+00	2.570146e+04	
35	-1.75000e+00	2.751679e+04	
36	-1.80000e+00	2.928976e+04	
37	-1.85000e+00	3.101955e+04	
38	-1.90000e+00	3.270615e+04	
39	-1.95000e+00	3.435001e+04	
40	-2.00000e+00	3.595189e+04	
41	-2.05000e+00	3.751273e+04	
42	-2.10000e+00	3.903357e+04	
43	-2.15000e+00	4.051553e+04	
44	-2.20000e+00	4.195975e+04	
45	-2.25000e+00	4.336736e+04	
46	-2.30000e+00	4.473950e+04	
47	-2.35000e+00	4.607729e+04	
48	-2.40000e+00	4.738181e+04	
49	-2.45000e+00	4.865414e+04	
50	-2.50000e+00	4.989531e+04	
51	-2.55000e+00	5.110630e+04	
52	-2.60000e+00	5.228809e+04	
53	-2.65000e+00	5.344161e+04	
54	-2.70000e+00	5.456775e+04	

Index   v-sweep         rds             
--------------------------------------------------------------------------------
55	-2.75000e+00	5.566739e+04	
56	-2.80000e+00	5.674135e+04	
57	-2.85000e+00	5.779044e+04	
58	-2.90000e+00	5.881543e+04	
59	-2.95000e+00	5.981707e+04	
60	-3.00000e+00	6.079607e+04	
61	-3.05000e+00	6.175311e+04	
62	-3.10000e+00	6.268886e+04	
63	-3.15000e+00	6.360397e+04	
64	-3.20000e+00	6.449904e+04	
65	-3.25000e+00	6.537466e+04	
66	-3.30000e+00	6.623140e+04	
67	-3.35000e+00	6.706982e+04	
68	-3.40000e+00	6.789044e+04	
69	-3.45000e+00	6.869376e+04	
70	-3.50000e+00	6.948029e+04	
71	-3.55000e+00	7.025048e+04	
72	-3.60000e+00	7.100481e+04	
73	-3.65000e+00	7.174370e+04	
74	-3.70000e+00	7.246758e+04	
75	-3.75000e+00	7.317686e+04	
76	-3.80000e+00	7.387193e+04	
77	-3.85000e+00	7.455318e+04	
78	-3.90000e+00	7.522096e+04	
79	-3.95000e+00	7.587564e+04	
80	-4.00000e+00	7.651755e+04	
81	-4.05000e+00	7.714703e+04	
82	-4.10000e+00	7.776438e+04	
83	-4.15000e+00	7.836993e+04	
84	-4.20000e+00	7.896395e+04	
85	-4.25000e+00	7.954675e+04	
86	-4.30000e+00	8.011858e+04	
87	-4.35000e+00	8.067972e+04	
88	-4.40000e+00	8.123043e+04	
89	-4.45000e+00	8.177094e+04	
90	-4.50000e+00	8.230150e+04	
91	-4.55000e+00	8.282233e+04	
92	-4.60000e+00	8.333366e+04	
93	-4.65000e+00	8.383568e+04	
94	-4.70000e+00	8.432862e+04	
95	-4.75000e+00	8.481265e+04	
96	-4.80000e+00	8.528797e+04	
97	-4.85000e+00	8.575476e+04	
98	-4.90000e+00	8.621319e+04	
99	-4.95000e+00	8.666343e+04	
100	-5.00000e+00	8.710563e+04	
101	-5.05000e+00	8.753995e+04	
102	-5.10000e+00	8.796653e+04	
103	-5.15000e+00	8.838551e+04	
104	-5.20000e+00	8.879702e+04	
105	-5.25000e+00	8.920119e+04	
106	-5.30000e+00	8.959814e+04	
107	-5.35000e+00	8.998799e+04	
108	-5.40000e+00	9.037084e+04	
109	-5.45000e+00	9.074679e+04	
110	-5.50000e+00	9.111596e+04	
111	-5.55000e+00	9.147843e+04	
112	-5.60000e+00	9.183428e+04	

Index   v-sweep         rds             
--------------------------------------------------------------------------------
113	-5.65000e+00	9.218362e+04	
114	-5.70000e+00	9.252651e+04	
115	-5.75000e+00	9.286303e+04	
116	-5.80000e+00	9.319326e+04	
117	-5.85000e+00	9.351727e+04	
118	-5.90000e+00	9.383511e+04	
119	-5.95000e+00	9.414685e+04	
120	-6.00000e+00	9.445254e+04	
121	-6.05000e+00	9.475225e+04	
122	-6.10000e+00	9.504601e+04	
123	-6.15000e+00	9.533389e+04	
124	-6.20000e+00	9.561592e+04	
125	-6.25000e+00	9.589216e+04	
126	-6.30000e+00	9.616263e+04	
127	-6.35000e+00	9.642738e+04	
128	-6.40000e+00	9.668644e+04	
129	-6.45000e+00	9.693985e+04	
130	-6.50000e+00	9.718764e+04	
131	-6.55000e+00	9.742984e+04	
132	-6.60000e+00	9.766648e+04	
Reset re-loads circuit ***************************

Circuit: ***************************

Doing analysis at TEMP = -40.000000 and TNOM = -40.000000


No. of Data Rows : 133
                          ***************************
                          DC transfer characteristic  Mon Jan  9 13:57:55  2023
--------------------------------------------------------------------------------
Index   v-sweep         rds             
--------------------------------------------------------------------------------
0	0.000000e+00	1.164136e+03	
1	-5.00000e-02	1.202408e+03	
2	-1.00000e-01	1.242498e+03	
3	-1.50000e-01	1.284537e+03	
4	-2.00000e-01	1.328666e+03	
5	-2.50000e-01	1.375043e+03	
6	-3.00000e-01	1.423842e+03	
7	-3.50000e-01	1.475255e+03	
8	-4.00000e-01	1.529494e+03	
9	-4.50000e-01	1.586795e+03	
10	-5.00000e-01	1.647423e+03	
11	-5.50000e-01	1.711672e+03	
12	-6.00000e-01	1.779872e+03	
13	-6.50000e-01	1.852397e+03	
14	-7.00000e-01	1.929666e+03	
15	-7.50000e-01	2.012158e+03	
16	-8.00000e-01	2.100415e+03	
17	-8.50000e-01	2.195059e+03	
18	-9.00000e-01	2.296806e+03	
19	-9.50000e-01	2.406481e+03	
20	-1.00000e+00	2.525044e+03	
21	-1.05000e+00	2.653621e+03	
22	-1.10000e+00	2.793536e+03	
23	-1.15000e+00	2.946364e+03	
24	-1.20000e+00	3.113995e+03	
25	-1.25000e+00	3.298722e+03	
26	-1.30000e+00	3.503370e+03	
27	-1.35000e+00	3.731471e+03	
28	-1.40000e+00	3.987538e+03	
29	-1.45000e+00	4.277471e+03	
30	-1.50000e+00	4.609187e+03	
31	-1.55000e+00	4.993517e+03	
32	-1.60000e+00	5.445301e+03	
33	-1.65000e+00	5.984022e+03	
34	-1.70000e+00	6.632287e+03	
35	-1.75000e+00	7.409988e+03	
36	-1.80000e+00	8.325049e+03	
37	-1.85000e+00	9.367360e+03	
38	-1.90000e+00	1.051186e+04	
39	-1.95000e+00	1.172777e+04	
40	-2.00000e+00	1.298673e+04	
41	-2.05000e+00	1.426637e+04	
42	-2.10000e+00	1.555052e+04	
43	-2.15000e+00	1.682809e+04	
44	-2.20000e+00	1.809169e+04	
45	-2.25000e+00	1.933650e+04	
46	-2.30000e+00	2.055943e+04	
47	-2.35000e+00	2.175861e+04	
48	-2.40000e+00	2.293296e+04	
49	-2.45000e+00	2.408195e+04	
50	-2.50000e+00	2.520544e+04	
51	-2.55000e+00	2.630353e+04	
52	-2.60000e+00	2.737650e+04	
53	-2.65000e+00	2.842476e+04	
54	-2.70000e+00	2.944880e+04	

Index   v-sweep         rds             
--------------------------------------------------------------------------------
55	-2.75000e+00	3.044915e+04	
56	-2.80000e+00	3.142638e+04	
57	-2.85000e+00	3.238109e+04	
58	-2.90000e+00	3.331388e+04	
59	-2.95000e+00	3.422534e+04	
60	-3.00000e+00	3.511607e+04	
61	-3.05000e+00	3.598666e+04	
62	-3.10000e+00	3.683769e+04	
63	-3.15000e+00	3.766972e+04	
64	-3.20000e+00	3.848330e+04	
65	-3.25000e+00	3.927896e+04	
66	-3.30000e+00	4.005723e+04	
67	-3.35000e+00	4.081860e+04	
68	-3.40000e+00	4.156357e+04	
69	-3.45000e+00	4.229261e+04	
70	-3.50000e+00	4.300617e+04	
71	-3.55000e+00	4.370470e+04	
72	-3.60000e+00	4.438862e+04	
73	-3.65000e+00	4.505835e+04	
74	-3.70000e+00	4.571429e+04	
75	-3.75000e+00	4.635681e+04	
76	-3.80000e+00	4.698630e+04	
77	-3.85000e+00	4.760311e+04	
78	-3.90000e+00	4.820759e+04	
79	-3.95000e+00	4.880007e+04	
80	-4.00000e+00	4.938088e+04	
81	-4.05000e+00	4.995033e+04	
82	-4.10000e+00	5.050873e+04	
83	-4.15000e+00	5.105636e+04	
84	-4.20000e+00	5.159350e+04	
85	-4.25000e+00	5.212044e+04	
86	-4.30000e+00	5.263743e+04	
87	-4.35000e+00	5.314473e+04	
88	-4.40000e+00	5.364258e+04	
89	-4.45000e+00	5.413122e+04	
90	-4.50000e+00	5.461088e+04	
91	-4.55000e+00	5.508178e+04	
92	-4.60000e+00	5.554413e+04	
93	-4.65000e+00	5.599815e+04	
94	-4.70000e+00	5.644402e+04	
95	-4.75000e+00	5.688195e+04	
96	-4.80000e+00	5.731211e+04	
97	-4.85000e+00	5.773469e+04	
98	-4.90000e+00	5.814985e+04	
99	-4.95000e+00	5.855776e+04	
100	-5.00000e+00	5.895859e+04	
101	-5.05000e+00	5.935248e+04	
102	-5.10000e+00	5.973958e+04	
103	-5.15000e+00	6.012003e+04	
104	-5.20000e+00	6.049397e+04	
105	-5.25000e+00	6.086153e+04	
106	-5.30000e+00	6.122284e+04	
107	-5.35000e+00	6.157800e+04	
108	-5.40000e+00	6.192715e+04	
109	-5.45000e+00	6.227038e+04	
110	-5.50000e+00	6.260779e+04	
111	-5.55000e+00	6.293950e+04	
112	-5.60000e+00	6.326559e+04	

Index   v-sweep         rds             
--------------------------------------------------------------------------------
113	-5.65000e+00	6.358615e+04	
114	-5.70000e+00	6.390127e+04	
115	-5.75000e+00	6.421103e+04	
116	-5.80000e+00	6.451551e+04	
117	-5.85000e+00	6.481478e+04	
118	-5.90000e+00	6.510890e+04	
119	-5.95000e+00	6.539795e+04	
120	-6.00000e+00	6.568198e+04	
121	-6.05000e+00	6.596105e+04	
122	-6.10000e+00	6.623521e+04	
123	-6.15000e+00	6.650452e+04	
124	-6.20000e+00	6.676902e+04	
125	-6.25000e+00	6.702876e+04	
126	-6.30000e+00	6.728378e+04	
127	-6.35000e+00	6.753412e+04	
128	-6.40000e+00	6.777980e+04	
129	-6.45000e+00	6.802087e+04	
130	-6.50000e+00	6.825736e+04	
131	-6.55000e+00	6.848930e+04	
132	-6.60000e+00	6.871670e+04	
Reset re-loads circuit ***************************

Circuit: ***************************

Doing analysis at TEMP = -40.000000 and TNOM = -40.000000


No. of Data Rows : 133
                          ***************************
                          DC transfer characteristic  Mon Jan  9 13:57:55  2023
--------------------------------------------------------------------------------
Index   v-sweep         rds             
--------------------------------------------------------------------------------
0	0.000000e+00	9.961361e+02	
1	-5.00000e-02	1.022456e+03	
2	-1.00000e-01	1.049734e+03	
3	-1.50000e-01	1.078021e+03	
4	-2.00000e-01	1.107374e+03	
5	-2.50000e-01	1.137851e+03	
6	-3.00000e-01	1.169518e+03	
7	-3.50000e-01	1.202445e+03	
8	-4.00000e-01	1.236706e+03	
9	-4.50000e-01	1.272382e+03	
10	-5.00000e-01	1.309562e+03	
11	-5.50000e-01	1.348341e+03	
12	-6.00000e-01	1.388823e+03	
13	-6.50000e-01	1.431121e+03	
14	-7.00000e-01	1.475359e+03	
15	-7.50000e-01	1.521670e+03	
16	-8.00000e-01	1.570202e+03	
17	-8.50000e-01	1.621118e+03	
18	-9.00000e-01	1.674596e+03	
19	-9.50000e-01	1.730831e+03	
20	-1.00000e+00	1.790040e+03	
21	-1.05000e+00	1.852465e+03	
22	-1.10000e+00	1.918372e+03	
23	-1.15000e+00	1.988059e+03	
24	-1.20000e+00	2.061861e+03	
25	-1.25000e+00	2.140150e+03	
26	-1.30000e+00	2.223351e+03	
27	-1.35000e+00	2.311942e+03	
28	-1.40000e+00	2.406468e+03	
29	-1.45000e+00	2.507555e+03	
30	-1.50000e+00	2.615925e+03	
31	-1.55000e+00	2.732419e+03	
32	-1.60000e+00	2.858031e+03	
33	-1.65000e+00	2.993944e+03	
34	-1.70000e+00	3.141598e+03	
35	-1.75000e+00	3.302776e+03	
36	-1.80000e+00	3.479750e+03	
37	-1.85000e+00	3.675497e+03	
38	-1.90000e+00	3.894034e+03	
39	-1.95000e+00	4.140936e+03	
40	-2.00000e+00	4.424014e+03	
41	-2.05000e+00	4.754055e+03	
42	-2.10000e+00	5.145047e+03	
43	-2.15000e+00	5.612890e+03	
44	-2.20000e+00	6.171639e+03	
45	-2.25000e+00	6.828170e+03	
46	-2.30000e+00	7.578582e+03	
47	-2.35000e+00	8.409166e+03	
48	-2.40000e+00	9.300990e+03	
49	-2.45000e+00	1.023476e+04	
50	-2.50000e+00	1.119376e+04	
51	-2.55000e+00	1.216488e+04	
52	-2.60000e+00	1.313836e+04	
53	-2.65000e+00	1.410723e+04	
54	-2.70000e+00	1.506660e+04	

Index   v-sweep         rds             
--------------------------------------------------------------------------------
55	-2.75000e+00	1.601310e+04	
56	-2.80000e+00	1.694446e+04	
57	-2.85000e+00	1.785921e+04	
58	-2.90000e+00	1.875642e+04	
59	-2.95000e+00	1.963555e+04	
60	-3.00000e+00	2.049637e+04	
61	-3.05000e+00	2.133882e+04	
62	-3.10000e+00	2.216300e+04	
63	-3.15000e+00	2.296913e+04	
64	-3.20000e+00	2.375747e+04	
65	-3.25000e+00	2.452836e+04	
66	-3.30000e+00	2.528217e+04	
67	-3.35000e+00	2.601927e+04	
68	-3.40000e+00	2.674008e+04	
69	-3.45000e+00	2.744500e+04	
70	-3.50000e+00	2.813443e+04	
71	-3.55000e+00	2.880880e+04	
72	-3.60000e+00	2.946851e+04	
73	-3.65000e+00	3.011395e+04	
74	-3.70000e+00	3.074552e+04	
75	-3.75000e+00	3.136361e+04	
76	-3.80000e+00	3.196858e+04	
77	-3.85000e+00	3.256081e+04	
78	-3.90000e+00	3.314064e+04	
79	-3.95000e+00	3.370842e+04	
80	-4.00000e+00	3.426449e+04	
81	-4.05000e+00	3.480917e+04	
82	-4.10000e+00	3.534277e+04	
83	-4.15000e+00	3.586560e+04	
84	-4.20000e+00	3.637796e+04	
85	-4.25000e+00	3.688012e+04	
86	-4.30000e+00	3.737236e+04	
87	-4.35000e+00	3.785496e+04	
88	-4.40000e+00	3.832816e+04	
89	-4.45000e+00	3.879222e+04	
90	-4.50000e+00	3.924738e+04	
91	-4.55000e+00	3.969388e+04	
92	-4.60000e+00	4.013193e+04	
93	-4.65000e+00	4.056175e+04	
94	-4.70000e+00	4.098357e+04	
95	-4.75000e+00	4.139757e+04	
96	-4.80000e+00	4.180396e+04	
97	-4.85000e+00	4.220293e+04	
98	-4.90000e+00	4.259467e+04	
99	-4.95000e+00	4.297934e+04	
100	-5.00000e+00	4.335713e+04	
101	-5.05000e+00	4.372820e+04	
102	-5.10000e+00	4.409270e+04	
103	-5.15000e+00	4.445079e+04	
104	-5.20000e+00	4.480263e+04	
105	-5.25000e+00	4.514835e+04	
106	-5.30000e+00	4.548809e+04	
107	-5.35000e+00	4.582199e+04	
108	-5.40000e+00	4.615018e+04	
109	-5.45000e+00	4.647277e+04	
110	-5.50000e+00	4.678989e+04	
111	-5.55000e+00	4.710164e+04	
112	-5.60000e+00	4.740815e+04	

Index   v-sweep         rds             
--------------------------------------------------------------------------------
113	-5.65000e+00	4.770950e+04	
114	-5.70000e+00	4.800581e+04	
115	-5.75000e+00	4.829716e+04	
116	-5.80000e+00	4.858366e+04	
117	-5.85000e+00	4.886538e+04	
118	-5.90000e+00	4.914240e+04	
119	-5.95000e+00	4.941482e+04	
120	-6.00000e+00	4.968270e+04	
121	-6.05000e+00	4.994611e+04	
122	-6.10000e+00	5.020512e+04	
123	-6.15000e+00	5.045979e+04	
124	-6.20000e+00	5.071019e+04	
125	-6.25000e+00	5.095637e+04	
126	-6.30000e+00	5.119839e+04	
127	-6.35000e+00	5.143629e+04	
128	-6.40000e+00	5.167012e+04	
129	-6.45000e+00	5.189992e+04	
130	-6.50000e+00	5.212574e+04	
131	-6.55000e+00	5.234761e+04	
132	-6.60000e+00	5.256558e+04	
Reset re-loads circuit ***************************

Circuit: ***************************

Doing analysis at TEMP = -40.000000 and TNOM = -40.000000


No. of Data Rows : 133
                          ***************************
                          DC transfer characteristic  Mon Jan  9 13:57:55  2023
--------------------------------------------------------------------------------
Index   v-sweep         rds             
--------------------------------------------------------------------------------
0	0.000000e+00	8.947137e+02	
1	-5.00000e-02	9.146446e+02	
2	-1.00000e-01	9.351656e+02	
3	-1.50000e-01	9.563026e+02	
4	-2.00000e-01	9.780827e+02	
5	-2.50000e-01	1.000535e+03	
6	-3.00000e-01	1.023690e+03	
7	-3.50000e-01	1.047581e+03	
8	-4.00000e-01	1.072243e+03	
9	-4.50000e-01	1.097711e+03	
10	-5.00000e-01	1.124027e+03	
11	-5.50000e-01	1.151231e+03	
12	-6.00000e-01	1.179369e+03	
13	-6.50000e-01	1.208489e+03	
14	-7.00000e-01	1.238641e+03	
15	-7.50000e-01	1.269882e+03	
16	-8.00000e-01	1.302269e+03	
17	-8.50000e-01	1.335867e+03	
18	-9.00000e-01	1.370742e+03	
19	-9.50000e-01	1.406970e+03	
20	-1.00000e+00	1.444628e+03	
21	-1.05000e+00	1.483802e+03	
22	-1.10000e+00	1.524584e+03	
23	-1.15000e+00	1.567074e+03	
24	-1.20000e+00	1.611382e+03	
25	-1.25000e+00	1.657623e+03	
26	-1.30000e+00	1.705928e+03	
27	-1.35000e+00	1.756436e+03	
28	-1.40000e+00	1.809300e+03	
29	-1.45000e+00	1.864689e+03	
30	-1.50000e+00	1.922788e+03	
31	-1.55000e+00	1.983800e+03	
32	-1.60000e+00	2.047951e+03	
33	-1.65000e+00	2.115492e+03	
34	-1.70000e+00	2.186702e+03	
35	-1.75000e+00	2.261895e+03	
36	-1.80000e+00	2.341423e+03	
37	-1.85000e+00	2.425688e+03	
38	-1.90000e+00	2.515151e+03	
39	-1.95000e+00	2.610344e+03	
40	-2.00000e+00	2.711892e+03	
41	-2.05000e+00	2.820542e+03	
42	-2.10000e+00	2.937204e+03	
43	-2.15000e+00	3.063011e+03	
44	-2.20000e+00	3.199418e+03	
45	-2.25000e+00	3.348346e+03	
46	-2.30000e+00	3.512406e+03	
47	-2.35000e+00	3.695222e+03	
48	-2.40000e+00	3.901874e+03	
49	-2.45000e+00	4.139395e+03	
50	-2.50000e+00	4.417086e+03	
51	-2.55000e+00	4.746180e+03	
52	-2.60000e+00	5.138220e+03	
53	-2.65000e+00	5.602088e+03	
54	-2.70000e+00	6.140813e+03	

Index   v-sweep         rds             
--------------------------------------------------------------------------------
55	-2.75000e+00	6.750133e+03	
56	-2.80000e+00	7.419737e+03	
57	-2.85000e+00	8.136208e+03	
58	-2.90000e+00	8.885900e+03	
59	-2.95000e+00	9.656736e+03	
60	-3.00000e+00	1.043890e+04	
61	-3.05000e+00	1.122484e+04	
62	-3.10000e+00	1.200892e+04	
63	-3.15000e+00	1.278706e+04	
64	-3.20000e+00	1.355631e+04	
65	-3.25000e+00	1.431462e+04	
66	-3.30000e+00	1.506059e+04	
67	-3.35000e+00	1.579326e+04	
68	-3.40000e+00	1.651205e+04	
69	-3.45000e+00	1.721661e+04	
70	-3.50000e+00	1.790678e+04	
71	-3.55000e+00	1.858256e+04	
72	-3.60000e+00	1.924401e+04	
73	-3.65000e+00	1.989130e+04	
74	-3.70000e+00	2.052464e+04	
75	-3.75000e+00	2.114427e+04	
76	-3.80000e+00	2.175047e+04	
77	-3.85000e+00	2.234353e+04	
78	-3.90000e+00	2.292375e+04	
79	-3.95000e+00	2.349145e+04	
80	-4.00000e+00	2.404693e+04	
81	-4.05000e+00	2.459052e+04	
82	-4.10000e+00	2.512252e+04	
83	-4.15000e+00	2.564324e+04	
84	-4.20000e+00	2.615298e+04	
85	-4.25000e+00	2.665203e+04	
86	-4.30000e+00	2.714070e+04	
87	-4.35000e+00	2.761925e+04	
88	-4.40000e+00	2.808797e+04	
89	-4.45000e+00	2.854712e+04	
90	-4.50000e+00	2.899697e+04	
91	-4.55000e+00	2.943776e+04	
92	-4.60000e+00	2.986974e+04	
93	-4.65000e+00	3.029316e+04	
94	-4.70000e+00	3.070823e+04	
95	-4.75000e+00	3.111518e+04	
96	-4.80000e+00	3.151423e+04	
97	-4.85000e+00	3.190560e+04	
98	-4.90000e+00	3.228947e+04	
99	-4.95000e+00	3.266605e+04	
100	-5.00000e+00	3.303552e+04	
101	-5.05000e+00	3.339807e+04	
102	-5.10000e+00	3.375389e+04	
103	-5.15000e+00	3.410313e+04	
104	-5.20000e+00	3.444596e+04	
105	-5.25000e+00	3.478256e+04	
106	-5.30000e+00	3.511306e+04	
107	-5.35000e+00	3.543762e+04	
108	-5.40000e+00	3.575639e+04	
109	-5.45000e+00	3.606951e+04	
110	-5.50000e+00	3.637711e+04	
111	-5.55000e+00	3.667932e+04	
112	-5.60000e+00	3.697626e+04	

Index   v-sweep         rds             
--------------------------------------------------------------------------------
113	-5.65000e+00	3.726806e+04	
114	-5.70000e+00	3.755484e+04	
115	-5.75000e+00	3.783670e+04	
116	-5.80000e+00	3.811376e+04	
117	-5.85000e+00	3.838612e+04	
118	-5.90000e+00	3.865387e+04	
119	-5.95000e+00	3.891712e+04	
120	-6.00000e+00	3.917596e+04	
121	-6.05000e+00	3.943046e+04	
122	-6.10000e+00	3.968073e+04	
123	-6.15000e+00	3.992683e+04	
124	-6.20000e+00	4.016885e+04	
125	-6.25000e+00	4.040686e+04	
126	-6.30000e+00	4.064092e+04	
127	-6.35000e+00	4.087110e+04	
128	-6.40000e+00	4.109747e+04	
129	-6.45000e+00	4.132008e+04	
130	-6.50000e+00	4.153899e+04	
131	-6.55000e+00	4.175426e+04	
132	-6.60000e+00	4.196593e+04	
Reset re-loads circuit ***************************

Circuit: ***************************

Note: No ".plot", ".print", or ".fourier" lines; no simulations run
