
Note: Compatibility modes selected: hs

Warning: m=xx on .subckt line will override multiplier m hierarchy!


Circuit: ***************************

Doing analysis at TEMP = 125.000000 and TNOM = 125.000000


No. of Data Rows : 133
                          ***************************
                          DC transfer characteristic  Mon Jan  9 13:57:55  2023
--------------------------------------------------------------------------------
Index   v-sweep         rds             
--------------------------------------------------------------------------------
0	0.000000e+00	2.577971e+06	
1	-5.00000e-02	3.417625e+06	
2	-1.00000e-01	5.023891e+06	
3	-1.50000e-01	8.941907e+06	
4	-2.00000e-01	2.195253e+07	
5	-2.50000e-01	6.907441e+07	
6	-3.00000e-01	1.967161e+08	
7	-3.50000e-01	4.327268e+08	
8	-4.00000e-01	7.520056e+08	
9	-4.50000e-01	1.096687e+09	
10	-5.00000e-01	1.418144e+09	
11	-5.50000e-01	1.694211e+09	
12	-6.00000e-01	1.922501e+09	
13	-6.50000e-01	2.109363e+09	
14	-7.00000e-01	2.263090e+09	
15	-7.50000e-01	2.391146e+09	
16	-8.00000e-01	2.499470e+09	
17	-8.50000e-01	2.592550e+09	
18	-9.00000e-01	2.673722e+09	
19	-9.50000e-01	2.745456e+09	
20	-1.00000e+00	2.809597e+09	
21	-1.05000e+00	2.867530e+09	
22	-1.10000e+00	2.920315e+09	
23	-1.15000e+00	2.968769e+09	
24	-1.20000e+00	3.013533e+09	
25	-1.25000e+00	3.055116e+09	
26	-1.30000e+00	3.093929e+09	
27	-1.35000e+00	3.130305e+09	
28	-1.40000e+00	3.164520e+09	
29	-1.45000e+00	3.196804e+09	
30	-1.50000e+00	3.227349e+09	
31	-1.55000e+00	3.256321e+09	
32	-1.60000e+00	3.283861e+09	
33	-1.65000e+00	3.310091e+09	
34	-1.70000e+00	3.335118e+09	
35	-1.75000e+00	3.359035e+09	
36	-1.80000e+00	3.381925e+09	
37	-1.85000e+00	3.403862e+09	
38	-1.90000e+00	3.424910e+09	
39	-1.95000e+00	3.445130e+09	
40	-2.00000e+00	3.464574e+09	
41	-2.05000e+00	3.483291e+09	
42	-2.10000e+00	3.501324e+09	
43	-2.15000e+00	3.518712e+09	
44	-2.20000e+00	3.535494e+09	
45	-2.25000e+00	3.551701e+09	
46	-2.30000e+00	3.567366e+09	
47	-2.35000e+00	3.582516e+09	
48	-2.40000e+00	3.597178e+09	
49	-2.45000e+00	3.611376e+09	
50	-2.50000e+00	3.625133e+09	
51	-2.55000e+00	3.638470e+09	
52	-2.60000e+00	3.651408e+09	
53	-2.65000e+00	3.663963e+09	
54	-2.70000e+00	3.676155e+09	

Index   v-sweep         rds             
--------------------------------------------------------------------------------
55	-2.75000e+00	3.687998e+09	
56	-2.80000e+00	3.699507e+09	
57	-2.85000e+00	3.710698e+09	
58	-2.90000e+00	3.721583e+09	
59	-2.95000e+00	3.732176e+09	
60	-3.00000e+00	3.742487e+09	
61	-3.05000e+00	3.752529e+09	
62	-3.10000e+00	3.762311e+09	
63	-3.15000e+00	3.771844e+09	
64	-3.20000e+00	3.781138e+09	
65	-3.25000e+00	3.790201e+09	
66	-3.30000e+00	3.799041e+09	
67	-3.35000e+00	3.807668e+09	
68	-3.40000e+00	3.816088e+09	
69	-3.45000e+00	3.824309e+09	
70	-3.50000e+00	3.832338e+09	
71	-3.55000e+00	3.840181e+09	
72	-3.60000e+00	3.847845e+09	
73	-3.65000e+00	3.855336e+09	
74	-3.70000e+00	3.862659e+09	
75	-3.75000e+00	3.869820e+09	
76	-3.80000e+00	3.876823e+09	
77	-3.85000e+00	3.883675e+09	
78	-3.90000e+00	3.890379e+09	
79	-3.95000e+00	3.896940e+09	
80	-4.00000e+00	3.903363e+09	
81	-4.05000e+00	3.909651e+09	
82	-4.10000e+00	3.915808e+09	
83	-4.15000e+00	3.921838e+09	
84	-4.20000e+00	3.927745e+09	
85	-4.25000e+00	3.933533e+09	
86	-4.30000e+00	3.939203e+09	
87	-4.35000e+00	3.944761e+09	
88	-4.40000e+00	3.950207e+09	
89	-4.45000e+00	3.955547e+09	
90	-4.50000e+00	3.960781e+09	
91	-4.55000e+00	3.965913e+09	
92	-4.60000e+00	3.970946e+09	
93	-4.65000e+00	3.975882e+09	
94	-4.70000e+00	3.980722e+09	
95	-4.75000e+00	3.985470e+09	
96	-4.80000e+00	3.990128e+09	
97	-4.85000e+00	3.994697e+09	
98	-4.90000e+00	3.999180e+09	
99	-4.95000e+00	4.003578e+09	
100	-5.00000e+00	4.007894e+09	
101	-5.05000e+00	4.012128e+09	
102	-5.10000e+00	4.016284e+09	
103	-5.15000e+00	4.020362e+09	
104	-5.20000e+00	4.024364e+09	
105	-5.25000e+00	4.028292e+09	
106	-5.30000e+00	4.032146e+09	
107	-5.35000e+00	4.035929e+09	
108	-5.40000e+00	4.039642e+09	
109	-5.45000e+00	4.043286e+09	
110	-5.50000e+00	4.046862e+09	
111	-5.55000e+00	4.050372e+09	
112	-5.60000e+00	4.053816e+09	

Index   v-sweep         rds             
--------------------------------------------------------------------------------
113	-5.65000e+00	4.057196e+09	
114	-5.70000e+00	4.060514e+09	
115	-5.75000e+00	4.063769e+09	
116	-5.80000e+00	4.066963e+09	
117	-5.85000e+00	4.070098e+09	
118	-5.90000e+00	4.073173e+09	
119	-5.95000e+00	4.076191e+09	
120	-6.00000e+00	4.079152e+09	
121	-6.05000e+00	4.082056e+09	
122	-6.10000e+00	4.084905e+09	
123	-6.15000e+00	4.087699e+09	
124	-6.20000e+00	4.090440e+09	
125	-6.25000e+00	4.093128e+09	
126	-6.30000e+00	4.095764e+09	
127	-6.35000e+00	4.098348e+09	
128	-6.40000e+00	4.100882e+09	
129	-6.45000e+00	4.103366e+09	
130	-6.50000e+00	4.105801e+09	
131	-6.55000e+00	4.108187e+09	
132	-6.60000e+00	4.110525e+09	
Reset re-loads circuit ***************************

Circuit: ***************************

Doing analysis at TEMP = 125.000000 and TNOM = 125.000000


No. of Data Rows : 133
                          ***************************
                          DC transfer characteristic  Mon Jan  9 13:57:55  2023
--------------------------------------------------------------------------------
Index   v-sweep         rds             
--------------------------------------------------------------------------------
0	0.000000e+00	5.172652e+05	
1	-5.00000e-02	5.475656e+05	
2	-1.00000e-01	5.816224e+05	
3	-1.50000e-01	6.201789e+05	
4	-2.00000e-01	6.641877e+05	
5	-2.50000e-01	7.148892e+05	
6	-3.00000e-01	7.739289e+05	
7	-3.50000e-01	8.435358e+05	
8	-4.00000e-01	9.268024e+05	
9	-4.50000e-01	1.028141e+06	
10	-5.00000e-01	1.154056e+06	
11	-5.50000e-01	1.314503e+06	
12	-6.00000e-01	1.525420e+06	
13	-6.50000e-01	1.813674e+06	
14	-7.00000e-01	2.227255e+06	
15	-7.50000e-01	2.857232e+06	
16	-8.00000e-01	3.885276e+06	
17	-8.50000e-01	5.677979e+06	
18	-9.00000e-01	8.920421e+06	
19	-9.50000e-01	1.462775e+07	
20	-1.00000e+00	2.369690e+07	
21	-1.05000e+00	3.607371e+07	
22	-1.10000e+00	5.045309e+07	
23	-1.15000e+00	6.501611e+07	
24	-1.20000e+00	7.837926e+07	
25	-1.25000e+00	8.992487e+07	
26	-1.30000e+00	9.960712e+07	
27	-1.35000e+00	1.076528e+08	
28	-1.40000e+00	1.143612e+08	
29	-1.45000e+00	1.200112e+08	
30	-1.50000e+00	1.248323e+08	
31	-1.55000e+00	1.290032e+08	
32	-1.60000e+00	1.326600e+08	
33	-1.65000e+00	1.359055e+08	
34	-1.70000e+00	1.388175e+08	
35	-1.75000e+00	1.414552e+08	
36	-1.80000e+00	1.438645e+08	
37	-1.85000e+00	1.460808e+08	
38	-1.90000e+00	1.481323e+08	
39	-1.95000e+00	1.500414e+08	
40	-2.00000e+00	1.518262e+08	
41	-2.05000e+00	1.535014e+08	
42	-2.10000e+00	1.550793e+08	
43	-2.15000e+00	1.565700e+08	
44	-2.20000e+00	1.579823e+08	
45	-2.25000e+00	1.593234e+08	
46	-2.30000e+00	1.605997e+08	
47	-2.35000e+00	1.618166e+08	
48	-2.40000e+00	1.629789e+08	
49	-2.45000e+00	1.640908e+08	
50	-2.50000e+00	1.651559e+08	
51	-2.55000e+00	1.661776e+08	
52	-2.60000e+00	1.671589e+08	
53	-2.65000e+00	1.681023e+08	
54	-2.70000e+00	1.690102e+08	

Index   v-sweep         rds             
--------------------------------------------------------------------------------
55	-2.75000e+00	1.698849e+08	
56	-2.80000e+00	1.707283e+08	
57	-2.85000e+00	1.715421e+08	
58	-2.90000e+00	1.723281e+08	
59	-2.95000e+00	1.730877e+08	
60	-3.00000e+00	1.738224e+08	
61	-3.05000e+00	1.745334e+08	
62	-3.10000e+00	1.752220e+08	
63	-3.15000e+00	1.758891e+08	
64	-3.20000e+00	1.765360e+08	
65	-3.25000e+00	1.771634e+08	
66	-3.30000e+00	1.777724e+08	
67	-3.35000e+00	1.783637e+08	
68	-3.40000e+00	1.789382e+08	
69	-3.45000e+00	1.794966e+08	
70	-3.50000e+00	1.800395e+08	
71	-3.55000e+00	1.805676e+08	
72	-3.60000e+00	1.810816e+08	
73	-3.65000e+00	1.815820e+08	
74	-3.70000e+00	1.820693e+08	
75	-3.75000e+00	1.825441e+08	
76	-3.80000e+00	1.830068e+08	
77	-3.85000e+00	1.834579e+08	
78	-3.90000e+00	1.838979e+08	
79	-3.95000e+00	1.843272e+08	
80	-4.00000e+00	1.847460e+08	
81	-4.05000e+00	1.851549e+08	
82	-4.10000e+00	1.855542e+08	
83	-4.15000e+00	1.859442e+08	
84	-4.20000e+00	1.863251e+08	
85	-4.25000e+00	1.866975e+08	
86	-4.30000e+00	1.870614e+08	
87	-4.35000e+00	1.874172e+08	
88	-4.40000e+00	1.877652e+08	
89	-4.45000e+00	1.881056e+08	
90	-4.50000e+00	1.884386e+08	
91	-4.55000e+00	1.887645e+08	
92	-4.60000e+00	1.890835e+08	
93	-4.65000e+00	1.893958e+08	
94	-4.70000e+00	1.897016e+08	
95	-4.75000e+00	1.900010e+08	
96	-4.80000e+00	1.902944e+08	
97	-4.85000e+00	1.905817e+08	
98	-4.90000e+00	1.908633e+08	
99	-4.95000e+00	1.911393e+08	
100	-5.00000e+00	1.914097e+08	
101	-5.05000e+00	1.916748e+08	
102	-5.10000e+00	1.919347e+08	
103	-5.15000e+00	1.921896e+08	
104	-5.20000e+00	1.924395e+08	
105	-5.25000e+00	1.926846e+08	
106	-5.30000e+00	1.929250e+08	
107	-5.35000e+00	1.931608e+08	
108	-5.40000e+00	1.933921e+08	
109	-5.45000e+00	1.936191e+08	
110	-5.50000e+00	1.938418e+08	
111	-5.55000e+00	1.940603e+08	
112	-5.60000e+00	1.942747e+08	

Index   v-sweep         rds             
--------------------------------------------------------------------------------
113	-5.65000e+00	1.944852e+08	
114	-5.70000e+00	1.946917e+08	
115	-5.75000e+00	1.948944e+08	
116	-5.80000e+00	1.950934e+08	
117	-5.85000e+00	1.952886e+08	
118	-5.90000e+00	1.954803e+08	
119	-5.95000e+00	1.956685e+08	
120	-6.00000e+00	1.958532e+08	
121	-6.05000e+00	1.960345e+08	
122	-6.10000e+00	1.962124e+08	
123	-6.15000e+00	1.963871e+08	
124	-6.20000e+00	1.965586e+08	
125	-6.25000e+00	1.967269e+08	
126	-6.30000e+00	1.968921e+08	
127	-6.35000e+00	1.970543e+08	
128	-6.40000e+00	1.972135e+08	
129	-6.45000e+00	1.973697e+08	
130	-6.50000e+00	1.975230e+08	
131	-6.55000e+00	1.976735e+08	
132	-6.60000e+00	1.978212e+08	
Reset re-loads circuit ***************************

Circuit: ***************************

Doing analysis at TEMP = 125.000000 and TNOM = 125.000000


No. of Data Rows : 133
                          ***************************
                          DC transfer characteristic  Mon Jan  9 13:57:55  2023
--------------------------------------------------------------------------------
Index   v-sweep         rds             
--------------------------------------------------------------------------------
0	0.000000e+00	3.059904e+05	
1	-5.00000e-02	3.157427e+05	
2	-1.00000e-01	3.261340e+05	
3	-1.50000e-01	3.372293e+05	
4	-2.00000e-01	3.491024e+05	
5	-2.50000e-01	3.618381e+05	
6	-3.00000e-01	3.755339e+05	
7	-3.50000e-01	3.903024e+05	
8	-4.00000e-01	4.062746e+05	
9	-4.50000e-01	4.236039e+05	
10	-5.00000e-01	4.424705e+05	
11	-5.50000e-01	4.630881e+05	
12	-6.00000e-01	4.857118e+05	
13	-6.50000e-01	5.106485e+05	
14	-7.00000e-01	5.382711e+05	
15	-7.50000e-01	5.690363e+05	
16	-8.00000e-01	6.035105e+05	
17	-8.50000e-01	6.424034e+05	
18	-9.00000e-01	6.866166e+05	
19	-9.50000e-01	7.373121e+05	
20	-1.00000e+00	7.960117e+05	
21	-1.05000e+00	8.647451e+05	
22	-1.10000e+00	9.462744e+05	
23	-1.15000e+00	1.044446e+06	
24	-1.20000e+00	1.164751e+06	
25	-1.25000e+00	1.315257e+06	
26	-1.30000e+00	1.508170e+06	
27	-1.35000e+00	1.762552e+06	
28	-1.40000e+00	2.109042e+06	
29	-1.45000e+00	2.597916e+06	
30	-1.50000e+00	3.311722e+06	
31	-1.55000e+00	4.380705e+06	
32	-1.60000e+00	5.988196e+06	
33	-1.65000e+00	8.334314e+06	
34	-1.70000e+00	1.153031e+07	
35	-1.75000e+00	1.547191e+07	
36	-1.80000e+00	1.982386e+07	
37	-1.85000e+00	2.416560e+07	
38	-1.90000e+00	2.816889e+07	
39	-1.95000e+00	3.167176e+07	
40	-2.00000e+00	3.464948e+07	
41	-2.05000e+00	3.715247e+07	
42	-2.10000e+00	3.925744e+07	
43	-2.15000e+00	4.104091e+07	
44	-2.20000e+00	4.256870e+07	
45	-2.25000e+00	4.389376e+07	
46	-2.30000e+00	4.505728e+07	
47	-2.35000e+00	4.609093e+07	
48	-2.40000e+00	4.701897e+07	
49	-2.45000e+00	4.786005e+07	
50	-2.50000e+00	4.862862e+07	
51	-2.55000e+00	4.933597e+07	
52	-2.60000e+00	4.999102e+07	
53	-2.65000e+00	5.060090e+07	
54	-2.70000e+00	5.117136e+07	

Index   v-sweep         rds             
--------------------------------------------------------------------------------
55	-2.75000e+00	5.170712e+07	
56	-2.80000e+00	5.221205e+07	
57	-2.85000e+00	5.268940e+07	
58	-2.90000e+00	5.314189e+07	
59	-2.95000e+00	5.357187e+07	
60	-3.00000e+00	5.398131e+07	
61	-3.05000e+00	5.437195e+07	
62	-3.10000e+00	5.474529e+07	
63	-3.15000e+00	5.510265e+07	
64	-3.20000e+00	5.544520e+07	
65	-3.25000e+00	5.577399e+07	
66	-3.30000e+00	5.608992e+07	
67	-3.35000e+00	5.639385e+07	
68	-3.40000e+00	5.668651e+07	
69	-3.45000e+00	5.696860e+07	
70	-3.50000e+00	5.724073e+07	
71	-3.55000e+00	5.750347e+07	
72	-3.60000e+00	5.775734e+07	
73	-3.65000e+00	5.800281e+07	
74	-3.70000e+00	5.824033e+07	
75	-3.75000e+00	5.847029e+07	
76	-3.80000e+00	5.869309e+07	
77	-3.85000e+00	5.890906e+07	
78	-3.90000e+00	5.911853e+07	
79	-3.95000e+00	5.932180e+07	
80	-4.00000e+00	5.951917e+07	
81	-4.05000e+00	5.971089e+07	
82	-4.10000e+00	5.989720e+07	
83	-4.15000e+00	6.007835e+07	
84	-4.20000e+00	6.025456e+07	
85	-4.25000e+00	6.042602e+07	
86	-4.30000e+00	6.059293e+07	
87	-4.35000e+00	6.075547e+07	
88	-4.40000e+00	6.091383e+07	
89	-4.45000e+00	6.106815e+07	
90	-4.50000e+00	6.121860e+07	
91	-4.55000e+00	6.136532e+07	
92	-4.60000e+00	6.150845e+07	
93	-4.65000e+00	6.164812e+07	
94	-4.70000e+00	6.178445e+07	
95	-4.75000e+00	6.191757e+07	
96	-4.80000e+00	6.204759e+07	
97	-4.85000e+00	6.217461e+07	
98	-4.90000e+00	6.229873e+07	
99	-4.95000e+00	6.242005e+07	
100	-5.00000e+00	6.253867e+07	
101	-5.05000e+00	6.265467e+07	
102	-5.10000e+00	6.276814e+07	
103	-5.15000e+00	6.287915e+07	
104	-5.20000e+00	6.298778e+07	
105	-5.25000e+00	6.309411e+07	
106	-5.30000e+00	6.319820e+07	
107	-5.35000e+00	6.330013e+07	
108	-5.40000e+00	6.339995e+07	
109	-5.45000e+00	6.349772e+07	
110	-5.50000e+00	6.359351e+07	
111	-5.55000e+00	6.368737e+07	
112	-5.60000e+00	6.377935e+07	

Index   v-sweep         rds             
--------------------------------------------------------------------------------
113	-5.65000e+00	6.386950e+07	
114	-5.70000e+00	6.395788e+07	
115	-5.75000e+00	6.404452e+07	
116	-5.80000e+00	6.412948e+07	
117	-5.85000e+00	6.421279e+07	
118	-5.90000e+00	6.429450e+07	
119	-5.95000e+00	6.437465e+07	
120	-6.00000e+00	6.445327e+07	
121	-6.05000e+00	6.453041e+07	
122	-6.10000e+00	6.460609e+07	
123	-6.15000e+00	6.468034e+07	
124	-6.20000e+00	6.475321e+07	
125	-6.25000e+00	6.482473e+07	
126	-6.30000e+00	6.489491e+07	
127	-6.35000e+00	6.496379e+07	
128	-6.40000e+00	6.503140e+07	
129	-6.45000e+00	6.509777e+07	
130	-6.50000e+00	6.516291e+07	
131	-6.55000e+00	6.522686e+07	
132	-6.60000e+00	6.528964e+07	
Reset re-loads circuit ***************************

Circuit: ***************************

Doing analysis at TEMP = 125.000000 and TNOM = 125.000000


No. of Data Rows : 133
                          ***************************
                          DC transfer characteristic  Mon Jan  9 13:57:55  2023
--------------------------------------------------------------------------------
Index   v-sweep         rds             
--------------------------------------------------------------------------------
0	0.000000e+00	2.242783e+05	
1	-5.00000e-02	2.291535e+05	
2	-1.00000e-01	2.342441e+05	
3	-1.50000e-01	2.395645e+05	
4	-2.00000e-01	2.451307e+05	
5	-2.50000e-01	2.509601e+05	
6	-3.00000e-01	2.570719e+05	
7	-3.50000e-01	2.634869e+05	
8	-4.00000e-01	2.702285e+05	
9	-4.50000e-01	2.773221e+05	
10	-5.00000e-01	2.847960e+05	
11	-5.50000e-01	2.926816e+05	
12	-6.00000e-01	3.010140e+05	
13	-6.50000e-01	3.098321e+05	
14	-7.00000e-01	3.191797e+05	
15	-7.50000e-01	3.291058e+05	
16	-8.00000e-01	3.396658e+05	
17	-8.50000e-01	3.509225e+05	
18	-9.00000e-01	3.629469e+05	
19	-9.50000e-01	3.758203e+05	
20	-1.00000e+00	3.896357e+05	
21	-1.05000e+00	4.045001e+05	
22	-1.10000e+00	4.205377e+05	
23	-1.15000e+00	4.378925e+05	
24	-1.20000e+00	4.567332e+05	
25	-1.25000e+00	4.772586e+05	
26	-1.30000e+00	4.997042e+05	
27	-1.35000e+00	5.243514e+05	
28	-1.40000e+00	5.515389e+05	
29	-1.45000e+00	5.816781e+05	
30	-1.50000e+00	6.152731e+05	
31	-1.55000e+00	6.529484e+05	
32	-1.60000e+00	6.954864e+05	
33	-1.65000e+00	7.438790e+05	
34	-1.70000e+00	7.994012e+05	
35	-1.75000e+00	8.637165e+05	
36	-1.80000e+00	9.390296e+05	
37	-1.85000e+00	1.028315e+06	
38	-1.90000e+00	1.135661e+06	
39	-1.95000e+00	1.266794e+06	
40	-2.00000e+00	1.429896e+06	
41	-2.05000e+00	1.636859e+06	
42	-2.10000e+00	1.905190e+06	
43	-2.15000e+00	2.260730e+06	
44	-2.20000e+00	2.740974e+06	
45	-2.25000e+00	3.397577e+06	
46	-2.30000e+00	4.293961e+06	
47	-2.35000e+00	5.490993e+06	
48	-2.40000e+00	7.016597e+06	
49	-2.45000e+00	8.831275e+06	
50	-2.50000e+00	1.081991e+07	
51	-2.55000e+00	1.282802e+07	
52	-2.60000e+00	1.471864e+07	
53	-2.65000e+00	1.640859e+07	
54	-2.70000e+00	1.787027e+07	

Index   v-sweep         rds             
--------------------------------------------------------------------------------
55	-2.75000e+00	1.911367e+07	
56	-2.80000e+00	2.016663e+07	
57	-2.85000e+00	2.106151e+07	
58	-2.90000e+00	2.182844e+07	
59	-2.95000e+00	2.249281e+07	
60	-3.00000e+00	2.307502e+07	
61	-3.05000e+00	2.359105e+07	
62	-3.10000e+00	2.405330e+07	
63	-3.15000e+00	2.447137e+07	
64	-3.20000e+00	2.485272e+07	
65	-3.25000e+00	2.520317e+07	
66	-3.30000e+00	2.552734e+07	
67	-3.35000e+00	2.582889e+07	
68	-3.40000e+00	2.611077e+07	
69	-3.45000e+00	2.637538e+07	
70	-3.50000e+00	2.662470e+07	
71	-3.55000e+00	2.686038e+07	
72	-3.60000e+00	2.708378e+07	
73	-3.65000e+00	2.729608e+07	
74	-3.70000e+00	2.749827e+07	
75	-3.75000e+00	2.769122e+07	
76	-3.80000e+00	2.787566e+07	
77	-3.85000e+00	2.805226e+07	
78	-3.90000e+00	2.822160e+07	
79	-3.95000e+00	2.838417e+07	
80	-4.00000e+00	2.854045e+07	
81	-4.05000e+00	2.869083e+07	
82	-4.10000e+00	2.883569e+07	
83	-4.15000e+00	2.897536e+07	
84	-4.20000e+00	2.911014e+07	
85	-4.25000e+00	2.924032e+07	
86	-4.30000e+00	2.936614e+07	
87	-4.35000e+00	2.948784e+07	
88	-4.40000e+00	2.960562e+07	
89	-4.45000e+00	2.971970e+07	
90	-4.50000e+00	2.983026e+07	
91	-4.55000e+00	2.993746e+07	
92	-4.60000e+00	3.004146e+07	
93	-4.65000e+00	3.014241e+07	
94	-4.70000e+00	3.024045e+07	
95	-4.75000e+00	3.033571e+07	
96	-4.80000e+00	3.042831e+07	
97	-4.85000e+00	3.051836e+07	
98	-4.90000e+00	3.060598e+07	
99	-4.95000e+00	3.069125e+07	
100	-5.00000e+00	3.077429e+07	
101	-5.05000e+00	3.085516e+07	
102	-5.10000e+00	3.093397e+07	
103	-5.15000e+00	3.101079e+07	
104	-5.20000e+00	3.108569e+07	
105	-5.25000e+00	3.115875e+07	
106	-5.30000e+00	3.123003e+07	
107	-5.35000e+00	3.129961e+07	
108	-5.40000e+00	3.136753e+07	
109	-5.45000e+00	3.143387e+07	
110	-5.50000e+00	3.149866e+07	
111	-5.55000e+00	3.156198e+07	
112	-5.60000e+00	3.162386e+07	

Index   v-sweep         rds             
--------------------------------------------------------------------------------
113	-5.65000e+00	3.168435e+07	
114	-5.70000e+00	3.174351e+07	
115	-5.75000e+00	3.180136e+07	
116	-5.80000e+00	3.185797e+07	
117	-5.85000e+00	3.191335e+07	
118	-5.90000e+00	3.196756e+07	
119	-5.95000e+00	3.202062e+07	
120	-6.00000e+00	3.207257e+07	
121	-6.05000e+00	3.212345e+07	
122	-6.10000e+00	3.217328e+07	
123	-6.15000e+00	3.222210e+07	
124	-6.20000e+00	3.226994e+07	
125	-6.25000e+00	3.231681e+07	
126	-6.30000e+00	3.236275e+07	
127	-6.35000e+00	3.240779e+07	
128	-6.40000e+00	3.245194e+07	
129	-6.45000e+00	3.249523e+07	
130	-6.50000e+00	3.253768e+07	
131	-6.55000e+00	3.257932e+07	
132	-6.60000e+00	3.262016e+07	
Reset re-loads circuit ***************************

Circuit: ***************************

Doing analysis at TEMP = 125.000000 and TNOM = 125.000000


No. of Data Rows : 133
                          ***************************
                          DC transfer characteristic  Mon Jan  9 13:57:55  2023
--------------------------------------------------------------------------------
Index   v-sweep         rds             
--------------------------------------------------------------------------------
0	0.000000e+00	1.802178e+05	
1	-5.00000e-02	1.831738e+05	
2	-1.00000e-01	1.862276e+05	
3	-1.50000e-01	1.893842e+05	
4	-2.00000e-01	1.926487e+05	
5	-2.50000e-01	1.960269e+05	
6	-3.00000e-01	1.995248e+05	
7	-3.50000e-01	2.031489e+05	
8	-4.00000e-01	2.069060e+05	
9	-4.50000e-01	2.108037e+05	
10	-5.00000e-01	2.148500e+05	
11	-5.50000e-01	2.190536e+05	
12	-6.00000e-01	2.234238e+05	
13	-6.50000e-01	2.279707e+05	
14	-7.00000e-01	2.327053e+05	
15	-7.50000e-01	2.376394e+05	
16	-8.00000e-01	2.427858e+05	
17	-8.50000e-01	2.481587e+05	
18	-9.00000e-01	2.537732e+05	
19	-9.50000e-01	2.596460e+05	
20	-1.00000e+00	2.657953e+05	
21	-1.05000e+00	2.722412e+05	
22	-1.10000e+00	2.790057e+05	
23	-1.15000e+00	2.861127e+05	
24	-1.20000e+00	2.935892e+05	
25	-1.25000e+00	3.014646e+05	
26	-1.30000e+00	3.097717e+05	
27	-1.35000e+00	3.185468e+05	
28	-1.40000e+00	3.278308e+05	
29	-1.45000e+00	3.376689e+05	
30	-1.50000e+00	3.481125e+05	
31	-1.55000e+00	3.592188e+05	
32	-1.60000e+00	3.710531e+05	
33	-1.65000e+00	3.836890e+05	
34	-1.70000e+00	3.972107e+05	
35	-1.75000e+00	4.117144e+05	
36	-1.80000e+00	4.273107e+05	
37	-1.85000e+00	4.441273e+05	
38	-1.90000e+00	4.623126e+05	
39	-1.95000e+00	4.820399e+05	
40	-2.00000e+00	5.035127e+05	
41	-2.05000e+00	5.269718e+05	
42	-2.10000e+00	5.527037e+05	
43	-2.15000e+00	5.810522e+05	
44	-2.20000e+00	6.124330e+05	
45	-2.25000e+00	6.473532e+05	
46	-2.30000e+00	6.864373e+05	
47	-2.35000e+00	7.304619e+05	
48	-2.40000e+00	7.804037e+05	
49	-2.45000e+00	8.375051e+05	
50	-2.50000e+00	9.033663e+05	
51	-2.55000e+00	9.800753e+05	
52	-2.60000e+00	1.070393e+06	
53	-2.65000e+00	1.178017e+06	
54	-2.70000e+00	1.307966e+06	

Index   v-sweep         rds             
--------------------------------------------------------------------------------
55	-2.75000e+00	1.467108e+06	
56	-2.80000e+00	1.664900e+06	
57	-2.85000e+00	1.914299e+06	
58	-2.90000e+00	2.232722e+06	
59	-2.95000e+00	2.642508e+06	
60	-3.00000e+00	3.169719e+06	
61	-3.05000e+00	3.839384e+06	
62	-3.10000e+00	4.665792e+06	
63	-3.15000e+00	5.639867e+06	
64	-3.20000e+00	6.721436e+06	
65	-3.25000e+00	7.845348e+06	
66	-3.30000e+00	8.940995e+06	
67	-3.35000e+00	9.953033e+06	
68	-3.40000e+00	1.085136e+07	
69	-3.45000e+00	1.162894e+07	
70	-3.50000e+00	1.229368e+07	
71	-3.55000e+00	1.286045e+07	
72	-3.60000e+00	1.334562e+07	
73	-3.65000e+00	1.376430e+07	
74	-3.70000e+00	1.412929e+07	
75	-3.75000e+00	1.445098e+07	
76	-3.80000e+00	1.473755e+07	
77	-3.85000e+00	1.499541e+07	
78	-3.90000e+00	1.522957e+07	
79	-3.95000e+00	1.544394e+07	
80	-4.00000e+00	1.564159e+07	
81	-4.05000e+00	1.582498e+07	
82	-4.10000e+00	1.599604e+07	
83	-4.15000e+00	1.615635e+07	
84	-4.20000e+00	1.630720e+07	
85	-4.25000e+00	1.644965e+07	
86	-4.30000e+00	1.658457e+07	
87	-4.35000e+00	1.671272e+07	
88	-4.40000e+00	1.683471e+07	
89	-4.45000e+00	1.695109e+07	
90	-4.50000e+00	1.706233e+07	
91	-4.55000e+00	1.716882e+07	
92	-4.60000e+00	1.727093e+07	
93	-4.65000e+00	1.736896e+07	
94	-4.70000e+00	1.746320e+07	
95	-4.75000e+00	1.755390e+07	
96	-4.80000e+00	1.764127e+07	
97	-4.85000e+00	1.772553e+07	
98	-4.90000e+00	1.780685e+07	
99	-4.95000e+00	1.788540e+07	
100	-5.00000e+00	1.796133e+07	
101	-5.05000e+00	1.803479e+07	
102	-5.10000e+00	1.810590e+07	
103	-5.15000e+00	1.817478e+07	
104	-5.20000e+00	1.824154e+07	
105	-5.25000e+00	1.830629e+07	
106	-5.30000e+00	1.836912e+07	
107	-5.35000e+00	1.843011e+07	
108	-5.40000e+00	1.848936e+07	
109	-5.45000e+00	1.854693e+07	
110	-5.50000e+00	1.860290e+07	
111	-5.55000e+00	1.865734e+07	
112	-5.60000e+00	1.871031e+07	

Index   v-sweep         rds             
--------------------------------------------------------------------------------
113	-5.65000e+00	1.876188e+07	
114	-5.70000e+00	1.881209e+07	
115	-5.75000e+00	1.886101e+07	
116	-5.80000e+00	1.890868e+07	
117	-5.85000e+00	1.895515e+07	
118	-5.90000e+00	1.900047e+07	
119	-5.95000e+00	1.904468e+07	
120	-6.00000e+00	1.908782e+07	
121	-6.05000e+00	1.912993e+07	
122	-6.10000e+00	1.917104e+07	
123	-6.15000e+00	1.921120e+07	
124	-6.20000e+00	1.925042e+07	
125	-6.25000e+00	1.928876e+07	
126	-6.30000e+00	1.932623e+07	
127	-6.35000e+00	1.936286e+07	
128	-6.40000e+00	1.939868e+07	
129	-6.45000e+00	1.943372e+07	
130	-6.50000e+00	1.946801e+07	
131	-6.55000e+00	1.950156e+07	
132	-6.60000e+00	1.953440e+07	
Reset re-loads circuit ***************************

Circuit: ***************************

Doing analysis at TEMP = 125.000000 and TNOM = 125.000000


No. of Data Rows : 133
                          ***************************
                          DC transfer characteristic  Mon Jan  9 13:57:55  2023
--------------------------------------------------------------------------------
Index   v-sweep         rds             
--------------------------------------------------------------------------------
0	0.000000e+00	1.522351e+05	
1	-5.00000e-02	1.542308e+05	
2	-1.00000e-01	1.562790e+05	
3	-1.50000e-01	1.583818e+05	
4	-2.00000e-01	1.605415e+05	
5	-2.50000e-01	1.627603e+05	
6	-3.00000e-01	1.650407e+05	
7	-3.50000e-01	1.673853e+05	
8	-4.00000e-01	1.697969e+05	
9	-4.50000e-01	1.722784e+05	
10	-5.00000e-01	1.748329e+05	
11	-5.50000e-01	1.774636e+05	
12	-6.00000e-01	1.801739e+05	
13	-6.50000e-01	1.829677e+05	
14	-7.00000e-01	1.858487e+05	
15	-7.50000e-01	1.888211e+05	
16	-8.00000e-01	1.918894e+05	
17	-8.50000e-01	1.950582e+05	
18	-9.00000e-01	1.983327e+05	
19	-9.50000e-01	2.017180e+05	
20	-1.00000e+00	2.052201e+05	
21	-1.05000e+00	2.088449e+05	
22	-1.10000e+00	2.125991e+05	
23	-1.15000e+00	2.164898e+05	
24	-1.20000e+00	2.205244e+05	
25	-1.25000e+00	2.247113e+05	
26	-1.30000e+00	2.290590e+05	
27	-1.35000e+00	2.335770e+05	
28	-1.40000e+00	2.382757e+05	
29	-1.45000e+00	2.431659e+05	
30	-1.50000e+00	2.482597e+05	
31	-1.55000e+00	2.535700e+05	
32	-1.60000e+00	2.591110e+05	
33	-1.65000e+00	2.648979e+05	
34	-1.70000e+00	2.709474e+05	
35	-1.75000e+00	2.772780e+05	
36	-1.80000e+00	2.839095e+05	
37	-1.85000e+00	2.908640e+05	
38	-1.90000e+00	2.981655e+05	
39	-1.95000e+00	3.058408e+05	
40	-2.00000e+00	3.139191e+05	
41	-2.05000e+00	3.224330e+05	
42	-2.10000e+00	3.314186e+05	
43	-2.15000e+00	3.409163e+05	
44	-2.20000e+00	3.509708e+05	
45	-2.25000e+00	3.616326e+05	
46	-2.30000e+00	3.729581e+05	
47	-2.35000e+00	3.850111e+05	
48	-2.40000e+00	3.978637e+05	
49	-2.45000e+00	4.115980e+05	
50	-2.50000e+00	4.263073e+05	
51	-2.55000e+00	4.420988e+05	
52	-2.60000e+00	4.590955e+05	
53	-2.65000e+00	4.774401e+05	
54	-2.70000e+00	4.972980e+05	

Index   v-sweep         rds             
--------------------------------------------------------------------------------
55	-2.75000e+00	5.188629e+05	
56	-2.80000e+00	5.423621e+05	
57	-2.85000e+00	5.680651e+05	
58	-2.90000e+00	5.962923e+05	
59	-2.95000e+00	6.274284e+05	
60	-3.00000e+00	6.619383e+05	
61	-3.05000e+00	7.003886e+05	
62	-3.10000e+00	7.434755e+05	
63	-3.15000e+00	7.920627e+05	
64	-3.20000e+00	8.472311e+05	
65	-3.25000e+00	9.103474e+05	
66	-3.30000e+00	9.831551e+05	
67	-3.35000e+00	1.067900e+06	
68	-3.40000e+00	1.167497e+06	
69	-3.45000e+00	1.285755e+06	
70	-3.50000e+00	1.427654e+06	
71	-3.55000e+00	1.599684e+06	
72	-3.60000e+00	1.810168e+06	
73	-3.65000e+00	2.069422e+06	
74	-3.70000e+00	2.389426e+06	
75	-3.75000e+00	2.782447e+06	
76	-3.80000e+00	3.258008e+06	
77	-3.85000e+00	3.818151e+06	
78	-3.90000e+00	4.452468e+06	
79	-3.95000e+00	5.136153e+06	
80	-4.00000e+00	5.833970e+06	
81	-4.05000e+00	6.509303e+06	
82	-4.10000e+00	7.133401e+06	
83	-4.15000e+00	7.690086e+06	
84	-4.20000e+00	8.175088e+06	
85	-4.25000e+00	8.592351e+06	
86	-4.30000e+00	8.950012e+06	
87	-4.35000e+00	9.257433e+06	
88	-4.40000e+00	9.523522e+06	
89	-4.45000e+00	9.755997e+06	
90	-4.50000e+00	9.961216e+06	
91	-4.55000e+00	1.014427e+07	
92	-4.60000e+00	1.030918e+07	
93	-4.65000e+00	1.045909e+07	
94	-4.70000e+00	1.059649e+07	
95	-4.75000e+00	1.072332e+07	
96	-4.80000e+00	1.084113e+07	
97	-4.85000e+00	1.095117e+07	
98	-4.90000e+00	1.105441e+07	
99	-4.95000e+00	1.115169e+07	
100	-5.00000e+00	1.124366e+07	
101	-5.05000e+00	1.133089e+07	
102	-5.10000e+00	1.141383e+07	
103	-5.15000e+00	1.149289e+07	
104	-5.20000e+00	1.156839e+07	
105	-5.25000e+00	1.164064e+07	
106	-5.30000e+00	1.170988e+07	
107	-5.35000e+00	1.177634e+07	
108	-5.40000e+00	1.184022e+07	
109	-5.45000e+00	1.190168e+07	
110	-5.50000e+00	1.196088e+07	
111	-5.55000e+00	1.201796e+07	
112	-5.60000e+00	1.207305e+07	

Index   v-sweep         rds             
--------------------------------------------------------------------------------
113	-5.65000e+00	1.212627e+07	
114	-5.70000e+00	1.217771e+07	
115	-5.75000e+00	1.222747e+07	
116	-5.80000e+00	1.227565e+07	
117	-5.85000e+00	1.232231e+07	
118	-5.90000e+00	1.236755e+07	
119	-5.95000e+00	1.241142e+07	
120	-6.00000e+00	1.245399e+07	
121	-6.05000e+00	1.249531e+07	
122	-6.10000e+00	1.253546e+07	
123	-6.15000e+00	1.257447e+07	
124	-6.20000e+00	1.261240e+07	
125	-6.25000e+00	1.264930e+07	
126	-6.30000e+00	1.268520e+07	
127	-6.35000e+00	1.272015e+07	
128	-6.40000e+00	1.275418e+07	
129	-6.45000e+00	1.278734e+07	
130	-6.50000e+00	1.281965e+07	
131	-6.55000e+00	1.285115e+07	
132	-6.60000e+00	1.288187e+07	
Reset re-loads circuit ***************************

Circuit: ***************************

Note: No ".plot", ".print", or ".fourier" lines; no simulations run
