
Note: Compatibility modes selected: hs

Warning: m=xx on .subckt line will override multiplier m hierarchy!


Circuit: ***************************

Doing analysis at TEMP = 25.000000 and TNOM = 25.000000


No. of Data Rows : 133
                          ***************************
                          DC transfer characteristic  Mon Jan  9 13:57:54  2023
--------------------------------------------------------------------------------
Index   v-sweep         rds             
--------------------------------------------------------------------------------
0	0.000000e+00	5.051290e+06	
1	-5.00000e-02	8.578137e+06	
2	-1.00000e-01	2.143849e+07	
3	-1.50000e-01	8.864326e+07	
4	-2.00000e-01	3.373920e+08	
5	-2.50000e-01	8.465606e+08	
6	-3.00000e-01	1.517211e+09	
7	-3.50000e-01	2.194232e+09	
8	-4.00000e-01	2.793510e+09	
9	-4.50000e-01	3.299600e+09	
10	-5.00000e-01	3.725393e+09	
11	-5.50000e-01	4.088761e+09	
12	-6.00000e-01	4.404896e+09	
13	-6.50000e-01	4.685139e+09	
14	-7.00000e-01	4.937619e+09	
15	-7.50000e-01	5.168131e+09	
16	-8.00000e-01	5.380846e+09	
17	-8.50000e-01	5.578816e+09	
18	-9.00000e-01	5.764320e+09	
19	-9.50000e-01	5.939094e+09	
20	-1.00000e+00	6.104490e+09	
21	-1.05000e+00	6.261580e+09	
22	-1.10000e+00	6.411230e+09	
23	-1.15000e+00	6.554153e+09	
24	-1.20000e+00	6.690945e+09	
25	-1.25000e+00	6.822110e+09	
26	-1.30000e+00	6.948081e+09	
27	-1.35000e+00	7.069235e+09	
28	-1.40000e+00	7.185901e+09	
29	-1.45000e+00	7.298370e+09	
30	-1.50000e+00	7.406903e+09	
31	-1.55000e+00	7.511733e+09	
32	-1.60000e+00	7.613072e+09	
33	-1.65000e+00	7.711112e+09	
34	-1.70000e+00	7.806028e+09	
35	-1.75000e+00	7.897981e+09	
36	-1.80000e+00	7.987118e+09	
37	-1.85000e+00	8.073578e+09	
38	-1.90000e+00	8.157487e+09	
39	-1.95000e+00	8.238962e+09	
40	-2.00000e+00	8.318114e+09	
41	-2.05000e+00	8.395045e+09	
42	-2.10000e+00	8.469852e+09	
43	-2.15000e+00	8.542625e+09	
44	-2.20000e+00	8.613447e+09	
45	-2.25000e+00	8.682400e+09	
46	-2.30000e+00	8.749557e+09	
47	-2.35000e+00	8.814991e+09	
48	-2.40000e+00	8.878767e+09	
49	-2.45000e+00	8.940950e+09	
50	-2.50000e+00	9.001598e+09	
51	-2.55000e+00	9.060770e+09	
52	-2.60000e+00	9.118518e+09	
53	-2.65000e+00	9.174894e+09	
54	-2.70000e+00	9.229947e+09	

Index   v-sweep         rds             
--------------------------------------------------------------------------------
55	-2.75000e+00	9.283724e+09	
56	-2.80000e+00	9.336267e+09	
57	-2.85000e+00	9.387620e+09	
58	-2.90000e+00	9.437822e+09	
59	-2.95000e+00	9.486911e+09	
60	-3.00000e+00	9.534925e+09	
61	-3.05000e+00	9.581897e+09	
62	-3.10000e+00	9.627861e+09	
63	-3.15000e+00	9.672849e+09	
64	-3.20000e+00	9.716892e+09	
65	-3.25000e+00	9.760018e+09	
66	-3.30000e+00	9.802255e+09	
67	-3.35000e+00	9.843630e+09	
68	-3.40000e+00	9.884168e+09	
69	-3.45000e+00	9.923895e+09	
70	-3.50000e+00	9.962833e+09	
71	-3.55000e+00	1.000101e+10	
72	-3.60000e+00	1.003843e+10	
73	-3.65000e+00	1.007514e+10	
74	-3.70000e+00	1.011114e+10	
75	-3.75000e+00	1.014645e+10	
76	-3.80000e+00	1.018110e+10	
77	-3.85000e+00	1.021510e+10	
78	-3.90000e+00	1.024847e+10	
79	-3.95000e+00	1.028122e+10	
80	-4.00000e+00	1.031337e+10	
81	-4.05000e+00	1.034494e+10	
82	-4.10000e+00	1.037593e+10	
83	-4.15000e+00	1.040637e+10	
84	-4.20000e+00	1.043626e+10	
85	-4.25000e+00	1.046562e+10	
86	-4.30000e+00	1.049447e+10	
87	-4.35000e+00	1.052280e+10	
88	-4.40000e+00	1.055065e+10	
89	-4.45000e+00	1.057800e+10	
90	-4.50000e+00	1.060488e+10	
91	-4.55000e+00	1.063130e+10	
92	-4.60000e+00	1.065726e+10	
93	-4.65000e+00	1.068278e+10	
94	-4.70000e+00	1.070786e+10	
95	-4.75000e+00	1.073252e+10	
96	-4.80000e+00	1.075675e+10	
97	-4.85000e+00	1.078058e+10	
98	-4.90000e+00	1.080400e+10	
99	-4.95000e+00	1.082703e+10	
100	-5.00000e+00	1.084967e+10	
101	-5.05000e+00	1.087192e+10	
102	-5.10000e+00	1.089381e+10	
103	-5.15000e+00	1.091532e+10	
104	-5.20000e+00	1.093647e+10	
105	-5.25000e+00	1.095727e+10	
106	-5.30000e+00	1.097772e+10	
107	-5.35000e+00	1.099782e+10	
108	-5.40000e+00	1.101759e+10	
109	-5.45000e+00	1.103702e+10	
110	-5.50000e+00	1.105612e+10	
111	-5.55000e+00	1.107490e+10	
112	-5.60000e+00	1.109337e+10	

Index   v-sweep         rds             
--------------------------------------------------------------------------------
113	-5.65000e+00	1.111151e+10	
114	-5.70000e+00	1.112935e+10	
115	-5.75000e+00	1.114689e+10	
116	-5.80000e+00	1.116412e+10	
117	-5.85000e+00	1.118106e+10	
118	-5.90000e+00	1.119771e+10	
119	-5.95000e+00	1.121407e+10	
120	-6.00000e+00	1.123014e+10	
121	-6.05000e+00	1.124594e+10	
122	-6.10000e+00	1.126146e+10	
123	-6.15000e+00	1.127670e+10	
124	-6.20000e+00	1.129167e+10	
125	-6.25000e+00	1.130638e+10	
126	-6.30000e+00	1.132083e+10	
127	-6.35000e+00	1.133501e+10	
128	-6.40000e+00	1.134894e+10	
129	-6.45000e+00	1.136261e+10	
130	-6.50000e+00	1.137604e+10	
131	-6.55000e+00	1.138922e+10	
132	-6.60000e+00	1.140215e+10	
Reset re-loads circuit ***************************

Circuit: ***************************

Doing analysis at TEMP = 25.000000 and TNOM = 25.000000


No. of Data Rows : 133
                          ***************************
                          DC transfer characteristic  Mon Jan  9 13:57:54  2023
--------------------------------------------------------------------------------
Index   v-sweep         rds             
--------------------------------------------------------------------------------
0	0.000000e+00	5.970320e+05	
1	-5.00000e-02	6.368032e+05	
2	-1.00000e-01	6.822001e+05	
3	-1.50000e-01	7.345040e+05	
4	-2.00000e-01	7.954152e+05	
5	-2.50000e-01	8.672384e+05	
6	-3.00000e-01	9.531740e+05	
7	-3.50000e-01	1.057795e+06	
8	-4.00000e-01	1.187853e+06	
9	-4.50000e-01	1.353715e+06	
10	-5.00000e-01	1.572045e+06	
11	-5.50000e-01	1.871104e+06	
12	-6.00000e-01	2.301829e+06	
13	-6.50000e-01	2.962050e+06	
14	-7.00000e-01	4.049471e+06	
15	-7.50000e-01	5.964184e+06	
16	-8.00000e-01	9.424633e+06	
17	-8.50000e-01	1.533192e+07	
18	-9.00000e-01	2.405961e+07	
19	-9.50000e-01	3.480230e+07	
20	-1.00000e+00	4.606302e+07	
21	-1.05000e+00	5.665960e+07	
22	-1.10000e+00	6.608754e+07	
23	-1.15000e+00	7.431178e+07	
24	-1.20000e+00	8.149067e+07	
25	-1.25000e+00	8.781959e+07	
26	-1.30000e+00	9.347136e+07	
27	-1.35000e+00	9.858295e+07	
28	-1.40000e+00	1.032585e+08	
29	-1.45000e+00	1.075762e+08	
30	-1.50000e+00	1.115951e+08	
31	-1.55000e+00	1.153601e+08	
32	-1.60000e+00	1.189062e+08	
33	-1.65000e+00	1.222604e+08	
34	-1.70000e+00	1.254448e+08	
35	-1.75000e+00	1.284770e+08	
36	-1.80000e+00	1.313716e+08	
37	-1.85000e+00	1.341408e+08	
38	-1.90000e+00	1.367951e+08	
39	-1.95000e+00	1.393433e+08	
40	-2.00000e+00	1.417932e+08	
41	-2.05000e+00	1.441516e+08	
42	-2.10000e+00	1.464244e+08	
43	-2.15000e+00	1.486170e+08	
44	-2.20000e+00	1.507342e+08	
45	-2.25000e+00	1.527803e+08	
46	-2.30000e+00	1.547593e+08	
47	-2.35000e+00	1.566747e+08	
48	-2.40000e+00	1.585300e+08	
49	-2.45000e+00	1.603280e+08	
50	-2.50000e+00	1.620716e+08	
51	-2.55000e+00	1.637634e+08	
52	-2.60000e+00	1.654058e+08	
53	-2.65000e+00	1.670011e+08	
54	-2.70000e+00	1.685513e+08	

Index   v-sweep         rds             
--------------------------------------------------------------------------------
55	-2.75000e+00	1.700584e+08	
56	-2.80000e+00	1.715243e+08	
57	-2.85000e+00	1.729507e+08	
58	-2.90000e+00	1.743392e+08	
59	-2.95000e+00	1.756914e+08	
60	-3.00000e+00	1.770086e+08	
61	-3.05000e+00	1.782923e+08	
62	-3.10000e+00	1.795437e+08	
63	-3.15000e+00	1.807641e+08	
64	-3.20000e+00	1.819546e+08	
65	-3.25000e+00	1.831163e+08	
66	-3.30000e+00	1.842503e+08	
67	-3.35000e+00	1.853576e+08	
68	-3.40000e+00	1.864390e+08	
69	-3.45000e+00	1.874956e+08	
70	-3.50000e+00	1.885281e+08	
71	-3.55000e+00	1.895373e+08	
72	-3.60000e+00	1.905241e+08	
73	-3.65000e+00	1.914892e+08	
74	-3.70000e+00	1.924333e+08	
75	-3.75000e+00	1.933570e+08	
76	-3.80000e+00	1.942611e+08	
77	-3.85000e+00	1.951460e+08	
78	-3.90000e+00	1.960125e+08	
79	-3.95000e+00	1.968611e+08	
80	-4.00000e+00	1.976923e+08	
81	-4.05000e+00	1.985066e+08	
82	-4.10000e+00	1.993046e+08	
83	-4.15000e+00	2.000867e+08	
84	-4.20000e+00	2.008534e+08	
85	-4.25000e+00	2.016051e+08	
86	-4.30000e+00	2.023422e+08	
87	-4.35000e+00	2.030652e+08	
88	-4.40000e+00	2.037744e+08	
89	-4.45000e+00	2.044701e+08	
90	-4.50000e+00	2.051528e+08	
91	-4.55000e+00	2.058228e+08	
92	-4.60000e+00	2.064804e+08	
93	-4.65000e+00	2.071260e+08	
94	-4.70000e+00	2.077597e+08	
95	-4.75000e+00	2.083820e+08	
96	-4.80000e+00	2.089931e+08	
97	-4.85000e+00	2.095933e+08	
98	-4.90000e+00	2.101828e+08	
99	-4.95000e+00	2.107619e+08	
100	-5.00000e+00	2.113308e+08	
101	-5.05000e+00	2.118897e+08	
102	-5.10000e+00	2.124389e+08	
103	-5.15000e+00	2.129786e+08	
104	-5.20000e+00	2.135090e+08	
105	-5.25000e+00	2.140302e+08	
106	-5.30000e+00	2.145426e+08	
107	-5.35000e+00	2.150461e+08	
108	-5.40000e+00	2.155411e+08	
109	-5.45000e+00	2.160277e+08	
110	-5.50000e+00	2.165061e+08	
111	-5.55000e+00	2.169763e+08	
112	-5.60000e+00	2.174386e+08	

Index   v-sweep         rds             
--------------------------------------------------------------------------------
113	-5.65000e+00	2.178932e+08	
114	-5.70000e+00	2.183401e+08	
115	-5.75000e+00	2.187795e+08	
116	-5.80000e+00	2.192115e+08	
117	-5.85000e+00	2.196362e+08	
118	-5.90000e+00	2.200538e+08	
119	-5.95000e+00	2.204644e+08	
120	-6.00000e+00	2.208681e+08	
121	-6.05000e+00	2.212651e+08	
122	-6.10000e+00	2.216553e+08	
123	-6.15000e+00	2.220389e+08	
124	-6.20000e+00	2.224161e+08	
125	-6.25000e+00	2.227869e+08	
126	-6.30000e+00	2.231514e+08	
127	-6.35000e+00	2.235097e+08	
128	-6.40000e+00	2.238619e+08	
129	-6.45000e+00	2.242081e+08	
130	-6.50000e+00	2.245483e+08	
131	-6.55000e+00	2.248827e+08	
132	-6.60000e+00	2.252113e+08	
Reset re-loads circuit ***************************

Circuit: ***************************

Doing analysis at TEMP = 25.000000 and TNOM = 25.000000


No. of Data Rows : 133
                          ***************************
                          DC transfer characteristic  Mon Jan  9 13:57:54  2023
--------------------------------------------------------------------------------
Index   v-sweep         rds             
--------------------------------------------------------------------------------
0	0.000000e+00	3.333263e+05	
1	-5.00000e-02	3.448490e+05	
2	-1.00000e-01	3.571864e+05	
3	-1.50000e-01	3.704279e+05	
4	-2.00000e-01	3.846767e+05	
5	-2.50000e-01	4.000520e+05	
6	-3.00000e-01	4.166929e+05	
7	-3.50000e-01	4.347621e+05	
8	-4.00000e-01	4.544514e+05	
9	-4.50000e-01	4.759886e+05	
10	-5.00000e-01	4.996462e+05	
11	-5.50000e-01	5.257525e+05	
12	-6.00000e-01	5.547076e+05	
13	-6.50000e-01	5.870029e+05	
14	-7.00000e-01	6.232490e+05	
15	-7.50000e-01	6.642142e+05	
16	-8.00000e-01	7.108777e+05	
17	-8.50000e-01	7.645067e+05	
18	-9.00000e-01	8.267685e+05	
19	-9.50000e-01	8.998983e+05	
20	-1.00000e+00	9.869555e+05	
21	-1.05000e+00	1.092228e+06	
22	-1.10000e+00	1.221880e+06	
23	-1.15000e+00	1.385030e+06	
24	-1.20000e+00	1.595567e+06	
25	-1.25000e+00	1.875249e+06	
26	-1.30000e+00	2.258917e+06	
27	-1.35000e+00	2.802589e+06	
28	-1.40000e+00	3.593314e+06	
29	-1.45000e+00	4.752174e+06	
30	-1.50000e+00	6.407874e+06	
31	-1.55000e+00	8.620984e+06	
32	-1.60000e+00	1.130054e+07	
33	-1.65000e+00	1.421515e+07	
34	-1.70000e+00	1.711042e+07	
35	-1.75000e+00	1.981426e+07	
36	-1.80000e+00	2.225653e+07	
37	-1.85000e+00	2.443542e+07	
38	-1.90000e+00	2.637996e+07	
39	-1.95000e+00	2.812694e+07	
40	-2.00000e+00	2.971069e+07	
41	-2.05000e+00	3.115984e+07	
42	-2.10000e+00	3.249718e+07	
43	-2.15000e+00	3.374054e+07	
44	-2.20000e+00	3.490384e+07	
45	-2.25000e+00	3.599799e+07	
46	-2.30000e+00	3.703165e+07	
47	-2.35000e+00	3.801178e+07	
48	-2.40000e+00	3.894405e+07	
49	-2.45000e+00	3.983311e+07	
50	-2.50000e+00	4.068289e+07	
51	-2.55000e+00	4.149669e+07	
52	-2.60000e+00	4.227736e+07	
53	-2.65000e+00	4.302735e+07	
54	-2.70000e+00	4.374881e+07	

Index   v-sweep         rds             
--------------------------------------------------------------------------------
55	-2.75000e+00	4.444365e+07	
56	-2.80000e+00	4.511356e+07	
57	-2.85000e+00	4.576006e+07	
58	-2.90000e+00	4.638450e+07	
59	-2.95000e+00	4.698814e+07	
60	-3.00000e+00	4.757211e+07	
61	-3.05000e+00	4.813743e+07	
62	-3.10000e+00	4.868507e+07	
63	-3.15000e+00	4.921589e+07	
64	-3.20000e+00	4.973072e+07	
65	-3.25000e+00	5.023030e+07	
66	-3.30000e+00	5.071535e+07	
67	-3.35000e+00	5.118651e+07	
68	-3.40000e+00	5.164440e+07	
69	-3.45000e+00	5.208960e+07	
70	-3.50000e+00	5.252263e+07	
71	-3.55000e+00	5.294401e+07	
72	-3.60000e+00	5.335422e+07	
73	-3.65000e+00	5.375369e+07	
74	-3.70000e+00	5.414287e+07	
75	-3.75000e+00	5.452214e+07	
76	-3.80000e+00	5.489190e+07	
77	-3.85000e+00	5.525248e+07	
78	-3.90000e+00	5.560425e+07	
79	-3.95000e+00	5.594752e+07	
80	-4.00000e+00	5.628259e+07	
81	-4.05000e+00	5.660977e+07	
82	-4.10000e+00	5.692932e+07	
83	-4.15000e+00	5.724152e+07	
84	-4.20000e+00	5.754661e+07	
85	-4.25000e+00	5.784483e+07	
86	-4.30000e+00	5.813642e+07	
87	-4.35000e+00	5.842159e+07	
88	-4.40000e+00	5.870054e+07	
89	-4.45000e+00	5.897349e+07	
90	-4.50000e+00	5.924062e+07	
91	-4.55000e+00	5.950212e+07	
92	-4.60000e+00	5.975815e+07	
93	-4.65000e+00	6.000888e+07	
94	-4.70000e+00	6.025448e+07	
95	-4.75000e+00	6.049510e+07	
96	-4.80000e+00	6.073088e+07	
97	-4.85000e+00	6.096197e+07	
98	-4.90000e+00	6.118849e+07	
99	-4.95000e+00	6.141058e+07	
100	-5.00000e+00	6.162837e+07	
101	-5.05000e+00	6.184196e+07	
102	-5.10000e+00	6.205148e+07	
103	-5.15000e+00	6.225704e+07	
104	-5.20000e+00	6.245873e+07	
105	-5.25000e+00	6.265667e+07	
106	-5.30000e+00	6.285094e+07	
107	-5.35000e+00	6.304164e+07	
108	-5.40000e+00	6.322886e+07	
109	-5.45000e+00	6.341269e+07	
110	-5.50000e+00	6.359320e+07	
111	-5.55000e+00	6.377048e+07	
112	-5.60000e+00	6.394460e+07	

Index   v-sweep         rds             
--------------------------------------------------------------------------------
113	-5.65000e+00	6.411564e+07	
114	-5.70000e+00	6.428367e+07	
115	-5.75000e+00	6.444874e+07	
116	-5.80000e+00	6.461094e+07	
117	-5.85000e+00	6.477032e+07	
118	-5.90000e+00	6.492694e+07	
119	-5.95000e+00	6.508086e+07	
120	-6.00000e+00	6.523213e+07	
121	-6.05000e+00	6.538082e+07	
122	-6.10000e+00	6.552696e+07	
123	-6.15000e+00	6.567062e+07	
124	-6.20000e+00	6.581183e+07	
125	-6.25000e+00	6.595065e+07	
126	-6.30000e+00	6.608712e+07	
127	-6.35000e+00	6.622128e+07	
128	-6.40000e+00	6.635317e+07	
129	-6.45000e+00	6.648283e+07	
130	-6.50000e+00	6.661031e+07	
131	-6.55000e+00	6.673564e+07	
132	-6.60000e+00	6.685885e+07	
Reset re-loads circuit ***************************

Circuit: ***************************

Doing analysis at TEMP = 25.000000 and TNOM = 25.000000


No. of Data Rows : 133
                          ***************************
                          DC transfer characteristic  Mon Jan  9 13:57:54  2023
--------------------------------------------------------------------------------
Index   v-sweep         rds             
--------------------------------------------------------------------------------
0	0.000000e+00	2.387789e+05	
1	-5.00000e-02	2.443289e+05	
2	-1.00000e-01	2.501386e+05	
3	-1.50000e-01	2.562268e+05	
4	-2.00000e-01	2.626138e+05	
5	-2.50000e-01	2.693222e+05	
6	-3.00000e-01	2.763769e+05	
7	-3.50000e-01	2.838055e+05	
8	-4.00000e-01	2.916384e+05	
9	-4.50000e-01	2.999095e+05	
10	-5.00000e-01	3.086566e+05	
11	-5.50000e-01	3.179221e+05	
12	-6.00000e-01	3.277533e+05	
13	-6.50000e-01	3.382037e+05	
14	-7.00000e-01	3.493336e+05	
15	-7.50000e-01	3.612113e+05	
16	-8.00000e-01	3.739149e+05	
17	-8.50000e-01	3.875334e+05	
18	-9.00000e-01	4.021690e+05	
19	-9.50000e-01	4.179401e+05	
20	-1.00000e+00	4.349836e+05	
21	-1.05000e+00	4.534597e+05	
22	-1.10000e+00	4.735563e+05	
23	-1.15000e+00	4.954957e+05	
24	-1.20000e+00	5.195422e+05	
25	-1.25000e+00	5.460132e+05	
26	-1.30000e+00	5.752925e+05	
27	-1.35000e+00	6.078486e+05	
28	-1.40000e+00	6.442592e+05	
29	-1.45000e+00	6.852440e+05	
30	-1.50000e+00	7.317108e+05	
31	-1.55000e+00	7.848188e+05	
32	-1.60000e+00	8.460695e+05	
33	-1.65000e+00	9.174374e+05	
34	-1.70000e+00	1.001561e+06	
35	-1.75000e+00	1.102028e+06	
36	-1.80000e+00	1.223798e+06	
37	-1.85000e+00	1.373844e+06	
38	-1.90000e+00	1.562097e+06	
39	-1.95000e+00	1.802779e+06	
40	-2.00000e+00	2.116079e+06	
41	-2.05000e+00	2.529614e+06	
42	-2.10000e+00	3.077949e+06	
43	-2.15000e+00	3.796689e+06	
44	-2.20000e+00	4.707834e+06	
45	-2.25000e+00	5.800177e+06	
46	-2.30000e+00	7.020446e+06	
47	-2.35000e+00	8.288981e+06	
48	-2.40000e+00	9.530295e+06	
49	-2.45000e+00	1.069468e+07	
50	-2.50000e+00	1.176088e+07	
51	-2.55000e+00	1.272752e+07	
52	-2.60000e+00	1.360324e+07	
53	-2.65000e+00	1.440001e+07	
54	-2.70000e+00	1.512969e+07	

Index   v-sweep         rds             
--------------------------------------------------------------------------------
55	-2.75000e+00	1.580266e+07	
56	-2.80000e+00	1.642753e+07	
57	-2.85000e+00	1.701126e+07	
58	-2.90000e+00	1.755941e+07	
59	-2.95000e+00	1.807649e+07	
60	-3.00000e+00	1.856610e+07	
61	-3.05000e+00	1.903122e+07	
62	-3.10000e+00	1.947428e+07	
63	-3.15000e+00	1.989733e+07	
64	-3.20000e+00	2.030209e+07	
65	-3.25000e+00	2.069005e+07	
66	-3.30000e+00	2.106248e+07	
67	-3.35000e+00	2.142049e+07	
68	-3.40000e+00	2.176506e+07	
69	-3.45000e+00	2.209706e+07	
70	-3.50000e+00	2.241728e+07	
71	-3.55000e+00	2.272640e+07	
72	-3.60000e+00	2.302508e+07	
73	-3.65000e+00	2.331387e+07	
74	-3.70000e+00	2.359331e+07	
75	-3.75000e+00	2.386389e+07	
76	-3.80000e+00	2.412605e+07	
77	-3.85000e+00	2.438020e+07	
78	-3.90000e+00	2.462672e+07	
79	-3.95000e+00	2.486598e+07	
80	-4.00000e+00	2.509830e+07	
81	-4.05000e+00	2.532399e+07	
82	-4.10000e+00	2.554334e+07	
83	-4.15000e+00	2.575663e+07	
84	-4.20000e+00	2.596411e+07	
85	-4.25000e+00	2.616602e+07	
86	-4.30000e+00	2.636258e+07	
87	-4.35000e+00	2.655401e+07	
88	-4.40000e+00	2.674052e+07	
89	-4.45000e+00	2.692229e+07	
90	-4.50000e+00	2.709950e+07	
91	-4.55000e+00	2.727232e+07	
92	-4.60000e+00	2.744092e+07	
93	-4.65000e+00	2.760545e+07	
94	-4.70000e+00	2.776606e+07	
95	-4.75000e+00	2.792289e+07	
96	-4.80000e+00	2.807606e+07	
97	-4.85000e+00	2.822571e+07	
98	-4.90000e+00	2.837196e+07	
99	-4.95000e+00	2.851492e+07	
100	-5.00000e+00	2.865470e+07	
101	-5.05000e+00	2.879140e+07	
102	-5.10000e+00	2.892512e+07	
103	-5.15000e+00	2.905597e+07	
104	-5.20000e+00	2.918403e+07	
105	-5.25000e+00	2.930938e+07	
106	-5.30000e+00	2.943212e+07	
107	-5.35000e+00	2.955232e+07	
108	-5.40000e+00	2.967005e+07	
109	-5.45000e+00	2.978540e+07	
110	-5.50000e+00	2.989843e+07	
111	-5.55000e+00	3.000921e+07	
112	-5.60000e+00	3.011780e+07	

Index   v-sweep         rds             
--------------------------------------------------------------------------------
113	-5.65000e+00	3.022427e+07	
114	-5.70000e+00	3.032867e+07	
115	-5.75000e+00	3.043106e+07	
116	-5.80000e+00	3.053150e+07	
117	-5.85000e+00	3.063003e+07	
118	-5.90000e+00	3.072672e+07	
119	-5.95000e+00	3.082160e+07	
120	-6.00000e+00	3.091472e+07	
121	-6.05000e+00	3.100613e+07	
122	-6.10000e+00	3.109587e+07	
123	-6.15000e+00	3.118398e+07	
124	-6.20000e+00	3.127051e+07	
125	-6.25000e+00	3.135548e+07	
126	-6.30000e+00	3.143894e+07	
127	-6.35000e+00	3.152091e+07	
128	-6.40000e+00	3.160144e+07	
129	-6.45000e+00	3.168056e+07	
130	-6.50000e+00	3.175829e+07	
131	-6.55000e+00	3.183467e+07	
132	-6.60000e+00	3.190973e+07	
Reset re-loads circuit ***************************

Circuit: ***************************

Doing analysis at TEMP = 25.000000 and TNOM = 25.000000


No. of Data Rows : 133
                          ***************************
                          DC transfer characteristic  Mon Jan  9 13:57:54  2023
--------------------------------------------------------------------------------
Index   v-sweep         rds             
--------------------------------------------------------------------------------
0	0.000000e+00	1.899812e+05	
1	-5.00000e-02	1.932951e+05	
2	-1.00000e-01	1.967242e+05	
3	-1.50000e-01	2.002748e+05	
4	-2.00000e-01	2.039533e+05	
5	-2.50000e-01	2.077667e+05	
6	-3.00000e-01	2.117228e+05	
7	-3.50000e-01	2.158295e+05	
8	-4.00000e-01	2.200957e+05	
9	-4.50000e-01	2.245309e+05	
10	-5.00000e-01	2.291452e+05	
11	-5.50000e-01	2.339498e+05	
12	-6.00000e-01	2.389567e+05	
13	-6.50000e-01	2.441789e+05	
14	-7.00000e-01	2.496305e+05	
15	-7.50000e-01	2.553272e+05	
16	-8.00000e-01	2.612856e+05	
17	-8.50000e-01	2.675244e+05	
18	-9.00000e-01	2.740637e+05	
19	-9.50000e-01	2.809257e+05	
20	-1.00000e+00	2.881350e+05	
21	-1.05000e+00	2.957186e+05	
22	-1.10000e+00	3.037063e+05	
23	-1.15000e+00	3.121313e+05	
24	-1.20000e+00	3.210305e+05	
25	-1.25000e+00	3.304450e+05	
26	-1.30000e+00	3.404208e+05	
27	-1.35000e+00	3.510096e+05	
28	-1.40000e+00	3.622696e+05	
29	-1.45000e+00	3.742665e+05	
30	-1.50000e+00	3.870750e+05	
31	-1.55000e+00	4.007799e+05	
32	-1.60000e+00	4.154787e+05	
33	-1.65000e+00	4.312830e+05	
34	-1.70000e+00	4.483218e+05	
35	-1.75000e+00	4.667452e+05	
36	-1.80000e+00	4.867279e+05	
37	-1.85000e+00	5.084755e+05	
38	-1.90000e+00	5.322308e+05	
39	-1.95000e+00	5.582828e+05	
40	-2.00000e+00	5.869781e+05	
41	-2.05000e+00	6.187353e+05	
42	-2.10000e+00	6.540649e+05	
43	-2.15000e+00	6.935944e+05	
44	-2.20000e+00	7.381037e+05	
45	-2.25000e+00	7.885709e+05	
46	-2.30000e+00	8.462371e+05	
47	-2.35000e+00	9.126947e+05	
48	-2.40000e+00	9.900096e+05	
49	-2.45000e+00	1.080891e+06	
50	-2.50000e+00	1.188925e+06	
51	-2.55000e+00	1.318885e+06	
52	-2.60000e+00	1.477127e+06	
53	-2.65000e+00	1.672018e+06	
54	-2.70000e+00	1.914246e+06	

Index   v-sweep         rds             
--------------------------------------------------------------------------------
55	-2.75000e+00	2.216616e+06	
56	-2.80000e+00	2.592604e+06	
57	-2.85000e+00	3.052829e+06	
58	-2.90000e+00	3.599471e+06	
59	-2.95000e+00	4.221010e+06	
60	-3.00000e+00	4.891747e+06	
61	-3.05000e+00	5.578412e+06	
62	-3.10000e+00	6.250216e+06	
63	-3.15000e+00	6.885955e+06	
64	-3.20000e+00	7.475350e+06	
65	-3.25000e+00	8.016446e+06	
66	-3.30000e+00	8.512076e+06	
67	-3.35000e+00	8.967103e+06	
68	-3.40000e+00	9.386783e+06	
69	-3.45000e+00	9.775983e+06	
70	-3.50000e+00	1.013890e+07	
71	-3.55000e+00	1.047905e+07	
72	-3.60000e+00	1.079930e+07	
73	-3.65000e+00	1.110201e+07	
74	-3.70000e+00	1.138913e+07	
75	-3.75000e+00	1.166224e+07	
76	-3.80000e+00	1.192270e+07	
77	-3.85000e+00	1.217163e+07	
78	-3.90000e+00	1.240999e+07	
79	-3.95000e+00	1.263861e+07	
80	-4.00000e+00	1.285820e+07	
81	-4.05000e+00	1.306939e+07	
82	-4.10000e+00	1.327275e+07	
83	-4.15000e+00	1.346876e+07	
84	-4.20000e+00	1.365788e+07	
85	-4.25000e+00	1.384050e+07	
86	-4.30000e+00	1.401699e+07	
87	-4.35000e+00	1.418769e+07	
88	-4.40000e+00	1.435289e+07	
89	-4.45000e+00	1.451288e+07	
90	-4.50000e+00	1.466791e+07	
91	-4.55000e+00	1.481824e+07	
92	-4.60000e+00	1.496407e+07	
93	-4.65000e+00	1.510562e+07	
94	-4.70000e+00	1.524308e+07	
95	-4.75000e+00	1.537663e+07	
96	-4.80000e+00	1.550644e+07	
97	-4.85000e+00	1.563267e+07	
98	-4.90000e+00	1.575547e+07	
99	-4.95000e+00	1.587498e+07	
100	-5.00000e+00	1.599133e+07	
101	-5.05000e+00	1.610466e+07	
102	-5.10000e+00	1.621507e+07	
103	-5.15000e+00	1.632268e+07	
104	-5.20000e+00	1.642759e+07	
105	-5.25000e+00	1.652992e+07	
106	-5.30000e+00	1.662974e+07	
107	-5.35000e+00	1.672716e+07	
108	-5.40000e+00	1.682225e+07	
109	-5.45000e+00	1.691511e+07	
110	-5.50000e+00	1.700581e+07	
111	-5.55000e+00	1.709443e+07	
112	-5.60000e+00	1.718102e+07	

Index   v-sweep         rds             
--------------------------------------------------------------------------------
113	-5.65000e+00	1.726568e+07	
114	-5.70000e+00	1.734844e+07	
115	-5.75000e+00	1.742939e+07	
116	-5.80000e+00	1.750858e+07	
117	-5.85000e+00	1.758606e+07	
118	-5.90000e+00	1.766189e+07	
119	-5.95000e+00	1.773612e+07	
120	-6.00000e+00	1.780880e+07	
121	-6.05000e+00	1.787998e+07	
122	-6.10000e+00	1.794970e+07	
123	-6.15000e+00	1.801800e+07	
124	-6.20000e+00	1.808494e+07	
125	-6.25000e+00	1.815053e+07	
126	-6.30000e+00	1.821484e+07	
127	-6.35000e+00	1.827788e+07	
128	-6.40000e+00	1.833970e+07	
129	-6.45000e+00	1.840033e+07	
130	-6.50000e+00	1.845981e+07	
131	-6.55000e+00	1.851815e+07	
132	-6.60000e+00	1.857540e+07	
Reset re-loads circuit ***************************

Circuit: ***************************

Doing analysis at TEMP = 25.000000 and TNOM = 25.000000


No. of Data Rows : 133
                          ***************************
                          DC transfer characteristic  Mon Jan  9 13:57:54  2023
--------------------------------------------------------------------------------
Index   v-sweep         rds             
--------------------------------------------------------------------------------
0	0.000000e+00	1.600984e+05	
1	-5.00000e-02	1.623259e+05	
2	-1.00000e-01	1.646148e+05	
3	-1.50000e-01	1.669676e+05	
4	-2.00000e-01	1.693871e+05	
5	-2.50000e-01	1.718762e+05	
6	-3.00000e-01	1.744378e+05	
7	-3.50000e-01	1.770753e+05	
8	-4.00000e-01	1.797920e+05	
9	-4.50000e-01	1.825915e+05	
10	-5.00000e-01	1.854776e+05	
11	-5.50000e-01	1.884546e+05	
12	-6.00000e-01	1.915267e+05	
13	-6.50000e-01	1.946985e+05	
14	-7.00000e-01	1.979751e+05	
15	-7.50000e-01	2.013616e+05	
16	-8.00000e-01	2.048637e+05	
17	-8.50000e-01	2.084874e+05	
18	-9.00000e-01	2.122391e+05	
19	-9.50000e-01	2.161258e+05	
20	-1.00000e+00	2.201549e+05	
21	-1.05000e+00	2.243343e+05	
22	-1.10000e+00	2.286726e+05	
23	-1.15000e+00	2.331790e+05	
24	-1.20000e+00	2.378635e+05	
25	-1.25000e+00	2.427369e+05	
26	-1.30000e+00	2.478108e+05	
27	-1.35000e+00	2.530978e+05	
28	-1.40000e+00	2.586116e+05	
29	-1.45000e+00	2.643671e+05	
30	-1.50000e+00	2.703806e+05	
31	-1.55000e+00	2.766698e+05	
32	-1.60000e+00	2.832541e+05	
33	-1.65000e+00	2.901546e+05	
34	-1.70000e+00	2.973948e+05	
35	-1.75000e+00	3.050002e+05	
36	-1.80000e+00	3.129993e+05	
37	-1.85000e+00	3.214232e+05	
38	-1.90000e+00	3.303068e+05	
39	-1.95000e+00	3.396885e+05	
40	-2.00000e+00	3.496114e+05	
41	-2.05000e+00	3.601236e+05	
42	-2.10000e+00	3.712791e+05	
43	-2.15000e+00	3.831384e+05	
44	-2.20000e+00	3.957702e+05	
45	-2.25000e+00	4.092522e+05	
46	-2.30000e+00	4.236726e+05	
47	-2.35000e+00	4.391326e+05	
48	-2.40000e+00	4.557480e+05	
49	-2.45000e+00	4.736524e+05	
50	-2.50000e+00	4.930006e+05	
51	-2.55000e+00	5.139730e+05	
52	-2.60000e+00	5.367807e+05	
53	-2.65000e+00	5.616726e+05	
54	-2.70000e+00	5.889437e+05	

Index   v-sweep         rds             
--------------------------------------------------------------------------------
55	-2.75000e+00	6.189462e+05	
56	-2.80000e+00	6.521032e+05	
57	-2.85000e+00	6.889274e+05	
58	-2.90000e+00	7.300439e+05	
59	-2.95000e+00	7.762218e+05	
60	-3.00000e+00	8.284141e+05	
61	-3.05000e+00	8.878113e+05	
62	-3.10000e+00	9.559104e+05	
63	-3.15000e+00	1.034604e+06	
64	-3.20000e+00	1.126294e+06	
65	-3.25000e+00	1.234019e+06	
66	-3.30000e+00	1.361593e+06	
67	-3.35000e+00	1.513700e+06	
68	-3.40000e+00	1.695856e+06	
69	-3.45000e+00	1.914058e+06	
70	-3.50000e+00	2.173883e+06	
71	-3.55000e+00	2.478862e+06	
72	-3.60000e+00	2.828317e+06	
73	-3.65000e+00	3.215601e+06	
74	-3.70000e+00	3.628128e+06	
75	-3.75000e+00	4.049909e+06	
76	-3.80000e+00	4.465509e+06	
77	-3.85000e+00	4.863300e+06	
78	-3.90000e+00	5.236630e+06	
79	-3.95000e+00	5.583172e+06	
80	-4.00000e+00	5.903475e+06	
81	-4.05000e+00	6.199601e+06	
82	-4.10000e+00	6.474161e+06	
83	-4.15000e+00	6.729781e+06	
84	-4.20000e+00	6.968840e+06	
85	-4.25000e+00	7.193397e+06	
86	-4.30000e+00	7.405185e+06	
87	-4.35000e+00	7.605652e+06	
88	-4.40000e+00	7.796002e+06	
89	-4.45000e+00	7.977239e+06	
90	-4.50000e+00	8.150212e+06	
91	-4.55000e+00	8.315638e+06	
92	-4.60000e+00	8.474130e+06	
93	-4.65000e+00	8.626219e+06	
94	-4.70000e+00	8.772369e+06	
95	-4.75000e+00	8.912985e+06	
96	-4.80000e+00	9.048428e+06	
97	-4.85000e+00	9.179021e+06	
98	-4.90000e+00	9.305052e+06	
99	-4.95000e+00	9.426783e+06	
100	-5.00000e+00	9.544454e+06	
101	-5.05000e+00	9.658280e+06	
102	-5.10000e+00	9.768462e+06	
103	-5.15000e+00	9.875184e+06	
104	-5.20000e+00	9.978615e+06	
105	-5.25000e+00	1.007891e+07	
106	-5.30000e+00	1.017623e+07	
107	-5.35000e+00	1.027069e+07	
108	-5.40000e+00	1.036243e+07	
109	-5.45000e+00	1.045157e+07	
110	-5.50000e+00	1.053822e+07	
111	-5.55000e+00	1.062248e+07	
112	-5.60000e+00	1.070446e+07	

Index   v-sweep         rds             
--------------------------------------------------------------------------------
113	-5.65000e+00	1.078424e+07	
114	-5.70000e+00	1.086192e+07	
115	-5.75000e+00	1.093758e+07	
116	-5.80000e+00	1.101130e+07	
117	-5.85000e+00	1.108314e+07	
118	-5.90000e+00	1.115319e+07	
119	-5.95000e+00	1.122151e+07	
120	-6.00000e+00	1.128817e+07	
121	-6.05000e+00	1.135321e+07	
122	-6.10000e+00	1.141671e+07	
123	-6.15000e+00	1.147871e+07	
124	-6.20000e+00	1.153927e+07	
125	-6.25000e+00	1.159844e+07	
126	-6.30000e+00	1.165626e+07	
127	-6.35000e+00	1.171278e+07	
128	-6.40000e+00	1.176804e+07	
129	-6.45000e+00	1.182209e+07	
130	-6.50000e+00	1.187496e+07	
131	-6.55000e+00	1.192670e+07	
132	-6.60000e+00	1.197733e+07	
Reset re-loads circuit ***************************

Circuit: ***************************

Note: No ".plot", ".print", or ".fourier" lines; no simulations run
