
Note: Compatibility modes selected: hs

Warning: m=xx on .subckt line will override multiplier m hierarchy!


Circuit: ***************************

Doing analysis at TEMP = 25.000000 and TNOM = 25.000000


No. of Data Rows : 133
                          ***************************
                          DC transfer characteristic  Mon Jan  9 13:57:54  2023
--------------------------------------------------------------------------------
Index   v-sweep         rds             
--------------------------------------------------------------------------------
0	0.000000e+00	3.076716e+05	
1	-5.00000e-02	4.114653e+05	
2	-1.00000e-01	6.101310e+05	
3	-1.50000e-01	1.088096e+06	
4	-2.00000e-01	2.503052e+06	
5	-2.50000e-01	5.770021e+06	
6	-3.00000e-01	9.447886e+06	
7	-3.50000e-01	1.190811e+07	
8	-4.00000e-01	1.341215e+07	
9	-4.50000e-01	1.443843e+07	
10	-5.00000e-01	1.523250e+07	
11	-5.50000e-01	1.590398e+07	
12	-6.00000e-01	1.650338e+07	
13	-6.50000e-01	1.705565e+07	
14	-7.00000e-01	1.757405e+07	
15	-7.50000e-01	1.806616e+07	
16	-8.00000e-01	1.853658e+07	
17	-8.50000e-01	1.898832e+07	
18	-9.00000e-01	1.942343e+07	
19	-9.50000e-01	1.984341e+07	
20	-1.00000e+00	2.024937e+07	
21	-1.05000e+00	2.064224e+07	
22	-1.10000e+00	2.102274e+07	
23	-1.15000e+00	2.139152e+07	
24	-1.20000e+00	2.174911e+07	
25	-1.25000e+00	2.209601e+07	
26	-1.30000e+00	2.243267e+07	
27	-1.35000e+00	2.275947e+07	
28	-1.40000e+00	2.307681e+07	
29	-1.45000e+00	2.338502e+07	
30	-1.50000e+00	2.368444e+07	
31	-1.55000e+00	2.397537e+07	
32	-1.60000e+00	2.425810e+07	
33	-1.65000e+00	2.453292e+07	
34	-1.70000e+00	2.480007e+07	
35	-1.75000e+00	2.505983e+07	
36	-1.80000e+00	2.531241e+07	
37	-1.85000e+00	2.555806e+07	
38	-1.90000e+00	2.579699e+07	
39	-1.95000e+00	2.602941e+07	
40	-2.00000e+00	2.625552e+07	
41	-2.05000e+00	2.647553e+07	
42	-2.10000e+00	2.668961e+07	
43	-2.15000e+00	2.689794e+07	
44	-2.20000e+00	2.710069e+07	
45	-2.25000e+00	2.729804e+07	
46	-2.30000e+00	2.749014e+07	
47	-2.35000e+00	2.767714e+07	
48	-2.40000e+00	2.785919e+07	
49	-2.45000e+00	2.803644e+07	
50	-2.50000e+00	2.820902e+07	
51	-2.55000e+00	2.837706e+07	
52	-2.60000e+00	2.854070e+07	
53	-2.65000e+00	2.870005e+07	
54	-2.70000e+00	2.885524e+07	

Index   v-sweep         rds             
--------------------------------------------------------------------------------
55	-2.75000e+00	2.900638e+07	
56	-2.80000e+00	2.915358e+07	
57	-2.85000e+00	2.929695e+07	
58	-2.90000e+00	2.943660e+07	
59	-2.95000e+00	2.957261e+07	
60	-3.00000e+00	2.970510e+07	
61	-3.05000e+00	2.983415e+07	
62	-3.10000e+00	2.995986e+07	
63	-3.15000e+00	3.008230e+07	
64	-3.20000e+00	3.020158e+07	
65	-3.25000e+00	3.031776e+07	
66	-3.30000e+00	3.043093e+07	
67	-3.35000e+00	3.054116e+07	
68	-3.40000e+00	3.064853e+07	
69	-3.45000e+00	3.075312e+07	
70	-3.50000e+00	3.085498e+07	
71	-3.55000e+00	3.095418e+07	
72	-3.60000e+00	3.105080e+07	
73	-3.65000e+00	3.114488e+07	
74	-3.70000e+00	3.123651e+07	
75	-3.75000e+00	3.132572e+07	
76	-3.80000e+00	3.141258e+07	
77	-3.85000e+00	3.149715e+07	
78	-3.90000e+00	3.157947e+07	
79	-3.95000e+00	3.165960e+07	
80	-4.00000e+00	3.173759e+07	
81	-4.05000e+00	3.181348e+07	
82	-4.10000e+00	3.188733e+07	
83	-4.15000e+00	3.195917e+07	
84	-4.20000e+00	3.202905e+07	
85	-4.25000e+00	3.209701e+07	
86	-4.30000e+00	3.216310e+07	
87	-4.35000e+00	3.222734e+07	
88	-4.40000e+00	3.228979e+07	
89	-4.45000e+00	3.235047e+07	
90	-4.50000e+00	3.240942e+07	
91	-4.55000e+00	3.246668e+07	
92	-4.60000e+00	3.252228e+07	
93	-4.65000e+00	3.257625e+07	
94	-4.70000e+00	3.262862e+07	
95	-4.75000e+00	3.267942e+07	
96	-4.80000e+00	3.272869e+07	
97	-4.85000e+00	3.277644e+07	
98	-4.90000e+00	3.282271e+07	
99	-4.95000e+00	3.286753e+07	
100	-5.00000e+00	3.291091e+07	
101	-5.05000e+00	3.295289e+07	
102	-5.10000e+00	3.299348e+07	
103	-5.15000e+00	3.303271e+07	
104	-5.20000e+00	3.307061e+07	
105	-5.25000e+00	3.310719e+07	
106	-5.30000e+00	3.314248e+07	
107	-5.35000e+00	3.317649e+07	
108	-5.40000e+00	3.320925e+07	
109	-5.45000e+00	3.324077e+07	
110	-5.50000e+00	3.327108e+07	
111	-5.55000e+00	3.330019e+07	
112	-5.60000e+00	3.332812e+07	

Index   v-sweep         rds             
--------------------------------------------------------------------------------
113	-5.65000e+00	3.335489e+07	
114	-5.70000e+00	3.338051e+07	
115	-5.75000e+00	3.340500e+07	
116	-5.80000e+00	3.342838e+07	
117	-5.85000e+00	3.345066e+07	
118	-5.90000e+00	3.347185e+07	
119	-5.95000e+00	3.349198e+07	
120	-6.00000e+00	3.351105e+07	
121	-6.05000e+00	3.352908e+07	
122	-6.10000e+00	3.354608e+07	
123	-6.15000e+00	3.356207e+07	
124	-6.20000e+00	3.357706e+07	
125	-6.25000e+00	3.359106e+07	
126	-6.30000e+00	3.360409e+07	
127	-6.35000e+00	3.361615e+07	
128	-6.40000e+00	3.362725e+07	
129	-6.45000e+00	3.363742e+07	
130	-6.50000e+00	3.364666e+07	
131	-6.55000e+00	3.365498e+07	
132	-6.60000e+00	3.366240e+07	
Reset re-loads circuit ***************************

Circuit: ***************************

Doing analysis at TEMP = 25.000000 and TNOM = 25.000000


No. of Data Rows : 133
                          ***************************
                          DC transfer characteristic  Mon Jan  9 13:57:54  2023
--------------------------------------------------------------------------------
Index   v-sweep         rds             
--------------------------------------------------------------------------------
0	0.000000e+00	5.948736e+04	
1	-5.00000e-02	6.315684e+04	
2	-1.00000e-01	6.725341e+04	
3	-1.50000e-01	7.185594e+04	
4	-2.00000e-01	7.706391e+04	
5	-2.50000e-01	8.300452e+04	
6	-3.00000e-01	8.984302e+04	
7	-3.50000e-01	9.779785e+04	
8	-4.00000e-01	1.071635e+05	
9	-4.50000e-01	1.183458e+05	
10	-5.00000e-01	1.319179e+05	
11	-5.50000e-01	1.487108e+05	
12	-6.00000e-01	1.699623e+05	
13	-6.50000e-01	1.975604e+05	
14	-7.00000e-01	2.344078e+05	
15	-7.50000e-01	2.848159e+05	
16	-8.00000e-01	3.542515e+05	
17	-8.50000e-01	4.464140e+05	
18	-9.00000e-01	5.564008e+05	
19	-9.50000e-01	6.684624e+05	
20	-1.00000e+00	7.679281e+05	
21	-1.05000e+00	8.510880e+05	
22	-1.10000e+00	9.213040e+05	
23	-1.15000e+00	9.829024e+05	
24	-1.20000e+00	1.039017e+06	
25	-1.25000e+00	1.091580e+06	
26	-1.30000e+00	1.141734e+06	
27	-1.35000e+00	1.190157e+06	
28	-1.40000e+00	1.237258e+06	
29	-1.45000e+00	1.283294e+06	
30	-1.50000e+00	1.328431e+06	
31	-1.55000e+00	1.372779e+06	
32	-1.60000e+00	1.416416e+06	
33	-1.65000e+00	1.459396e+06	
34	-1.70000e+00	1.501760e+06	
35	-1.75000e+00	1.543539e+06	
36	-1.80000e+00	1.584757e+06	
37	-1.85000e+00	1.625434e+06	
38	-1.90000e+00	1.665588e+06	
39	-1.95000e+00	1.705231e+06	
40	-2.00000e+00	1.744377e+06	
41	-2.05000e+00	1.783037e+06	
42	-2.10000e+00	1.821220e+06	
43	-2.15000e+00	1.858937e+06	
44	-2.20000e+00	1.896195e+06	
45	-2.25000e+00	1.933004e+06	
46	-2.30000e+00	1.969370e+06	
47	-2.35000e+00	2.005301e+06	
48	-2.40000e+00	2.040804e+06	
49	-2.45000e+00	2.075886e+06	
50	-2.50000e+00	2.110554e+06	
51	-2.55000e+00	2.144813e+06	
52	-2.60000e+00	2.178671e+06	
53	-2.65000e+00	2.212133e+06	
54	-2.70000e+00	2.245205e+06	

Index   v-sweep         rds             
--------------------------------------------------------------------------------
55	-2.75000e+00	2.277893e+06	
56	-2.80000e+00	2.310202e+06	
57	-2.85000e+00	2.342139e+06	
58	-2.90000e+00	2.373708e+06	
59	-2.95000e+00	2.404914e+06	
60	-3.00000e+00	2.435764e+06	
61	-3.05000e+00	2.466262e+06	
62	-3.10000e+00	2.496413e+06	
63	-3.15000e+00	2.526221e+06	
64	-3.20000e+00	2.555693e+06	
65	-3.25000e+00	2.584832e+06	
66	-3.30000e+00	2.613644e+06	
67	-3.35000e+00	2.642132e+06	
68	-3.40000e+00	2.670301e+06	
69	-3.45000e+00	2.698156e+06	
70	-3.50000e+00	2.725701e+06	
71	-3.55000e+00	2.752940e+06	
72	-3.60000e+00	2.779877e+06	
73	-3.65000e+00	2.806517e+06	
74	-3.70000e+00	2.832863e+06	
75	-3.75000e+00	2.858920e+06	
76	-3.80000e+00	2.884690e+06	
77	-3.85000e+00	2.910179e+06	
78	-3.90000e+00	2.935389e+06	
79	-3.95000e+00	2.960324e+06	
80	-4.00000e+00	2.984987e+06	
81	-4.05000e+00	3.009383e+06	
82	-4.10000e+00	3.033515e+06	
83	-4.15000e+00	3.057385e+06	
84	-4.20000e+00	3.080997e+06	
85	-4.25000e+00	3.104353e+06	
86	-4.30000e+00	3.127458e+06	
87	-4.35000e+00	3.150314e+06	
88	-4.40000e+00	3.172924e+06	
89	-4.45000e+00	3.195290e+06	
90	-4.50000e+00	3.217416e+06	
91	-4.55000e+00	3.239304e+06	
92	-4.60000e+00	3.260956e+06	
93	-4.65000e+00	3.282374e+06	
94	-4.70000e+00	3.303562e+06	
95	-4.75000e+00	3.324522e+06	
96	-4.80000e+00	3.345255e+06	
97	-4.85000e+00	3.365764e+06	
98	-4.90000e+00	3.386050e+06	
99	-4.95000e+00	3.406117e+06	
100	-5.00000e+00	3.425964e+06	
101	-5.05000e+00	3.445596e+06	
102	-5.10000e+00	3.465012e+06	
103	-5.15000e+00	3.484215e+06	
104	-5.20000e+00	3.503206e+06	
105	-5.25000e+00	3.521987e+06	
106	-5.30000e+00	3.540559e+06	
107	-5.35000e+00	3.558923e+06	
108	-5.40000e+00	3.577082e+06	
109	-5.45000e+00	3.595035e+06	
110	-5.50000e+00	3.612784e+06	
111	-5.55000e+00	3.630330e+06	
112	-5.60000e+00	3.647675e+06	

Index   v-sweep         rds             
--------------------------------------------------------------------------------
113	-5.65000e+00	3.664818e+06	
114	-5.70000e+00	3.681761e+06	
115	-5.75000e+00	3.698506e+06	
116	-5.80000e+00	3.715052e+06	
117	-5.85000e+00	3.731400e+06	
118	-5.90000e+00	3.747551e+06	
119	-5.95000e+00	3.763506e+06	
120	-6.00000e+00	3.779265e+06	
121	-6.05000e+00	3.794829e+06	
122	-6.10000e+00	3.810199e+06	
123	-6.15000e+00	3.825374e+06	
124	-6.20000e+00	3.840355e+06	
125	-6.25000e+00	3.855144e+06	
126	-6.30000e+00	3.869739e+06	
127	-6.35000e+00	3.884142e+06	
128	-6.40000e+00	3.898353e+06	
129	-6.45000e+00	3.912371e+06	
130	-6.50000e+00	3.926199e+06	
131	-6.55000e+00	3.939835e+06	
132	-6.60000e+00	3.953280e+06	
Reset re-loads circuit ***************************

Circuit: ***************************

Doing analysis at TEMP = 25.000000 and TNOM = 25.000000


No. of Data Rows : 133
                          ***************************
                          DC transfer characteristic  Mon Jan  9 13:57:54  2023
--------------------------------------------------------------------------------
Index   v-sweep         rds             
--------------------------------------------------------------------------------
0	0.000000e+00	3.607190e+04	
1	-5.00000e-02	3.737722e+04	
2	-1.00000e-01	3.876496e+04	
3	-1.50000e-01	4.024315e+04	
4	-2.00000e-01	4.182088e+04	
5	-2.50000e-01	4.350853e+04	
6	-3.00000e-01	4.531792e+04	
7	-3.50000e-01	4.726269e+04	
8	-4.00000e-01	4.935854e+04	
9	-4.50000e-01	5.162371e+04	
10	-5.00000e-01	5.407948e+04	
11	-5.50000e-01	5.675083e+04	
12	-6.00000e-01	5.966730e+04	
13	-6.50000e-01	6.286403e+04	
14	-7.00000e-01	6.638314e+04	
15	-7.50000e-01	7.027557e+04	
16	-8.00000e-01	7.460339e+04	
17	-8.50000e-01	7.944302e+04	
18	-9.00000e-01	8.488938e+04	
19	-9.50000e-01	9.106163e+04	
20	-1.00000e+00	9.811086e+04	
21	-1.05000e+00	1.062305e+05	
22	-1.10000e+00	1.156698e+05	
23	-1.15000e+00	1.267512e+05	
24	-1.20000e+00	1.398882e+05	
25	-1.25000e+00	1.555964e+05	
26	-1.30000e+00	1.744707e+05	
27	-1.35000e+00	1.970745e+05	
28	-1.40000e+00	2.236569e+05	
29	-1.45000e+00	2.537085e+05	
30	-1.50000e+00	2.857013e+05	
31	-1.55000e+00	3.175767e+05	
32	-1.60000e+00	3.477764e+05	
33	-1.65000e+00	3.757688e+05	
34	-1.70000e+00	4.017581e+05	
35	-1.75000e+00	4.261919e+05	
36	-1.80000e+00	4.494850e+05	
37	-1.85000e+00	4.719437e+05	
38	-1.90000e+00	4.937752e+05	
39	-1.95000e+00	5.151155e+05	
40	-2.00000e+00	5.360536e+05	
41	-2.05000e+00	5.566485e+05	
42	-2.10000e+00	5.769401e+05	
43	-2.15000e+00	5.969563e+05	
44	-2.20000e+00	6.167167e+05	
45	-2.25000e+00	6.362360e+05	
46	-2.30000e+00	6.555253e+05	
47	-2.35000e+00	6.745931e+05	
48	-2.40000e+00	6.934466e+05	
49	-2.45000e+00	7.120914e+05	
50	-2.50000e+00	7.305325e+05	
51	-2.55000e+00	7.487744e+05	
52	-2.60000e+00	7.668208e+05	
53	-2.65000e+00	7.846752e+05	
54	-2.70000e+00	8.023410e+05	

Index   v-sweep         rds             
--------------------------------------------------------------------------------
55	-2.75000e+00	8.198211e+05	
56	-2.80000e+00	8.371184e+05	
57	-2.85000e+00	8.542356e+05	
58	-2.90000e+00	8.711754e+05	
59	-2.95000e+00	8.879402e+05	
60	-3.00000e+00	9.045325e+05	
61	-3.05000e+00	9.209547e+05	
62	-3.10000e+00	9.372091e+05	
63	-3.15000e+00	9.532978e+05	
64	-3.20000e+00	9.692232e+05	
65	-3.25000e+00	9.849873e+05	
66	-3.30000e+00	1.000592e+06	
67	-3.35000e+00	1.016040e+06	
68	-3.40000e+00	1.031333e+06	
69	-3.45000e+00	1.046473e+06	
70	-3.50000e+00	1.061462e+06	
71	-3.55000e+00	1.076302e+06	
72	-3.60000e+00	1.090994e+06	
73	-3.65000e+00	1.105541e+06	
74	-3.70000e+00	1.119945e+06	
75	-3.75000e+00	1.134206e+06	
76	-3.80000e+00	1.148328e+06	
77	-3.85000e+00	1.162312e+06	
78	-3.90000e+00	1.176159e+06	
79	-3.95000e+00	1.189871e+06	
80	-4.00000e+00	1.203450e+06	
81	-4.05000e+00	1.216897e+06	
82	-4.10000e+00	1.230215e+06	
83	-4.15000e+00	1.243404e+06	
84	-4.20000e+00	1.256467e+06	
85	-4.25000e+00	1.269404e+06	
86	-4.30000e+00	1.282218e+06	
87	-4.35000e+00	1.294909e+06	
88	-4.40000e+00	1.307479e+06	
89	-4.45000e+00	1.319930e+06	
90	-4.50000e+00	1.332263e+06	
91	-4.55000e+00	1.344479e+06	
92	-4.60000e+00	1.356579e+06	
93	-4.65000e+00	1.368566e+06	
94	-4.70000e+00	1.380439e+06	
95	-4.75000e+00	1.392201e+06	
96	-4.80000e+00	1.403852e+06	
97	-4.85000e+00	1.415394e+06	
98	-4.90000e+00	1.426827e+06	
99	-4.95000e+00	1.438154e+06	
100	-5.00000e+00	1.449374e+06	
101	-5.05000e+00	1.460489e+06	
102	-5.10000e+00	1.471499e+06	
103	-5.15000e+00	1.482407e+06	
104	-5.20000e+00	1.493212e+06	
105	-5.25000e+00	1.503915e+06	
106	-5.30000e+00	1.514518e+06	
107	-5.35000e+00	1.525020e+06	
108	-5.40000e+00	1.535424e+06	
109	-5.45000e+00	1.545728e+06	
110	-5.50000e+00	1.555935e+06	
111	-5.55000e+00	1.566045e+06	
112	-5.60000e+00	1.576058e+06	

Index   v-sweep         rds             
--------------------------------------------------------------------------------
113	-5.65000e+00	1.585974e+06	
114	-5.70000e+00	1.595795e+06	
115	-5.75000e+00	1.605521e+06	
116	-5.80000e+00	1.615152e+06	
117	-5.85000e+00	1.624689e+06	
118	-5.90000e+00	1.634132e+06	
119	-5.95000e+00	1.643481e+06	
120	-6.00000e+00	1.652736e+06	
121	-6.05000e+00	1.661899e+06	
122	-6.10000e+00	1.670968e+06	
123	-6.15000e+00	1.679945e+06	
124	-6.20000e+00	1.688830e+06	
125	-6.25000e+00	1.697622e+06	
126	-6.30000e+00	1.706321e+06	
127	-6.35000e+00	1.714929e+06	
128	-6.40000e+00	1.723444e+06	
129	-6.45000e+00	1.731868e+06	
130	-6.50000e+00	1.740199e+06	
131	-6.55000e+00	1.748439e+06	
132	-6.60000e+00	1.756586e+06	
Reset re-loads circuit ***************************

Circuit: ***************************

Doing analysis at TEMP = 25.000000 and TNOM = 25.000000


No. of Data Rows : 133
                          ***************************
                          DC transfer characteristic  Mon Jan  9 13:57:54  2023
--------------------------------------------------------------------------------
Index   v-sweep         rds             
--------------------------------------------------------------------------------
0	0.000000e+00	2.713415e+04	
1	-5.00000e-02	2.784511e+04	
2	-1.00000e-01	2.858709e+04	
3	-1.50000e-01	2.936216e+04	
4	-2.00000e-01	3.017255e+04	
5	-2.50000e-01	3.102074e+04	
6	-3.00000e-01	3.190941e+04	
7	-3.50000e-01	3.284152e+04	
8	-4.00000e-01	3.382031e+04	
9	-4.50000e-01	3.484936e+04	
10	-5.00000e-01	3.593263e+04	
11	-5.50000e-01	3.707449e+04	
12	-6.00000e-01	3.827981e+04	
13	-6.50000e-01	3.955400e+04	
14	-7.00000e-01	4.090311e+04	
15	-7.50000e-01	4.233391e+04	
16	-8.00000e-01	4.385402e+04	
17	-8.50000e-01	4.547202e+04	
18	-9.00000e-01	4.719763e+04	
19	-9.50000e-01	4.904189e+04	
20	-1.00000e+00	5.101738e+04	
21	-1.05000e+00	5.313853e+04	
22	-1.10000e+00	5.542193e+04	
23	-1.15000e+00	5.788676e+04	
24	-1.20000e+00	6.055531e+04	
25	-1.25000e+00	6.345359e+04	
26	-1.30000e+00	6.661213e+04	
27	-1.35000e+00	7.006696e+04	
28	-1.40000e+00	7.386083e+04	
29	-1.45000e+00	7.804467e+04	
30	-1.50000e+00	8.267948e+04	
31	-1.55000e+00	8.783843e+04	
32	-1.60000e+00	9.360937e+04	
33	-1.65000e+00	1.000972e+05	
34	-1.70000e+00	1.074254e+05	
35	-1.75000e+00	1.157351e+05	
36	-1.80000e+00	1.251775e+05	
37	-1.85000e+00	1.358937e+05	
38	-1.90000e+00	1.479730e+05	
39	-1.95000e+00	1.613891e+05	
40	-2.00000e+00	1.759339e+05	
41	-2.05000e+00	1.912118e+05	
42	-2.10000e+00	2.067440e+05	
43	-2.15000e+00	2.221324e+05	
44	-2.20000e+00	2.371586e+05	
45	-2.25000e+00	2.517657e+05	
46	-2.30000e+00	2.659851e+05	
47	-2.35000e+00	2.798751e+05	
48	-2.40000e+00	2.934913e+05	
49	-2.45000e+00	3.068770e+05	
50	-2.50000e+00	3.200633e+05	
51	-2.55000e+00	3.330721e+05	
52	-2.60000e+00	3.459184e+05	
53	-2.65000e+00	3.586132e+05	
54	-2.70000e+00	3.711639e+05	

Index   v-sweep         rds             
--------------------------------------------------------------------------------
55	-2.75000e+00	3.835763e+05	
56	-2.80000e+00	3.958549e+05	
57	-2.85000e+00	4.080031e+05	
58	-2.90000e+00	4.200238e+05	
59	-2.95000e+00	4.319196e+05	
60	-3.00000e+00	4.436924e+05	
61	-3.05000e+00	4.553445e+05	
62	-3.10000e+00	4.668775e+05	
63	-3.15000e+00	4.782932e+05	
64	-3.20000e+00	4.895933e+05	
65	-3.25000e+00	5.007792e+05	
66	-3.30000e+00	5.118526e+05	
67	-3.35000e+00	5.228148e+05	
68	-3.40000e+00	5.336673e+05	
69	-3.45000e+00	5.444116e+05	
70	-3.50000e+00	5.550490e+05	
71	-3.55000e+00	5.655808e+05	
72	-3.60000e+00	5.760085e+05	
73	-3.65000e+00	5.863332e+05	
74	-3.70000e+00	5.965563e+05	
75	-3.75000e+00	6.066791e+05	
76	-3.80000e+00	6.167028e+05	
77	-3.85000e+00	6.266287e+05	
78	-3.90000e+00	6.364580e+05	
79	-3.95000e+00	6.461919e+05	
80	-4.00000e+00	6.558315e+05	
81	-4.05000e+00	6.653781e+05	
82	-4.10000e+00	6.748327e+05	
83	-4.15000e+00	6.841966e+05	
84	-4.20000e+00	6.934708e+05	
85	-4.25000e+00	7.026565e+05	
86	-4.30000e+00	7.117548e+05	
87	-4.35000e+00	7.207666e+05	
88	-4.40000e+00	7.296931e+05	
89	-4.45000e+00	7.385354e+05	
90	-4.50000e+00	7.472943e+05	
91	-4.55000e+00	7.559710e+05	
92	-4.60000e+00	7.645664e+05	
93	-4.65000e+00	7.730816e+05	
94	-4.70000e+00	7.815174e+05	
95	-4.75000e+00	7.898748e+05	
96	-4.80000e+00	7.981547e+05	
97	-4.85000e+00	8.063580e+05	
98	-4.90000e+00	8.144857e+05	
99	-4.95000e+00	8.225386e+05	
100	-5.00000e+00	8.305175e+05	
101	-5.05000e+00	8.384233e+05	
102	-5.10000e+00	8.462567e+05	
103	-5.15000e+00	8.540186e+05	
104	-5.20000e+00	8.617098e+05	
105	-5.25000e+00	8.693310e+05	
106	-5.30000e+00	8.768828e+05	
107	-5.35000e+00	8.843661e+05	
108	-5.40000e+00	8.917815e+05	
109	-5.45000e+00	8.991297e+05	
110	-5.50000e+00	9.064113e+05	
111	-5.55000e+00	9.136268e+05	
112	-5.60000e+00	9.207770e+05	

Index   v-sweep         rds             
--------------------------------------------------------------------------------
113	-5.65000e+00	9.278624e+05	
114	-5.70000e+00	9.348834e+05	
115	-5.75000e+00	9.418407e+05	
116	-5.80000e+00	9.487346e+05	
117	-5.85000e+00	9.555657e+05	
118	-5.90000e+00	9.623344e+05	
119	-5.95000e+00	9.690411e+05	
120	-6.00000e+00	9.756863e+05	
121	-6.05000e+00	9.822701e+05	
122	-6.10000e+00	9.887930e+05	
123	-6.15000e+00	9.952554e+05	
124	-6.20000e+00	1.001657e+06	
125	-6.25000e+00	1.007999e+06	
126	-6.30000e+00	1.014281e+06	
127	-6.35000e+00	1.020504e+06	
128	-6.40000e+00	1.026667e+06	
129	-6.45000e+00	1.032770e+06	
130	-6.50000e+00	1.038815e+06	
131	-6.55000e+00	1.044801e+06	
132	-6.60000e+00	1.050727e+06	
Reset re-loads circuit ***************************

Circuit: ***************************

Doing analysis at TEMP = 25.000000 and TNOM = 25.000000


No. of Data Rows : 133
                          ***************************
                          DC transfer characteristic  Mon Jan  9 13:57:54  2023
--------------------------------------------------------------------------------
Index   v-sweep         rds             
--------------------------------------------------------------------------------
0	0.000000e+00	2.236680e+04	
1	-5.00000e-02	2.283080e+04	
2	-1.00000e-01	2.331032e+04	
3	-1.50000e-01	2.380614e+04	
4	-2.00000e-01	2.431910e+04	
5	-2.50000e-01	2.485011e+04	
6	-3.00000e-01	2.540011e+04	
7	-3.50000e-01	2.597014e+04	
8	-4.00000e-01	2.656132e+04	
9	-4.50000e-01	2.717483e+04	
10	-5.00000e-01	2.781195e+04	
11	-5.50000e-01	2.847406e+04	
12	-6.00000e-01	2.916265e+04	
13	-6.50000e-01	2.987935e+04	
14	-7.00000e-01	3.062589e+04	
15	-7.50000e-01	3.140416e+04	
16	-8.00000e-01	3.221622e+04	
17	-8.50000e-01	3.306432e+04	
18	-9.00000e-01	3.395088e+04	
19	-9.50000e-01	3.487857e+04	
20	-1.00000e+00	3.585031e+04	
21	-1.05000e+00	3.686930e+04	
22	-1.10000e+00	3.793904e+04	
23	-1.15000e+00	3.906340e+04	
24	-1.20000e+00	4.024665e+04	
25	-1.25000e+00	4.149352e+04	
26	-1.30000e+00	4.280923e+04	
27	-1.35000e+00	4.419962e+04	
28	-1.40000e+00	4.567118e+04	
29	-1.45000e+00	4.723116e+04	
30	-1.50000e+00	4.888773e+04	
31	-1.55000e+00	5.065004e+04	
32	-1.60000e+00	5.252844e+04	
33	-1.65000e+00	5.453463e+04	
34	-1.70000e+00	5.668191e+04	
35	-1.75000e+00	5.898544e+04	
36	-1.80000e+00	6.146256e+04	
37	-1.85000e+00	6.413313e+04	
38	-1.90000e+00	6.701999e+04	
39	-1.95000e+00	7.014947e+04	
40	-2.00000e+00	7.355191e+04	
41	-2.05000e+00	7.726227e+04	
42	-2.10000e+00	8.132064e+04	
43	-2.15000e+00	8.577264e+04	
44	-2.20000e+00	9.066928e+04	
45	-2.25000e+00	9.606585e+04	
46	-2.30000e+00	1.020190e+05	
47	-2.35000e+00	1.085804e+05	
48	-2.40000e+00	1.157866e+05	
49	-2.45000e+00	1.236435e+05	
50	-2.50000e+00	1.321106e+05	
51	-2.55000e+00	1.410931e+05	
52	-2.60000e+00	1.504542e+05	
53	-2.65000e+00	1.600456e+05	
54	-2.70000e+00	1.697417e+05	

Index   v-sweep         rds             
--------------------------------------------------------------------------------
55	-2.75000e+00	1.794558e+05	
56	-2.80000e+00	1.891374e+05	
57	-2.85000e+00	1.987607e+05	
58	-2.90000e+00	2.083129e+05	
59	-2.95000e+00	2.177877e+05	
60	-3.00000e+00	2.271817e+05	
61	-3.05000e+00	2.364927e+05	
62	-3.10000e+00	2.457195e+05	
63	-3.15000e+00	2.548610e+05	
64	-3.20000e+00	2.639167e+05	
65	-3.25000e+00	2.728861e+05	
66	-3.30000e+00	2.817693e+05	
67	-3.35000e+00	2.905663e+05	
68	-3.40000e+00	2.992774e+05	
69	-3.45000e+00	3.079029e+05	
70	-3.50000e+00	3.164434e+05	
71	-3.55000e+00	3.248994e+05	
72	-3.60000e+00	3.332717e+05	
73	-3.65000e+00	3.415608e+05	
74	-3.70000e+00	3.497677e+05	
75	-3.75000e+00	3.578931e+05	
76	-3.80000e+00	3.659377e+05	
77	-3.85000e+00	3.739026e+05	
78	-3.90000e+00	3.817885e+05	
79	-3.95000e+00	3.895963e+05	
80	-4.00000e+00	3.973269e+05	
81	-4.05000e+00	4.049812e+05	
82	-4.10000e+00	4.125600e+05	
83	-4.15000e+00	4.200643e+05	
84	-4.20000e+00	4.274950e+05	
85	-4.25000e+00	4.348529e+05	
86	-4.30000e+00	4.421389e+05	
87	-4.35000e+00	4.493539e+05	
88	-4.40000e+00	4.564987e+05	
89	-4.45000e+00	4.635742e+05	
90	-4.50000e+00	4.705812e+05	
91	-4.55000e+00	4.775207e+05	
92	-4.60000e+00	4.843933e+05	
93	-4.65000e+00	4.912000e+05	
94	-4.70000e+00	4.979416e+05	
95	-4.75000e+00	5.046187e+05	
96	-4.80000e+00	5.112324e+05	
97	-4.85000e+00	5.177832e+05	
98	-4.90000e+00	5.242720e+05	
99	-4.95000e+00	5.306996e+05	
100	-5.00000e+00	5.370667e+05	
101	-5.05000e+00	5.433740e+05	
102	-5.10000e+00	5.496222e+05	
103	-5.15000e+00	5.558122e+05	
104	-5.20000e+00	5.619445e+05	
105	-5.25000e+00	5.680199e+05	
106	-5.30000e+00	5.740390e+05	
107	-5.35000e+00	5.800025e+05	
108	-5.40000e+00	5.859111e+05	
109	-5.45000e+00	5.917654e+05	
110	-5.50000e+00	5.975659e+05	
111	-5.55000e+00	6.033135e+05	
112	-5.60000e+00	6.090085e+05	

Index   v-sweep         rds             
--------------------------------------------------------------------------------
113	-5.65000e+00	6.146517e+05	
114	-5.70000e+00	6.202435e+05	
115	-5.75000e+00	6.257845e+05	
116	-5.80000e+00	6.312753e+05	
117	-5.85000e+00	6.367164e+05	
118	-5.90000e+00	6.421083e+05	
119	-5.95000e+00	6.474514e+05	
120	-6.00000e+00	6.527462e+05	
121	-6.05000e+00	6.579931e+05	
122	-6.10000e+00	6.631927e+05	
123	-6.15000e+00	6.683453e+05	
124	-6.20000e+00	6.734513e+05	
125	-6.25000e+00	6.785110e+05	
126	-6.30000e+00	6.835248e+05	
127	-6.35000e+00	6.884931e+05	
128	-6.40000e+00	6.934162e+05	
129	-6.45000e+00	6.982943e+05	
130	-6.50000e+00	7.031277e+05	
131	-6.55000e+00	7.079167e+05	
132	-6.60000e+00	7.126615e+05	
Reset re-loads circuit ***************************

Circuit: ***************************

Doing analysis at TEMP = 25.000000 and TNOM = 25.000000


No. of Data Rows : 133
                          ***************************
                          DC transfer characteristic  Mon Jan  9 13:57:54  2023
--------------------------------------------------------------------------------
Index   v-sweep         rds             
--------------------------------------------------------------------------------
0	0.000000e+00	1.937488e+04	
1	-5.00000e-02	1.970919e+04	
2	-1.00000e-01	2.005257e+04	
3	-1.50000e-01	2.040540e+04	
4	-2.00000e-01	2.076808e+04	
5	-2.50000e-01	2.114100e+04	
6	-3.00000e-01	2.152462e+04	
7	-3.50000e-01	2.191940e+04	
8	-4.00000e-01	2.232581e+04	
9	-4.50000e-01	2.274440e+04	
10	-5.00000e-01	2.317569e+04	
11	-5.50000e-01	2.362028e+04	
12	-6.00000e-01	2.407879e+04	
13	-6.50000e-01	2.455187e+04	
14	-7.00000e-01	2.504023e+04	
15	-7.50000e-01	2.554462e+04	
16	-8.00000e-01	2.606582e+04	
17	-8.50000e-01	2.660470e+04	
18	-9.00000e-01	2.716216e+04	
19	-9.50000e-01	2.773917e+04	
20	-1.00000e+00	2.833677e+04	
21	-1.05000e+00	2.895608e+04	
22	-1.10000e+00	2.959830e+04	
23	-1.15000e+00	3.026471e+04	
24	-1.20000e+00	3.095669e+04	
25	-1.25000e+00	3.167575e+04	
26	-1.30000e+00	3.242350e+04	
27	-1.35000e+00	3.320166e+04	
28	-1.40000e+00	3.401213e+04	
29	-1.45000e+00	3.485695e+04	
30	-1.50000e+00	3.573834e+04	
31	-1.55000e+00	3.665870e+04	
32	-1.60000e+00	3.762067e+04	
33	-1.65000e+00	3.862710e+04	
34	-1.70000e+00	3.968114e+04	
35	-1.75000e+00	4.078622e+04	
36	-1.80000e+00	4.194610e+04	
37	-1.85000e+00	4.316492e+04	
38	-1.90000e+00	4.444726e+04	
39	-1.95000e+00	4.579815e+04	
40	-2.00000e+00	4.722317e+04	
41	-2.05000e+00	4.872852e+04	
42	-2.10000e+00	5.032108e+04	
43	-2.15000e+00	5.200852e+04	
44	-2.20000e+00	5.379940e+04	
45	-2.25000e+00	5.570331e+04	
46	-2.30000e+00	5.773097e+04	
47	-2.35000e+00	5.989445e+04	
48	-2.40000e+00	6.220730e+04	
49	-2.45000e+00	6.468472e+04	
50	-2.50000e+00	6.734381e+04	
51	-2.55000e+00	7.020368e+04	
52	-2.60000e+00	7.328560e+04	
53	-2.65000e+00	7.661302e+04	
54	-2.70000e+00	8.021129e+04	

Index   v-sweep         rds             
--------------------------------------------------------------------------------
55	-2.75000e+00	8.410713e+04	
56	-2.80000e+00	8.832736e+04	
57	-2.85000e+00	9.289679e+04	
58	-2.90000e+00	9.783492e+04	
59	-2.95000e+00	1.031516e+05	
60	-3.00000e+00	1.088423e+05	
61	-3.05000e+00	1.148851e+05	
62	-3.10000e+00	1.212405e+05	
63	-3.15000e+00	1.278566e+05	
64	-3.20000e+00	1.346765e+05	
65	-3.25000e+00	1.416451e+05	
66	-3.30000e+00	1.487142e+05	
67	-3.35000e+00	1.558440e+05	
68	-3.40000e+00	1.630029e+05	
69	-3.45000e+00	1.701665e+05	
70	-3.50000e+00	1.773164e+05	
71	-3.55000e+00	1.844389e+05	
72	-3.60000e+00	1.915238e+05	
73	-3.65000e+00	1.985634e+05	
74	-3.70000e+00	2.055522e+05	
75	-3.75000e+00	2.124863e+05	
76	-3.80000e+00	2.193626e+05	
77	-3.85000e+00	2.261791e+05	
78	-3.90000e+00	2.329343e+05	
79	-3.95000e+00	2.396273e+05	
80	-4.00000e+00	2.462575e+05	
81	-4.05000e+00	2.528246e+05	
82	-4.10000e+00	2.593285e+05	
83	-4.15000e+00	2.657692e+05	
84	-4.20000e+00	2.721470e+05	
85	-4.25000e+00	2.784622e+05	
86	-4.30000e+00	2.847153e+05	
87	-4.35000e+00	2.909066e+05	
88	-4.40000e+00	2.970367e+05	
89	-4.45000e+00	3.031061e+05	
90	-4.50000e+00	3.091155e+05	
91	-4.55000e+00	3.150654e+05	
92	-4.60000e+00	3.209564e+05	
93	-4.65000e+00	3.267893e+05	
94	-4.70000e+00	3.325646e+05	
95	-4.75000e+00	3.382830e+05	
96	-4.80000e+00	3.439452e+05	
97	-4.85000e+00	3.495518e+05	
98	-4.90000e+00	3.551034e+05	
99	-4.95000e+00	3.606008e+05	
100	-5.00000e+00	3.660446e+05	
101	-5.05000e+00	3.714354e+05	
102	-5.10000e+00	3.767739e+05	
103	-5.15000e+00	3.820607e+05	
104	-5.20000e+00	3.872965e+05	
105	-5.25000e+00	3.924818e+05	
106	-5.30000e+00	3.976174e+05	
107	-5.35000e+00	4.027038e+05	
108	-5.40000e+00	4.077416e+05	
109	-5.45000e+00	4.127315e+05	
110	-5.50000e+00	4.176739e+05	
111	-5.55000e+00	4.225696e+05	
112	-5.60000e+00	4.274190e+05	

Index   v-sweep         rds             
--------------------------------------------------------------------------------
113	-5.65000e+00	4.322228e+05	
114	-5.70000e+00	4.369815e+05	
115	-5.75000e+00	4.416956e+05	
116	-5.80000e+00	4.463657e+05	
117	-5.85000e+00	4.509923e+05	
118	-5.90000e+00	4.555760e+05	
119	-5.95000e+00	4.601171e+05	
120	-6.00000e+00	4.646163e+05	
121	-6.05000e+00	4.690741e+05	
122	-6.10000e+00	4.734908e+05	
123	-6.15000e+00	4.778669e+05	
124	-6.20000e+00	4.822030e+05	
125	-6.25000e+00	4.864993e+05	
126	-6.30000e+00	4.907565e+05	
127	-6.35000e+00	4.949748e+05	
128	-6.40000e+00	4.991546e+05	
129	-6.45000e+00	5.032964e+05	
130	-6.50000e+00	5.074005e+05	
131	-6.55000e+00	5.114673e+05	
132	-6.60000e+00	5.154970e+05	
Reset re-loads circuit ***************************

Circuit: ***************************

Note: No ".plot", ".print", or ".fourier" lines; no simulations run
