
Note: Compatibility modes selected: hs

Warning: m=xx on .subckt line will override multiplier m hierarchy!


Circuit: ***************************

Doing analysis at TEMP = -40.000000 and TNOM = -40.000000


No. of Data Rows : 133
                          ***************************
                          DC transfer characteristic  Mon Jan  9 13:57:54  2023
--------------------------------------------------------------------------------
Index   v-sweep         rds             
--------------------------------------------------------------------------------
0	0.000000e+00	4.911428e+04	
1	-5.00000e-02	1.517085e+05	
2	-1.00000e-01	9.580515e+05	
3	-1.50000e-01	3.556132e+06	
4	-2.00000e-01	6.711134e+06	
5	-2.50000e-01	9.277796e+06	
6	-3.00000e-01	1.129011e+07	
7	-3.50000e-01	1.296551e+07	
8	-4.00000e-01	1.444232e+07	
9	-4.50000e-01	1.579482e+07	
10	-5.00000e-01	1.706309e+07	
11	-5.50000e-01	1.826978e+07	
12	-6.00000e-01	1.942841e+07	
13	-6.50000e-01	2.054746e+07	
14	-7.00000e-01	2.163257e+07	
15	-7.50000e-01	2.268764e+07	
16	-8.00000e-01	2.371551e+07	
17	-8.50000e-01	2.471830e+07	
18	-9.00000e-01	2.569769e+07	
19	-9.50000e-01	2.665503e+07	
20	-1.00000e+00	2.759144e+07	
21	-1.05000e+00	2.850790e+07	
22	-1.10000e+00	2.940522e+07	
23	-1.15000e+00	3.028415e+07	
24	-1.20000e+00	3.114537e+07	
25	-1.25000e+00	3.198947e+07	
26	-1.30000e+00	3.281702e+07	
27	-1.35000e+00	3.362854e+07	
28	-1.40000e+00	3.442451e+07	
29	-1.45000e+00	3.520539e+07	
30	-1.50000e+00	3.597162e+07	
31	-1.55000e+00	3.672360e+07	
32	-1.60000e+00	3.746172e+07	
33	-1.65000e+00	3.818637e+07	
34	-1.70000e+00	3.889788e+07	
35	-1.75000e+00	3.959661e+07	
36	-1.80000e+00	4.028288e+07	
37	-1.85000e+00	4.095701e+07	
38	-1.90000e+00	4.161930e+07	
39	-1.95000e+00	4.227004e+07	
40	-2.00000e+00	4.290952e+07	
41	-2.05000e+00	4.353801e+07	
42	-2.10000e+00	4.415578e+07	
43	-2.15000e+00	4.476306e+07	
44	-2.20000e+00	4.536012e+07	
45	-2.25000e+00	4.594719e+07	
46	-2.30000e+00	4.652451e+07	
47	-2.35000e+00	4.709228e+07	
48	-2.40000e+00	4.765074e+07	
49	-2.45000e+00	4.820009e+07	
50	-2.50000e+00	4.874053e+07	
51	-2.55000e+00	4.927227e+07	
52	-2.60000e+00	4.979549e+07	
53	-2.65000e+00	5.031038e+07	
54	-2.70000e+00	5.081712e+07	

Index   v-sweep         rds             
--------------------------------------------------------------------------------
55	-2.75000e+00	5.131588e+07	
56	-2.80000e+00	5.180684e+07	
57	-2.85000e+00	5.229015e+07	
58	-2.90000e+00	5.276599e+07	
59	-2.95000e+00	5.323450e+07	
60	-3.00000e+00	5.369583e+07	
61	-3.05000e+00	5.415014e+07	
62	-3.10000e+00	5.459755e+07	
63	-3.15000e+00	5.503822e+07	
64	-3.20000e+00	5.547228e+07	
65	-3.25000e+00	5.589985e+07	
66	-3.30000e+00	5.632106e+07	
67	-3.35000e+00	5.673603e+07	
68	-3.40000e+00	5.714488e+07	
69	-3.45000e+00	5.754772e+07	
70	-3.50000e+00	5.794467e+07	
71	-3.55000e+00	5.833584e+07	
72	-3.60000e+00	5.872132e+07	
73	-3.65000e+00	5.910121e+07	
74	-3.70000e+00	5.947563e+07	
75	-3.75000e+00	5.984465e+07	
76	-3.80000e+00	6.020837e+07	
77	-3.85000e+00	6.056689e+07	
78	-3.90000e+00	6.092027e+07	
79	-3.95000e+00	6.126861e+07	
80	-4.00000e+00	6.161199e+07	
81	-4.05000e+00	6.195047e+07	
82	-4.10000e+00	6.228414e+07	
83	-4.15000e+00	6.261307e+07	
84	-4.20000e+00	6.293732e+07	
85	-4.25000e+00	6.325696e+07	
86	-4.30000e+00	6.357206e+07	
87	-4.35000e+00	6.388267e+07	
88	-4.40000e+00	6.418886e+07	
89	-4.45000e+00	6.449068e+07	
90	-4.50000e+00	6.478818e+07	
91	-4.55000e+00	6.508142e+07	
92	-4.60000e+00	6.537045e+07	
93	-4.65000e+00	6.565531e+07	
94	-4.70000e+00	6.593606e+07	
95	-4.75000e+00	6.621273e+07	
96	-4.80000e+00	6.648538e+07	
97	-4.85000e+00	6.675404e+07	
98	-4.90000e+00	6.701875e+07	
99	-4.95000e+00	6.727955e+07	
100	-5.00000e+00	6.753648e+07	
101	-5.05000e+00	6.778957e+07	
102	-5.10000e+00	6.803885e+07	
103	-5.15000e+00	6.828436e+07	
104	-5.20000e+00	6.852614e+07	
105	-5.25000e+00	6.876420e+07	
106	-5.30000e+00	6.899858e+07	
107	-5.35000e+00	6.922931e+07	
108	-5.40000e+00	6.945642e+07	
109	-5.45000e+00	6.967992e+07	
110	-5.50000e+00	6.989985e+07	
111	-5.55000e+00	7.011623e+07	
112	-5.60000e+00	7.032908e+07	

Index   v-sweep         rds             
--------------------------------------------------------------------------------
113	-5.65000e+00	7.053843e+07	
114	-5.70000e+00	7.074430e+07	
115	-5.75000e+00	7.094671e+07	
116	-5.80000e+00	7.114568e+07	
117	-5.85000e+00	7.134124e+07	
118	-5.90000e+00	7.153339e+07	
119	-5.95000e+00	7.172217e+07	
120	-6.00000e+00	7.190759e+07	
121	-6.05000e+00	7.208968e+07	
122	-6.10000e+00	7.226844e+07	
123	-6.15000e+00	7.244390e+07	
124	-6.20000e+00	7.261607e+07	
125	-6.25000e+00	7.278498e+07	
126	-6.30000e+00	7.295064e+07	
127	-6.35000e+00	7.311306e+07	
128	-6.40000e+00	7.327228e+07	
129	-6.45000e+00	7.342830e+07	
130	-6.50000e+00	7.358113e+07	
131	-6.55000e+00	7.373081e+07	
132	-6.60000e+00	7.387734e+07	
Reset re-loads circuit ***************************

Circuit: ***************************

Doing analysis at TEMP = -40.000000 and TNOM = -40.000000


No. of Data Rows : 133
                          ***************************
                          DC transfer characteristic  Mon Jan  9 13:57:55  2023
--------------------------------------------------------------------------------
Index   v-sweep         rds             
--------------------------------------------------------------------------------
0	0.000000e+00	2.719417e+03	
1	-5.00000e-02	2.921754e+03	
2	-1.00000e-01	3.153747e+03	
3	-1.50000e-01	3.422404e+03	
4	-2.00000e-01	3.737118e+03	
5	-2.50000e-01	4.110761e+03	
6	-3.00000e-01	4.561436e+03	
7	-3.50000e-01	5.115380e+03	
8	-4.00000e-01	5.811952e+03	
9	-4.50000e-01	6.712589e+03	
10	-5.00000e-01	7.917530e+03	
11	-5.50000e-01	9.597846e+03	
12	-6.00000e-01	1.205566e+04	
13	-6.50000e-01	1.581956e+04	
14	-7.00000e-01	2.169783e+04	
15	-7.50000e-01	3.045082e+04	
16	-8.00000e-01	4.187538e+04	
17	-8.50000e-01	5.456950e+04	
18	-9.00000e-01	6.715726e+04	
19	-9.50000e-01	7.906037e+04	
20	-1.00000e+00	9.023625e+04	
21	-1.05000e+00	1.008076e+05	
22	-1.10000e+00	1.109039e+05	
23	-1.15000e+00	1.206240e+05	
24	-1.20000e+00	1.300378e+05	
25	-1.25000e+00	1.391932e+05	
26	-1.30000e+00	1.481241e+05	
27	-1.35000e+00	1.568545e+05	
28	-1.40000e+00	1.654021e+05	
29	-1.45000e+00	1.737805e+05	
30	-1.50000e+00	1.820002e+05	
31	-1.55000e+00	1.900697e+05	
32	-1.60000e+00	1.979960e+05	
33	-1.65000e+00	2.057850e+05	
34	-1.70000e+00	2.134419e+05	
35	-1.75000e+00	2.209712e+05	
36	-1.80000e+00	2.283771e+05	
37	-1.85000e+00	2.356632e+05	
38	-1.90000e+00	2.428330e+05	
39	-1.95000e+00	2.498896e+05	
40	-2.00000e+00	2.568360e+05	
41	-2.05000e+00	2.636750e+05	
42	-2.10000e+00	2.704092e+05	
43	-2.15000e+00	2.770411e+05	
44	-2.20000e+00	2.835731e+05	
45	-2.25000e+00	2.900076e+05	
46	-2.30000e+00	2.963468e+05	
47	-2.35000e+00	3.025927e+05	
48	-2.40000e+00	3.087474e+05	
49	-2.45000e+00	3.148129e+05	
50	-2.50000e+00	3.207912e+05	
51	-2.55000e+00	3.266839e+05	
52	-2.60000e+00	3.324930e+05	
53	-2.65000e+00	3.382202e+05	
54	-2.70000e+00	3.438671e+05	

Index   v-sweep         rds             
--------------------------------------------------------------------------------
55	-2.75000e+00	3.494354e+05	
56	-2.80000e+00	3.549267e+05	
57	-2.85000e+00	3.603425e+05	
58	-2.90000e+00	3.656844e+05	
59	-2.95000e+00	3.709537e+05	
60	-3.00000e+00	3.761519e+05	
61	-3.05000e+00	3.812804e+05	
62	-3.10000e+00	3.863405e+05	
63	-3.15000e+00	3.913335e+05	
64	-3.20000e+00	3.962608e+05	
65	-3.25000e+00	4.011235e+05	
66	-3.30000e+00	4.059228e+05	
67	-3.35000e+00	4.106600e+05	
68	-3.40000e+00	4.153362e+05	
69	-3.45000e+00	4.199524e+05	
70	-3.50000e+00	4.245099e+05	
71	-3.55000e+00	4.290096e+05	
72	-3.60000e+00	4.334525e+05	
73	-3.65000e+00	4.378398e+05	
74	-3.70000e+00	4.421723e+05	
75	-3.75000e+00	4.464509e+05	
76	-3.80000e+00	4.506767e+05	
77	-3.85000e+00	4.548505e+05	
78	-3.90000e+00	4.589732e+05	
79	-3.95000e+00	4.630456e+05	
80	-4.00000e+00	4.670686e+05	
81	-4.05000e+00	4.710429e+05	
82	-4.10000e+00	4.749693e+05	
83	-4.15000e+00	4.788485e+05	
84	-4.20000e+00	4.826813e+05	
85	-4.25000e+00	4.864684e+05	
86	-4.30000e+00	4.902104e+05	
87	-4.35000e+00	4.939080e+05	
88	-4.40000e+00	4.975618e+05	
89	-4.45000e+00	5.011724e+05	
90	-4.50000e+00	5.047404e+05	
91	-4.55000e+00	5.082663e+05	
92	-4.60000e+00	5.117507e+05	
93	-4.65000e+00	5.151941e+05	
94	-4.70000e+00	5.185970e+05	
95	-4.75000e+00	5.219598e+05	
96	-4.80000e+00	5.252830e+05	
97	-4.85000e+00	5.285670e+05	
98	-4.90000e+00	5.318122e+05	
99	-4.95000e+00	5.350191e+05	
100	-5.00000e+00	5.381879e+05	
101	-5.05000e+00	5.413191e+05	
102	-5.10000e+00	5.444129e+05	
103	-5.15000e+00	5.474697e+05	
104	-5.20000e+00	5.504898e+05	
105	-5.25000e+00	5.534734e+05	
106	-5.30000e+00	5.564208e+05	
107	-5.35000e+00	5.593323e+05	
108	-5.40000e+00	5.622081e+05	
109	-5.45000e+00	5.650484e+05	
110	-5.50000e+00	5.678534e+05	
111	-5.55000e+00	5.706233e+05	
112	-5.60000e+00	5.733582e+05	

Index   v-sweep         rds             
--------------------------------------------------------------------------------
113	-5.65000e+00	5.760585e+05	
114	-5.70000e+00	5.787241e+05	
115	-5.75000e+00	5.813552e+05	
116	-5.80000e+00	5.839521e+05	
117	-5.85000e+00	5.865147e+05	
118	-5.90000e+00	5.890432e+05	
119	-5.95000e+00	5.915377e+05	
120	-6.00000e+00	5.939983e+05	
121	-6.05000e+00	5.964251e+05	
122	-6.10000e+00	5.988182e+05	
123	-6.15000e+00	6.011777e+05	
124	-6.20000e+00	6.035035e+05	
125	-6.25000e+00	6.057958e+05	
126	-6.30000e+00	6.080547e+05	
127	-6.35000e+00	6.102802e+05	
128	-6.40000e+00	6.124723e+05	
129	-6.45000e+00	6.146310e+05	
130	-6.50000e+00	6.167566e+05	
131	-6.55000e+00	6.188489e+05	
132	-6.60000e+00	6.209080e+05	
Reset re-loads circuit ***************************

Circuit: ***************************

Doing analysis at TEMP = -40.000000 and TNOM = -40.000000


No. of Data Rows : 133
                          ***************************
                          DC transfer characteristic  Mon Jan  9 13:57:55  2023
--------------------------------------------------------------------------------
Index   v-sweep         rds             
--------------------------------------------------------------------------------
0	0.000000e+00	1.570374e+03	
1	-5.00000e-02	1.632910e+03	
2	-1.00000e-01	1.699934e+03	
3	-1.50000e-01	1.771945e+03	
4	-2.00000e-01	1.849520e+03	
5	-2.50000e-01	1.933327e+03	
6	-3.00000e-01	2.024147e+03	
7	-3.50000e-01	2.122895e+03	
8	-4.00000e-01	2.230653e+03	
9	-4.50000e-01	2.348709e+03	
10	-5.00000e-01	2.478607e+03	
11	-5.50000e-01	2.622216e+03	
12	-6.00000e-01	2.781816e+03	
13	-6.50000e-01	2.960221e+03	
14	-7.00000e-01	3.160939e+03	
15	-7.50000e-01	3.388398e+03	
16	-8.00000e-01	3.648266e+03	
17	-8.50000e-01	3.947900e+03	
18	-9.00000e-01	4.297005e+03	
19	-9.50000e-01	4.708604e+03	
20	-1.00000e+00	5.200477e+03	
21	-1.05000e+00	5.797306e+03	
22	-1.10000e+00	6.533795e+03	
23	-1.15000e+00	7.458875e+03	
24	-1.20000e+00	8.640182e+03	
25	-1.25000e+00	1.016503e+04	
26	-1.30000e+00	1.212812e+04	
27	-1.35000e+00	1.459350e+04	
28	-1.40000e+00	1.754108e+04	
29	-1.45000e+00	2.085167e+04	
30	-1.50000e+00	2.436346e+04	
31	-1.55000e+00	2.794302e+04	
32	-1.60000e+00	3.151039e+04	
33	-1.65000e+00	3.502729e+04	
34	-1.70000e+00	3.847871e+04	
35	-1.75000e+00	4.186051e+04	
36	-1.80000e+00	4.517303e+04	
37	-1.85000e+00	4.841827e+04	
38	-1.90000e+00	5.159869e+04	
39	-1.95000e+00	5.471673e+04	
40	-2.00000e+00	5.777471e+04	
41	-2.05000e+00	6.077474e+04	
42	-2.10000e+00	6.371877e+04	
43	-2.15000e+00	6.660859e+04	
44	-2.20000e+00	6.944584e+04	
45	-2.25000e+00	7.223209e+04	
46	-2.30000e+00	7.496877e+04	
47	-2.35000e+00	7.765726e+04	
48	-2.40000e+00	8.029886e+04	
49	-2.45000e+00	8.289480e+04	
50	-2.50000e+00	8.544626e+04	
51	-2.55000e+00	8.795439e+04	
52	-2.60000e+00	9.042025e+04	
53	-2.65000e+00	9.284491e+04	
54	-2.70000e+00	9.522937e+04	

Index   v-sweep         rds             
--------------------------------------------------------------------------------
55	-2.75000e+00	9.757460e+04	
56	-2.80000e+00	9.988154e+04	
57	-2.85000e+00	1.021511e+05	
58	-2.90000e+00	1.043842e+05	
59	-2.95000e+00	1.065816e+05	
60	-3.00000e+00	1.087441e+05	
61	-3.05000e+00	1.108726e+05	
62	-3.10000e+00	1.129679e+05	
63	-3.15000e+00	1.150307e+05	
64	-3.20000e+00	1.170616e+05	
65	-3.25000e+00	1.190615e+05	
66	-3.30000e+00	1.210310e+05	
67	-3.35000e+00	1.229707e+05	
68	-3.40000e+00	1.248814e+05	
69	-3.45000e+00	1.267636e+05	
70	-3.50000e+00	1.286180e+05	
71	-3.55000e+00	1.304451e+05	
72	-3.60000e+00	1.322455e+05	
73	-3.65000e+00	1.340198e+05	
74	-3.70000e+00	1.357686e+05	
75	-3.75000e+00	1.374922e+05	
76	-3.80000e+00	1.391914e+05	
77	-3.85000e+00	1.408665e+05	
78	-3.90000e+00	1.425181e+05	
79	-3.95000e+00	1.441466e+05	
80	-4.00000e+00	1.457525e+05	
81	-4.05000e+00	1.473362e+05	
82	-4.10000e+00	1.488982e+05	
83	-4.15000e+00	1.504389e+05	
84	-4.20000e+00	1.519587e+05	
85	-4.25000e+00	1.534581e+05	
86	-4.30000e+00	1.549373e+05	
87	-4.35000e+00	1.563967e+05	
88	-4.40000e+00	1.578369e+05	
89	-4.45000e+00	1.592580e+05	
90	-4.50000e+00	1.606604e+05	
91	-4.55000e+00	1.620446e+05	
92	-4.60000e+00	1.634107e+05	
93	-4.65000e+00	1.647591e+05	
94	-4.70000e+00	1.660901e+05	
95	-4.75000e+00	1.674040e+05	
96	-4.80000e+00	1.687012e+05	
97	-4.85000e+00	1.699817e+05	
98	-4.90000e+00	1.712460e+05	
99	-4.95000e+00	1.724943e+05	
100	-5.00000e+00	1.737268e+05	
101	-5.05000e+00	1.749437e+05	
102	-5.10000e+00	1.761453e+05	
103	-5.15000e+00	1.773318e+05	
104	-5.20000e+00	1.785034e+05	
105	-5.25000e+00	1.796603e+05	
106	-5.30000e+00	1.808027e+05	
107	-5.35000e+00	1.819308e+05	
108	-5.40000e+00	1.830447e+05	
109	-5.45000e+00	1.841447e+05	
110	-5.50000e+00	1.852308e+05	
111	-5.55000e+00	1.863032e+05	
112	-5.60000e+00	1.873621e+05	

Index   v-sweep         rds             
--------------------------------------------------------------------------------
113	-5.65000e+00	1.884076e+05	
114	-5.70000e+00	1.894398e+05	
115	-5.75000e+00	1.904589e+05	
116	-5.80000e+00	1.914649e+05	
117	-5.85000e+00	1.924580e+05	
118	-5.90000e+00	1.934383e+05	
119	-5.95000e+00	1.944059e+05	
120	-6.00000e+00	1.953608e+05	
121	-6.05000e+00	1.963031e+05	
122	-6.10000e+00	1.972329e+05	
123	-6.15000e+00	1.981504e+05	
124	-6.20000e+00	1.990555e+05	
125	-6.25000e+00	1.999483e+05	
126	-6.30000e+00	2.008289e+05	
127	-6.35000e+00	2.016974e+05	
128	-6.40000e+00	2.025537e+05	
129	-6.45000e+00	2.033979e+05	
130	-6.50000e+00	2.042302e+05	
131	-6.55000e+00	2.050504e+05	
132	-6.60000e+00	2.058587e+05	
Reset re-loads circuit ***************************

Circuit: ***************************

Doing analysis at TEMP = -40.000000 and TNOM = -40.000000


No. of Data Rows : 133
                          ***************************
                          DC transfer characteristic  Mon Jan  9 13:57:55  2023
--------------------------------------------------------------------------------
Index   v-sweep         rds             
--------------------------------------------------------------------------------
0	0.000000e+00	1.185635e+03	
1	-5.00000e-02	1.218776e+03	
2	-1.00000e-01	1.253500e+03	
3	-1.50000e-01	1.289925e+03	
4	-2.00000e-01	1.328178e+03	
5	-2.50000e-01	1.368399e+03	
6	-3.00000e-01	1.410743e+03	
7	-3.50000e-01	1.455383e+03	
8	-4.00000e-01	1.502510e+03	
9	-4.50000e-01	1.552336e+03	
10	-5.00000e-01	1.605100e+03	
11	-5.50000e-01	1.661068e+03	
12	-6.00000e-01	1.720540e+03	
13	-6.50000e-01	1.783855e+03	
14	-7.00000e-01	1.851396e+03	
15	-7.50000e-01	1.923601e+03	
16	-8.00000e-01	2.000966e+03	
17	-8.50000e-01	2.084064e+03	
18	-9.00000e-01	2.173554e+03	
19	-9.50000e-01	2.270200e+03	
20	-1.00000e+00	2.374892e+03	
21	-1.05000e+00	2.488675e+03	
22	-1.10000e+00	2.612779e+03	
23	-1.15000e+00	2.748666e+03	
24	-1.20000e+00	2.898086e+03	
25	-1.25000e+00	3.063150e+03	
26	-1.30000e+00	3.246423e+03	
27	-1.35000e+00	3.451057e+03	
28	-1.40000e+00	3.680953e+03	
29	-1.45000e+00	3.940998e+03	
30	-1.50000e+00	4.237366e+03	
31	-1.55000e+00	4.577939e+03	
32	-1.60000e+00	4.972855e+03	
33	-1.65000e+00	5.435215e+03	
34	-1.70000e+00	5.981885e+03	
35	-1.75000e+00	6.634193e+03	
36	-1.80000e+00	7.417890e+03	
37	-1.85000e+00	8.361123e+03	
38	-1.90000e+00	9.488753e+03	
39	-1.95000e+00	1.081289e+04	
40	-2.00000e+00	1.232407e+04	
41	-2.05000e+00	1.399080e+04	
42	-2.10000e+00	1.576940e+04	
43	-2.15000e+00	1.761686e+04	
44	-2.20000e+00	1.949862e+04	
45	-2.25000e+00	2.139020e+04	
46	-2.30000e+00	2.327546e+04	
47	-2.35000e+00	2.514420e+04	
48	-2.40000e+00	2.699014e+04	
49	-2.45000e+00	2.880947e+04	
50	-2.50000e+00	3.059999e+04	
51	-2.55000e+00	3.236047e+04	
52	-2.60000e+00	3.409037e+04	
53	-2.65000e+00	3.578955e+04	
54	-2.70000e+00	3.745813e+04	

Index   v-sweep         rds             
--------------------------------------------------------------------------------
55	-2.75000e+00	3.909643e+04	
56	-2.80000e+00	4.070489e+04	
57	-2.85000e+00	4.228401e+04	
58	-2.90000e+00	4.383436e+04	
59	-2.95000e+00	4.535654e+04	
60	-3.00000e+00	4.685114e+04	
61	-3.05000e+00	4.831879e+04	
62	-3.10000e+00	4.976010e+04	
63	-3.15000e+00	5.117569e+04	
64	-3.20000e+00	5.256615e+04	
65	-3.25000e+00	5.393210e+04	
66	-3.30000e+00	5.527410e+04	
67	-3.35000e+00	5.659273e+04	
68	-3.40000e+00	5.788856e+04	
69	-3.45000e+00	5.916212e+04	
70	-3.50000e+00	6.041395e+04	
71	-3.55000e+00	6.164456e+04	
72	-3.60000e+00	6.285447e+04	
73	-3.65000e+00	6.404415e+04	
74	-3.70000e+00	6.521408e+04	
75	-3.75000e+00	6.636474e+04	
76	-3.80000e+00	6.749656e+04	
77	-3.85000e+00	6.860998e+04	
78	-3.90000e+00	6.970543e+04	
79	-3.95000e+00	7.078332e+04	
80	-4.00000e+00	7.184406e+04	
81	-4.05000e+00	7.288803e+04	
82	-4.10000e+00	7.391560e+04	
83	-4.15000e+00	7.492716e+04	
84	-4.20000e+00	7.592305e+04	
85	-4.25000e+00	7.690362e+04	
86	-4.30000e+00	7.786921e+04	
87	-4.35000e+00	7.882014e+04	
88	-4.40000e+00	7.975674e+04	
89	-4.45000e+00	8.067931e+04	
90	-4.50000e+00	8.158816e+04	
91	-4.55000e+00	8.248357e+04	
92	-4.60000e+00	8.336583e+04	
93	-4.65000e+00	8.423522e+04	
94	-4.70000e+00	8.509200e+04	
95	-4.75000e+00	8.593642e+04	
96	-4.80000e+00	8.676875e+04	
97	-4.85000e+00	8.758923e+04	
98	-4.90000e+00	8.839809e+04	
99	-4.95000e+00	8.919556e+04	
100	-5.00000e+00	8.998187e+04	
101	-5.05000e+00	9.075723e+04	
102	-5.10000e+00	9.152185e+04	
103	-5.15000e+00	9.227594e+04	
104	-5.20000e+00	9.301968e+04	
105	-5.25000e+00	9.375327e+04	
106	-5.30000e+00	9.447690e+04	
107	-5.35000e+00	9.519073e+04	
108	-5.40000e+00	9.589494e+04	
109	-5.45000e+00	9.658969e+04	
110	-5.50000e+00	9.727514e+04	
111	-5.55000e+00	9.795145e+04	
112	-5.60000e+00	9.861875e+04	

Index   v-sweep         rds             
--------------------------------------------------------------------------------
113	-5.65000e+00	9.927720e+04	
114	-5.70000e+00	9.992691e+04	
115	-5.75000e+00	1.005680e+05	
116	-5.80000e+00	1.012007e+05	
117	-5.85000e+00	1.018250e+05	
118	-5.90000e+00	1.024410e+05	
119	-5.95000e+00	1.030489e+05	
120	-6.00000e+00	1.036488e+05	
121	-6.05000e+00	1.042408e+05	
122	-6.10000e+00	1.048249e+05	
123	-6.15000e+00	1.054013e+05	
124	-6.20000e+00	1.059700e+05	
125	-6.25000e+00	1.065311e+05	
126	-6.30000e+00	1.070847e+05	
127	-6.35000e+00	1.076309e+05	
128	-6.40000e+00	1.081697e+05	
129	-6.45000e+00	1.087012e+05	
130	-6.50000e+00	1.092254e+05	
131	-6.55000e+00	1.097424e+05	
132	-6.60000e+00	1.102523e+05	
Reset re-loads circuit ***************************

Circuit: ***************************

Doing analysis at TEMP = -40.000000 and TNOM = -40.000000


No. of Data Rows : 133
                          ***************************
                          DC transfer characteristic  Mon Jan  9 13:57:55  2023
--------------------------------------------------------------------------------
Index   v-sweep         rds             
--------------------------------------------------------------------------------
0	0.000000e+00	9.952012e+02	
1	-5.00000e-02	1.016909e+03	
2	-1.00000e-01	1.039396e+03	
3	-1.50000e-01	1.062706e+03	
4	-2.00000e-01	1.086885e+03	
5	-2.50000e-01	1.111981e+03	
6	-3.00000e-01	1.138047e+03	
7	-3.50000e-01	1.165142e+03	
8	-4.00000e-01	1.193325e+03	
9	-4.50000e-01	1.222664e+03	
10	-5.00000e-01	1.253232e+03	
11	-5.50000e-01	1.285106e+03	
12	-6.00000e-01	1.318371e+03	
13	-6.50000e-01	1.353121e+03	
14	-7.00000e-01	1.389457e+03	
15	-7.50000e-01	1.427489e+03	
16	-8.00000e-01	1.467339e+03	
17	-8.50000e-01	1.509139e+03	
18	-9.00000e-01	1.553036e+03	
19	-9.50000e-01	1.599190e+03	
20	-1.00000e+00	1.647780e+03	
21	-1.05000e+00	1.699004e+03	
22	-1.10000e+00	1.753080e+03	
23	-1.15000e+00	1.810252e+03	
24	-1.20000e+00	1.870794e+03	
25	-1.25000e+00	1.935012e+03	
26	-1.30000e+00	2.003248e+03	
27	-1.35000e+00	2.075892e+03	
28	-1.40000e+00	2.153383e+03	
29	-1.45000e+00	2.236221e+03	
30	-1.50000e+00	2.324975e+03	
31	-1.55000e+00	2.420302e+03	
32	-1.60000e+00	2.522954e+03	
33	-1.65000e+00	2.633806e+03	
34	-1.70000e+00	2.753875e+03	
35	-1.75000e+00	2.884352e+03	
36	-1.80000e+00	3.026641e+03	
37	-1.85000e+00	3.182406e+03	
38	-1.90000e+00	3.353636e+03	
39	-1.95000e+00	3.542722e+03	
40	-2.00000e+00	3.752561e+03	
41	-2.05000e+00	3.986694e+03	
42	-2.10000e+00	4.249471e+03	
43	-2.15000e+00	4.546278e+03	
44	-2.20000e+00	4.883800e+03	
45	-2.25000e+00	5.270319e+03	
46	-2.30000e+00	5.715969e+03	
47	-2.35000e+00	6.232764e+03	
48	-2.40000e+00	6.834035e+03	
49	-2.45000e+00	7.532752e+03	
50	-2.50000e+00	8.338422e+03	
51	-2.55000e+00	9.253320e+03	
52	-2.60000e+00	1.027011e+04	
53	-2.65000e+00	1.137281e+04	
54	-2.70000e+00	1.254075e+04	

Index   v-sweep         rds             
--------------------------------------------------------------------------------
55	-2.75000e+00	1.375303e+04	
56	-2.80000e+00	1.499158e+04	
57	-2.85000e+00	1.624218e+04	
58	-2.90000e+00	1.749434e+04	
59	-2.95000e+00	1.874060e+04	
60	-3.00000e+00	1.997578e+04	
61	-3.05000e+00	2.119638e+04	
62	-3.10000e+00	2.240004e+04	
63	-3.15000e+00	2.358526e+04	
64	-3.20000e+00	2.475106e+04	
65	-3.25000e+00	2.589693e+04	
66	-3.30000e+00	2.702259e+04	
67	-3.35000e+00	2.812800e+04	
68	-3.40000e+00	2.921325e+04	
69	-3.45000e+00	3.027854e+04	
70	-3.50000e+00	3.132411e+04	
71	-3.55000e+00	3.235031e+04	
72	-3.60000e+00	3.335746e+04	
73	-3.65000e+00	3.434596e+04	
74	-3.70000e+00	3.531618e+04	
75	-3.75000e+00	3.626852e+04	
76	-3.80000e+00	3.720340e+04	
77	-3.85000e+00	3.812119e+04	
78	-3.90000e+00	3.902232e+04	
79	-3.95000e+00	3.990716e+04	
80	-4.00000e+00	4.077611e+04	
81	-4.05000e+00	4.162954e+04	
82	-4.10000e+00	4.246784e+04	
83	-4.15000e+00	4.329136e+04	
84	-4.20000e+00	4.410047e+04	
85	-4.25000e+00	4.489550e+04	
86	-4.30000e+00	4.567681e+04	
87	-4.35000e+00	4.644471e+04	
88	-4.40000e+00	4.719953e+04	
89	-4.45000e+00	4.794158e+04	
90	-4.50000e+00	4.867117e+04	
91	-4.55000e+00	4.938859e+04	
92	-4.60000e+00	5.009413e+04	
93	-4.65000e+00	5.078806e+04	
94	-4.70000e+00	5.147066e+04	
95	-4.75000e+00	5.214219e+04	
96	-4.80000e+00	5.280290e+04	
97	-4.85000e+00	5.345304e+04	
98	-4.90000e+00	5.409286e+04	
99	-4.95000e+00	5.472258e+04	
100	-5.00000e+00	5.534244e+04	
101	-5.05000e+00	5.595266e+04	
102	-5.10000e+00	5.655344e+04	
103	-5.15000e+00	5.714500e+04	
104	-5.20000e+00	5.772753e+04	
105	-5.25000e+00	5.830124e+04	
106	-5.30000e+00	5.886631e+04	
107	-5.35000e+00	5.942293e+04	
108	-5.40000e+00	5.997127e+04	
109	-5.45000e+00	6.051151e+04	
110	-5.50000e+00	6.104381e+04	
111	-5.55000e+00	6.156834e+04	
112	-5.60000e+00	6.208526e+04	

Index   v-sweep         rds             
--------------------------------------------------------------------------------
113	-5.65000e+00	6.259471e+04	
114	-5.70000e+00	6.309685e+04	
115	-5.75000e+00	6.359181e+04	
116	-5.80000e+00	6.407973e+04	
117	-5.85000e+00	6.456075e+04	
118	-5.90000e+00	6.503500e+04	
119	-5.95000e+00	6.550259e+04	
120	-6.00000e+00	6.596364e+04	
121	-6.05000e+00	6.641827e+04	
122	-6.10000e+00	6.686660e+04	
123	-6.15000e+00	6.730872e+04	
124	-6.20000e+00	6.774473e+04	
125	-6.25000e+00	6.817474e+04	
126	-6.30000e+00	6.859884e+04	
127	-6.35000e+00	6.901711e+04	
128	-6.40000e+00	6.942965e+04	
129	-6.45000e+00	6.983653e+04	
130	-6.50000e+00	7.023783e+04	
131	-6.55000e+00	7.063363e+04	
132	-6.60000e+00	7.102399e+04	
Reset re-loads circuit ***************************

Circuit: ***************************

Doing analysis at TEMP = -40.000000 and TNOM = -40.000000


No. of Data Rows : 133
                          ***************************
                          DC transfer characteristic  Mon Jan  9 13:57:55  2023
--------------------------------------------------------------------------------
Index   v-sweep         rds             
--------------------------------------------------------------------------------
0	0.000000e+00	8.830840e+02	
1	-5.00000e-02	8.989799e+02	
2	-1.00000e-01	9.153338e+02	
3	-1.50000e-01	9.321657e+02	
4	-2.00000e-01	9.494967e+02	
5	-2.50000e-01	9.673492e+02	
6	-3.00000e-01	9.857470e+02	
7	-3.50000e-01	1.004715e+03	
8	-4.00000e-01	1.024280e+03	
9	-4.50000e-01	1.044471e+03	
10	-5.00000e-01	1.065318e+03	
11	-5.50000e-01	1.086853e+03	
12	-6.00000e-01	1.109110e+03	
13	-6.50000e-01	1.132127e+03	
14	-7.00000e-01	1.155943e+03	
15	-7.50000e-01	1.180599e+03	
16	-8.00000e-01	1.206142e+03	
17	-8.50000e-01	1.232618e+03	
18	-9.00000e-01	1.260081e+03	
19	-9.50000e-01	1.288585e+03	
20	-1.00000e+00	1.318192e+03	
21	-1.05000e+00	1.348966e+03	
22	-1.10000e+00	1.380977e+03	
23	-1.15000e+00	1.414302e+03	
24	-1.20000e+00	1.449021e+03	
25	-1.25000e+00	1.485224e+03	
26	-1.30000e+00	1.523009e+03	
27	-1.35000e+00	1.562480e+03	
28	-1.40000e+00	1.603752e+03	
29	-1.45000e+00	1.646952e+03	
30	-1.50000e+00	1.692217e+03	
31	-1.55000e+00	1.739698e+03	
32	-1.60000e+00	1.789561e+03	
33	-1.65000e+00	1.841990e+03	
34	-1.70000e+00	1.897187e+03	
35	-1.75000e+00	1.955376e+03	
36	-1.80000e+00	2.016808e+03	
37	-1.85000e+00	2.081758e+03	
38	-1.90000e+00	2.150538e+03	
39	-1.95000e+00	2.223494e+03	
40	-2.00000e+00	2.301019e+03	
41	-2.05000e+00	2.383554e+03	
42	-2.10000e+00	2.471597e+03	
43	-2.15000e+00	2.565718e+03	
44	-2.20000e+00	2.666566e+03	
45	-2.25000e+00	2.774886e+03	
46	-2.30000e+00	2.891536e+03	
47	-2.35000e+00	3.017512e+03	
48	-2.40000e+00	3.153975e+03	
49	-2.45000e+00	3.302287e+03	
50	-2.50000e+00	3.464054e+03	
51	-2.55000e+00	3.641188e+03	
52	-2.60000e+00	3.835982e+03	
53	-2.65000e+00	4.051201e+03	
54	-2.70000e+00	4.290211e+03	

Index   v-sweep         rds             
--------------------------------------------------------------------------------
55	-2.75000e+00	4.557127e+03	
56	-2.80000e+00	4.856988e+03	
57	-2.85000e+00	5.195911e+03	
58	-2.90000e+00	5.581145e+03	
59	-2.95000e+00	6.020826e+03	
60	-3.00000e+00	6.523184e+03	
61	-3.05000e+00	7.094993e+03	
62	-3.10000e+00	7.739535e+03	
63	-3.15000e+00	8.454926e+03	
64	-3.20000e+00	9.233869e+03	
65	-3.25000e+00	1.006509e+04	
66	-3.30000e+00	1.093566e+04	
67	-3.35000e+00	1.183309e+04	
68	-3.40000e+00	1.274658e+04	
69	-3.45000e+00	1.366744e+04	
70	-3.50000e+00	1.458903e+04	
71	-3.55000e+00	1.550642e+04	
72	-3.60000e+00	1.641604e+04	
73	-3.65000e+00	1.731536e+04	
74	-3.70000e+00	1.820259e+04	
75	-3.75000e+00	1.907654e+04	
76	-3.80000e+00	1.993640e+04	
77	-3.85000e+00	2.078168e+04	
78	-3.90000e+00	2.161211e+04	
79	-3.95000e+00	2.242758e+04	
80	-4.00000e+00	2.322809e+04	
81	-4.05000e+00	2.401375e+04	
82	-4.10000e+00	2.478470e+04	
83	-4.15000e+00	2.554116e+04	
84	-4.20000e+00	2.628336e+04	
85	-4.25000e+00	2.701157e+04	
86	-4.30000e+00	2.772606e+04	
87	-4.35000e+00	2.842712e+04	
88	-4.40000e+00	2.911504e+04	
89	-4.45000e+00	2.979012e+04	
90	-4.50000e+00	3.045266e+04	
91	-4.55000e+00	3.110294e+04	
92	-4.60000e+00	3.174127e+04	
93	-4.65000e+00	3.236792e+04	
94	-4.70000e+00	3.298318e+04	
95	-4.75000e+00	3.358733e+04	
96	-4.80000e+00	3.418064e+04	
97	-4.85000e+00	3.476337e+04	
98	-4.90000e+00	3.533578e+04	
99	-4.95000e+00	3.589813e+04	
100	-5.00000e+00	3.645065e+04	
101	-5.05000e+00	3.699358e+04	
102	-5.10000e+00	3.752717e+04	
103	-5.15000e+00	3.805162e+04	
104	-5.20000e+00	3.856717e+04	
105	-5.25000e+00	3.907403e+04	
106	-5.30000e+00	3.957240e+04	
107	-5.35000e+00	4.006248e+04	
108	-5.40000e+00	4.054447e+04	
109	-5.45000e+00	4.101855e+04	
110	-5.50000e+00	4.148492e+04	
111	-5.55000e+00	4.194375e+04	
112	-5.60000e+00	4.239521e+04	

Index   v-sweep         rds             
--------------------------------------------------------------------------------
113	-5.65000e+00	4.283948e+04	
114	-5.70000e+00	4.327670e+04	
115	-5.75000e+00	4.370705e+04	
116	-5.80000e+00	4.413068e+04	
117	-5.85000e+00	4.454773e+04	
118	-5.90000e+00	4.495835e+04	
119	-5.95000e+00	4.536268e+04	
120	-6.00000e+00	4.576086e+04	
121	-6.05000e+00	4.615300e+04	
122	-6.10000e+00	4.653925e+04	
123	-6.15000e+00	4.691973e+04	
124	-6.20000e+00	4.729454e+04	
125	-6.25000e+00	4.766382e+04	
126	-6.30000e+00	4.802766e+04	
127	-6.35000e+00	4.838618e+04	
128	-6.40000e+00	4.873948e+04	
129	-6.45000e+00	4.908766e+04	
130	-6.50000e+00	4.943081e+04	
131	-6.55000e+00	4.976903e+04	
132	-6.60000e+00	5.010240e+04	
Reset re-loads circuit ***************************

Circuit: ***************************

Note: No ".plot", ".print", or ".fourier" lines; no simulations run
