
Note: Compatibility modes selected: hs

Warning: m=xx on .subckt line will override multiplier m hierarchy!


Circuit: ***************************

Doing analysis at TEMP = 125.000000 and TNOM = 125.000000


No. of Data Rows : 133
                          ***************************
                          DC transfer characteristic  Mon Jan  9 13:57:55  2023
--------------------------------------------------------------------------------
Index   v-sweep         rds             
--------------------------------------------------------------------------------
0	0.000000e+00	1.207499e+05	
1	-5.00000e-02	1.602792e+05	
2	-1.00000e-01	2.360942e+05	
3	-1.50000e-01	4.217363e+05	
4	-2.00000e-01	1.038991e+06	
5	-2.50000e-01	3.239201e+06	
6	-3.00000e-01	8.925309e+06	
7	-3.50000e-01	1.862120e+07	
8	-4.00000e-01	3.048955e+07	
9	-4.50000e-01	4.216998e+07	
10	-5.00000e-01	5.237659e+07	
11	-5.50000e-01	6.086552e+07	
12	-6.00000e-01	6.786319e+07	
13	-6.50000e-01	7.369520e+07	
14	-7.00000e-01	7.864741e+07	
15	-7.50000e-01	8.293782e+07	
16	-8.00000e-01	8.672458e+07	
17	-8.50000e-01	9.012092e+07	
18	-9.00000e-01	9.320817e+07	
19	-9.50000e-01	9.604543e+07	
20	-1.00000e+00	9.867633e+07	
21	-1.05000e+00	1.011337e+08	
22	-1.10000e+00	1.034425e+08	
23	-1.15000e+00	1.056224e+08	
24	-1.20000e+00	1.076889e+08	
25	-1.25000e+00	1.096544e+08	
26	-1.30000e+00	1.115291e+08	
27	-1.35000e+00	1.133217e+08	
28	-1.40000e+00	1.150391e+08	
29	-1.45000e+00	1.166875e+08	
30	-1.50000e+00	1.182722e+08	
31	-1.55000e+00	1.197977e+08	
32	-1.60000e+00	1.212681e+08	
33	-1.65000e+00	1.226868e+08	
34	-1.70000e+00	1.240572e+08	
35	-1.75000e+00	1.253819e+08	
36	-1.80000e+00	1.266637e+08	
37	-1.85000e+00	1.279048e+08	
38	-1.90000e+00	1.291074e+08	
39	-1.95000e+00	1.302734e+08	
40	-2.00000e+00	1.314047e+08	
41	-2.05000e+00	1.325030e+08	
42	-2.10000e+00	1.335697e+08	
43	-2.15000e+00	1.346063e+08	
44	-2.20000e+00	1.356142e+08	
45	-2.25000e+00	1.365946e+08	
46	-2.30000e+00	1.375486e+08	
47	-2.35000e+00	1.384775e+08	
48	-2.40000e+00	1.393821e+08	
49	-2.45000e+00	1.402635e+08	
50	-2.50000e+00	1.411226e+08	
51	-2.55000e+00	1.419602e+08	
52	-2.60000e+00	1.427773e+08	
53	-2.65000e+00	1.435744e+08	
54	-2.70000e+00	1.443524e+08	

Index   v-sweep         rds             
--------------------------------------------------------------------------------
55	-2.75000e+00	1.451121e+08	
56	-2.80000e+00	1.458539e+08	
57	-2.85000e+00	1.465786e+08	
58	-2.90000e+00	1.472867e+08	
59	-2.95000e+00	1.479788e+08	
60	-3.00000e+00	1.486555e+08	
61	-3.05000e+00	1.493173e+08	
62	-3.10000e+00	1.499646e+08	
63	-3.15000e+00	1.505980e+08	
64	-3.20000e+00	1.512178e+08	
65	-3.25000e+00	1.518246e+08	
66	-3.30000e+00	1.524186e+08	
67	-3.35000e+00	1.530003e+08	
68	-3.40000e+00	1.535701e+08	
69	-3.45000e+00	1.541284e+08	
70	-3.50000e+00	1.546754e+08	
71	-3.55000e+00	1.552115e+08	
72	-3.60000e+00	1.557370e+08	
73	-3.65000e+00	1.562522e+08	
74	-3.70000e+00	1.567574e+08	
75	-3.75000e+00	1.572529e+08	
76	-3.80000e+00	1.577390e+08	
77	-3.85000e+00	1.582158e+08	
78	-3.90000e+00	1.586837e+08	
79	-3.95000e+00	1.591428e+08	
80	-4.00000e+00	1.595935e+08	
81	-4.05000e+00	1.600358e+08	
82	-4.10000e+00	1.604700e+08	
83	-4.15000e+00	1.608964e+08	
84	-4.20000e+00	1.613151e+08	
85	-4.25000e+00	1.617262e+08	
86	-4.30000e+00	1.621301e+08	
87	-4.35000e+00	1.625267e+08	
88	-4.40000e+00	1.629164e+08	
89	-4.45000e+00	1.632992e+08	
90	-4.50000e+00	1.636752e+08	
91	-4.55000e+00	1.640448e+08	
92	-4.60000e+00	1.644079e+08	
93	-4.65000e+00	1.647647e+08	
94	-4.70000e+00	1.651154e+08	
95	-4.75000e+00	1.654600e+08	
96	-4.80000e+00	1.657987e+08	
97	-4.85000e+00	1.661317e+08	
98	-4.90000e+00	1.664589e+08	
99	-4.95000e+00	1.667805e+08	
100	-5.00000e+00	1.670967e+08	
101	-5.05000e+00	1.674074e+08	
102	-5.10000e+00	1.677129e+08	
103	-5.15000e+00	1.680132e+08	
104	-5.20000e+00	1.683083e+08	
105	-5.25000e+00	1.685985e+08	
106	-5.30000e+00	1.688836e+08	
107	-5.35000e+00	1.691640e+08	
108	-5.40000e+00	1.694395e+08	
109	-5.45000e+00	1.697103e+08	
110	-5.50000e+00	1.699765e+08	
111	-5.55000e+00	1.702380e+08	
112	-5.60000e+00	1.704951e+08	

Index   v-sweep         rds             
--------------------------------------------------------------------------------
113	-5.65000e+00	1.707478e+08	
114	-5.70000e+00	1.709960e+08	
115	-5.75000e+00	1.712399e+08	
116	-5.80000e+00	1.714796e+08	
117	-5.85000e+00	1.717151e+08	
118	-5.90000e+00	1.719464e+08	
119	-5.95000e+00	1.721736e+08	
120	-6.00000e+00	1.723968e+08	
121	-6.05000e+00	1.726160e+08	
122	-6.10000e+00	1.728313e+08	
123	-6.15000e+00	1.730426e+08	
124	-6.20000e+00	1.732502e+08	
125	-6.25000e+00	1.734539e+08	
126	-6.30000e+00	1.736539e+08	
127	-6.35000e+00	1.738501e+08	
128	-6.40000e+00	1.740428e+08	
129	-6.45000e+00	1.742317e+08	
130	-6.50000e+00	1.744171e+08	
131	-6.55000e+00	1.745990e+08	
132	-6.60000e+00	1.747774e+08	
Reset re-loads circuit ***************************

Circuit: ***************************

Doing analysis at TEMP = 125.000000 and TNOM = 125.000000


No. of Data Rows : 133
                          ***************************
                          DC transfer characteristic  Mon Jan  9 13:57:55  2023
--------------------------------------------------------------------------------
Index   v-sweep         rds             
--------------------------------------------------------------------------------
0	0.000000e+00	2.420642e+04	
1	-5.00000e-02	2.561775e+04	
2	-1.00000e-01	2.720253e+04	
3	-1.50000e-01	2.899476e+04	
4	-2.00000e-01	3.103793e+04	
5	-2.50000e-01	3.338852e+04	
6	-3.00000e-01	3.612126e+04	
7	-3.50000e-01	3.933702e+04	
8	-4.00000e-01	4.317527e+04	
9	-4.50000e-01	4.783409e+04	
10	-5.00000e-01	5.360387e+04	
11	-5.50000e-01	6.092639e+04	
12	-6.00000e-01	7.050333e+04	
13	-6.50000e-01	8.350601e+04	
14	-7.00000e-01	1.020017e+05	
15	-7.50000e-01	1.298534e+05	
16	-8.00000e-01	1.746182e+05	
17	-8.50000e-01	2.511496e+05	
18	-9.00000e-01	3.860919e+05	
19	-9.50000e-01	6.157254e+05	
20	-1.00000e+00	9.642201e+05	
21	-1.05000e+00	1.413074e+06	
22	-1.10000e+00	1.903635e+06	
23	-1.15000e+00	2.375474e+06	
24	-1.20000e+00	2.794522e+06	
25	-1.25000e+00	3.152650e+06	
26	-1.30000e+00	3.455568e+06	
27	-1.35000e+00	3.713252e+06	
28	-1.40000e+00	3.935378e+06	
29	-1.45000e+00	4.129872e+06	
30	-1.50000e+00	4.302803e+06	
31	-1.55000e+00	4.458700e+06	
32	-1.60000e+00	4.600918e+06	
33	-1.65000e+00	4.731957e+06	
34	-1.70000e+00	4.853697e+06	
35	-1.75000e+00	4.967570e+06	
36	-1.80000e+00	5.074687e+06	
37	-1.85000e+00	5.175918e+06	
38	-1.90000e+00	5.271958e+06	
39	-1.95000e+00	5.363372e+06	
40	-2.00000e+00	5.450621e+06	
41	-2.05000e+00	5.534091e+06	
42	-2.10000e+00	5.614107e+06	
43	-2.15000e+00	5.690948e+06	
44	-2.20000e+00	5.764852e+06	
45	-2.25000e+00	5.836028e+06	
46	-2.30000e+00	5.904660e+06	
47	-2.35000e+00	5.970911e+06	
48	-2.40000e+00	6.034926e+06	
49	-2.45000e+00	6.096835e+06	
50	-2.50000e+00	6.156758e+06	
51	-2.55000e+00	6.214800e+06	
52	-2.60000e+00	6.271061e+06	
53	-2.65000e+00	6.325630e+06	
54	-2.70000e+00	6.378590e+06	

Index   v-sweep         rds             
--------------------------------------------------------------------------------
55	-2.75000e+00	6.430018e+06	
56	-2.80000e+00	6.479985e+06	
57	-2.85000e+00	6.528556e+06	
58	-2.90000e+00	6.575794e+06	
59	-2.95000e+00	6.621756e+06	
60	-3.00000e+00	6.666495e+06	
61	-3.05000e+00	6.710063e+06	
62	-3.10000e+00	6.752507e+06	
63	-3.15000e+00	6.793871e+06	
64	-3.20000e+00	6.834198e+06	
65	-3.25000e+00	6.873527e+06	
66	-3.30000e+00	6.911897e+06	
67	-3.35000e+00	6.949342e+06	
68	-3.40000e+00	6.985897e+06	
69	-3.45000e+00	7.021593e+06	
70	-3.50000e+00	7.056462e+06	
71	-3.55000e+00	7.090532e+06	
72	-3.60000e+00	7.123830e+06	
73	-3.65000e+00	7.156383e+06	
74	-3.70000e+00	7.188215e+06	
75	-3.75000e+00	7.219352e+06	
76	-3.80000e+00	7.249814e+06	
77	-3.85000e+00	7.279624e+06	
78	-3.90000e+00	7.308803e+06	
79	-3.95000e+00	7.337370e+06	
80	-4.00000e+00	7.365344e+06	
81	-4.05000e+00	7.392744e+06	
82	-4.10000e+00	7.419586e+06	
83	-4.15000e+00	7.445888e+06	
84	-4.20000e+00	7.471665e+06	
85	-4.25000e+00	7.496931e+06	
86	-4.30000e+00	7.521703e+06	
87	-4.35000e+00	7.545993e+06	
88	-4.40000e+00	7.569816e+06	
89	-4.45000e+00	7.593183e+06	
90	-4.50000e+00	7.616107e+06	
91	-4.55000e+00	7.638601e+06	
92	-4.60000e+00	7.660674e+06	
93	-4.65000e+00	7.682339e+06	
94	-4.70000e+00	7.703605e+06	
95	-4.75000e+00	7.724483e+06	
96	-4.80000e+00	7.744982e+06	
97	-4.85000e+00	7.765111e+06	
98	-4.90000e+00	7.784879e+06	
99	-4.95000e+00	7.804295e+06	
100	-5.00000e+00	7.823367e+06	
101	-5.05000e+00	7.842102e+06	
102	-5.10000e+00	7.860509e+06	
103	-5.15000e+00	7.878593e+06	
104	-5.20000e+00	7.896364e+06	
105	-5.25000e+00	7.913826e+06	
106	-5.30000e+00	7.930986e+06	
107	-5.35000e+00	7.947852e+06	
108	-5.40000e+00	7.964427e+06	
109	-5.45000e+00	7.980719e+06	
110	-5.50000e+00	7.996733e+06	
111	-5.55000e+00	8.012474e+06	
112	-5.60000e+00	8.027947e+06	

Index   v-sweep         rds             
--------------------------------------------------------------------------------
113	-5.65000e+00	8.043158e+06	
114	-5.70000e+00	8.058110e+06	
115	-5.75000e+00	8.072808e+06	
116	-5.80000e+00	8.087257e+06	
117	-5.85000e+00	8.101461e+06	
118	-5.90000e+00	8.115424e+06	
119	-5.95000e+00	8.129150e+06	
120	-6.00000e+00	8.142643e+06	
121	-6.05000e+00	8.155907e+06	
122	-6.10000e+00	8.168944e+06	
123	-6.15000e+00	8.181759e+06	
124	-6.20000e+00	8.194355e+06	
125	-6.25000e+00	8.206734e+06	
126	-6.30000e+00	8.218901e+06	
127	-6.35000e+00	8.230858e+06	
128	-6.40000e+00	8.242608e+06	
129	-6.45000e+00	8.254153e+06	
130	-6.50000e+00	8.265498e+06	
131	-6.55000e+00	8.276643e+06	
132	-6.60000e+00	8.287592e+06	
Reset re-loads circuit ***************************

Circuit: ***************************

Doing analysis at TEMP = 125.000000 and TNOM = 125.000000


No. of Data Rows : 133
                          ***************************
                          DC transfer characteristic  Mon Jan  9 13:57:55  2023
--------------------------------------------------------------------------------
Index   v-sweep         rds             
--------------------------------------------------------------------------------
0	0.000000e+00	1.451183e+04	
1	-5.00000e-02	1.497346e+04	
2	-1.00000e-01	1.546509e+04	
3	-1.50000e-01	1.598975e+04	
4	-2.00000e-01	1.655088e+04	
5	-2.50000e-01	1.715241e+04	
6	-3.00000e-01	1.779886e+04	
7	-3.50000e-01	1.849546e+04	
8	-4.00000e-01	1.924827e+04	
9	-4.50000e-01	2.006437e+04	
10	-5.00000e-01	2.095208e+04	
11	-5.50000e-01	2.192125e+04	
12	-6.00000e-01	2.298358e+04	
13	-6.50000e-01	2.415318e+04	
14	-7.00000e-01	2.544708e+04	
15	-7.50000e-01	2.688615e+04	
16	-8.00000e-01	2.849614e+04	
17	-8.50000e-01	3.030927e+04	
18	-9.00000e-01	3.236630e+04	
19	-9.50000e-01	3.471952e+04	
20	-1.00000e+00	3.743716e+04	
21	-1.05000e+00	4.060971e+04	
22	-1.10000e+00	4.435958e+04	
23	-1.15000e+00	4.885603e+04	
24	-1.20000e+00	5.433876e+04	
25	-1.25000e+00	6.115631e+04	
26	-1.30000e+00	6.982998e+04	
27	-1.35000e+00	8.116182e+04	
28	-1.40000e+00	9.641741e+04	
29	-1.45000e+00	1.176245e+05	
30	-1.50000e+00	1.480062e+05	
31	-1.55000e+00	1.924134e+05	
32	-1.60000e+00	2.571607e+05	
33	-1.65000e+00	3.480830e+05	
34	-1.70000e+00	4.663723e+05	
35	-1.75000e+00	6.051354e+05	
36	-1.80000e+00	7.512751e+05	
37	-1.85000e+00	8.918382e+05	
38	-1.90000e+00	1.018834e+06	
39	-1.95000e+00	1.129672e+06	
40	-2.00000e+00	1.225177e+06	
41	-2.05000e+00	1.307574e+06	
42	-2.10000e+00	1.379309e+06	
43	-2.15000e+00	1.442537e+06	
44	-2.20000e+00	1.498997e+06	
45	-2.25000e+00	1.550035e+06	
46	-2.30000e+00	1.596678e+06	
47	-2.35000e+00	1.639703e+06	
48	-2.40000e+00	1.679707e+06	
49	-2.45000e+00	1.717148e+06	
50	-2.50000e+00	1.752383e+06	
51	-2.55000e+00	1.785695e+06	
52	-2.60000e+00	1.817310e+06	
53	-2.65000e+00	1.847411e+06	
54	-2.70000e+00	1.876150e+06	

Index   v-sweep         rds             
--------------------------------------------------------------------------------
55	-2.75000e+00	1.903652e+06	
56	-2.80000e+00	1.930023e+06	
57	-2.85000e+00	1.955355e+06	
58	-2.90000e+00	1.979726e+06	
59	-2.95000e+00	2.003203e+06	
60	-3.00000e+00	2.025847e+06	
61	-3.05000e+00	2.047711e+06	
62	-3.10000e+00	2.068841e+06	
63	-3.15000e+00	2.089282e+06	
64	-3.20000e+00	2.109071e+06	
65	-3.25000e+00	2.128244e+06	
66	-3.30000e+00	2.146832e+06	
67	-3.35000e+00	2.164864e+06	
68	-3.40000e+00	2.182369e+06	
69	-3.45000e+00	2.199370e+06	
70	-3.50000e+00	2.215891e+06	
71	-3.55000e+00	2.231954e+06	
72	-3.60000e+00	2.247578e+06	
73	-3.65000e+00	2.262783e+06	
74	-3.70000e+00	2.277585e+06	
75	-3.75000e+00	2.292003e+06	
76	-3.80000e+00	2.306050e+06	
77	-3.85000e+00	2.319742e+06	
78	-3.90000e+00	2.333092e+06	
79	-3.95000e+00	2.346114e+06	
80	-4.00000e+00	2.358820e+06	
81	-4.05000e+00	2.371221e+06	
82	-4.10000e+00	2.383328e+06	
83	-4.15000e+00	2.395153e+06	
84	-4.20000e+00	2.406705e+06	
85	-4.25000e+00	2.417993e+06	
86	-4.30000e+00	2.429027e+06	
87	-4.35000e+00	2.439815e+06	
88	-4.40000e+00	2.450365e+06	
89	-4.45000e+00	2.460686e+06	
90	-4.50000e+00	2.470784e+06	
91	-4.55000e+00	2.480667e+06	
92	-4.60000e+00	2.490341e+06	
93	-4.65000e+00	2.499813e+06	
94	-4.70000e+00	2.509090e+06	
95	-4.75000e+00	2.518176e+06	
96	-4.80000e+00	2.527079e+06	
97	-4.85000e+00	2.535803e+06	
98	-4.90000e+00	2.544353e+06	
99	-4.95000e+00	2.552735e+06	
100	-5.00000e+00	2.560953e+06	
101	-5.05000e+00	2.569012e+06	
102	-5.10000e+00	2.576916e+06	
103	-5.15000e+00	2.584670e+06	
104	-5.20000e+00	2.592278e+06	
105	-5.25000e+00	2.599742e+06	
106	-5.30000e+00	2.607068e+06	
107	-5.35000e+00	2.614259e+06	
108	-5.40000e+00	2.621318e+06	
109	-5.45000e+00	2.628248e+06	
110	-5.50000e+00	2.635053e+06	
111	-5.55000e+00	2.641735e+06	
112	-5.60000e+00	2.648298e+06	

Index   v-sweep         rds             
--------------------------------------------------------------------------------
113	-5.65000e+00	2.654745e+06	
114	-5.70000e+00	2.661077e+06	
115	-5.75000e+00	2.667298e+06	
116	-5.80000e+00	2.673410e+06	
117	-5.85000e+00	2.679415e+06	
118	-5.90000e+00	2.685317e+06	
119	-5.95000e+00	2.691116e+06	
120	-6.00000e+00	2.696815e+06	
121	-6.05000e+00	2.702416e+06	
122	-6.10000e+00	2.707922e+06	
123	-6.15000e+00	2.713333e+06	
124	-6.20000e+00	2.718652e+06	
125	-6.25000e+00	2.723881e+06	
126	-6.30000e+00	2.729020e+06	
127	-6.35000e+00	2.734073e+06	
128	-6.40000e+00	2.739039e+06	
129	-6.45000e+00	2.743922e+06	
130	-6.50000e+00	2.748722e+06	
131	-6.55000e+00	2.753440e+06	
132	-6.60000e+00	2.758079e+06	
Reset re-loads circuit ***************************

Circuit: ***************************

Doing analysis at TEMP = 125.000000 and TNOM = 125.000000


No. of Data Rows : 133
                          ***************************
                          DC transfer characteristic  Mon Jan  9 13:57:55  2023
--------------------------------------------------------------------------------
Index   v-sweep         rds             
--------------------------------------------------------------------------------
0	0.000000e+00	1.078032e+04	
1	-5.00000e-02	1.101501e+04	
2	-1.00000e-01	1.125999e+04	
3	-1.50000e-01	1.151595e+04	
4	-2.00000e-01	1.178366e+04	
5	-2.50000e-01	1.206393e+04	
6	-3.00000e-01	1.235767e+04	
7	-3.50000e-01	1.266588e+04	
8	-4.00000e-01	1.298964e+04	
9	-4.50000e-01	1.333018e+04	
10	-5.00000e-01	1.368883e+04	
11	-5.50000e-01	1.406706e+04	
12	-6.00000e-01	1.446653e+04	
13	-6.50000e-01	1.488908e+04	
14	-7.00000e-01	1.533676e+04	
15	-7.50000e-01	1.581189e+04	
16	-8.00000e-01	1.631706e+04	
17	-8.50000e-01	1.685521e+04	
18	-9.00000e-01	1.742968e+04	
19	-9.50000e-01	1.804426e+04	
20	-1.00000e+00	1.870330e+04	
21	-1.05000e+00	1.941180e+04	
22	-1.10000e+00	2.017553e+04	
23	-1.15000e+00	2.100119e+04	
24	-1.20000e+00	2.189661e+04	
25	-1.25000e+00	2.287098e+04	
26	-1.30000e+00	2.393518e+04	
27	-1.35000e+00	2.510219e+04	
28	-1.40000e+00	2.638755e+04	
29	-1.45000e+00	2.781011e+04	
30	-1.50000e+00	2.939289e+04	
31	-1.55000e+00	3.116430e+04	
32	-1.60000e+00	3.315976e+04	
33	-1.65000e+00	3.542399e+04	
34	-1.70000e+00	3.801417e+04	
35	-1.75000e+00	4.100443e+04	
36	-1.80000e+00	4.449235e+04	
37	-1.85000e+00	4.860848e+04	
38	-1.90000e+00	5.353046e+04	
39	-1.95000e+00	5.950427e+04	
40	-2.00000e+00	6.687616e+04	
41	-2.05000e+00	7.614024e+04	
42	-2.10000e+00	8.800673e+04	
43	-2.15000e+00	1.034905e+05	
44	-2.20000e+00	1.239988e+05	
45	-2.25000e+00	1.513412e+05	
46	-2.30000e+00	1.874952e+05	
47	-2.35000e+00	2.339158e+05	
48	-2.40000e+00	2.904482e+05	
49	-2.45000e+00	3.545406e+05	
50	-2.50000e+00	4.217166e+05	
51	-2.55000e+00	4.872481e+05	
52	-2.60000e+00	5.477434e+05	
53	-2.65000e+00	6.016570e+05	
54	-2.70000e+00	6.488830e+05	

Index   v-sweep         rds             
--------------------------------------------------------------------------------
55	-2.75000e+00	6.900912e+05	
56	-2.80000e+00	7.262157e+05	
57	-2.85000e+00	7.581756e+05	
58	-2.90000e+00	7.867625e+05	
59	-2.95000e+00	8.126165e+05	
60	-3.00000e+00	8.362400e+05	
61	-3.05000e+00	8.580222e+05	
62	-3.10000e+00	8.782644e+05	
63	-3.15000e+00	8.972006e+05	
64	-3.20000e+00	9.150142e+05	
65	-3.25000e+00	9.318502e+05	
66	-3.30000e+00	9.478250e+05	
67	-3.35000e+00	9.630329e+05	
68	-3.40000e+00	9.775515e+05	
69	-3.45000e+00	9.914451e+05	
70	-3.50000e+00	1.004768e+06	
71	-3.55000e+00	1.017567e+06	
72	-3.60000e+00	1.029881e+06	
73	-3.65000e+00	1.041745e+06	
74	-3.70000e+00	1.053189e+06	
75	-3.75000e+00	1.064241e+06	
76	-3.80000e+00	1.074923e+06	
77	-3.85000e+00	1.085258e+06	
78	-3.90000e+00	1.095265e+06	
79	-3.95000e+00	1.104962e+06	
80	-4.00000e+00	1.114364e+06	
81	-4.05000e+00	1.123486e+06	
82	-4.10000e+00	1.132343e+06	
83	-4.15000e+00	1.140946e+06	
84	-4.20000e+00	1.149307e+06	
85	-4.25000e+00	1.157437e+06	
86	-4.30000e+00	1.165346e+06	
87	-4.35000e+00	1.173043e+06	
88	-4.40000e+00	1.180538e+06	
89	-4.45000e+00	1.187838e+06	
90	-4.50000e+00	1.194952e+06	
91	-4.55000e+00	1.201886e+06	
92	-4.60000e+00	1.208648e+06	
93	-4.65000e+00	1.215244e+06	
94	-4.70000e+00	1.221681e+06	
95	-4.75000e+00	1.227964e+06	
96	-4.80000e+00	1.234098e+06	
97	-4.85000e+00	1.240090e+06	
98	-4.90000e+00	1.245943e+06	
99	-4.95000e+00	1.251664e+06	
100	-5.00000e+00	1.257256e+06	
101	-5.05000e+00	1.262724e+06	
102	-5.10000e+00	1.268071e+06	
103	-5.15000e+00	1.273302e+06	
104	-5.20000e+00	1.278421e+06	
105	-5.25000e+00	1.283431e+06	
106	-5.30000e+00	1.288336e+06	
107	-5.35000e+00	1.293138e+06	
108	-5.40000e+00	1.297841e+06	
109	-5.45000e+00	1.302449e+06	
110	-5.50000e+00	1.306963e+06	
111	-5.55000e+00	1.311387e+06	
112	-5.60000e+00	1.315723e+06	

Index   v-sweep         rds             
--------------------------------------------------------------------------------
113	-5.65000e+00	1.319973e+06	
114	-5.70000e+00	1.324141e+06	
115	-5.75000e+00	1.328228e+06	
116	-5.80000e+00	1.332237e+06	
117	-5.85000e+00	1.336170e+06	
118	-5.90000e+00	1.340029e+06	
119	-5.95000e+00	1.343815e+06	
120	-6.00000e+00	1.347531e+06	
121	-6.05000e+00	1.351179e+06	
122	-6.10000e+00	1.354760e+06	
123	-6.15000e+00	1.358276e+06	
124	-6.20000e+00	1.361728e+06	
125	-6.25000e+00	1.365118e+06	
126	-6.30000e+00	1.368448e+06	
127	-6.35000e+00	1.371719e+06	
128	-6.40000e+00	1.374932e+06	
129	-6.45000e+00	1.378088e+06	
130	-6.50000e+00	1.381190e+06	
131	-6.55000e+00	1.384237e+06	
132	-6.60000e+00	1.387232e+06	
Reset re-loads circuit ***************************

Circuit: ***************************

Doing analysis at TEMP = 125.000000 and TNOM = 125.000000


No. of Data Rows : 133
                          ***************************
                          DC transfer characteristic  Mon Jan  9 13:57:55  2023
--------------------------------------------------------------------------------
Index   v-sweep         rds             
--------------------------------------------------------------------------------
0	0.000000e+00	8.775905e+03	
1	-5.00000e-02	8.920578e+03	
2	-1.00000e-01	9.070011e+03	
3	-1.50000e-01	9.224443e+03	
4	-2.00000e-01	9.384129e+03	
5	-2.50000e-01	9.549342e+03	
6	-3.00000e-01	9.720374e+03	
7	-3.50000e-01	9.897537e+03	
8	-4.00000e-01	1.008117e+04	
9	-4.50000e-01	1.027163e+04	
10	-5.00000e-01	1.046930e+04	
11	-5.50000e-01	1.067461e+04	
12	-6.00000e-01	1.088800e+04	
13	-6.50000e-01	1.110996e+04	
14	-7.00000e-01	1.134102e+04	
15	-7.50000e-01	1.158174e+04	
16	-8.00000e-01	1.183276e+04	
17	-8.50000e-01	1.209474e+04	
18	-9.00000e-01	1.236841e+04	
19	-9.50000e-01	1.265457e+04	
20	-1.00000e+00	1.295411e+04	
21	-1.05000e+00	1.326797e+04	
22	-1.10000e+00	1.359722e+04	
23	-1.15000e+00	1.394300e+04	
24	-1.20000e+00	1.430660e+04	
25	-1.25000e+00	1.468943e+04	
26	-1.30000e+00	1.509305e+04	
27	-1.35000e+00	1.551921e+04	
28	-1.40000e+00	1.596983e+04	
29	-1.45000e+00	1.644708e+04	
30	-1.50000e+00	1.695340e+04	
31	-1.55000e+00	1.749152e+04	
32	-1.60000e+00	1.806452e+04	
33	-1.65000e+00	1.867590e+04	
34	-1.70000e+00	1.932963e+04	
35	-1.75000e+00	2.003027e+04	
36	-1.80000e+00	2.078302e+04	
37	-1.85000e+00	2.159390e+04	
38	-1.90000e+00	2.246988e+04	
39	-1.95000e+00	2.341909e+04	
40	-2.00000e+00	2.445104e+04	
41	-2.05000e+00	2.557696e+04	
42	-2.10000e+00	2.681019e+04	
43	-2.15000e+00	2.816668e+04	
44	-2.20000e+00	2.966564e+04	
45	-2.25000e+00	3.133044e+04	
46	-2.30000e+00	3.318970e+04	
47	-2.35000e+00	3.527888e+04	
48	-2.40000e+00	3.764232e+04	
49	-2.45000e+00	4.033606e+04	
50	-2.50000e+00	4.343175e+04	
51	-2.55000e+00	4.702205e+04	
52	-2.60000e+00	5.122821e+04	
53	-2.65000e+00	5.621052e+04	
54	-2.70000e+00	6.218281e+04	

Index   v-sweep         rds             
--------------------------------------------------------------------------------
55	-2.75000e+00	6.943177e+04	
56	-2.80000e+00	7.834085e+04	
57	-2.85000e+00	8.941552e+04	
58	-2.90000e+00	1.032982e+05	
59	-2.95000e+00	1.207458e+05	
60	-3.00000e+00	1.425230e+05	
61	-3.05000e+00	1.691620e+05	
62	-3.10000e+00	2.006072e+05	
63	-3.15000e+00	2.359171e+05	
64	-3.20000e+00	2.733039e+05	
65	-3.25000e+00	3.106187e+05	
66	-3.30000e+00	3.460069e+05	
67	-3.35000e+00	3.783229e+05	
68	-3.40000e+00	4.071565e+05	
69	-3.45000e+00	4.326168e+05	
70	-3.50000e+00	4.550787e+05	
71	-3.55000e+00	4.749990e+05	
72	-3.60000e+00	4.928155e+05	
73	-3.65000e+00	5.089058e+05	
74	-3.70000e+00	5.235786e+05	
75	-3.75000e+00	5.370792e+05	
76	-3.80000e+00	5.496007e+05	
77	-3.85000e+00	5.612942e+05	
78	-3.90000e+00	5.722787e+05	
79	-3.95000e+00	5.826484e+05	
80	-4.00000e+00	5.924788e+05	
81	-4.05000e+00	6.018307e+05	
82	-4.10000e+00	6.107539e+05	
83	-4.15000e+00	6.192897e+05	
84	-4.20000e+00	6.274726e+05	
85	-4.25000e+00	6.353320e+05	
86	-4.30000e+00	6.428927e+05	
87	-4.35000e+00	6.501767e+05	
88	-4.40000e+00	6.572026e+05	
89	-4.45000e+00	6.639874e+05	
90	-4.50000e+00	6.705457e+05	
91	-4.55000e+00	6.768909e+05	
92	-4.60000e+00	6.830349e+05	
93	-4.65000e+00	6.889887e+05	
94	-4.70000e+00	6.947620e+05	
95	-4.75000e+00	7.003639e+05	
96	-4.80000e+00	7.058027e+05	
97	-4.85000e+00	7.110861e+05	
98	-4.90000e+00	7.162213e+05	
99	-4.95000e+00	7.212148e+05	
100	-5.00000e+00	7.260729e+05	
101	-5.05000e+00	7.308012e+05	
102	-5.10000e+00	7.354053e+05	
103	-5.15000e+00	7.398900e+05	
104	-5.20000e+00	7.442603e+05	
105	-5.25000e+00	7.485206e+05	
106	-5.30000e+00	7.526752e+05	
107	-5.35000e+00	7.567280e+05	
108	-5.40000e+00	7.606828e+05	
109	-5.45000e+00	7.645433e+05	
110	-5.50000e+00	7.683127e+05	
111	-5.55000e+00	7.719945e+05	
112	-5.60000e+00	7.755915e+05	

Index   v-sweep         rds             
--------------------------------------------------------------------------------
113	-5.65000e+00	7.791069e+05	
114	-5.70000e+00	7.825432e+05	
115	-5.75000e+00	7.859033e+05	
116	-5.80000e+00	7.891895e+05	
117	-5.85000e+00	7.924044e+05	
118	-5.90000e+00	7.955502e+05	
119	-5.95000e+00	7.986291e+05	
120	-6.00000e+00	8.016433e+05	
121	-6.05000e+00	8.045947e+05	
122	-6.10000e+00	8.074852e+05	
123	-6.15000e+00	8.103168e+05	
124	-6.20000e+00	8.130911e+05	
125	-6.25000e+00	8.158098e+05	
126	-6.30000e+00	8.184747e+05	
127	-6.35000e+00	8.210871e+05	
128	-6.40000e+00	8.236486e+05	
129	-6.45000e+00	8.261607e+05	
130	-6.50000e+00	8.286246e+05	
131	-6.55000e+00	8.310417e+05	
132	-6.60000e+00	8.334133e+05	
Reset re-loads circuit ***************************

Circuit: ***************************

Doing analysis at TEMP = 125.000000 and TNOM = 125.000000


No. of Data Rows : 133
                          ***************************
                          DC transfer characteristic  Mon Jan  9 13:57:55  2023
--------------------------------------------------------------------------------
Index   v-sweep         rds             
--------------------------------------------------------------------------------
0	0.000000e+00	7.506947e+03	
1	-5.00000e-02	7.606214e+03	
2	-1.00000e-01	7.708081e+03	
3	-1.50000e-01	7.812653e+03	
4	-2.00000e-01	7.920040e+03	
5	-2.50000e-01	8.030355e+03	
6	-3.00000e-01	8.143721e+03	
7	-3.50000e-01	8.260266e+03	
8	-4.00000e-01	8.380125e+03	
9	-4.50000e-01	8.503441e+03	
10	-5.00000e-01	8.630367e+03	
11	-5.50000e-01	8.761064e+03	
12	-6.00000e-01	8.895701e+03	
13	-6.50000e-01	9.034459e+03	
14	-7.00000e-01	9.177532e+03	
15	-7.50000e-01	9.325122e+03	
16	-8.00000e-01	9.477448e+03	
17	-8.50000e-01	9.634740e+03	
18	-9.00000e-01	9.797247e+03	
19	-9.50000e-01	9.965230e+03	
20	-1.00000e+00	1.013897e+04	
21	-1.05000e+00	1.031877e+04	
22	-1.10000e+00	1.050496e+04	
23	-1.15000e+00	1.069787e+04	
24	-1.20000e+00	1.089788e+04	
25	-1.25000e+00	1.110539e+04	
26	-1.30000e+00	1.132083e+04	
27	-1.35000e+00	1.154466e+04	
28	-1.40000e+00	1.177738e+04	
29	-1.45000e+00	1.201953e+04	
30	-1.50000e+00	1.227169e+04	
31	-1.55000e+00	1.253450e+04	
32	-1.60000e+00	1.280865e+04	
33	-1.65000e+00	1.309488e+04	
34	-1.70000e+00	1.339401e+04	
35	-1.75000e+00	1.370694e+04	
36	-1.80000e+00	1.403464e+04	
37	-1.85000e+00	1.437817e+04	
38	-1.90000e+00	1.473871e+04	
39	-1.95000e+00	1.511756e+04	
40	-2.00000e+00	1.551615e+04	
41	-2.05000e+00	1.593604e+04	
42	-2.10000e+00	1.637901e+04	
43	-2.15000e+00	1.684698e+04	
44	-2.20000e+00	1.734215e+04	
45	-2.25000e+00	1.786693e+04	
46	-2.30000e+00	1.842407e+04	
47	-2.35000e+00	1.901664e+04	
48	-2.40000e+00	1.964812e+04	
49	-2.45000e+00	2.032244e+04	
50	-2.50000e+00	2.104409e+04	
51	-2.55000e+00	2.181823e+04	
52	-2.60000e+00	2.265073e+04	
53	-2.65000e+00	2.354842e+04	
54	-2.70000e+00	2.451918e+04	

Index   v-sweep         rds             
--------------------------------------------------------------------------------
55	-2.75000e+00	2.557224e+04	
56	-2.80000e+00	2.671839e+04	
57	-2.85000e+00	2.797038e+04	
58	-2.90000e+00	2.934334e+04	
59	-2.95000e+00	3.085536e+04	
60	-3.00000e+00	3.252823e+04	
61	-3.05000e+00	3.438836e+04	
62	-3.10000e+00	3.646806e+04	
63	-3.15000e+00	3.880716e+04	
64	-3.20000e+00	4.145514e+04	
65	-3.25000e+00	4.447400e+04	
66	-3.30000e+00	4.794198e+04	
67	-3.35000e+00	5.195851e+04	
68	-3.40000e+00	5.665040e+04	
69	-3.45000e+00	6.217952e+04	
70	-3.50000e+00	6.875128e+04	
71	-3.55000e+00	7.662219e+04	
72	-3.60000e+00	8.610193e+04	
73	-3.65000e+00	9.754126e+04	
74	-3.70000e+00	1.112914e+05	
75	-3.75000e+00	1.276196e+05	
76	-3.80000e+00	1.465791e+05	
77	-3.85000e+00	1.678720e+05	
78	-3.90000e+00	1.907893e+05	
79	-3.95000e+00	2.143122e+05	
80	-4.00000e+00	2.373621e+05	
81	-4.05000e+00	2.590677e+05	
82	-4.10000e+00	2.789123e+05	
83	-4.15000e+00	2.967265e+05	
84	-4.20000e+00	3.125869e+05	
85	-4.25000e+00	3.267007e+05	
86	-4.30000e+00	3.393187e+05	
87	-4.35000e+00	3.506841e+05	
88	-4.40000e+00	3.610106e+05	
89	-4.45000e+00	3.704752e+05	
90	-4.50000e+00	3.792212e+05	
91	-4.55000e+00	3.873624e+05	
92	-4.60000e+00	3.949889e+05	
93	-4.65000e+00	4.021722e+05	
94	-4.70000e+00	4.089695e+05	
95	-4.75000e+00	4.154264e+05	
96	-4.80000e+00	4.215803e+05	
97	-4.85000e+00	4.274618e+05	
98	-4.90000e+00	4.330963e+05	
99	-4.95000e+00	4.385051e+05	
100	-5.00000e+00	4.437063e+05	
101	-5.05000e+00	4.487154e+05	
102	-5.10000e+00	4.535461e+05	
103	-5.15000e+00	4.582102e+05	
104	-5.20000e+00	4.627180e+05	
105	-5.25000e+00	4.670789e+05	
106	-5.30000e+00	4.713013e+05	
107	-5.35000e+00	4.753926e+05	
108	-5.40000e+00	4.793598e+05	
109	-5.45000e+00	4.832092e+05	
110	-5.50000e+00	4.869464e+05	
111	-5.55000e+00	4.905767e+05	
112	-5.60000e+00	4.941052e+05	

Index   v-sweep         rds             
--------------------------------------------------------------------------------
113	-5.65000e+00	4.975363e+05	
114	-5.70000e+00	5.008742e+05	
115	-5.75000e+00	5.041230e+05	
116	-5.80000e+00	5.072863e+05	
117	-5.85000e+00	5.103676e+05	
118	-5.90000e+00	5.133702e+05	
119	-5.95000e+00	5.162972e+05	
120	-6.00000e+00	5.191515e+05	
121	-6.05000e+00	5.219358e+05	
122	-6.10000e+00	5.246527e+05	
123	-6.15000e+00	5.273047e+05	
124	-6.20000e+00	5.298942e+05	
125	-6.25000e+00	5.324233e+05	
126	-6.30000e+00	5.348941e+05	
127	-6.35000e+00	5.373088e+05	
128	-6.40000e+00	5.396691e+05	
129	-6.45000e+00	5.419769e+05	
130	-6.50000e+00	5.442339e+05	
131	-6.55000e+00	5.464419e+05	
132	-6.60000e+00	5.486023e+05	
Reset re-loads circuit ***************************

Circuit: ***************************

Note: No ".plot", ".print", or ".fourier" lines; no simulations run
