
Note: Compatibility modes selected: hs

Warning: m=xx on .subckt line will override multiplier m hierarchy!


Circuit: ***************************

Doing analysis at TEMP = -40.000000 and TNOM = -40.000000


No. of Data Rows : 133
                          ***************************
                          DC transfer characteristic  Mon Jan  9 13:57:54  2023
--------------------------------------------------------------------------------
Index   v-sweep         rds             
--------------------------------------------------------------------------------
0	0.000000e+00	6.294775e+05	
1	-5.00000e-02	2.402394e+06	
2	-1.00000e-01	1.905715e+07	
3	-1.50000e-01	8.622954e+07	
4	-2.00000e-01	2.138732e+08	
5	-2.50000e-01	3.703195e+08	
6	-3.00000e-01	5.223779e+08	
7	-3.50000e-01	6.559455e+08	
8	-4.00000e-01	7.698191e+08	
9	-4.50000e-01	8.671602e+08	
10	-5.00000e-01	9.515828e+08	
11	-5.50000e-01	1.026047e+09	
12	-6.00000e-01	1.092759e+09	
13	-6.50000e-01	1.153317e+09	
14	-7.00000e-01	1.208887e+09	
15	-7.50000e-01	1.260322e+09	
16	-8.00000e-01	1.308264e+09	
17	-8.50000e-01	1.353204e+09	
18	-9.00000e-01	1.395525e+09	
19	-9.50000e-01	1.435531e+09	
20	-1.00000e+00	1.473470e+09	
21	-1.05000e+00	1.509545e+09	
22	-1.10000e+00	1.543927e+09	
23	-1.15000e+00	1.576761e+09	
24	-1.20000e+00	1.608171e+09	
25	-1.25000e+00	1.638266e+09	
26	-1.30000e+00	1.667139e+09	
27	-1.35000e+00	1.694876e+09	
28	-1.40000e+00	1.721550e+09	
29	-1.45000e+00	1.747229e+09	
30	-1.50000e+00	1.771973e+09	
31	-1.55000e+00	1.795837e+09	
32	-1.60000e+00	1.818871e+09	
33	-1.65000e+00	1.841120e+09	
34	-1.70000e+00	1.862628e+09	
35	-1.75000e+00	1.883432e+09	
36	-1.80000e+00	1.903568e+09	
37	-1.85000e+00	1.923069e+09	
38	-1.90000e+00	1.941966e+09	
39	-1.95000e+00	1.960289e+09	
40	-2.00000e+00	1.978062e+09	
41	-2.05000e+00	1.995312e+09	
42	-2.10000e+00	2.012062e+09	
43	-2.15000e+00	2.028333e+09	
44	-2.20000e+00	2.044147e+09	
45	-2.25000e+00	2.059523e+09	
46	-2.30000e+00	2.074479e+09	
47	-2.35000e+00	2.089031e+09	
48	-2.40000e+00	2.103197e+09	
49	-2.45000e+00	2.116992e+09	
50	-2.50000e+00	2.130430e+09	
51	-2.55000e+00	2.143525e+09	
52	-2.60000e+00	2.156290e+09	
53	-2.65000e+00	2.168737e+09	
54	-2.70000e+00	2.180879e+09	

Index   v-sweep         rds             
--------------------------------------------------------------------------------
55	-2.75000e+00	2.192725e+09	
56	-2.80000e+00	2.204287e+09	
57	-2.85000e+00	2.215575e+09	
58	-2.90000e+00	2.226599e+09	
59	-2.95000e+00	2.237367e+09	
60	-3.00000e+00	2.247888e+09	
61	-3.05000e+00	2.258171e+09	
62	-3.10000e+00	2.268223e+09	
63	-3.15000e+00	2.278052e+09	
64	-3.20000e+00	2.287665e+09	
65	-3.25000e+00	2.297069e+09	
66	-3.30000e+00	2.306271e+09	
67	-3.35000e+00	2.315277e+09	
68	-3.40000e+00	2.324093e+09	
69	-3.45000e+00	2.332725e+09	
70	-3.50000e+00	2.341177e+09	
71	-3.55000e+00	2.349457e+09	
72	-3.60000e+00	2.357568e+09	
73	-3.65000e+00	2.365515e+09	
74	-3.70000e+00	2.373303e+09	
75	-3.75000e+00	2.380937e+09	
76	-3.80000e+00	2.388421e+09	
77	-3.85000e+00	2.395758e+09	
78	-3.90000e+00	2.402953e+09	
79	-3.95000e+00	2.410010e+09	
80	-4.00000e+00	2.416931e+09	
81	-4.05000e+00	2.423722e+09	
82	-4.10000e+00	2.430384e+09	
83	-4.15000e+00	2.436921e+09	
84	-4.20000e+00	2.443337e+09	
85	-4.25000e+00	2.449633e+09	
86	-4.30000e+00	2.455813e+09	
87	-4.35000e+00	2.461880e+09	
88	-4.40000e+00	2.467836e+09	
89	-4.45000e+00	2.473684e+09	
90	-4.50000e+00	2.479426e+09	
91	-4.55000e+00	2.485065e+09	
92	-4.60000e+00	2.490602e+09	
93	-4.65000e+00	2.496039e+09	
94	-4.70000e+00	2.501380e+09	
95	-4.75000e+00	2.506626e+09	
96	-4.80000e+00	2.511778e+09	
97	-4.85000e+00	2.516839e+09	
98	-4.90000e+00	2.521810e+09	
99	-4.95000e+00	2.526693e+09	
100	-5.00000e+00	2.531490e+09	
101	-5.05000e+00	2.536203e+09	
102	-5.10000e+00	2.540832e+09	
103	-5.15000e+00	2.545379e+09	
104	-5.20000e+00	2.549846e+09	
105	-5.25000e+00	2.554235e+09	
106	-5.30000e+00	2.558546e+09	
107	-5.35000e+00	2.562780e+09	
108	-5.40000e+00	2.566939e+09	
109	-5.45000e+00	2.571025e+09	
110	-5.50000e+00	2.575038e+09	
111	-5.55000e+00	2.578979e+09	
112	-5.60000e+00	2.582850e+09	

Index   v-sweep         rds             
--------------------------------------------------------------------------------
113	-5.65000e+00	2.586652e+09	
114	-5.70000e+00	2.590385e+09	
115	-5.75000e+00	2.594051e+09	
116	-5.80000e+00	2.597651e+09	
117	-5.85000e+00	2.601185e+09	
118	-5.90000e+00	2.604654e+09	
119	-5.95000e+00	2.608060e+09	
120	-6.00000e+00	2.611403e+09	
121	-6.05000e+00	2.614684e+09	
122	-6.10000e+00	2.617904e+09	
123	-6.15000e+00	2.621064e+09	
124	-6.20000e+00	2.624164e+09	
125	-6.25000e+00	2.627206e+09	
126	-6.30000e+00	2.630189e+09	
127	-6.35000e+00	2.633115e+09	
128	-6.40000e+00	2.635985e+09	
129	-6.45000e+00	2.638798e+09	
130	-6.50000e+00	2.641557e+09	
131	-6.55000e+00	2.644260e+09	
132	-6.60000e+00	2.646910e+09	
Reset re-loads circuit ***************************

Circuit: ***************************

Doing analysis at TEMP = -40.000000 and TNOM = -40.000000


No. of Data Rows : 133
                          ***************************
                          DC transfer characteristic  Mon Jan  9 13:57:54  2023
--------------------------------------------------------------------------------
Index   v-sweep         rds             
--------------------------------------------------------------------------------
0	0.000000e+00	3.012951e+04	
1	-5.00000e-02	3.236277e+04	
2	-1.00000e-01	3.494745e+04	
3	-1.50000e-01	3.797328e+04	
4	-2.00000e-01	4.156322e+04	
5	-2.50000e-01	4.589017e+04	
6	-3.00000e-01	5.120488e+04	
7	-3.50000e-01	5.788434e+04	
8	-4.00000e-01	6.652022e+04	
9	-4.50000e-01	7.808957e+04	
10	-5.00000e-01	9.430542e+04	
11	-5.50000e-01	1.183820e+05	
12	-6.00000e-01	1.567792e+05	
13	-6.50000e-01	2.231028e+05	
14	-7.00000e-01	3.452107e+05	
15	-7.50000e-01	5.699146e+05	
16	-8.00000e-01	9.434293e+05	
17	-8.50000e-01	1.463395e+06	
18	-9.00000e-01	2.065551e+06	
19	-9.50000e-01	2.672404e+06	
20	-1.00000e+00	3.235944e+06	
21	-1.05000e+00	3.740162e+06	
22	-1.10000e+00	4.186737e+06	
23	-1.15000e+00	4.583575e+06	
24	-1.20000e+00	4.939322e+06	
25	-1.25000e+00	5.261468e+06	
26	-1.30000e+00	5.555997e+06	
27	-1.35000e+00	5.827555e+06	
28	-1.40000e+00	6.079728e+06	
29	-1.45000e+00	6.315303e+06	
30	-1.50000e+00	6.536470e+06	
31	-1.55000e+00	6.744975e+06	
32	-1.60000e+00	6.942229e+06	
33	-1.65000e+00	7.129392e+06	
34	-1.70000e+00	7.307431e+06	
35	-1.75000e+00	7.477161e+06	
36	-1.80000e+00	7.639279e+06	
37	-1.85000e+00	7.794388e+06	
38	-1.90000e+00	7.943011e+06	
39	-1.95000e+00	8.085612e+06	
40	-2.00000e+00	8.222601e+06	
41	-2.05000e+00	8.354343e+06	
42	-2.10000e+00	8.481168e+06	
43	-2.15000e+00	8.603374e+06	
44	-2.20000e+00	8.721231e+06	
45	-2.25000e+00	8.834985e+06	
46	-2.30000e+00	8.944862e+06	
47	-2.35000e+00	9.051070e+06	
48	-2.40000e+00	9.153800e+06	
49	-2.45000e+00	9.253228e+06	
50	-2.50000e+00	9.349518e+06	
51	-2.55000e+00	9.442824e+06	
52	-2.60000e+00	9.533286e+06	
53	-2.65000e+00	9.621037e+06	
54	-2.70000e+00	9.706201e+06	

Index   v-sweep         rds             
--------------------------------------------------------------------------------
55	-2.75000e+00	9.788893e+06	
56	-2.80000e+00	9.869223e+06	
57	-2.85000e+00	9.947291e+06	
58	-2.90000e+00	1.002320e+07	
59	-2.95000e+00	1.009702e+07	
60	-3.00000e+00	1.016886e+07	
61	-3.05000e+00	1.023880e+07	
62	-3.10000e+00	1.030689e+07	
63	-3.15000e+00	1.037323e+07	
64	-3.20000e+00	1.043787e+07	
65	-3.25000e+00	1.050089e+07	
66	-3.30000e+00	1.056234e+07	
67	-3.35000e+00	1.062228e+07	
68	-3.40000e+00	1.068076e+07	
69	-3.45000e+00	1.073784e+07	
70	-3.50000e+00	1.079357e+07	
71	-3.55000e+00	1.084800e+07	
72	-3.60000e+00	1.090116e+07	
73	-3.65000e+00	1.095311e+07	
74	-3.70000e+00	1.100389e+07	
75	-3.75000e+00	1.105352e+07	
76	-3.80000e+00	1.110206e+07	
77	-3.85000e+00	1.114954e+07	
78	-3.90000e+00	1.119598e+07	
79	-3.95000e+00	1.124143e+07	
80	-4.00000e+00	1.128592e+07	
81	-4.05000e+00	1.132946e+07	
82	-4.10000e+00	1.137210e+07	
83	-4.15000e+00	1.141386e+07	
84	-4.20000e+00	1.145477e+07	
85	-4.25000e+00	1.149485e+07	
86	-4.30000e+00	1.153412e+07	
87	-4.35000e+00	1.157261e+07	
88	-4.40000e+00	1.161034e+07	
89	-4.45000e+00	1.164733e+07	
90	-4.50000e+00	1.168360e+07	
91	-4.55000e+00	1.171917e+07	
92	-4.60000e+00	1.175407e+07	
93	-4.65000e+00	1.178829e+07	
94	-4.70000e+00	1.182187e+07	
95	-4.75000e+00	1.185482e+07	
96	-4.80000e+00	1.188716e+07	
97	-4.85000e+00	1.191890e+07	
98	-4.90000e+00	1.195005e+07	
99	-4.95000e+00	1.198063e+07	
100	-5.00000e+00	1.201065e+07	
101	-5.05000e+00	1.204013e+07	
102	-5.10000e+00	1.206908e+07	
103	-5.15000e+00	1.209751e+07	
104	-5.20000e+00	1.212542e+07	
105	-5.25000e+00	1.215284e+07	
106	-5.30000e+00	1.217977e+07	
107	-5.35000e+00	1.220623e+07	
108	-5.40000e+00	1.223221e+07	
109	-5.45000e+00	1.225774e+07	
110	-5.50000e+00	1.228282e+07	
111	-5.55000e+00	1.230746e+07	
112	-5.60000e+00	1.233166e+07	

Index   v-sweep         rds             
--------------------------------------------------------------------------------
113	-5.65000e+00	1.235544e+07	
114	-5.70000e+00	1.237880e+07	
115	-5.75000e+00	1.240176e+07	
116	-5.80000e+00	1.242431e+07	
117	-5.85000e+00	1.244647e+07	
118	-5.90000e+00	1.246824e+07	
119	-5.95000e+00	1.248963e+07	
120	-6.00000e+00	1.251064e+07	
121	-6.05000e+00	1.253129e+07	
122	-6.10000e+00	1.255157e+07	
123	-6.15000e+00	1.257149e+07	
124	-6.20000e+00	1.259106e+07	
125	-6.25000e+00	1.261029e+07	
126	-6.30000e+00	1.262917e+07	
127	-6.35000e+00	1.264771e+07	
128	-6.40000e+00	1.266593e+07	
129	-6.45000e+00	1.268381e+07	
130	-6.50000e+00	1.270138e+07	
131	-6.55000e+00	1.271862e+07	
132	-6.60000e+00	1.273556e+07	
Reset re-loads circuit ***************************

Circuit: ***************************

Doing analysis at TEMP = -40.000000 and TNOM = -40.000000


No. of Data Rows : 133
                          ***************************
                          DC transfer characteristic  Mon Jan  9 13:57:54  2023
--------------------------------------------------------------------------------
Index   v-sweep         rds             
--------------------------------------------------------------------------------
0	0.000000e+00	1.672869e+04	
1	-5.00000e-02	1.734265e+04	
2	-1.00000e-01	1.800212e+04	
3	-1.50000e-01	1.871236e+04	
4	-2.00000e-01	1.947945e+04	
5	-2.50000e-01	2.031049e+04	
6	-3.00000e-01	2.121383e+04	
7	-3.50000e-01	2.219931e+04	
8	-4.00000e-01	2.327864e+04	
9	-4.50000e-01	2.446588e+04	
10	-5.00000e-01	2.577802e+04	
11	-5.50000e-01	2.723582e+04	
12	-6.00000e-01	2.886486e+04	
13	-6.50000e-01	3.069706e+04	
14	-7.00000e-01	3.277275e+04	
15	-7.50000e-01	3.514357e+04	
16	-8.00000e-01	3.787675e+04	
17	-8.50000e-01	4.106124e+04	
18	-9.00000e-01	4.481718e+04	
19	-9.50000e-01	4.931034e+04	
20	-1.00000e+00	5.477522e+04	
21	-1.05000e+00	6.155260e+04	
22	-1.10000e+00	7.015265e+04	
23	-1.15000e+00	8.136272e+04	
24	-1.20000e+00	9.643316e+04	
25	-1.25000e+00	1.173889e+05	
26	-1.30000e+00	1.474993e+05	
27	-1.35000e+00	1.917796e+05	
28	-1.40000e+00	2.568700e+05	
29	-1.45000e+00	3.489487e+05	
30	-1.50000e+00	4.693015e+05	
31	-1.55000e+00	6.111482e+05	
32	-1.60000e+00	7.622545e+05	
33	-1.65000e+00	9.111031e+05	
34	-1.70000e+00	1.050657e+06	
35	-1.75000e+00	1.178253e+06	
36	-1.80000e+00	1.293895e+06	
37	-1.85000e+00	1.398742e+06	
38	-1.90000e+00	1.494259e+06	
39	-1.95000e+00	1.581835e+06	
40	-2.00000e+00	1.662659e+06	
41	-2.05000e+00	1.737708e+06	
42	-2.10000e+00	1.807770e+06	
43	-2.15000e+00	1.873484e+06	
44	-2.20000e+00	1.935366e+06	
45	-2.25000e+00	1.993840e+06	
46	-2.30000e+00	2.049256e+06	
47	-2.35000e+00	2.101909e+06	
48	-2.40000e+00	2.152048e+06	
49	-2.45000e+00	2.199884e+06	
50	-2.50000e+00	2.245603e+06	
51	-2.55000e+00	2.289366e+06	
52	-2.60000e+00	2.331313e+06	
53	-2.65000e+00	2.371571e+06	
54	-2.70000e+00	2.410251e+06	

Index   v-sweep         rds             
--------------------------------------------------------------------------------
55	-2.75000e+00	2.447454e+06	
56	-2.80000e+00	2.483271e+06	
57	-2.85000e+00	2.517785e+06	
58	-2.90000e+00	2.551070e+06	
59	-2.95000e+00	2.583196e+06	
60	-3.00000e+00	2.614226e+06	
61	-3.05000e+00	2.644217e+06	
62	-3.10000e+00	2.673224e+06	
63	-3.15000e+00	2.701297e+06	
64	-3.20000e+00	2.728481e+06	
65	-3.25000e+00	2.754819e+06	
66	-3.30000e+00	2.780351e+06	
67	-3.35000e+00	2.805116e+06	
68	-3.40000e+00	2.829148e+06	
69	-3.45000e+00	2.852479e+06	
70	-3.50000e+00	2.875141e+06	
71	-3.55000e+00	2.897162e+06	
72	-3.60000e+00	2.918570e+06	
73	-3.65000e+00	2.939390e+06	
74	-3.70000e+00	2.959647e+06	
75	-3.75000e+00	2.979362e+06	
76	-3.80000e+00	2.998559e+06	
77	-3.85000e+00	3.017257e+06	
78	-3.90000e+00	3.035475e+06	
79	-3.95000e+00	3.053232e+06	
80	-4.00000e+00	3.070545e+06	
81	-4.05000e+00	3.087431e+06	
82	-4.10000e+00	3.103905e+06	
83	-4.15000e+00	3.119982e+06	
84	-4.20000e+00	3.135676e+06	
85	-4.25000e+00	3.151002e+06	
86	-4.30000e+00	3.165971e+06	
87	-4.35000e+00	3.180596e+06	
88	-4.40000e+00	3.194888e+06	
89	-4.45000e+00	3.208859e+06	
90	-4.50000e+00	3.222519e+06	
91	-4.55000e+00	3.235878e+06	
92	-4.60000e+00	3.248946e+06	
93	-4.65000e+00	3.261733e+06	
94	-4.70000e+00	3.274247e+06	
95	-4.75000e+00	3.286496e+06	
96	-4.80000e+00	3.298488e+06	
97	-4.85000e+00	3.310232e+06	
98	-4.90000e+00	3.321735e+06	
99	-4.95000e+00	3.333003e+06	
100	-5.00000e+00	3.344044e+06	
101	-5.05000e+00	3.354864e+06	
102	-5.10000e+00	3.365469e+06	
103	-5.15000e+00	3.375865e+06	
104	-5.20000e+00	3.386058e+06	
105	-5.25000e+00	3.396054e+06	
106	-5.30000e+00	3.405857e+06	
107	-5.35000e+00	3.415473e+06	
108	-5.40000e+00	3.424906e+06	
109	-5.45000e+00	3.434162e+06	
110	-5.50000e+00	3.443244e+06	
111	-5.55000e+00	3.452156e+06	
112	-5.60000e+00	3.460904e+06	

Index   v-sweep         rds             
--------------------------------------------------------------------------------
113	-5.65000e+00	3.469491e+06	
114	-5.70000e+00	3.477920e+06	
115	-5.75000e+00	3.486195e+06	
116	-5.80000e+00	3.494320e+06	
117	-5.85000e+00	3.502298e+06	
118	-5.90000e+00	3.510132e+06	
119	-5.95000e+00	3.517826e+06	
120	-6.00000e+00	3.525382e+06	
121	-6.05000e+00	3.532803e+06	
122	-6.10000e+00	3.540092e+06	
123	-6.15000e+00	3.547251e+06	
124	-6.20000e+00	3.554284e+06	
125	-6.25000e+00	3.561192e+06	
126	-6.30000e+00	3.567978e+06	
127	-6.35000e+00	3.574645e+06	
128	-6.40000e+00	3.581193e+06	
129	-6.45000e+00	3.587626e+06	
130	-6.50000e+00	3.593946e+06	
131	-6.55000e+00	3.600154e+06	
132	-6.60000e+00	3.606252e+06	
Reset re-loads circuit ***************************

Circuit: ***************************

Doing analysis at TEMP = -40.000000 and TNOM = -40.000000


No. of Data Rows : 133
                          ***************************
                          DC transfer characteristic  Mon Jan  9 13:57:54  2023
--------------------------------------------------------------------------------
Index   v-sweep         rds             
--------------------------------------------------------------------------------
0	0.000000e+00	1.231579e+04	
1	-5.00000e-02	1.261608e+04	
2	-1.00000e-01	1.293084e+04	
3	-1.50000e-01	1.326113e+04	
4	-2.00000e-01	1.360813e+04	
5	-2.50000e-01	1.397314e+04	
6	-3.00000e-01	1.435759e+04	
7	-3.50000e-01	1.476310e+04	
8	-4.00000e-01	1.519142e+04	
9	-4.50000e-01	1.564454e+04	
10	-5.00000e-01	1.612468e+04	
11	-5.50000e-01	1.663432e+04	
12	-6.00000e-01	1.717627e+04	
13	-6.50000e-01	1.775370e+04	
14	-7.00000e-01	1.837020e+04	
15	-7.50000e-01	1.902988e+04	
16	-8.00000e-01	1.973742e+04	
17	-8.50000e-01	2.049823e+04	
18	-9.00000e-01	2.131854e+04	
19	-9.50000e-01	2.220559e+04	
20	-1.00000e+00	2.316786e+04	
21	-1.05000e+00	2.421531e+04	
22	-1.10000e+00	2.535973e+04	
23	-1.15000e+00	2.661518e+04	
24	-1.20000e+00	2.799857e+04	
25	-1.25000e+00	2.953036e+04	
26	-1.30000e+00	3.123563e+04	
27	-1.35000e+00	3.314535e+04	
28	-1.40000e+00	3.529820e+04	
29	-1.45000e+00	3.774313e+04	
30	-1.50000e+00	4.054286e+04	
31	-1.55000e+00	4.377892e+04	
32	-1.60000e+00	4.755899e+04	
33	-1.65000e+00	5.202758e+04	
34	-1.70000e+00	5.738216e+04	
35	-1.75000e+00	6.389717e+04	
36	-1.80000e+00	7.196034e+04	
37	-1.85000e+00	8.212616e+04	
38	-1.90000e+00	9.519025e+04	
39	-1.95000e+00	1.122786e+05	
40	-2.00000e+00	1.349123e+05	
41	-2.05000e+00	1.649376e+05	
42	-2.10000e+00	2.041279e+05	
43	-2.15000e+00	2.533463e+05	
44	-2.20000e+00	3.116235e+05	
45	-2.25000e+00	3.760049e+05	
46	-2.30000e+00	4.425722e+05	
47	-2.35000e+00	5.078667e+05	
48	-2.40000e+00	5.696859e+05	
49	-2.45000e+00	6.270639e+05	
50	-2.50000e+00	6.798657e+05	
51	-2.55000e+00	7.283836e+05	
52	-2.60000e+00	7.730689e+05	
53	-2.65000e+00	8.143928e+05	
54	-2.70000e+00	8.527857e+05	

Index   v-sweep         rds             
--------------------------------------------------------------------------------
55	-2.75000e+00	8.886187e+05	
56	-2.80000e+00	9.222040e+05	
57	-2.85000e+00	9.538018e+05	
58	-2.90000e+00	9.836288e+05	
59	-2.95000e+00	1.011866e+06	
60	-3.00000e+00	1.038667e+06	
61	-3.05000e+00	1.064162e+06	
62	-3.10000e+00	1.088463e+06	
63	-3.15000e+00	1.111665e+06	
64	-3.20000e+00	1.133854e+06	
65	-3.25000e+00	1.155104e+06	
66	-3.30000e+00	1.175480e+06	
67	-3.35000e+00	1.195043e+06	
68	-3.40000e+00	1.213843e+06	
69	-3.45000e+00	1.231930e+06	
70	-3.50000e+00	1.249345e+06	
71	-3.55000e+00	1.266129e+06	
72	-3.60000e+00	1.282317e+06	
73	-3.65000e+00	1.297943e+06	
74	-3.70000e+00	1.313035e+06	
75	-3.75000e+00	1.327624e+06	
76	-3.80000e+00	1.341733e+06	
77	-3.85000e+00	1.355388e+06	
78	-3.90000e+00	1.368611e+06	
79	-3.95000e+00	1.381423e+06	
80	-4.00000e+00	1.393842e+06	
81	-4.05000e+00	1.405887e+06	
82	-4.10000e+00	1.417575e+06	
83	-4.15000e+00	1.428922e+06	
84	-4.20000e+00	1.439943e+06	
85	-4.25000e+00	1.450652e+06	
86	-4.30000e+00	1.461063e+06	
87	-4.35000e+00	1.471186e+06	
88	-4.40000e+00	1.481035e+06	
89	-4.45000e+00	1.490621e+06	
90	-4.50000e+00	1.499954e+06	
91	-4.55000e+00	1.509043e+06	
92	-4.60000e+00	1.517899e+06	
93	-4.65000e+00	1.526530e+06	
94	-4.70000e+00	1.534945e+06	
95	-4.75000e+00	1.543152e+06	
96	-4.80000e+00	1.551158e+06	
97	-4.85000e+00	1.558971e+06	
98	-4.90000e+00	1.566597e+06	
99	-4.95000e+00	1.574043e+06	
100	-5.00000e+00	1.581316e+06	
101	-5.05000e+00	1.588421e+06	
102	-5.10000e+00	1.595364e+06	
103	-5.15000e+00	1.602150e+06	
104	-5.20000e+00	1.608785e+06	
105	-5.25000e+00	1.615274e+06	
106	-5.30000e+00	1.621621e+06	
107	-5.35000e+00	1.627830e+06	
108	-5.40000e+00	1.633907e+06	
109	-5.45000e+00	1.639855e+06	
110	-5.50000e+00	1.645678e+06	
111	-5.55000e+00	1.651380e+06	
112	-5.60000e+00	1.656964e+06	

Index   v-sweep         rds             
--------------------------------------------------------------------------------
113	-5.65000e+00	1.662435e+06	
114	-5.70000e+00	1.667794e+06	
115	-5.75000e+00	1.673046e+06	
116	-5.80000e+00	1.678193e+06	
117	-5.85000e+00	1.683239e+06	
118	-5.90000e+00	1.688186e+06	
119	-5.95000e+00	1.693037e+06	
120	-6.00000e+00	1.697794e+06	
121	-6.05000e+00	1.702459e+06	
122	-6.10000e+00	1.707036e+06	
123	-6.15000e+00	1.711526e+06	
124	-6.20000e+00	1.715932e+06	
125	-6.25000e+00	1.720256e+06	
126	-6.30000e+00	1.724499e+06	
127	-6.35000e+00	1.728664e+06	
128	-6.40000e+00	1.732752e+06	
129	-6.45000e+00	1.736765e+06	
130	-6.50000e+00	1.740705e+06	
131	-6.55000e+00	1.744573e+06	
132	-6.60000e+00	1.748372e+06	
Reset re-loads circuit ***************************

Circuit: ***************************

Doing analysis at TEMP = -40.000000 and TNOM = -40.000000


No. of Data Rows : 133
                          ***************************
                          DC transfer characteristic  Mon Jan  9 13:57:54  2023
--------------------------------------------------------------------------------
Index   v-sweep         rds             
--------------------------------------------------------------------------------
0	0.000000e+00	1.015893e+04	
1	-5.00000e-02	1.034409e+04	
2	-1.00000e-01	1.053583e+04	
3	-1.50000e-01	1.073449e+04	
4	-2.00000e-01	1.094046e+04	
5	-2.50000e-01	1.115414e+04	
6	-3.00000e-01	1.137598e+04	
7	-3.50000e-01	1.160646e+04	
8	-4.00000e-01	1.184608e+04	
9	-4.50000e-01	1.209541e+04	
10	-5.00000e-01	1.235504e+04	
11	-5.50000e-01	1.262563e+04	
12	-6.00000e-01	1.290789e+04	
13	-6.50000e-01	1.320258e+04	
14	-7.00000e-01	1.351054e+04	
15	-7.50000e-01	1.383270e+04	
16	-8.00000e-01	1.417005e+04	
17	-8.50000e-01	1.452369e+04	
18	-9.00000e-01	1.489485e+04	
19	-9.50000e-01	1.528483e+04	
20	-1.00000e+00	1.569513e+04	
21	-1.05000e+00	1.612735e+04	
22	-1.10000e+00	1.658331e+04	
23	-1.15000e+00	1.706502e+04	
24	-1.20000e+00	1.757471e+04	
25	-1.25000e+00	1.811489e+04	
26	-1.30000e+00	1.868838e+04	
27	-1.35000e+00	1.929836e+04	
28	-1.40000e+00	1.994840e+04	
29	-1.45000e+00	2.064258e+04	
30	-1.50000e+00	2.138555e+04	
31	-1.55000e+00	2.218262e+04	
32	-1.60000e+00	2.303989e+04	
33	-1.65000e+00	2.396443e+04	
34	-1.70000e+00	2.496444e+04	
35	-1.75000e+00	2.604952e+04	
36	-1.80000e+00	2.723092e+04	
37	-1.85000e+00	2.852197e+04	
38	-1.90000e+00	2.993855e+04	
39	-1.95000e+00	3.149972e+04	
40	-2.00000e+00	3.322854e+04	
41	-2.05000e+00	3.515312e+04	
42	-2.10000e+00	3.730814e+04	
43	-2.15000e+00	3.973670e+04	
44	-2.20000e+00	4.249297e+04	
45	-2.25000e+00	4.564583e+04	
46	-2.30000e+00	4.928378e+04	
47	-2.35000e+00	5.352189e+04	
48	-2.40000e+00	5.851133e+04	
49	-2.45000e+00	6.445250e+04	
50	-2.50000e+00	7.161245e+04	
51	-2.55000e+00	8.034641e+04	
52	-2.60000e+00	9.112061e+04	
53	-2.65000e+00	1.045259e+05	
54	-2.70000e+00	1.212586e+05	

Index   v-sweep         rds             
--------------------------------------------------------------------------------
55	-2.75000e+00	1.420290e+05	
56	-2.80000e+00	1.673569e+05	
57	-2.85000e+00	1.972791e+05	
58	-2.90000e+00	2.311159e+05	
59	-2.95000e+00	2.675150e+05	
60	-3.00000e+00	3.048222e+05	
61	-3.05000e+00	3.415533e+05	
62	-3.10000e+00	3.766855e+05	
63	-3.15000e+00	4.096907e+05	
64	-3.20000e+00	4.404138e+05	
65	-3.25000e+00	4.689213e+05	
66	-3.30000e+00	4.953850e+05	
67	-3.35000e+00	5.200102e+05	
68	-3.40000e+00	5.429994e+05	
69	-3.45000e+00	5.645364e+05	
70	-3.50000e+00	5.847816e+05	
71	-3.55000e+00	6.038726e+05	
72	-3.60000e+00	6.219266e+05	
73	-3.65000e+00	6.390435e+05	
74	-3.70000e+00	6.553090e+05	
75	-3.75000e+00	6.707965e+05	
76	-3.80000e+00	6.855701e+05	
77	-3.85000e+00	6.996854e+05	
78	-3.90000e+00	7.131915e+05	
79	-3.95000e+00	7.261319e+05	
80	-4.00000e+00	7.385452e+05	
81	-4.05000e+00	7.504661e+05	
82	-4.10000e+00	7.619258e+05	
83	-4.15000e+00	7.729528e+05	
84	-4.20000e+00	7.835727e+05	
85	-4.25000e+00	7.938089e+05	
86	-4.30000e+00	8.036831e+05	
87	-4.35000e+00	8.132151e+05	
88	-4.40000e+00	8.224229e+05	
89	-4.45000e+00	8.313237e+05	
90	-4.50000e+00	8.399329e+05	
91	-4.55000e+00	8.482650e+05	
92	-4.60000e+00	8.563337e+05	
93	-4.65000e+00	8.641514e+05	
94	-4.70000e+00	8.717299e+05	
95	-4.75000e+00	8.790803e+05	
96	-4.80000e+00	8.862129e+05	
97	-4.85000e+00	8.931372e+05	
98	-4.90000e+00	8.998625e+05	
99	-4.95000e+00	9.063973e+05	
100	-5.00000e+00	9.127496e+05	
101	-5.05000e+00	9.189270e+05	
102	-5.10000e+00	9.249367e+05	
103	-5.15000e+00	9.307855e+05	
104	-5.20000e+00	9.364797e+05	
105	-5.25000e+00	9.420254e+05	
106	-5.30000e+00	9.474284e+05	
107	-5.35000e+00	9.526942e+05	
108	-5.40000e+00	9.578277e+05	
109	-5.45000e+00	9.628341e+05	
110	-5.50000e+00	9.677179e+05	
111	-5.55000e+00	9.724836e+05	
112	-5.60000e+00	9.771354e+05	

Index   v-sweep         rds             
--------------------------------------------------------------------------------
113	-5.65000e+00	9.816772e+05	
114	-5.70000e+00	9.861130e+05	
115	-5.75000e+00	9.904463e+05	
116	-5.80000e+00	9.946807e+05	
117	-5.85000e+00	9.988194e+05	
118	-5.90000e+00	1.002866e+06	
119	-5.95000e+00	1.006822e+06	
120	-6.00000e+00	1.010693e+06	
121	-6.05000e+00	1.014479e+06	
122	-6.10000e+00	1.018184e+06	
123	-6.15000e+00	1.021810e+06	
124	-6.20000e+00	1.025361e+06	
125	-6.25000e+00	1.028837e+06	
126	-6.30000e+00	1.032241e+06	
127	-6.35000e+00	1.035576e+06	
128	-6.40000e+00	1.038843e+06	
129	-6.45000e+00	1.042044e+06	
130	-6.50000e+00	1.045182e+06	
131	-6.55000e+00	1.048257e+06	
132	-6.60000e+00	1.051272e+06	
Reset re-loads circuit ***************************

Circuit: ***************************

Doing analysis at TEMP = -40.000000 and TNOM = -40.000000


No. of Data Rows : 133
                          ***************************
                          DC transfer characteristic  Mon Jan  9 13:57:54  2023
--------------------------------------------------------------------------------
Index   v-sweep         rds             
--------------------------------------------------------------------------------
0	0.000000e+00	8.905331e+03	
1	-5.00000e-02	9.034646e+03	
2	-1.00000e-01	9.167576e+03	
3	-1.50000e-01	9.304273e+03	
4	-2.00000e-01	9.444901e+03	
5	-2.50000e-01	9.589631e+03	
6	-3.00000e-01	9.738646e+03	
7	-3.50000e-01	9.892138e+03	
8	-4.00000e-01	1.005031e+04	
9	-4.50000e-01	1.021339e+04	
10	-5.00000e-01	1.038159e+04	
11	-5.50000e-01	1.055517e+04	
12	-6.00000e-01	1.073439e+04	
13	-6.50000e-01	1.091953e+04	
14	-7.00000e-01	1.111088e+04	
15	-7.50000e-01	1.130877e+04	
16	-8.00000e-01	1.151353e+04	
17	-8.50000e-01	1.172552e+04	
18	-9.00000e-01	1.194515e+04	
19	-9.50000e-01	1.217282e+04	
20	-1.00000e+00	1.240899e+04	
21	-1.05000e+00	1.265415e+04	
22	-1.10000e+00	1.290880e+04	
23	-1.15000e+00	1.317353e+04	
24	-1.20000e+00	1.344893e+04	
25	-1.25000e+00	1.373566e+04	
26	-1.30000e+00	1.403444e+04	
27	-1.35000e+00	1.434605e+04	
28	-1.40000e+00	1.467132e+04	
29	-1.45000e+00	1.501117e+04	
30	-1.50000e+00	1.536661e+04	
31	-1.55000e+00	1.573873e+04	
32	-1.60000e+00	1.612874e+04	
33	-1.65000e+00	1.653794e+04	
34	-1.70000e+00	1.696780e+04	
35	-1.75000e+00	1.741991e+04	
36	-1.80000e+00	1.789605e+04	
37	-1.85000e+00	1.839818e+04	
38	-1.90000e+00	1.892848e+04	
39	-1.95000e+00	1.948938e+04	
40	-2.00000e+00	2.008361e+04	
41	-2.05000e+00	2.071422e+04	
42	-2.10000e+00	2.138463e+04	
43	-2.15000e+00	2.209874e+04	
44	-2.20000e+00	2.286094e+04	
45	-2.25000e+00	2.367623e+04	
46	-2.30000e+00	2.455032e+04	
47	-2.35000e+00	2.548979e+04	
48	-2.40000e+00	2.650219e+04	
49	-2.45000e+00	2.759629e+04	
50	-2.50000e+00	2.878231e+04	
51	-2.55000e+00	3.007223e+04	
52	-2.60000e+00	3.148013e+04	
53	-2.65000e+00	3.302274e+04	
54	-2.70000e+00	3.472004e+04	

Index   v-sweep         rds             
--------------------------------------------------------------------------------
55	-2.75000e+00	3.659603e+04	
56	-2.80000e+00	3.867980e+04	
57	-2.85000e+00	4.100685e+04	
58	-2.90000e+00	4.362084e+04	
59	-2.95000e+00	4.657594e+04	
60	-3.00000e+00	4.993981e+04	
61	-3.05000e+00	5.379756e+04	
62	-3.10000e+00	5.825686e+04	
63	-3.15000e+00	6.345418e+04	
64	-3.20000e+00	6.956220e+04	
65	-3.25000e+00	7.679717e+04	
66	-3.30000e+00	8.542374e+04	
67	-3.35000e+00	9.575152e+04	
68	-3.40000e+00	1.081136e+05	
69	-3.45000e+00	1.228139e+05	
70	-3.50000e+00	1.400367e+05	
71	-3.55000e+00	1.597334e+05	
72	-3.60000e+00	1.815393e+05	
73	-3.65000e+00	2.047909e+05	
74	-3.70000e+00	2.286644e+05	
75	-3.75000e+00	2.523708e+05	
76	-3.80000e+00	2.753063e+05	
77	-3.85000e+00	2.971030e+05	
78	-3.90000e+00	3.175985e+05	
79	-3.95000e+00	3.367722e+05	
80	-4.00000e+00	3.546849e+05	
81	-4.05000e+00	3.714341e+05	
82	-4.10000e+00	3.871280e+05	
83	-4.15000e+00	4.018716e+05	
84	-4.20000e+00	4.157608e+05	
85	-4.25000e+00	4.288802e+05	
86	-4.30000e+00	4.413034e+05	
87	-4.35000e+00	4.530946e+05	
88	-4.40000e+00	4.643090e+05	
89	-4.45000e+00	4.749947e+05	
90	-4.50000e+00	4.851940e+05	
91	-4.55000e+00	4.949438e+05	
92	-4.60000e+00	5.042767e+05	
93	-4.65000e+00	5.132219e+05	
94	-4.70000e+00	5.218054e+05	
95	-4.75000e+00	5.300506e+05	
96	-4.80000e+00	5.379786e+05	
97	-4.85000e+00	5.456086e+05	
98	-4.90000e+00	5.529581e+05	
99	-4.95000e+00	5.600431e+05	
100	-5.00000e+00	5.668782e+05	
101	-5.05000e+00	5.734770e+05	
102	-5.10000e+00	5.798521e+05	
103	-5.15000e+00	5.860148e+05	
104	-5.20000e+00	5.919760e+05	
105	-5.25000e+00	5.977456e+05	
106	-5.30000e+00	6.033329e+05	
107	-5.35000e+00	6.087465e+05	
108	-5.40000e+00	6.139946e+05	
109	-5.45000e+00	6.190847e+05	
110	-5.50000e+00	6.240240e+05	
111	-5.55000e+00	6.288191e+05	
112	-5.60000e+00	6.334763e+05	

Index   v-sweep         rds             
--------------------------------------------------------------------------------
113	-5.65000e+00	6.380014e+05	
114	-5.70000e+00	6.424002e+05	
115	-5.75000e+00	6.466777e+05	
116	-5.80000e+00	6.508391e+05	
117	-5.85000e+00	6.548888e+05	
118	-5.90000e+00	6.588315e+05	
119	-5.95000e+00	6.626712e+05	
120	-6.00000e+00	6.664120e+05	
121	-6.05000e+00	6.700576e+05	
122	-6.10000e+00	6.736117e+05	
123	-6.15000e+00	6.770775e+05	
124	-6.20000e+00	6.804583e+05	
125	-6.25000e+00	6.837573e+05	
126	-6.30000e+00	6.869772e+05	
127	-6.35000e+00	6.901210e+05	
128	-6.40000e+00	6.931912e+05	
129	-6.45000e+00	6.961904e+05	
130	-6.50000e+00	6.991210e+05	
131	-6.55000e+00	7.019853e+05	
132	-6.60000e+00	7.047854e+05	
Reset re-loads circuit ***************************

Circuit: ***************************

Note: No ".plot", ".print", or ".fourier" lines; no simulations run
