
Note: Compatibility modes selected: hs

Warning: m=xx on .subckt line will override multiplier m hierarchy!


Circuit: ***************************

Doing analysis at TEMP = 125.000000 and TNOM = 125.000000


No. of Data Rows : 133
                          ***************************
                          DC transfer characteristic  Mon Jan  9 13:57:55  2023
--------------------------------------------------------------------------------
Index   v-sweep         rds             
--------------------------------------------------------------------------------
0	0.000000e+00	8.068023e+06	
1	-5.00000e-02	1.063207e+07	
2	-1.00000e-01	1.546251e+07	
3	-1.50000e-01	2.694898e+07	
4	-2.00000e-01	6.398258e+07	
5	-2.50000e-01	1.976266e+08	
6	-3.00000e-01	5.668887e+08	
7	-3.50000e-01	1.263653e+09	
8	-4.00000e-01	2.219813e+09	
9	-4.50000e-01	3.261143e+09	
10	-5.00000e-01	4.237119e+09	
11	-5.50000e-01	5.077638e+09	
12	-6.00000e-01	5.774004e+09	
13	-6.50000e-01	6.344944e+09	
14	-7.00000e-01	6.815453e+09	
15	-7.50000e-01	7.208129e+09	
16	-8.00000e-01	7.540957e+09	
17	-8.50000e-01	7.827533e+09	
18	-9.00000e-01	8.077953e+09	
19	-9.50000e-01	8.299695e+09	
20	-1.00000e+00	8.498331e+09	
21	-1.05000e+00	8.678059e+09	
22	-1.10000e+00	8.842079e+09	
23	-1.15000e+00	8.992866e+09	
24	-1.20000e+00	9.132361e+09	
25	-1.25000e+00	9.262106e+09	
26	-1.30000e+00	9.383344e+09	
27	-1.35000e+00	9.497089e+09	
28	-1.40000e+00	9.604178e+09	
29	-1.45000e+00	9.705309e+09	
30	-1.50000e+00	9.801073e+09	
31	-1.55000e+00	9.891970e+09	
32	-1.60000e+00	9.978432e+09	
33	-1.65000e+00	1.006083e+10	
34	-1.70000e+00	1.013950e+10	
35	-1.75000e+00	1.021472e+10	
36	-1.80000e+00	1.028675e+10	
37	-1.85000e+00	1.035581e+10	
38	-1.90000e+00	1.042210e+10	
39	-1.95000e+00	1.048581e+10	
40	-2.00000e+00	1.054709e+10	
41	-2.05000e+00	1.060611e+10	
42	-2.10000e+00	1.066298e+10	
43	-2.15000e+00	1.071785e+10	
44	-2.20000e+00	1.077081e+10	
45	-2.25000e+00	1.082198e+10	
46	-2.30000e+00	1.087145e+10	
47	-2.35000e+00	1.091930e+10	
48	-2.40000e+00	1.096563e+10	
49	-2.45000e+00	1.101050e+10	
50	-2.50000e+00	1.105398e+10	
51	-2.55000e+00	1.109615e+10	
52	-2.60000e+00	1.113706e+10	
53	-2.65000e+00	1.117678e+10	
54	-2.70000e+00	1.121534e+10	

Index   v-sweep         rds             
--------------------------------------------------------------------------------
55	-2.75000e+00	1.125282e+10	
56	-2.80000e+00	1.128924e+10	
57	-2.85000e+00	1.132466e+10	
58	-2.90000e+00	1.135912e+10	
59	-2.95000e+00	1.139266e+10	
60	-3.00000e+00	1.142531e+10	
61	-3.05000e+00	1.145712e+10	
62	-3.10000e+00	1.148810e+10	
63	-3.15000e+00	1.151831e+10	
64	-3.20000e+00	1.154775e+10	
65	-3.25000e+00	1.157647e+10	
66	-3.30000e+00	1.160449e+10	
67	-3.35000e+00	1.163184e+10	
68	-3.40000e+00	1.165853e+10	
69	-3.45000e+00	1.168459e+10	
70	-3.50000e+00	1.171005e+10	
71	-3.55000e+00	1.173492e+10	
72	-3.60000e+00	1.175923e+10	
73	-3.65000e+00	1.178299e+10	
74	-3.70000e+00	1.180622e+10	
75	-3.75000e+00	1.182894e+10	
76	-3.80000e+00	1.185116e+10	
77	-3.85000e+00	1.187290e+10	
78	-3.90000e+00	1.189418e+10	
79	-3.95000e+00	1.191500e+10	
80	-4.00000e+00	1.193539e+10	
81	-4.05000e+00	1.195535e+10	
82	-4.10000e+00	1.197490e+10	
83	-4.15000e+00	1.199405e+10	
84	-4.20000e+00	1.201280e+10	
85	-4.25000e+00	1.203118e+10	
86	-4.30000e+00	1.204919e+10	
87	-4.35000e+00	1.206685e+10	
88	-4.40000e+00	1.208415e+10	
89	-4.45000e+00	1.210111e+10	
90	-4.50000e+00	1.211774e+10	
91	-4.55000e+00	1.213405e+10	
92	-4.60000e+00	1.215005e+10	
93	-4.65000e+00	1.216573e+10	
94	-4.70000e+00	1.218112e+10	
95	-4.75000e+00	1.219622e+10	
96	-4.80000e+00	1.221102e+10	
97	-4.85000e+00	1.222555e+10	
98	-4.90000e+00	1.223981e+10	
99	-4.95000e+00	1.225380e+10	
100	-5.00000e+00	1.226753e+10	
101	-5.05000e+00	1.228100e+10	
102	-5.10000e+00	1.229422e+10	
103	-5.15000e+00	1.230720e+10	
104	-5.20000e+00	1.231994e+10	
105	-5.25000e+00	1.233244e+10	
106	-5.30000e+00	1.234471e+10	
107	-5.35000e+00	1.235676e+10	
108	-5.40000e+00	1.236858e+10	
109	-5.45000e+00	1.238019e+10	
110	-5.50000e+00	1.239158e+10	
111	-5.55000e+00	1.240276e+10	
112	-5.60000e+00	1.241374e+10	

Index   v-sweep         rds             
--------------------------------------------------------------------------------
113	-5.65000e+00	1.242451e+10	
114	-5.70000e+00	1.243509e+10	
115	-5.75000e+00	1.244547e+10	
116	-5.80000e+00	1.245566e+10	
117	-5.85000e+00	1.246565e+10	
118	-5.90000e+00	1.247547e+10	
119	-5.95000e+00	1.248510e+10	
120	-6.00000e+00	1.249455e+10	
121	-6.05000e+00	1.250382e+10	
122	-6.10000e+00	1.251292e+10	
123	-6.15000e+00	1.252185e+10	
124	-6.20000e+00	1.253060e+10	
125	-6.25000e+00	1.253919e+10	
126	-6.30000e+00	1.254762e+10	
127	-6.35000e+00	1.255589e+10	
128	-6.40000e+00	1.256399e+10	
129	-6.45000e+00	1.257194e+10	
130	-6.50000e+00	1.257973e+10	
131	-6.55000e+00	1.258737e+10	
132	-6.60000e+00	1.259486e+10	
Reset re-loads circuit ***************************

Circuit: ***************************

Doing analysis at TEMP = 125.000000 and TNOM = 125.000000


No. of Data Rows : 133
                          ***************************
                          DC transfer characteristic  Mon Jan  9 13:57:55  2023
--------------------------------------------------------------------------------
Index   v-sweep         rds             
--------------------------------------------------------------------------------
0	0.000000e+00	1.620161e+06	
1	-5.00000e-02	1.715596e+06	
2	-1.00000e-01	1.822946e+06	
3	-1.50000e-01	1.944584e+06	
4	-2.00000e-01	2.083559e+06	
5	-2.50000e-01	2.243849e+06	
6	-3.00000e-01	2.430744e+06	
7	-3.50000e-01	2.651425e+06	
8	-4.00000e-01	2.915888e+06	
9	-4.50000e-01	3.238442e+06	
10	-5.00000e-01	3.640264e+06	
11	-5.50000e-01	4.153935e+06	
12	-6.00000e-01	4.831903e+06	
13	-6.50000e-01	5.763158e+06	
14	-7.00000e-01	7.107849e+06	
15	-7.50000e-01	9.172079e+06	
16	-8.00000e-01	1.256954e+07	
17	-8.50000e-01	1.853583e+07	
18	-9.00000e-01	2.934024e+07	
19	-9.50000e-01	4.819956e+07	
20	-1.00000e+00	7.764833e+07	
21	-1.05000e+00	1.169617e+08	
22	-1.10000e+00	1.616796e+08	
23	-1.15000e+00	2.062288e+08	
24	-1.20000e+00	2.466870e+08	
25	-1.25000e+00	2.814806e+08	
26	-1.30000e+00	3.106510e+08	
27	-1.35000e+00	3.349555e+08	
28	-1.40000e+00	3.553097e+08	
29	-1.45000e+00	3.725430e+08	
30	-1.50000e+00	3.873295e+08	
31	-1.55000e+00	4.001916e+08	
32	-1.60000e+00	4.115257e+08	
33	-1.65000e+00	4.216319e+08	
34	-1.70000e+00	4.307377e+08	
35	-1.75000e+00	4.390169e+08	
36	-1.80000e+00	4.466040e+08	
37	-1.85000e+00	4.536039e+08	
38	-1.90000e+00	4.600999e+08	
39	-1.95000e+00	4.661584e+08	
40	-2.00000e+00	4.718337e+08	
41	-2.05000e+00	4.771699e+08	
42	-2.10000e+00	4.822040e+08	
43	-2.15000e+00	4.869667e+08	
44	-2.20000e+00	4.914842e+08	
45	-2.25000e+00	4.957788e+08	
46	-2.30000e+00	4.998699e+08	
47	-2.35000e+00	5.037741e+08	
48	-2.40000e+00	5.075061e+08	
49	-2.45000e+00	5.110788e+08	
50	-2.50000e+00	5.145037e+08	
51	-2.55000e+00	5.177910e+08	
52	-2.60000e+00	5.209498e+08	
53	-2.65000e+00	5.239884e+08	
54	-2.70000e+00	5.269142e+08	

Index   v-sweep         rds             
--------------------------------------------------------------------------------
55	-2.75000e+00	5.297341e+08	
56	-2.80000e+00	5.324541e+08	
57	-2.85000e+00	5.350799e+08	
58	-2.90000e+00	5.376168e+08	
59	-2.95000e+00	5.400695e+08	
60	-3.00000e+00	5.424423e+08	
61	-3.05000e+00	5.447394e+08	
62	-3.10000e+00	5.469645e+08	
63	-3.15000e+00	5.491211e+08	
64	-3.20000e+00	5.512125e+08	
65	-3.25000e+00	5.532418e+08	
66	-3.30000e+00	5.552117e+08	
67	-3.35000e+00	5.571250e+08	
68	-3.40000e+00	5.589841e+08	
69	-3.45000e+00	5.607914e+08	
70	-3.50000e+00	5.625491e+08	
71	-3.55000e+00	5.642592e+08	
72	-3.60000e+00	5.659237e+08	
73	-3.65000e+00	5.675445e+08	
74	-3.70000e+00	5.691232e+08	
75	-3.75000e+00	5.706615e+08	
76	-3.80000e+00	5.721610e+08	
77	-3.85000e+00	5.736232e+08	
78	-3.90000e+00	5.750493e+08	
79	-3.95000e+00	5.764409e+08	
80	-4.00000e+00	5.777990e+08	
81	-4.05000e+00	5.791249e+08	
82	-4.10000e+00	5.804197e+08	
83	-4.15000e+00	5.816846e+08	
84	-4.20000e+00	5.829205e+08	
85	-4.25000e+00	5.841283e+08	
86	-4.30000e+00	5.853092e+08	
87	-4.35000e+00	5.864638e+08	
88	-4.40000e+00	5.875931e+08	
89	-4.45000e+00	5.886978e+08	
90	-4.50000e+00	5.897788e+08	
91	-4.55000e+00	5.908367e+08	
92	-4.60000e+00	5.918723e+08	
93	-4.65000e+00	5.928862e+08	
94	-4.70000e+00	5.938791e+08	
95	-4.75000e+00	5.948516e+08	
96	-4.80000e+00	5.958042e+08	
97	-4.85000e+00	5.967376e+08	
98	-4.90000e+00	5.976522e+08	
99	-4.95000e+00	5.985486e+08	
100	-5.00000e+00	5.994272e+08	
101	-5.05000e+00	6.002886e+08	
102	-5.10000e+00	6.011332e+08	
103	-5.15000e+00	6.019613e+08	
104	-5.20000e+00	6.027736e+08	
105	-5.25000e+00	6.035702e+08	
106	-5.30000e+00	6.043516e+08	
107	-5.35000e+00	6.051182e+08	
108	-5.40000e+00	6.058703e+08	
109	-5.45000e+00	6.066083e+08	
110	-5.50000e+00	6.073325e+08	
111	-5.55000e+00	6.080431e+08	
112	-5.60000e+00	6.087406e+08	

Index   v-sweep         rds             
--------------------------------------------------------------------------------
113	-5.65000e+00	6.094251e+08	
114	-5.70000e+00	6.100970e+08	
115	-5.75000e+00	6.107565e+08	
116	-5.80000e+00	6.114038e+08	
117	-5.85000e+00	6.120393e+08	
118	-5.90000e+00	6.126632e+08	
119	-5.95000e+00	6.132756e+08	
120	-6.00000e+00	6.138769e+08	
121	-6.05000e+00	6.144671e+08	
122	-6.10000e+00	6.150466e+08	
123	-6.15000e+00	6.156155e+08	
124	-6.20000e+00	6.161741e+08	
125	-6.25000e+00	6.167224e+08	
126	-6.30000e+00	6.172607e+08	
127	-6.35000e+00	6.177892e+08	
128	-6.40000e+00	6.183080e+08	
129	-6.45000e+00	6.188173e+08	
130	-6.50000e+00	6.193172e+08	
131	-6.55000e+00	6.198079e+08	
132	-6.60000e+00	6.202896e+08	
Reset re-loads circuit ***************************

Circuit: ***************************

Doing analysis at TEMP = 125.000000 and TNOM = 125.000000


No. of Data Rows : 133
                          ***************************
                          DC transfer characteristic  Mon Jan  9 13:57:55  2023
--------------------------------------------------------------------------------
Index   v-sweep         rds             
--------------------------------------------------------------------------------
0	0.000000e+00	9.337846e+05	
1	-5.00000e-02	9.637972e+05	
2	-1.00000e-01	9.957971e+05	
3	-1.50000e-01	1.029988e+06	
4	-2.00000e-01	1.066604e+06	
5	-2.50000e-01	1.105911e+06	
6	-3.00000e-01	1.148217e+06	
7	-3.50000e-01	1.193879e+06	
8	-4.00000e-01	1.243312e+06	
9	-4.50000e-01	1.297003e+06	
10	-5.00000e-01	1.355525e+06	
11	-5.50000e-01	1.419560e+06	
12	-6.00000e-01	1.489923e+06	
13	-6.50000e-01	1.567600e+06	
14	-7.00000e-01	1.653790e+06	
15	-7.50000e-01	1.749965e+06	
16	-8.00000e-01	1.857962e+06	
17	-8.50000e-01	1.980088e+06	
18	-9.00000e-01	2.119289e+06	
19	-9.50000e-01	2.279381e+06	
20	-1.00000e+00	2.465389e+06	
21	-1.05000e+00	2.684060e+06	
22	-1.10000e+00	2.944642e+06	
23	-1.15000e+00	3.260115e+06	
24	-1.20000e+00	3.649185e+06	
25	-1.25000e+00	4.139594e+06	
26	-1.30000e+00	4.773785e+06	
27	-1.35000e+00	5.618729e+06	
28	-1.40000e+00	6.783046e+06	
29	-1.45000e+00	8.445737e+06	
30	-1.50000e+00	1.089890e+07	
31	-1.55000e+00	1.459134e+07	
32	-1.60000e+00	2.011546e+07	
33	-1.65000e+00	2.802821e+07	
34	-1.70000e+00	3.847417e+07	
35	-1.75000e+00	5.087335e+07	
36	-1.80000e+00	6.406186e+07	
37	-1.85000e+00	7.682921e+07	
38	-1.90000e+00	8.836742e+07	
39	-1.95000e+00	9.835994e+07	
40	-2.00000e+00	1.068334e+08	
41	-2.05000e+00	1.139773e+08	
42	-2.10000e+00	1.200233e+08	
43	-2.15000e+00	1.251873e+08	
44	-2.20000e+00	1.296498e+08	
45	-2.25000e+00	1.335536e+08	
46	-2.30000e+00	1.370095e+08	
47	-2.35000e+00	1.401024e+08	
48	-2.40000e+00	1.428979e+08	
49	-2.45000e+00	1.454463e+08	
50	-2.50000e+00	1.477869e+08	
51	-2.55000e+00	1.499508e+08	
52	-2.60000e+00	1.519624e+08	
53	-2.65000e+00	1.538416e+08	
54	-2.70000e+00	1.556045e+08	

Index   v-sweep         rds             
--------------------------------------------------------------------------------
55	-2.75000e+00	1.572643e+08	
56	-2.80000e+00	1.588321e+08	
57	-2.85000e+00	1.603172e+08	
58	-2.90000e+00	1.617274e+08	
59	-2.95000e+00	1.630694e+08	
60	-3.00000e+00	1.643490e+08	
61	-3.05000e+00	1.655713e+08	
62	-3.10000e+00	1.667407e+08	
63	-3.15000e+00	1.678611e+08	
64	-3.20000e+00	1.689361e+08	
65	-3.25000e+00	1.699686e+08	
66	-3.30000e+00	1.709614e+08	
67	-3.35000e+00	1.719172e+08	
68	-3.40000e+00	1.728380e+08	
69	-3.45000e+00	1.737261e+08	
70	-3.50000e+00	1.745832e+08	
71	-3.55000e+00	1.754112e+08	
72	-3.60000e+00	1.762115e+08	
73	-3.65000e+00	1.769856e+08	
74	-3.70000e+00	1.777350e+08	
75	-3.75000e+00	1.784607e+08	
76	-3.80000e+00	1.791641e+08	
77	-3.85000e+00	1.798461e+08	
78	-3.90000e+00	1.805078e+08	
79	-3.95000e+00	1.811501e+08	
80	-4.00000e+00	1.817738e+08	
81	-4.05000e+00	1.823799e+08	
82	-4.10000e+00	1.829690e+08	
83	-4.15000e+00	1.835419e+08	
84	-4.20000e+00	1.840993e+08	
85	-4.25000e+00	1.846417e+08	
86	-4.30000e+00	1.851699e+08	
87	-4.35000e+00	1.856844e+08	
88	-4.40000e+00	1.861856e+08	
89	-4.45000e+00	1.866742e+08	
90	-4.50000e+00	1.871506e+08	
91	-4.55000e+00	1.876153e+08	
92	-4.60000e+00	1.880686e+08	
93	-4.65000e+00	1.885111e+08	
94	-4.70000e+00	1.889430e+08	
95	-4.75000e+00	1.893648e+08	
96	-4.80000e+00	1.897768e+08	
97	-4.85000e+00	1.901794e+08	
98	-4.90000e+00	1.905728e+08	
99	-4.95000e+00	1.909575e+08	
100	-5.00000e+00	1.913335e+08	
101	-5.05000e+00	1.917013e+08	
102	-5.10000e+00	1.920612e+08	
103	-5.15000e+00	1.924132e+08	
104	-5.20000e+00	1.927578e+08	
105	-5.25000e+00	1.930951e+08	
106	-5.30000e+00	1.934253e+08	
107	-5.35000e+00	1.937487e+08	
108	-5.40000e+00	1.940654e+08	
109	-5.45000e+00	1.943756e+08	
110	-5.50000e+00	1.946796e+08	
111	-5.55000e+00	1.949775e+08	
112	-5.60000e+00	1.952694e+08	

Index   v-sweep         rds             
--------------------------------------------------------------------------------
113	-5.65000e+00	1.955556e+08	
114	-5.70000e+00	1.958361e+08	
115	-5.75000e+00	1.961112e+08	
116	-5.80000e+00	1.963810e+08	
117	-5.85000e+00	1.966455e+08	
118	-5.90000e+00	1.969050e+08	
119	-5.95000e+00	1.971595e+08	
120	-6.00000e+00	1.974092e+08	
121	-6.05000e+00	1.976542e+08	
122	-6.10000e+00	1.978946e+08	
123	-6.15000e+00	1.981305e+08	
124	-6.20000e+00	1.983620e+08	
125	-6.25000e+00	1.985893e+08	
126	-6.30000e+00	1.988123e+08	
127	-6.35000e+00	1.990312e+08	
128	-6.40000e+00	1.992461e+08	
129	-6.45000e+00	1.994570e+08	
130	-6.50000e+00	1.996641e+08	
131	-6.55000e+00	1.998674e+08	
132	-6.60000e+00	2.000670e+08	
Reset re-loads circuit ***************************

Circuit: ***************************

Doing analysis at TEMP = 125.000000 and TNOM = 125.000000


No. of Data Rows : 133
                          ***************************
                          DC transfer characteristic  Mon Jan  9 13:57:55  2023
--------------------------------------------------------------------------------
Index   v-sweep         rds             
--------------------------------------------------------------------------------
0	0.000000e+00	6.668904e+05	
1	-5.00000e-02	6.815221e+05	
2	-1.00000e-01	6.968077e+05	
3	-1.50000e-01	7.127922e+05	
4	-2.00000e-01	7.295245e+05	
5	-2.50000e-01	7.470584e+05	
6	-3.00000e-01	7.654528e+05	
7	-3.50000e-01	7.847727e+05	
8	-4.00000e-01	8.050897e+05	
9	-4.50000e-01	8.264829e+05	
10	-5.00000e-01	8.490402e+05	
11	-5.50000e-01	8.728591e+05	
12	-6.00000e-01	8.980485e+05	
13	-6.50000e-01	9.247300e+05	
14	-7.00000e-01	9.530402e+05	
15	-7.50000e-01	9.831327e+05	
16	-8.00000e-01	1.015181e+06	
17	-8.50000e-01	1.049382e+06	
18	-9.00000e-01	1.085960e+06	
19	-9.50000e-01	1.125171e+06	
20	-1.00000e+00	1.167310e+06	
21	-1.05000e+00	1.212716e+06	
22	-1.10000e+00	1.261784e+06	
23	-1.15000e+00	1.314974e+06	
24	-1.20000e+00	1.372827e+06	
25	-1.25000e+00	1.435981e+06	
26	-1.30000e+00	1.505198e+06	
27	-1.35000e+00	1.581388e+06	
28	-1.40000e+00	1.665655e+06	
29	-1.45000e+00	1.759347e+06	
30	-1.50000e+00	1.864122e+06	
31	-1.55000e+00	1.982051e+06	
32	-1.60000e+00	2.115741e+06	
33	-1.65000e+00	2.268525e+06	
34	-1.70000e+00	2.444722e+06	
35	-1.75000e+00	2.650016e+06	
36	-1.80000e+00	2.892016e+06	
37	-1.85000e+00	3.181092e+06	
38	-1.90000e+00	3.531656e+06	
39	-1.95000e+00	3.964127e+06	
40	-2.00000e+00	4.507987e+06	
41	-2.05000e+00	5.206461e+06	
42	-2.10000e+00	6.123438e+06	
43	-2.15000e+00	7.352696e+06	
44	-2.20000e+00	9.027248e+06	
45	-2.25000e+00	1.132065e+07	
46	-2.30000e+00	1.442256e+07	
47	-2.35000e+00	1.846885e+07	
48	-2.40000e+00	2.343671e+07	
49	-2.45000e+00	2.907728e+07	
50	-2.50000e+00	3.496948e+07	
51	-2.55000e+00	4.067681e+07	
52	-2.60000e+00	4.588840e+07	
53	-2.65000e+00	5.046243e+07	
54	-2.70000e+00	5.438958e+07	

Index   v-sweep         rds             
--------------------------------------------------------------------------------
55	-2.75000e+00	5.773347e+07	
56	-2.80000e+00	6.058390e+07	
57	-2.85000e+00	6.303045e+07	
58	-2.90000e+00	6.515126e+07	
59	-2.95000e+00	6.701021e+07	
60	-3.00000e+00	6.865787e+07	
61	-3.05000e+00	7.013367e+07	
62	-3.10000e+00	7.146825e+07	
63	-3.15000e+00	7.268541e+07	
64	-3.20000e+00	7.380382e+07	
65	-3.25000e+00	7.483818e+07	
66	-3.30000e+00	7.580021e+07	
67	-3.35000e+00	7.669935e+07	
68	-3.40000e+00	7.754328e+07	
69	-3.45000e+00	7.833830e+07	
70	-3.50000e+00	7.908965e+07	
71	-3.55000e+00	7.980174e+07	
72	-3.60000e+00	8.047830e+07	
73	-3.65000e+00	8.112251e+07	
74	-3.70000e+00	8.173713e+07	
75	-3.75000e+00	8.232454e+07	
76	-3.80000e+00	8.288684e+07	
77	-3.85000e+00	8.342586e+07	
78	-3.90000e+00	8.394326e+07	
79	-3.95000e+00	8.444049e+07	
80	-4.00000e+00	8.491885e+07	
81	-4.05000e+00	8.537954e+07	
82	-4.10000e+00	8.582361e+07	
83	-4.15000e+00	8.625206e+07	
84	-4.20000e+00	8.666575e+07	
85	-4.25000e+00	8.706551e+07	
86	-4.30000e+00	8.745208e+07	
87	-4.35000e+00	8.782615e+07	
88	-4.40000e+00	8.818836e+07	
89	-4.45000e+00	8.853930e+07	
90	-4.50000e+00	8.887952e+07	
91	-4.55000e+00	8.920951e+07	
92	-4.60000e+00	8.952977e+07	
93	-4.65000e+00	8.984072e+07	
94	-4.70000e+00	9.014280e+07	
95	-4.75000e+00	9.043638e+07	
96	-4.80000e+00	9.072183e+07	
97	-4.85000e+00	9.099950e+07	
98	-4.90000e+00	9.126970e+07	
99	-4.95000e+00	9.153274e+07	
100	-5.00000e+00	9.178892e+07	
101	-5.05000e+00	9.203849e+07	
102	-5.10000e+00	9.228172e+07	
103	-5.15000e+00	9.251884e+07	
104	-5.20000e+00	9.275009e+07	
105	-5.25000e+00	9.297569e+07	
106	-5.30000e+00	9.319584e+07	
107	-5.35000e+00	9.341074e+07	
108	-5.40000e+00	9.362057e+07	
109	-5.45000e+00	9.382552e+07	
110	-5.50000e+00	9.402574e+07	
111	-5.55000e+00	9.422140e+07	
112	-5.60000e+00	9.441266e+07	

Index   v-sweep         rds             
--------------------------------------------------------------------------------
113	-5.65000e+00	9.459965e+07	
114	-5.70000e+00	9.478252e+07	
115	-5.75000e+00	9.496139e+07	
116	-5.80000e+00	9.513641e+07	
117	-5.85000e+00	9.530768e+07	
118	-5.90000e+00	9.547531e+07	
119	-5.95000e+00	9.563943e+07	
120	-6.00000e+00	9.580014e+07	
121	-6.05000e+00	9.595753e+07	
122	-6.10000e+00	9.611170e+07	
123	-6.15000e+00	9.626274e+07	
124	-6.20000e+00	9.641075e+07	
125	-6.25000e+00	9.655580e+07	
126	-6.30000e+00	9.669798e+07	
127	-6.35000e+00	9.683736e+07	
128	-6.40000e+00	9.697401e+07	
129	-6.45000e+00	9.710802e+07	
130	-6.50000e+00	9.723944e+07	
131	-6.55000e+00	9.736834e+07	
132	-6.60000e+00	9.749479e+07	
Reset re-loads circuit ***************************

Circuit: ***************************

Doing analysis at TEMP = 125.000000 and TNOM = 125.000000


No. of Data Rows : 133
                          ***************************
                          DC transfer characteristic  Mon Jan  9 13:57:55  2023
--------------------------------------------------------------------------------
Index   v-sweep         rds             
--------------------------------------------------------------------------------
0	0.000000e+00	5.228428e+05	
1	-5.00000e-02	5.315011e+05	
2	-1.00000e-01	5.404496e+05	
3	-1.50000e-01	5.497033e+05	
4	-2.00000e-01	5.592779e+05	
5	-2.50000e-01	5.691904e+05	
6	-3.00000e-01	5.794592e+05	
7	-3.50000e-01	5.901036e+05	
8	-4.00000e-01	6.011447e+05	
9	-4.50000e-01	6.126051e+05	
10	-5.00000e-01	6.245092e+05	
11	-5.50000e-01	6.368832e+05	
12	-6.00000e-01	6.497554e+05	
13	-6.50000e-01	6.631565e+05	
14	-7.00000e-01	6.771200e+05	
15	-7.50000e-01	6.916817e+05	
16	-8.00000e-01	7.068811e+05	
17	-8.50000e-01	7.227609e+05	
18	-9.00000e-01	7.393679e+05	
19	-9.50000e-01	7.567531e+05	
20	-1.00000e+00	7.749725e+05	
21	-1.05000e+00	7.940875e+05	
22	-1.10000e+00	8.141658e+05	
23	-1.15000e+00	8.352821e+05	
24	-1.20000e+00	8.575188e+05	
25	-1.25000e+00	8.809675e+05	
26	-1.30000e+00	9.057299e+05	
27	-1.35000e+00	9.319194e+05	
28	-1.40000e+00	9.596629e+05	
29	-1.45000e+00	9.891026e+05	
30	-1.50000e+00	1.020399e+06	
31	-1.55000e+00	1.053732e+06	
32	-1.60000e+00	1.089308e+06	
33	-1.65000e+00	1.127360e+06	
34	-1.70000e+00	1.168155e+06	
35	-1.75000e+00	1.211999e+06	
36	-1.80000e+00	1.259247e+06	
37	-1.85000e+00	1.310310e+06	
38	-1.90000e+00	1.365664e+06	
39	-1.95000e+00	1.425874e+06	
40	-2.00000e+00	1.491602e+06	
41	-2.05000e+00	1.563636e+06	
42	-2.10000e+00	1.642923e+06	
43	-2.15000e+00	1.730601e+06	
44	-2.20000e+00	1.828062e+06	
45	-2.25000e+00	1.937011e+06	
46	-2.30000e+00	2.059567e+06	
47	-2.35000e+00	2.198392e+06	
48	-2.40000e+00	2.356859e+06	
49	-2.45000e+00	2.539306e+06	
50	-2.50000e+00	2.751379e+06	
51	-2.55000e+00	3.000526e+06	
52	-2.60000e+00	3.296704e+06	
53	-2.65000e+00	3.653393e+06	
54	-2.70000e+00	4.089032e+06	

Index   v-sweep         rds             
--------------------------------------------------------------------------------
55	-2.75000e+00	4.629003e+06	
56	-2.80000e+00	5.308171e+06	
57	-2.85000e+00	6.173667e+06	
58	-2.90000e+00	7.286653e+06	
59	-2.95000e+00	8.720081e+06	
60	-3.00000e+00	1.054729e+07	
61	-3.05000e+00	1.281670e+07	
62	-3.10000e+00	1.551618e+07	
63	-3.15000e+00	1.854693e+07	
64	-3.20000e+00	2.173378e+07	
65	-3.25000e+00	2.487624e+07	
66	-3.30000e+00	2.780910e+07	
67	-3.35000e+00	3.043600e+07	
68	-3.40000e+00	3.272755e+07	
69	-3.45000e+00	3.469990e+07	
70	-3.50000e+00	3.639165e+07	
71	-3.55000e+00	3.784761e+07	
72	-3.60000e+00	3.911014e+07	
73	-3.65000e+00	4.021556e+07	
74	-3.70000e+00	4.119356e+07	
75	-3.75000e+00	4.206774e+07	
76	-3.80000e+00	4.285666e+07	
77	-3.85000e+00	4.357486e+07	
78	-3.90000e+00	4.423376e+07	
79	-3.95000e+00	4.484238e+07	
80	-4.00000e+00	4.540788e+07	
81	-4.05000e+00	4.593601e+07	
82	-4.10000e+00	4.643145e+07	
83	-4.15000e+00	4.689801e+07	
84	-4.20000e+00	4.733885e+07	
85	-4.25000e+00	4.775662e+07	
86	-4.30000e+00	4.815354e+07	
87	-4.35000e+00	4.853150e+07	
88	-4.40000e+00	4.889215e+07	
89	-4.45000e+00	4.923689e+07	
90	-4.50000e+00	4.956695e+07	
91	-4.55000e+00	4.988343e+07	
92	-4.60000e+00	5.018727e+07	
93	-4.65000e+00	5.047934e+07	
94	-4.70000e+00	5.076040e+07	
95	-4.75000e+00	5.103114e+07	
96	-4.80000e+00	5.129219e+07	
97	-4.85000e+00	5.154410e+07	
98	-4.90000e+00	5.178741e+07	
99	-4.95000e+00	5.202257e+07	
100	-5.00000e+00	5.225002e+07	
101	-5.05000e+00	5.247018e+07	
102	-5.10000e+00	5.268339e+07	
103	-5.15000e+00	5.289001e+07	
104	-5.20000e+00	5.309036e+07	
105	-5.25000e+00	5.328473e+07	
106	-5.30000e+00	5.347340e+07	
107	-5.35000e+00	5.365662e+07	
108	-5.40000e+00	5.383464e+07	
109	-5.45000e+00	5.400768e+07	
110	-5.50000e+00	5.417596e+07	
111	-5.55000e+00	5.433967e+07	
112	-5.60000e+00	5.449901e+07	

Index   v-sweep         rds             
--------------------------------------------------------------------------------
113	-5.65000e+00	5.465414e+07	
114	-5.70000e+00	5.480525e+07	
115	-5.75000e+00	5.495248e+07	
116	-5.80000e+00	5.509598e+07	
117	-5.85000e+00	5.523590e+07	
118	-5.90000e+00	5.537238e+07	
119	-5.95000e+00	5.550553e+07	
120	-6.00000e+00	5.563548e+07	
121	-6.05000e+00	5.576234e+07	
122	-6.10000e+00	5.588622e+07	
123	-6.15000e+00	5.600723e+07	
124	-6.20000e+00	5.612546e+07	
125	-6.25000e+00	5.624102e+07	
126	-6.30000e+00	5.635397e+07	
127	-6.35000e+00	5.646442e+07	
128	-6.40000e+00	5.657245e+07	
129	-6.45000e+00	5.667812e+07	
130	-6.50000e+00	5.678152e+07	
131	-6.55000e+00	5.688272e+07	
132	-6.60000e+00	5.698178e+07	
Reset re-loads circuit ***************************

Circuit: ***************************

Doing analysis at TEMP = 125.000000 and TNOM = 125.000000


No. of Data Rows : 133
                          ***************************
                          DC transfer characteristic  Mon Jan  9 13:57:55  2023
--------------------------------------------------------------------------------
Index   v-sweep         rds             
--------------------------------------------------------------------------------
0	0.000000e+00	4.315445e+05	
1	-5.00000e-02	4.372564e+05	
2	-1.00000e-01	4.431207e+05	
3	-1.50000e-01	4.491436e+05	
4	-2.00000e-01	4.553316e+05	
5	-2.50000e-01	4.616915e+05	
6	-3.00000e-01	4.682308e+05	
7	-3.50000e-01	4.749569e+05	
8	-4.00000e-01	4.818781e+05	
9	-4.50000e-01	4.890030e+05	
10	-5.00000e-01	4.963407e+05	
11	-5.50000e-01	5.039009e+05	
12	-6.00000e-01	5.116938e+05	
13	-6.50000e-01	5.197304e+05	
14	-7.00000e-01	5.280222e+05	
15	-7.50000e-01	5.365816e+05	
16	-8.00000e-01	5.454218e+05	
17	-8.50000e-01	5.545568e+05	
18	-9.00000e-01	5.640016e+05	
19	-9.50000e-01	5.737723e+05	
20	-1.00000e+00	5.838859e+05	
21	-1.05000e+00	5.943609e+05	
22	-1.10000e+00	6.052170e+05	
23	-1.15000e+00	6.164753e+05	
24	-1.20000e+00	6.281585e+05	
25	-1.25000e+00	6.402913e+05	
26	-1.30000e+00	6.529001e+05	
27	-1.35000e+00	6.660133e+05	
28	-1.40000e+00	6.796619e+05	
29	-1.45000e+00	6.938793e+05	
30	-1.50000e+00	7.087017e+05	
31	-1.55000e+00	7.241687e+05	
32	-1.60000e+00	7.403231e+05	
33	-1.65000e+00	7.572118e+05	
34	-1.70000e+00	7.748860e+05	
35	-1.75000e+00	7.934016e+05	
36	-1.80000e+00	8.128201e+05	
37	-1.85000e+00	8.332091e+05	
38	-1.90000e+00	8.546432e+05	
39	-1.95000e+00	8.772047e+05	
40	-2.00000e+00	9.009846e+05	
41	-2.05000e+00	9.260844e+05	
42	-2.10000e+00	9.526166e+05	
43	-2.15000e+00	9.807073e+05	
44	-2.20000e+00	1.010497e+06	
45	-2.25000e+00	1.042146e+06	
46	-2.30000e+00	1.075831e+06	
47	-2.35000e+00	1.111755e+06	
48	-2.40000e+00	1.150148e+06	
49	-2.45000e+00	1.191273e+06	
50	-2.50000e+00	1.235430e+06	
51	-2.55000e+00	1.282966e+06	
52	-2.60000e+00	1.334280e+06	
53	-2.65000e+00	1.389838e+06	
54	-2.70000e+00	1.450184e+06	

Index   v-sweep         rds             
--------------------------------------------------------------------------------
55	-2.75000e+00	1.515958e+06	
56	-2.80000e+00	1.587918e+06	
57	-2.85000e+00	1.666968e+06	
58	-2.90000e+00	1.754190e+06	
59	-2.95000e+00	1.850895e+06	
60	-3.00000e+00	1.958683e+06	
61	-3.05000e+00	2.079519e+06	
62	-3.10000e+00	2.215843e+06	
63	-3.15000e+00	2.370714e+06	
64	-3.20000e+00	2.548000e+06	
65	-3.25000e+00	2.752642e+06	
66	-3.30000e+00	2.991010e+06	
67	-3.35000e+00	3.271380e+06	
68	-3.40000e+00	3.604568e+06	
69	-3.45000e+00	4.004732e+06	
70	-3.50000e+00	4.490301e+06	
71	-3.55000e+00	5.084870e+06	
72	-3.60000e+00	5.817559e+06	
73	-3.65000e+00	6.721889e+06	
74	-3.70000e+00	7.831554e+06	
75	-3.75000e+00	9.171488e+06	
76	-3.80000e+00	1.074440e+07	
77	-3.85000e+00	1.251753e+07	
78	-3.90000e+00	1.441894e+07	
79	-3.95000e+00	1.635054e+07	
80	-4.00000e+00	1.821376e+07	
81	-4.05000e+00	1.993372e+07	
82	-4.10000e+00	2.147009e+07	
83	-4.15000e+00	2.281379e+07	
84	-4.20000e+00	2.397661e+07	
85	-4.25000e+00	2.498060e+07	
86	-4.30000e+00	2.585052e+07	
87	-4.35000e+00	2.660973e+07	
88	-4.40000e+00	2.727838e+07	
89	-4.45000e+00	2.787309e+07	
90	-4.50000e+00	2.840719e+07	
91	-4.55000e+00	2.889124e+07	
92	-4.60000e+00	2.933359e+07	
93	-4.65000e+00	2.974081e+07	
94	-4.70000e+00	3.011813e+07	
95	-4.75000e+00	3.046973e+07	
96	-4.80000e+00	3.079895e+07	
97	-4.85000e+00	3.110854e+07	
98	-4.90000e+00	3.140072e+07	
99	-4.95000e+00	3.167737e+07	
100	-5.00000e+00	3.194004e+07	
101	-5.05000e+00	3.219004e+07	
102	-5.10000e+00	3.242849e+07	
103	-5.15000e+00	3.265637e+07	
104	-5.20000e+00	3.287451e+07	
105	-5.25000e+00	3.308364e+07	
106	-5.30000e+00	3.328441e+07	
107	-5.35000e+00	3.347740e+07	
108	-5.40000e+00	3.366312e+07	
109	-5.45000e+00	3.384202e+07	
110	-5.50000e+00	3.401453e+07	
111	-5.55000e+00	3.418101e+07	
112	-5.60000e+00	3.434181e+07	

Index   v-sweep         rds             
--------------------------------------------------------------------------------
113	-5.65000e+00	3.449724e+07	
114	-5.70000e+00	3.464759e+07	
115	-5.75000e+00	3.479312e+07	
116	-5.80000e+00	3.493408e+07	
117	-5.85000e+00	3.507069e+07	
118	-5.90000e+00	3.520316e+07	
119	-5.95000e+00	3.533169e+07	
120	-6.00000e+00	3.545646e+07	
121	-6.05000e+00	3.557763e+07	
122	-6.10000e+00	3.569537e+07	
123	-6.15000e+00	3.580982e+07	
124	-6.20000e+00	3.592113e+07	
125	-6.25000e+00	3.602943e+07	
126	-6.30000e+00	3.613483e+07	
127	-6.35000e+00	3.623747e+07	
128	-6.40000e+00	3.633744e+07	
129	-6.45000e+00	3.643485e+07	
130	-6.50000e+00	3.652979e+07	
131	-6.55000e+00	3.662237e+07	
132	-6.60000e+00	3.671268e+07	
Reset re-loads circuit ***************************

Circuit: ***************************

Note: No ".plot", ".print", or ".fourier" lines; no simulations run
