
Note: Compatibility modes selected: hs

Warning: m=xx on .subckt line will override multiplier m hierarchy!


Circuit: ***************************

Doing analysis at TEMP = 25.000000 and TNOM = 25.000000


No. of Data Rows : 133
                          ***************************
                          DC transfer characteristic  Mon Jan  9 13:57:54  2023
--------------------------------------------------------------------------------
Index   v-sweep         rds             
--------------------------------------------------------------------------------
0	0.000000e+00	2.355830e+04	
1	-5.00000e-02	3.472619e+04	
2	-1.00000e-01	6.212217e+04	
3	-1.50000e-01	1.537379e+05	
4	-2.00000e-01	4.144747e+05	
5	-2.50000e-01	7.427877e+05	
6	-3.00000e-01	9.672337e+05	
7	-3.50000e-01	1.106657e+06	
8	-4.00000e-01	1.203446e+06	
9	-4.50000e-01	1.278549e+06	
10	-5.00000e-01	1.341180e+06	
11	-5.50000e-01	1.395665e+06	
12	-6.00000e-01	1.444247e+06	
13	-6.50000e-01	1.488219e+06	
14	-7.00000e-01	1.528397e+06	
15	-7.50000e-01	1.565344e+06	
16	-8.00000e-01	1.599472e+06	
17	-8.50000e-01	1.631098e+06	
18	-9.00000e-01	1.660481e+06	
19	-9.50000e-01	1.687833e+06	
20	-1.00000e+00	1.713336e+06	
21	-1.05000e+00	1.737146e+06	
22	-1.10000e+00	1.759400e+06	
23	-1.15000e+00	1.780221e+06	
24	-1.20000e+00	1.799716e+06	
25	-1.25000e+00	1.817982e+06	
26	-1.30000e+00	1.835107e+06	
27	-1.35000e+00	1.851171e+06	
28	-1.40000e+00	1.866244e+06	
29	-1.45000e+00	1.880394e+06	
30	-1.50000e+00	1.893680e+06	
31	-1.55000e+00	1.906158e+06	
32	-1.60000e+00	1.917877e+06	
33	-1.65000e+00	1.928886e+06	
34	-1.70000e+00	1.939226e+06	
35	-1.75000e+00	1.948937e+06	
36	-1.80000e+00	1.958057e+06	
37	-1.85000e+00	1.966620e+06	
38	-1.90000e+00	1.974656e+06	
39	-1.95000e+00	1.982196e+06	
40	-2.00000e+00	1.989267e+06	
41	-2.05000e+00	1.995895e+06	
42	-2.10000e+00	2.002103e+06	
43	-2.15000e+00	2.007913e+06	
44	-2.20000e+00	2.013347e+06	
45	-2.25000e+00	2.018423e+06	
46	-2.30000e+00	2.023161e+06	
47	-2.35000e+00	2.027576e+06	
48	-2.40000e+00	2.031686e+06	
49	-2.45000e+00	2.035505e+06	
50	-2.50000e+00	2.039048e+06	
51	-2.55000e+00	2.042327e+06	
52	-2.60000e+00	2.045355e+06	
53	-2.65000e+00	2.048145e+06	
54	-2.70000e+00	2.050707e+06	

Index   v-sweep         rds             
--------------------------------------------------------------------------------
55	-2.75000e+00	2.053052e+06	
56	-2.80000e+00	2.055189e+06	
57	-2.85000e+00	2.057129e+06	
58	-2.90000e+00	2.058880e+06	
59	-2.95000e+00	2.060451e+06	
60	-3.00000e+00	2.061848e+06	
61	-3.05000e+00	2.063081e+06	
62	-3.10000e+00	2.064156e+06	
63	-3.15000e+00	2.065080e+06	
64	-3.20000e+00	2.065860e+06	
65	-3.25000e+00	2.066500e+06	
66	-3.30000e+00	2.067009e+06	
67	-3.35000e+00	2.067389e+06	
68	-3.40000e+00	2.067648e+06	
69	-3.45000e+00	2.067790e+06	
70	-3.50000e+00	2.067820e+06	
71	-3.55000e+00	2.067742e+06	
72	-3.60000e+00	2.067560e+06	
73	-3.65000e+00	2.067279e+06	
74	-3.70000e+00	2.066902e+06	
75	-3.75000e+00	2.066434e+06	
76	-3.80000e+00	2.065877e+06	
77	-3.85000e+00	2.065235e+06	
78	-3.90000e+00	2.064511e+06	
79	-3.95000e+00	2.063709e+06	
80	-4.00000e+00	2.062831e+06	
81	-4.05000e+00	2.061880e+06	
82	-4.10000e+00	2.060858e+06	
83	-4.15000e+00	2.059768e+06	
84	-4.20000e+00	2.058613e+06	
85	-4.25000e+00	2.057395e+06	
86	-4.30000e+00	2.056116e+06	
87	-4.35000e+00	2.054777e+06	
88	-4.40000e+00	2.053382e+06	
89	-4.45000e+00	2.051932e+06	
90	-4.50000e+00	2.050428e+06	
91	-4.55000e+00	2.048874e+06	
92	-4.60000e+00	2.047269e+06	
93	-4.65000e+00	2.045616e+06	
94	-4.70000e+00	2.043916e+06	
95	-4.75000e+00	2.042171e+06	
96	-4.80000e+00	2.040382e+06	
97	-4.85000e+00	2.038551e+06	
98	-4.90000e+00	2.036678e+06	
99	-4.95000e+00	2.034765e+06	
100	-5.00000e+00	2.032814e+06	
101	-5.05000e+00	2.030824e+06	
102	-5.10000e+00	2.028798e+06	
103	-5.15000e+00	2.026736e+06	
104	-5.20000e+00	2.024639e+06	
105	-5.25000e+00	2.022509e+06	
106	-5.30000e+00	2.020346e+06	
107	-5.35000e+00	2.018150e+06	
108	-5.40000e+00	2.015923e+06	
109	-5.45000e+00	2.013666e+06	
110	-5.50000e+00	2.011379e+06	
111	-5.55000e+00	2.009064e+06	
112	-5.60000e+00	2.006720e+06	

Index   v-sweep         rds             
--------------------------------------------------------------------------------
113	-5.65000e+00	2.004348e+06	
114	-5.70000e+00	2.001950e+06	
115	-5.75000e+00	1.999525e+06	
116	-5.80000e+00	1.997075e+06	
117	-5.85000e+00	1.994599e+06	
118	-5.90000e+00	1.992099e+06	
119	-5.95000e+00	1.989575e+06	
120	-6.00000e+00	1.987027e+06	
121	-6.05000e+00	1.984457e+06	
122	-6.10000e+00	1.981863e+06	
123	-6.15000e+00	1.979248e+06	
124	-6.20000e+00	1.976612e+06	
125	-6.25000e+00	1.973954e+06	
126	-6.30000e+00	1.971275e+06	
127	-6.35000e+00	1.968577e+06	
128	-6.40000e+00	1.965858e+06	
129	-6.45000e+00	1.963120e+06	
130	-6.50000e+00	1.960363e+06	
131	-6.55000e+00	1.957587e+06	
132	-6.60000e+00	1.954792e+06	
Reset re-loads circuit ***************************

Circuit: ***************************

Doing analysis at TEMP = 25.000000 and TNOM = 25.000000


No. of Data Rows : 133
                          ***************************
                          DC transfer characteristic  Mon Jan  9 13:57:54  2023
--------------------------------------------------------------------------------
Index   v-sweep         rds             
--------------------------------------------------------------------------------
0	0.000000e+00	3.506586e+03	
1	-5.00000e-02	3.731196e+03	
2	-1.00000e-01	3.982736e+03	
3	-1.50000e-01	4.266337e+03	
4	-2.00000e-01	4.588514e+03	
5	-2.50000e-01	4.957664e+03	
6	-3.00000e-01	5.384791e+03	
7	-3.50000e-01	5.884588e+03	
8	-4.00000e-01	6.477085e+03	
9	-4.50000e-01	7.190245e+03	
10	-5.00000e-01	8.064131e+03	
11	-5.50000e-01	9.157760e+03	
12	-6.00000e-01	1.056050e+04	
13	-6.50000e-01	1.241045e+04	
14	-7.00000e-01	1.492051e+04	
15	-7.50000e-01	1.839722e+04	
16	-8.00000e-01	2.318316e+04	
17	-8.50000e-01	2.939106e+04	
18	-9.00000e-01	3.655133e+04	
19	-9.50000e-01	4.381296e+04	
20	-1.00000e+00	5.060489e+04	
21	-1.05000e+00	5.681224e+04	
22	-1.10000e+00	6.252926e+04	
23	-1.15000e+00	6.787447e+04	
24	-1.20000e+00	7.293723e+04	
25	-1.25000e+00	7.777691e+04	
26	-1.30000e+00	8.243208e+04	
27	-1.35000e+00	8.692829e+04	
28	-1.40000e+00	9.128308e+04	
29	-1.45000e+00	9.550906e+04	
30	-1.50000e+00	9.961572e+04	
31	-1.55000e+00	1.036105e+05	
32	-1.60000e+00	1.074995e+05	
33	-1.65000e+00	1.112879e+05	
34	-1.70000e+00	1.149801e+05	
35	-1.75000e+00	1.185801e+05	
36	-1.80000e+00	1.220915e+05	
37	-1.85000e+00	1.255176e+05	
38	-1.90000e+00	1.288615e+05	
39	-1.95000e+00	1.321259e+05	
40	-2.00000e+00	1.353137e+05	
41	-2.05000e+00	1.384272e+05	
42	-2.10000e+00	1.414688e+05	
43	-2.15000e+00	1.444410e+05	
44	-2.20000e+00	1.473458e+05	
45	-2.25000e+00	1.501852e+05	
46	-2.30000e+00	1.529614e+05	
47	-2.35000e+00	1.556761e+05	
48	-2.40000e+00	1.583312e+05	
49	-2.45000e+00	1.609285e+05	
50	-2.50000e+00	1.634696e+05	
51	-2.55000e+00	1.659561e+05	
52	-2.60000e+00	1.683897e+05	
53	-2.65000e+00	1.707717e+05	
54	-2.70000e+00	1.731037e+05	

Index   v-sweep         rds             
--------------------------------------------------------------------------------
55	-2.75000e+00	1.753870e+05	
56	-2.80000e+00	1.776229e+05	
57	-2.85000e+00	1.798128e+05	
58	-2.90000e+00	1.819579e+05	
59	-2.95000e+00	1.840594e+05	
60	-3.00000e+00	1.861184e+05	
61	-3.05000e+00	1.881361e+05	
62	-3.10000e+00	1.901136e+05	
63	-3.15000e+00	1.920519e+05	
64	-3.20000e+00	1.939520e+05	
65	-3.25000e+00	1.958148e+05	
66	-3.30000e+00	1.976414e+05	
67	-3.35000e+00	1.994327e+05	
68	-3.40000e+00	2.011895e+05	
69	-3.45000e+00	2.029127e+05	
70	-3.50000e+00	2.046030e+05	
71	-3.55000e+00	2.062614e+05	
72	-3.60000e+00	2.078886e+05	
73	-3.65000e+00	2.094853e+05	
74	-3.70000e+00	2.110523e+05	
75	-3.75000e+00	2.125902e+05	
76	-3.80000e+00	2.140997e+05	
77	-3.85000e+00	2.155816e+05	
78	-3.90000e+00	2.170363e+05	
79	-3.95000e+00	2.184646e+05	
80	-4.00000e+00	2.198670e+05	
81	-4.05000e+00	2.212441e+05	
82	-4.10000e+00	2.225965e+05	
83	-4.15000e+00	2.239247e+05	
84	-4.20000e+00	2.252291e+05	
85	-4.25000e+00	2.265104e+05	
86	-4.30000e+00	2.277689e+05	
87	-4.35000e+00	2.290052e+05	
88	-4.40000e+00	2.302197e+05	
89	-4.45000e+00	2.314128e+05	
90	-4.50000e+00	2.325850e+05	
91	-4.55000e+00	2.337366e+05	
92	-4.60000e+00	2.348681e+05	
93	-4.65000e+00	2.359797e+05	
94	-4.70000e+00	2.370719e+05	
95	-4.75000e+00	2.381451e+05	
96	-4.80000e+00	2.391994e+05	
97	-4.85000e+00	2.402353e+05	
98	-4.90000e+00	2.412531e+05	
99	-4.95000e+00	2.422530e+05	
100	-5.00000e+00	2.432354e+05	
101	-5.05000e+00	2.442005e+05	
102	-5.10000e+00	2.451485e+05	
103	-5.15000e+00	2.460797e+05	
104	-5.20000e+00	2.469944e+05	
105	-5.25000e+00	2.478928e+05	
106	-5.30000e+00	2.487751e+05	
107	-5.35000e+00	2.496414e+05	
108	-5.40000e+00	2.504921e+05	
109	-5.45000e+00	2.513273e+05	
110	-5.50000e+00	2.521471e+05	
111	-5.55000e+00	2.529518e+05	
112	-5.60000e+00	2.537415e+05	

Index   v-sweep         rds             
--------------------------------------------------------------------------------
113	-5.65000e+00	2.545164e+05	
114	-5.70000e+00	2.552766e+05	
115	-5.75000e+00	2.560223e+05	
116	-5.80000e+00	2.567536e+05	
117	-5.85000e+00	2.574707e+05	
118	-5.90000e+00	2.581736e+05	
119	-5.95000e+00	2.588626e+05	
120	-6.00000e+00	2.595376e+05	
121	-6.05000e+00	2.601989e+05	
122	-6.10000e+00	2.608466e+05	
123	-6.15000e+00	2.614807e+05	
124	-6.20000e+00	2.621013e+05	
125	-6.25000e+00	2.627086e+05	
126	-6.30000e+00	2.633026e+05	
127	-6.35000e+00	2.638835e+05	
128	-6.40000e+00	2.644512e+05	
129	-6.45000e+00	2.650060e+05	
130	-6.50000e+00	2.655478e+05	
131	-6.55000e+00	2.660768e+05	
132	-6.60000e+00	2.665930e+05	
Reset re-loads circuit ***************************

Circuit: ***************************

Doing analysis at TEMP = 25.000000 and TNOM = 25.000000


No. of Data Rows : 133
                          ***************************
                          DC transfer characteristic  Mon Jan  9 13:57:54  2023
--------------------------------------------------------------------------------
Index   v-sweep         rds             
--------------------------------------------------------------------------------
0	0.000000e+00	2.160056e+03	
1	-5.00000e-02	2.240483e+03	
2	-1.00000e-01	2.326036e+03	
3	-1.50000e-01	2.417219e+03	
4	-2.00000e-01	2.514603e+03	
5	-2.50000e-01	2.618839e+03	
6	-3.00000e-01	2.730673e+03	
7	-3.50000e-01	2.850964e+03	
8	-4.00000e-01	2.980704e+03	
9	-4.50000e-01	3.121045e+03	
10	-5.00000e-01	3.273336e+03	
11	-5.50000e-01	3.439162e+03	
12	-6.00000e-01	3.620401e+03	
13	-6.50000e-01	3.819292e+03	
14	-7.00000e-01	4.038528e+03	
15	-7.50000e-01	4.281371e+03	
16	-8.00000e-01	4.551813e+03	
17	-8.50000e-01	4.854781e+03	
18	-9.00000e-01	5.196426e+03	
19	-9.50000e-01	5.584504e+03	
20	-1.00000e+00	6.028907e+03	
21	-1.05000e+00	6.542380e+03	
22	-1.10000e+00	7.141494e+03	
23	-1.15000e+00	7.847887e+03	
24	-1.20000e+00	8.689669e+03	
25	-1.25000e+00	9.702473e+03	
26	-1.30000e+00	1.092856e+04	
27	-1.35000e+00	1.241060e+04	
28	-1.40000e+00	1.417589e+04	
29	-1.45000e+00	1.621319e+04	
30	-1.50000e+00	1.846140e+04	
31	-1.55000e+00	2.083048e+04	
32	-1.60000e+00	2.323961e+04	
33	-1.65000e+00	2.563753e+04	
34	-1.70000e+00	2.799915e+04	
35	-1.75000e+00	3.031462e+04	
36	-1.80000e+00	3.258111e+04	
37	-1.85000e+00	3.479867e+04	
38	-1.90000e+00	3.696835e+04	
39	-1.95000e+00	3.909152e+04	
40	-2.00000e+00	4.116956e+04	
41	-2.05000e+00	4.320384e+04	
42	-2.10000e+00	4.519566e+04	
43	-2.15000e+00	4.714624e+04	
44	-2.20000e+00	4.905675e+04	
45	-2.25000e+00	5.092833e+04	
46	-2.30000e+00	5.276203e+04	
47	-2.35000e+00	5.455890e+04	
48	-2.40000e+00	5.631992e+04	
49	-2.45000e+00	5.804606e+04	
50	-2.50000e+00	5.973824e+04	
51	-2.55000e+00	6.139736e+04	
52	-2.60000e+00	6.302428e+04	
53	-2.65000e+00	6.461984e+04	
54	-2.70000e+00	6.618485e+04	

Index   v-sweep         rds             
--------------------------------------------------------------------------------
55	-2.75000e+00	6.772010e+04	
56	-2.80000e+00	6.922634e+04	
57	-2.85000e+00	7.070431e+04	
58	-2.90000e+00	7.215473e+04	
59	-2.95000e+00	7.357827e+04	
60	-3.00000e+00	7.497562e+04	
61	-3.05000e+00	7.634741e+04	
62	-3.10000e+00	7.769428e+04	
63	-3.15000e+00	7.901684e+04	
64	-3.20000e+00	8.031567e+04	
65	-3.25000e+00	8.159135e+04	
66	-3.30000e+00	8.284443e+04	
67	-3.35000e+00	8.407546e+04	
68	-3.40000e+00	8.528494e+04	
69	-3.45000e+00	8.647339e+04	
70	-3.50000e+00	8.764130e+04	
71	-3.55000e+00	8.878915e+04	
72	-3.60000e+00	8.991740e+04	
73	-3.65000e+00	9.102649e+04	
74	-3.70000e+00	9.211687e+04	
75	-3.75000e+00	9.318895e+04	
76	-3.80000e+00	9.424316e+04	
77	-3.85000e+00	9.527988e+04	
78	-3.90000e+00	9.629950e+04	
79	-3.95000e+00	9.730241e+04	
80	-4.00000e+00	9.828896e+04	
81	-4.05000e+00	9.925952e+04	
82	-4.10000e+00	1.002144e+05	
83	-4.15000e+00	1.011540e+05	
84	-4.20000e+00	1.020786e+05	
85	-4.25000e+00	1.029885e+05	
86	-4.30000e+00	1.038840e+05	
87	-4.35000e+00	1.047654e+05	
88	-4.40000e+00	1.056331e+05	
89	-4.45000e+00	1.064872e+05	
90	-4.50000e+00	1.073281e+05	
91	-4.55000e+00	1.081560e+05	
92	-4.60000e+00	1.089712e+05	
93	-4.65000e+00	1.097739e+05	
94	-4.70000e+00	1.105644e+05	
95	-4.75000e+00	1.113428e+05	
96	-4.80000e+00	1.121095e+05	
97	-4.85000e+00	1.128645e+05	
98	-4.90000e+00	1.136082e+05	
99	-4.95000e+00	1.143407e+05	
100	-5.00000e+00	1.150622e+05	
101	-5.05000e+00	1.157729e+05	
102	-5.10000e+00	1.164730e+05	
103	-5.15000e+00	1.171627e+05	
104	-5.20000e+00	1.178420e+05	
105	-5.25000e+00	1.185112e+05	
106	-5.30000e+00	1.191704e+05	
107	-5.35000e+00	1.198198e+05	
108	-5.40000e+00	1.204595e+05	
109	-5.45000e+00	1.210896e+05	
110	-5.50000e+00	1.217102e+05	
111	-5.55000e+00	1.223215e+05	
112	-5.60000e+00	1.229236e+05	

Index   v-sweep         rds             
--------------------------------------------------------------------------------
113	-5.65000e+00	1.235166e+05	
114	-5.70000e+00	1.241006e+05	
115	-5.75000e+00	1.246757e+05	
116	-5.80000e+00	1.252419e+05	
117	-5.85000e+00	1.257994e+05	
118	-5.90000e+00	1.263483e+05	
119	-5.95000e+00	1.268886e+05	
120	-6.00000e+00	1.274204e+05	
121	-6.05000e+00	1.279438e+05	
122	-6.10000e+00	1.284588e+05	
123	-6.15000e+00	1.289655e+05	
124	-6.20000e+00	1.294639e+05	
125	-6.25000e+00	1.299542e+05	
126	-6.30000e+00	1.304363e+05	
127	-6.35000e+00	1.309103e+05	
128	-6.40000e+00	1.313763e+05	
129	-6.45000e+00	1.318342e+05	
130	-6.50000e+00	1.322842e+05	
131	-6.55000e+00	1.327262e+05	
132	-6.60000e+00	1.331604e+05	
Reset re-loads circuit ***************************

Circuit: ***************************

Doing analysis at TEMP = 25.000000 and TNOM = 25.000000


No. of Data Rows : 133
                          ***************************
                          DC transfer characteristic  Mon Jan  9 13:57:54  2023
--------------------------------------------------------------------------------
Index   v-sweep         rds             
--------------------------------------------------------------------------------
0	0.000000e+00	1.666027e+03	
1	-5.00000e-02	1.711151e+03	
2	-1.00000e-01	1.758255e+03	
3	-1.50000e-01	1.807469e+03	
4	-2.00000e-01	1.858938e+03	
5	-2.50000e-01	1.912820e+03	
6	-3.00000e-01	1.969287e+03	
7	-3.50000e-01	2.028528e+03	
8	-4.00000e-01	2.090751e+03	
9	-4.50000e-01	2.156186e+03	
10	-5.00000e-01	2.225087e+03	
11	-5.50000e-01	2.297735e+03	
12	-6.00000e-01	2.374442e+03	
13	-6.50000e-01	2.455556e+03	
14	-7.00000e-01	2.541466e+03	
15	-7.50000e-01	2.632609e+03	
16	-8.00000e-01	2.729473e+03	
17	-8.50000e-01	2.832614e+03	
18	-9.00000e-01	2.942657e+03	
19	-9.50000e-01	3.060316e+03	
20	-1.00000e+00	3.186404e+03	
21	-1.05000e+00	3.321854e+03	
22	-1.10000e+00	3.467744e+03	
23	-1.15000e+00	3.625317e+03	
24	-1.20000e+00	3.796024e+03	
25	-1.25000e+00	3.981564e+03	
26	-1.30000e+00	4.183933e+03	
27	-1.35000e+00	4.405501e+03	
28	-1.40000e+00	4.649090e+03	
29	-1.45000e+00	4.918088e+03	
30	-1.50000e+00	5.216588e+03	
31	-1.55000e+00	5.549562e+03	
32	-1.60000e+00	5.923083e+03	
33	-1.65000e+00	6.344587e+03	
34	-1.70000e+00	6.823163e+03	
35	-1.75000e+00	7.369818e+03	
36	-1.80000e+00	7.997544e+03	
37	-1.85000e+00	8.720870e+03	
38	-1.90000e+00	9.554297e+03	
39	-1.95000e+00	1.050903e+04	
40	-2.00000e+00	1.158826e+04	
41	-2.05000e+00	1.278324e+04	
42	-2.10000e+00	1.407365e+04	
43	-2.15000e+00	1.543295e+04	
44	-2.20000e+00	1.683503e+04	
45	-2.25000e+00	1.825849e+04	
46	-2.30000e+00	1.968765e+04	
47	-2.35000e+00	2.111182e+04	
48	-2.40000e+00	2.252395e+04	
49	-2.45000e+00	2.391953e+04	
50	-2.50000e+00	2.529570e+04	
51	-2.55000e+00	2.665072e+04	
52	-2.60000e+00	2.798357e+04	
53	-2.65000e+00	2.929372e+04	
54	-2.70000e+00	3.058096e+04	

Index   v-sweep         rds             
--------------------------------------------------------------------------------
55	-2.75000e+00	3.184529e+04	
56	-2.80000e+00	3.308686e+04	
57	-2.85000e+00	3.430594e+04	
58	-2.90000e+00	3.550284e+04	
59	-2.95000e+00	3.667795e+04	
60	-3.00000e+00	3.783165e+04	
61	-3.05000e+00	3.896437e+04	
62	-3.10000e+00	4.007655e+04	
63	-3.15000e+00	4.116863e+04	
64	-3.20000e+00	4.224103e+04	
65	-3.25000e+00	4.329420e+04	
66	-3.30000e+00	4.432857e+04	
67	-3.35000e+00	4.534457e+04	
68	-3.40000e+00	4.634261e+04	
69	-3.45000e+00	4.732311e+04	
70	-3.50000e+00	4.828647e+04	
71	-3.55000e+00	4.923309e+04	
72	-3.60000e+00	5.016334e+04	
73	-3.65000e+00	5.107761e+04	
74	-3.70000e+00	5.197625e+04	
75	-3.75000e+00	5.285963e+04	
76	-3.80000e+00	5.372810e+04	
77	-3.85000e+00	5.458198e+04	
78	-3.90000e+00	5.542162e+04	
79	-3.95000e+00	5.624733e+04	
80	-4.00000e+00	5.705942e+04	
81	-4.05000e+00	5.785820e+04	
82	-4.10000e+00	5.864395e+04	
83	-4.15000e+00	5.941698e+04	
84	-4.20000e+00	6.017755e+04	
85	-4.25000e+00	6.092594e+04	
86	-4.30000e+00	6.166242e+04	
87	-4.35000e+00	6.238723e+04	
88	-4.40000e+00	6.310064e+04	
89	-4.45000e+00	6.380288e+04	
90	-4.50000e+00	6.449418e+04	
91	-4.55000e+00	6.517479e+04	
92	-4.60000e+00	6.584492e+04	
93	-4.65000e+00	6.650479e+04	
94	-4.70000e+00	6.715461e+04	
95	-4.75000e+00	6.779458e+04	
96	-4.80000e+00	6.842491e+04	
97	-4.85000e+00	6.904578e+04	
98	-4.90000e+00	6.965739e+04	
99	-4.95000e+00	7.025991e+04	
100	-5.00000e+00	7.085353e+04	
101	-5.05000e+00	7.143841e+04	
102	-5.10000e+00	7.201471e+04	
103	-5.15000e+00	7.258261e+04	
104	-5.20000e+00	7.314225e+04	
105	-5.25000e+00	7.369378e+04	
106	-5.30000e+00	7.423735e+04	
107	-5.35000e+00	7.477309e+04	
108	-5.40000e+00	7.530115e+04	
109	-5.45000e+00	7.582164e+04	
110	-5.50000e+00	7.633470e+04	
111	-5.55000e+00	7.684045e+04	
112	-5.60000e+00	7.733899e+04	

Index   v-sweep         rds             
--------------------------------------------------------------------------------
113	-5.65000e+00	7.783044e+04	
114	-5.70000e+00	7.831490e+04	
115	-5.75000e+00	7.879248e+04	
116	-5.80000e+00	7.926326e+04	
117	-5.85000e+00	7.972735e+04	
118	-5.90000e+00	8.018483e+04	
119	-5.95000e+00	8.063578e+04	
120	-6.00000e+00	8.108028e+04	
121	-6.05000e+00	8.151840e+04	
122	-6.10000e+00	8.195022e+04	
123	-6.15000e+00	8.237580e+04	
124	-6.20000e+00	8.279521e+04	
125	-6.25000e+00	8.320850e+04	
126	-6.30000e+00	8.361572e+04	
127	-6.35000e+00	8.401694e+04	
128	-6.40000e+00	8.441219e+04	
129	-6.45000e+00	8.480153e+04	
130	-6.50000e+00	8.518499e+04	
131	-6.55000e+00	8.556262e+04	
132	-6.60000e+00	8.593444e+04	
Reset re-loads circuit ***************************

Circuit: ***************************

Doing analysis at TEMP = 25.000000 and TNOM = 25.000000


No. of Data Rows : 133
                          ***************************
                          DC transfer characteristic  Mon Jan  9 13:57:54  2023
--------------------------------------------------------------------------------
Index   v-sweep         rds             
--------------------------------------------------------------------------------
0	0.000000e+00	1.408363e+03	
1	-5.00000e-02	1.438813e+03	
2	-1.00000e-01	1.470287e+03	
3	-1.50000e-01	1.502836e+03	
4	-2.00000e-01	1.536516e+03	
5	-2.50000e-01	1.571387e+03	
6	-3.00000e-01	1.607512e+03	
7	-3.50000e-01	1.644959e+03	
8	-4.00000e-01	1.683802e+03	
9	-4.50000e-01	1.724119e+03	
10	-5.00000e-01	1.765996e+03	
11	-5.50000e-01	1.809523e+03	
12	-6.00000e-01	1.854800e+03	
13	-6.50000e-01	1.901934e+03	
14	-7.00000e-01	1.951039e+03	
15	-7.50000e-01	2.002243e+03	
16	-8.00000e-01	2.055681e+03	
17	-8.50000e-01	2.111501e+03	
18	-9.00000e-01	2.169866e+03	
19	-9.50000e-01	2.230953e+03	
20	-1.00000e+00	2.294955e+03	
21	-1.05000e+00	2.362085e+03	
22	-1.10000e+00	2.432576e+03	
23	-1.15000e+00	2.506686e+03	
24	-1.20000e+00	2.584700e+03	
25	-1.25000e+00	2.666932e+03	
26	-1.30000e+00	2.753731e+03	
27	-1.35000e+00	2.845488e+03	
28	-1.40000e+00	2.942635e+03	
29	-1.45000e+00	3.045661e+03	
30	-1.50000e+00	3.155111e+03	
31	-1.55000e+00	3.271602e+03	
32	-1.60000e+00	3.395830e+03	
33	-1.65000e+00	3.528588e+03	
34	-1.70000e+00	3.670779e+03	
35	-1.75000e+00	3.823436e+03	
36	-1.80000e+00	3.987749e+03	
37	-1.85000e+00	4.165092e+03	
38	-1.90000e+00	4.357064e+03	
39	-1.95000e+00	4.565532e+03	
40	-2.00000e+00	4.792690e+03	
41	-2.05000e+00	5.041137e+03	
42	-2.10000e+00	5.313963e+03	
43	-2.15000e+00	5.614880e+03	
44	-2.20000e+00	5.948359e+03	
45	-2.25000e+00	6.319816e+03	
46	-2.30000e+00	6.735786e+03	
47	-2.35000e+00	7.204020e+03	
48	-2.40000e+00	7.733299e+03	
49	-2.45000e+00	8.332599e+03	
50	-2.50000e+00	9.009275e+03	
51	-2.55000e+00	9.766415e+03	
52	-2.60000e+00	1.060062e+04	
53	-2.65000e+00	1.150186e+04	
54	-2.70000e+00	1.245575e+04	

Index   v-sweep         rds             
--------------------------------------------------------------------------------
55	-2.75000e+00	1.344683e+04	
56	-2.80000e+00	1.446112e+04	
57	-2.85000e+00	1.548728e+04	
58	-2.90000e+00	1.651674e+04	
59	-2.95000e+00	1.754330e+04	
60	-3.00000e+00	1.856259e+04	
61	-3.05000e+00	1.957156e+04	
62	-3.10000e+00	2.056815e+04	
63	-3.15000e+00	2.155099e+04	
64	-3.20000e+00	2.251917e+04	
65	-3.25000e+00	2.347213e+04	
66	-3.30000e+00	2.440957e+04	
67	-3.35000e+00	2.533135e+04	
68	-3.40000e+00	2.623746e+04	
69	-3.45000e+00	2.712798e+04	
70	-3.50000e+00	2.800306e+04	
71	-3.55000e+00	2.886288e+04	
72	-3.60000e+00	2.970768e+04	
73	-3.65000e+00	3.053770e+04	
74	-3.70000e+00	3.135320e+04	
75	-3.75000e+00	3.215447e+04	
76	-3.80000e+00	3.294177e+04	
77	-3.85000e+00	3.371541e+04	
78	-3.90000e+00	3.447565e+04	
79	-3.95000e+00	3.522280e+04	
80	-4.00000e+00	3.595712e+04	
81	-4.05000e+00	3.667890e+04	
82	-4.10000e+00	3.738841e+04	
83	-4.15000e+00	3.808592e+04	
84	-4.20000e+00	3.877170e+04	
85	-4.25000e+00	3.944600e+04	
86	-4.30000e+00	4.010909e+04	
87	-4.35000e+00	4.076120e+04	
88	-4.40000e+00	4.140259e+04	
89	-4.45000e+00	4.203348e+04	
90	-4.50000e+00	4.265411e+04	
91	-4.55000e+00	4.326470e+04	
92	-4.60000e+00	4.386547e+04	
93	-4.65000e+00	4.445664e+04	
94	-4.70000e+00	4.503841e+04	
95	-4.75000e+00	4.561099e+04	
96	-4.80000e+00	4.617457e+04	
97	-4.85000e+00	4.672935e+04	
98	-4.90000e+00	4.727551e+04	
99	-4.95000e+00	4.781323e+04	
100	-5.00000e+00	4.834270e+04	
101	-5.05000e+00	4.886408e+04	
102	-5.10000e+00	4.937754e+04	
103	-5.15000e+00	4.988325e+04	
104	-5.20000e+00	5.038136e+04	
105	-5.25000e+00	5.087203e+04	
106	-5.30000e+00	5.135541e+04	
107	-5.35000e+00	5.183164e+04	
108	-5.40000e+00	5.230086e+04	
109	-5.45000e+00	5.276321e+04	
110	-5.50000e+00	5.321882e+04	
111	-5.55000e+00	5.366783e+04	
112	-5.60000e+00	5.411035e+04	

Index   v-sweep         rds             
--------------------------------------------------------------------------------
113	-5.65000e+00	5.454650e+04	
114	-5.70000e+00	5.497641e+04	
115	-5.75000e+00	5.540018e+04	
116	-5.80000e+00	5.581792e+04	
117	-5.85000e+00	5.622974e+04	
118	-5.90000e+00	5.663574e+04	
119	-5.95000e+00	5.703601e+04	
120	-6.00000e+00	5.743064e+04	
121	-6.05000e+00	5.781973e+04	
122	-6.10000e+00	5.820337e+04	
123	-6.15000e+00	5.858162e+04	
124	-6.20000e+00	5.895458e+04	
125	-6.25000e+00	5.932231e+04	
126	-6.30000e+00	5.968488e+04	
127	-6.35000e+00	6.004237e+04	
128	-6.40000e+00	6.039484e+04	
129	-6.45000e+00	6.074234e+04	
130	-6.50000e+00	6.108494e+04	
131	-6.55000e+00	6.142269e+04	
132	-6.60000e+00	6.175564e+04	
Reset re-loads circuit ***************************

Circuit: ***************************

Doing analysis at TEMP = 25.000000 and TNOM = 25.000000


No. of Data Rows : 133
                          ***************************
                          DC transfer characteristic  Mon Jan  9 13:57:54  2023
--------------------------------------------------------------------------------
Index   v-sweep         rds             
--------------------------------------------------------------------------------
0	0.000000e+00	1.249617e+03	
1	-5.00000e-02	1.272302e+03	
2	-1.00000e-01	1.295608e+03	
3	-1.50000e-01	1.319560e+03	
4	-2.00000e-01	1.344185e+03	
5	-2.50000e-01	1.369510e+03	
6	-3.00000e-01	1.395567e+03	
7	-3.50000e-01	1.422386e+03	
8	-4.00000e-01	1.450002e+03	
9	-4.50000e-01	1.478450e+03	
10	-5.00000e-01	1.507767e+03	
11	-5.50000e-01	1.537995e+03	
12	-6.00000e-01	1.569174e+03	
13	-6.50000e-01	1.601352e+03	
14	-7.00000e-01	1.634576e+03	
15	-7.50000e-01	1.668896e+03	
16	-8.00000e-01	1.704369e+03	
17	-8.50000e-01	1.741053e+03	
18	-9.00000e-01	1.779010e+03	
19	-9.50000e-01	1.818307e+03	
20	-1.00000e+00	1.859015e+03	
21	-1.05000e+00	1.901212e+03	
22	-1.10000e+00	1.944981e+03	
23	-1.15000e+00	1.990409e+03	
24	-1.20000e+00	2.037593e+03	
25	-1.25000e+00	2.086636e+03	
26	-1.30000e+00	2.137649e+03	
27	-1.35000e+00	2.190752e+03	
28	-1.40000e+00	2.246075e+03	
29	-1.45000e+00	2.303761e+03	
30	-1.50000e+00	2.363962e+03	
31	-1.55000e+00	2.426845e+03	
32	-1.60000e+00	2.492594e+03	
33	-1.65000e+00	2.561406e+03	
34	-1.70000e+00	2.633501e+03	
35	-1.75000e+00	2.709117e+03	
36	-1.80000e+00	2.788517e+03	
37	-1.85000e+00	2.871990e+03	
38	-1.90000e+00	2.959858e+03	
39	-1.95000e+00	3.052473e+03	
40	-2.00000e+00	3.150230e+03	
41	-2.05000e+00	3.253567e+03	
42	-2.10000e+00	3.362974e+03	
43	-2.15000e+00	3.478998e+03	
44	-2.20000e+00	3.602259e+03	
45	-2.25000e+00	3.733453e+03	
46	-2.30000e+00	3.873373e+03	
47	-2.35000e+00	4.022922e+03	
48	-2.40000e+00	4.183137e+03	
49	-2.45000e+00	4.355217e+03	
50	-2.50000e+00	4.540558e+03	
51	-2.55000e+00	4.740806e+03	
52	-2.60000e+00	4.957917e+03	
53	-2.65000e+00	5.194258e+03	
54	-2.70000e+00	5.452719e+03	

Index   v-sweep         rds             
--------------------------------------------------------------------------------
55	-2.75000e+00	5.736882e+03	
56	-2.80000e+00	6.051203e+03	
57	-2.85000e+00	6.401164e+03	
58	-2.90000e+00	6.793251e+03	
59	-2.95000e+00	7.234503e+03	
60	-3.00000e+00	7.731371e+03	
61	-3.05000e+00	8.287947e+03	
62	-3.10000e+00	8.904227e+03	
63	-3.15000e+00	9.575454e+03	
64	-3.20000e+00	1.029302e+04	
65	-3.25000e+00	1.104641e+04	
66	-3.30000e+00	1.182507e+04	
67	-3.35000e+00	1.261971e+04	
68	-3.40000e+00	1.342273e+04	
69	-3.45000e+00	1.422828e+04	
70	-3.50000e+00	1.503199e+04	
71	-3.55000e+00	1.583066e+04	
72	-3.60000e+00	1.662198e+04	
73	-3.65000e+00	1.740432e+04	
74	-3.70000e+00	1.817654e+04	
75	-3.75000e+00	1.893786e+04	
76	-3.80000e+00	1.968778e+04	
77	-3.85000e+00	2.042597e+04	
78	-3.90000e+00	2.115227e+04	
79	-3.95000e+00	2.186659e+04	
80	-4.00000e+00	2.256896e+04	
81	-4.05000e+00	2.325945e+04	
82	-4.10000e+00	2.393816e+04	
83	-4.15000e+00	2.460525e+04	
84	-4.20000e+00	2.526088e+04	
85	-4.25000e+00	2.590522e+04	
86	-4.30000e+00	2.653849e+04	
87	-4.35000e+00	2.716089e+04	
88	-4.40000e+00	2.777261e+04	
89	-4.45000e+00	2.837388e+04	
90	-4.50000e+00	2.896491e+04	
91	-4.55000e+00	2.954591e+04	
92	-4.60000e+00	3.011709e+04	
93	-4.65000e+00	3.067865e+04	
94	-4.70000e+00	3.123082e+04	
95	-4.75000e+00	3.177379e+04	
96	-4.80000e+00	3.230775e+04	
97	-4.85000e+00	3.283291e+04	
98	-4.90000e+00	3.334945e+04	
99	-4.95000e+00	3.385757e+04	
100	-5.00000e+00	3.435745e+04	
101	-5.05000e+00	3.484926e+04	
102	-5.10000e+00	3.533319e+04	
103	-5.15000e+00	3.580940e+04	
104	-5.20000e+00	3.627805e+04	
105	-5.25000e+00	3.673932e+04	
106	-5.30000e+00	3.719336e+04	
107	-5.35000e+00	3.764032e+04	
108	-5.40000e+00	3.808035e+04	
109	-5.45000e+00	3.851361e+04	
110	-5.50000e+00	3.894023e+04	
111	-5.55000e+00	3.936034e+04	
112	-5.60000e+00	3.977410e+04	

Index   v-sweep         rds             
--------------------------------------------------------------------------------
113	-5.65000e+00	4.018162e+04	
114	-5.70000e+00	4.058303e+04	
115	-5.75000e+00	4.097847e+04	
116	-5.80000e+00	4.136804e+04	
117	-5.85000e+00	4.175187e+04	
118	-5.90000e+00	4.213007e+04	
119	-5.95000e+00	4.250274e+04	
120	-6.00000e+00	4.287000e+04	
121	-6.05000e+00	4.323195e+04	
122	-6.10000e+00	4.358869e+04	
123	-6.15000e+00	4.394031e+04	
124	-6.20000e+00	4.428691e+04	
125	-6.25000e+00	4.462858e+04	
126	-6.30000e+00	4.496540e+04	
127	-6.35000e+00	4.529746e+04	
128	-6.40000e+00	4.562484e+04	
129	-6.45000e+00	4.594761e+04	
130	-6.50000e+00	4.626586e+04	
131	-6.55000e+00	4.657964e+04	
132	-6.60000e+00	4.688904e+04	
Reset re-loads circuit ***************************

Circuit: ***************************

Note: No ".plot", ".print", or ".fourier" lines; no simulations run
