
Note: Compatibility modes selected: hs

Warning: m=xx on .subckt line will override multiplier m hierarchy!


Circuit: ***************************

Doing analysis at TEMP = 25.000000 and TNOM = 25.000000


No. of Data Rows : 133
                          ***************************
                          DC transfer characteristic  Mon Jan  9 13:57:54  2023
--------------------------------------------------------------------------------
Index   v-sweep         rds             
--------------------------------------------------------------------------------
0	0.000000e+00	2.664316e+05	
1	-5.00000e-02	4.148762e+05	
2	-1.00000e-01	8.428569e+05	
3	-1.50000e-01	2.632808e+06	
4	-2.00000e-01	8.671512e+06	
5	-2.50000e-01	1.839372e+07	
6	-3.00000e-01	2.734599e+07	
7	-3.50000e-01	3.416777e+07	
8	-4.00000e-01	3.944764e+07	
9	-4.50000e-01	4.381488e+07	
10	-5.00000e-01	4.764479e+07	
11	-5.50000e-01	5.114184e+07	
12	-6.00000e-01	5.441873e+07	
13	-6.50000e-01	5.754002e+07	
14	-7.00000e-01	6.054440e+07	
15	-7.50000e-01	6.345610e+07	
16	-8.00000e-01	6.629094e+07	
17	-8.50000e-01	6.905968e+07	
18	-9.00000e-01	7.176988e+07	
19	-9.50000e-01	7.442705e+07	
20	-1.00000e+00	7.703536e+07	
21	-1.05000e+00	7.959800e+07	
22	-1.10000e+00	8.211755e+07	
23	-1.15000e+00	8.459610e+07	
24	-1.20000e+00	8.703539e+07	
25	-1.25000e+00	8.943692e+07	
26	-1.30000e+00	9.180200e+07	
27	-1.35000e+00	9.413178e+07	
28	-1.40000e+00	9.642730e+07	
29	-1.45000e+00	9.868949e+07	
30	-1.50000e+00	1.009192e+08	
31	-1.55000e+00	1.031173e+08	
32	-1.60000e+00	1.052845e+08	
33	-1.65000e+00	1.074215e+08	
34	-1.70000e+00	1.095290e+08	
35	-1.75000e+00	1.116076e+08	
36	-1.80000e+00	1.136579e+08	
37	-1.85000e+00	1.156805e+08	
38	-1.90000e+00	1.176760e+08	
39	-1.95000e+00	1.196449e+08	
40	-2.00000e+00	1.215877e+08	
41	-2.05000e+00	1.235049e+08	
42	-2.10000e+00	1.253971e+08	
43	-2.15000e+00	1.272646e+08	
44	-2.20000e+00	1.291080e+08	
45	-2.25000e+00	1.309276e+08	
46	-2.30000e+00	1.327240e+08	
47	-2.35000e+00	1.344975e+08	
48	-2.40000e+00	1.362485e+08	
49	-2.45000e+00	1.379775e+08	
50	-2.50000e+00	1.396849e+08	
51	-2.55000e+00	1.413709e+08	
52	-2.60000e+00	1.430360e+08	
53	-2.65000e+00	1.446806e+08	
54	-2.70000e+00	1.463049e+08	

Index   v-sweep         rds             
--------------------------------------------------------------------------------
55	-2.75000e+00	1.479094e+08	
56	-2.80000e+00	1.494944e+08	
57	-2.85000e+00	1.510601e+08	
58	-2.90000e+00	1.526069e+08	
59	-2.95000e+00	1.541352e+08	
60	-3.00000e+00	1.556452e+08	
61	-3.05000e+00	1.571372e+08	
62	-3.10000e+00	1.586116e+08	
63	-3.15000e+00	1.600685e+08	
64	-3.20000e+00	1.615083e+08	
65	-3.25000e+00	1.629312e+08	
66	-3.30000e+00	1.643375e+08	
67	-3.35000e+00	1.657274e+08	
68	-3.40000e+00	1.671012e+08	
69	-3.45000e+00	1.684591e+08	
70	-3.50000e+00	1.698014e+08	
71	-3.55000e+00	1.711283e+08	
72	-3.60000e+00	1.724400e+08	
73	-3.65000e+00	1.737366e+08	
74	-3.70000e+00	1.750185e+08	
75	-3.75000e+00	1.762859e+08	
76	-3.80000e+00	1.775388e+08	
77	-3.85000e+00	1.787775e+08	
78	-3.90000e+00	1.800022e+08	
79	-3.95000e+00	1.812130e+08	
80	-4.00000e+00	1.824102e+08	
81	-4.05000e+00	1.835938e+08	
82	-4.10000e+00	1.847641e+08	
83	-4.15000e+00	1.859212e+08	
84	-4.20000e+00	1.870652e+08	
85	-4.25000e+00	1.881963e+08	
86	-4.30000e+00	1.893145e+08	
87	-4.35000e+00	1.904201e+08	
88	-4.40000e+00	1.915132e+08	
89	-4.45000e+00	1.925938e+08	
90	-4.50000e+00	1.936621e+08	
91	-4.55000e+00	1.947182e+08	
92	-4.60000e+00	1.957622e+08	
93	-4.65000e+00	1.967942e+08	
94	-4.70000e+00	1.978142e+08	
95	-4.75000e+00	1.988225e+08	
96	-4.80000e+00	1.998190e+08	
97	-4.85000e+00	2.008038e+08	
98	-4.90000e+00	2.017770e+08	
99	-4.95000e+00	2.027388e+08	
100	-5.00000e+00	2.036891e+08	
101	-5.05000e+00	2.046280e+08	
102	-5.10000e+00	2.055556e+08	
103	-5.15000e+00	2.064719e+08	
104	-5.20000e+00	2.073771e+08	
105	-5.25000e+00	2.082710e+08	
106	-5.30000e+00	2.091539e+08	
107	-5.35000e+00	2.100258e+08	
108	-5.40000e+00	2.108866e+08	
109	-5.45000e+00	2.117365e+08	
110	-5.50000e+00	2.125755e+08	
111	-5.55000e+00	2.134035e+08	
112	-5.60000e+00	2.142208e+08	

Index   v-sweep         rds             
--------------------------------------------------------------------------------
113	-5.65000e+00	2.150272e+08	
114	-5.70000e+00	2.158228e+08	
115	-5.75000e+00	2.166077e+08	
116	-5.80000e+00	2.173819e+08	
117	-5.85000e+00	2.181454e+08	
118	-5.90000e+00	2.188983e+08	
119	-5.95000e+00	2.196405e+08	
120	-6.00000e+00	2.203721e+08	
121	-6.05000e+00	2.210932e+08	
122	-6.10000e+00	2.218037e+08	
123	-6.15000e+00	2.225037e+08	
124	-6.20000e+00	2.231932e+08	
125	-6.25000e+00	2.238722e+08	
126	-6.30000e+00	2.245408e+08	
127	-6.35000e+00	2.251989e+08	
128	-6.40000e+00	2.258467e+08	
129	-6.45000e+00	2.264841e+08	
130	-6.50000e+00	2.271111e+08	
131	-6.55000e+00	2.277279e+08	
132	-6.60000e+00	2.283343e+08	
Reset re-loads circuit ***************************

Circuit: ***************************

Doing analysis at TEMP = 25.000000 and TNOM = 25.000000


No. of Data Rows : 133
                          ***************************
                          DC transfer characteristic  Mon Jan  9 13:57:54  2023
--------------------------------------------------------------------------------
Index   v-sweep         rds             
--------------------------------------------------------------------------------
0	0.000000e+00	3.602077e+04	
1	-5.00000e-02	3.833049e+04	
2	-1.00000e-01	4.093755e+04	
3	-1.50000e-01	4.390317e+04	
4	-2.00000e-01	4.730649e+04	
5	-2.50000e-01	5.125169e+04	
6	-3.00000e-01	5.587859e+04	
7	-3.50000e-01	6.137907e+04	
8	-4.00000e-01	6.802339e+04	
9	-4.50000e-01	7.620357e+04	
10	-5.00000e-01	8.650784e+04	
11	-5.50000e-01	9.985309e+04	
12	-6.00000e-01	1.177284e+05	
13	-6.50000e-01	1.426488e+05	
14	-7.00000e-01	1.789620e+05	
15	-7.50000e-01	2.339716e+05	
16	-8.00000e-01	3.180290e+05	
17	-8.50000e-01	4.391195e+05	
18	-9.00000e-01	5.908289e+05	
19	-9.50000e-01	7.513901e+05	
20	-1.00000e+00	9.018081e+05	
21	-1.05000e+00	1.036014e+06	
22	-1.10000e+00	1.155855e+06	
23	-1.15000e+00	1.264989e+06	
24	-1.20000e+00	1.366500e+06	
25	-1.25000e+00	1.462539e+06	
26	-1.30000e+00	1.554521e+06	
27	-1.35000e+00	1.643375e+06	
28	-1.40000e+00	1.729714e+06	
29	-1.45000e+00	1.813952e+06	
30	-1.50000e+00	1.896379e+06	
31	-1.55000e+00	1.977200e+06	
32	-1.60000e+00	2.056565e+06	
33	-1.65000e+00	2.134588e+06	
34	-1.70000e+00	2.211358e+06	
35	-1.75000e+00	2.286944e+06	
36	-1.80000e+00	2.361403e+06	
37	-1.85000e+00	2.434782e+06	
38	-1.90000e+00	2.507123e+06	
39	-1.95000e+00	2.578459e+06	
40	-2.00000e+00	2.648822e+06	
41	-2.05000e+00	2.718239e+06	
42	-2.10000e+00	2.786734e+06	
43	-2.15000e+00	2.854332e+06	
44	-2.20000e+00	2.921054e+06	
45	-2.25000e+00	2.986918e+06	
46	-2.30000e+00	3.051943e+06	
47	-2.35000e+00	3.116148e+06	
48	-2.40000e+00	3.179549e+06	
49	-2.45000e+00	3.242162e+06	
50	-2.50000e+00	3.304003e+06	
51	-2.55000e+00	3.365085e+06	
52	-2.60000e+00	3.425424e+06	
53	-2.65000e+00	3.485032e+06	
54	-2.70000e+00	3.543923e+06	

Index   v-sweep         rds             
--------------------------------------------------------------------------------
55	-2.75000e+00	3.602111e+06	
56	-2.80000e+00	3.659607e+06	
57	-2.85000e+00	3.716423e+06	
58	-2.90000e+00	3.772572e+06	
59	-2.95000e+00	3.828065e+06	
60	-3.00000e+00	3.882912e+06	
61	-3.05000e+00	3.937126e+06	
62	-3.10000e+00	3.990715e+06	
63	-3.15000e+00	4.043692e+06	
64	-3.20000e+00	4.096065e+06	
65	-3.25000e+00	4.147845e+06	
66	-3.30000e+00	4.199042e+06	
67	-3.35000e+00	4.249664e+06	
68	-3.40000e+00	4.299720e+06	
69	-3.45000e+00	4.349221e+06	
70	-3.50000e+00	4.398175e+06	
71	-3.55000e+00	4.446589e+06	
72	-3.60000e+00	4.494473e+06	
73	-3.65000e+00	4.541835e+06	
74	-3.70000e+00	4.588682e+06	
75	-3.75000e+00	4.635022e+06	
76	-3.80000e+00	4.680864e+06	
77	-3.85000e+00	4.726213e+06	
78	-3.90000e+00	4.771079e+06	
79	-3.95000e+00	4.815466e+06	
80	-4.00000e+00	4.859383e+06	
81	-4.05000e+00	4.902836e+06	
82	-4.10000e+00	4.945830e+06	
83	-4.15000e+00	4.988374e+06	
84	-4.20000e+00	5.030472e+06	
85	-4.25000e+00	5.072130e+06	
86	-4.30000e+00	5.113355e+06	
87	-4.35000e+00	5.154151e+06	
88	-4.40000e+00	5.194524e+06	
89	-4.45000e+00	5.234479e+06	
90	-4.50000e+00	5.274021e+06	
91	-4.55000e+00	5.313155e+06	
92	-4.60000e+00	5.351885e+06	
93	-4.65000e+00	5.390215e+06	
94	-4.70000e+00	5.428151e+06	
95	-4.75000e+00	5.465695e+06	
96	-4.80000e+00	5.502853e+06	
97	-4.85000e+00	5.539626e+06	
98	-4.90000e+00	5.576020e+06	
99	-4.95000e+00	5.612037e+06	
100	-5.00000e+00	5.647680e+06	
101	-5.05000e+00	5.682953e+06	
102	-5.10000e+00	5.717859e+06	
103	-5.15000e+00	5.752399e+06	
104	-5.20000e+00	5.786577e+06	
105	-5.25000e+00	5.820394e+06	
106	-5.30000e+00	5.853854e+06	
107	-5.35000e+00	5.886958e+06	
108	-5.40000e+00	5.919709e+06	
109	-5.45000e+00	5.952107e+06	
110	-5.50000e+00	5.984155e+06	
111	-5.55000e+00	6.015854e+06	
112	-5.60000e+00	6.047206e+06	

Index   v-sweep         rds             
--------------------------------------------------------------------------------
113	-5.65000e+00	6.078212e+06	
114	-5.70000e+00	6.108873e+06	
115	-5.75000e+00	6.139190e+06	
116	-5.80000e+00	6.169165e+06	
117	-5.85000e+00	6.198798e+06	
118	-5.90000e+00	6.228089e+06	
119	-5.95000e+00	6.257041e+06	
120	-6.00000e+00	6.285653e+06	
121	-6.05000e+00	6.313926e+06	
122	-6.10000e+00	6.341860e+06	
123	-6.15000e+00	6.369456e+06	
124	-6.20000e+00	6.396714e+06	
125	-6.25000e+00	6.423635e+06	
126	-6.30000e+00	6.450219e+06	
127	-6.35000e+00	6.476465e+06	
128	-6.40000e+00	6.502375e+06	
129	-6.45000e+00	6.527948e+06	
130	-6.50000e+00	6.553184e+06	
131	-6.55000e+00	6.578084e+06	
132	-6.60000e+00	6.602648e+06	
Reset re-loads circuit ***************************

Circuit: ***************************

Doing analysis at TEMP = 25.000000 and TNOM = 25.000000


No. of Data Rows : 133
                          ***************************
                          DC transfer characteristic  Mon Jan  9 13:57:54  2023
--------------------------------------------------------------------------------
Index   v-sweep         rds             
--------------------------------------------------------------------------------
0	0.000000e+00	2.130293e+04	
1	-5.00000e-02	2.205429e+04	
2	-1.00000e-01	2.285557e+04	
3	-1.50000e-01	2.371191e+04	
4	-2.00000e-01	2.462917e+04	
5	-2.50000e-01	2.561408e+04	
6	-3.00000e-01	2.667439e+04	
7	-3.50000e-01	2.781911e+04	
8	-4.00000e-01	2.905869e+04	
9	-4.50000e-01	3.040540e+04	
10	-5.00000e-01	3.187373e+04	
11	-5.50000e-01	3.348089e+04	
12	-6.00000e-01	3.524745e+04	
13	-6.50000e-01	3.719828e+04	
14	-7.00000e-01	3.936365e+04	
15	-7.50000e-01	4.178078e+04	
16	-8.00000e-01	4.449596e+04	
17	-8.50000e-01	4.756740e+04	
18	-9.00000e-01	5.106927e+04	
19	-9.50000e-01	5.509738e+04	
20	-1.00000e+00	5.977738e+04	
21	-1.05000e+00	6.527669e+04	
22	-1.10000e+00	7.182202e+04	
23	-1.15000e+00	7.972512e+04	
24	-1.20000e+00	8.941980e+04	
25	-1.25000e+00	1.015116e+05	
26	-1.30000e+00	1.168320e+05	
27	-1.35000e+00	1.364584e+05	
28	-1.40000e+00	1.615898e+05	
29	-1.45000e+00	1.930960e+05	
30	-1.50000e+00	2.307264e+05	
31	-1.55000e+00	2.726177e+05	
32	-1.60000e+00	3.159852e+05	
33	-1.65000e+00	3.585295e+05	
34	-1.70000e+00	3.991387e+05	
35	-1.75000e+00	4.376293e+05	
36	-1.80000e+00	4.742375e+05	
37	-1.85000e+00	5.092928e+05	
38	-1.90000e+00	5.430883e+05	
39	-1.95000e+00	5.758506e+05	
40	-2.00000e+00	6.077462e+05	
41	-2.05000e+00	6.388955e+05	
42	-2.10000e+00	6.693864e+05	
43	-2.15000e+00	6.992834e+05	
44	-2.20000e+00	7.286353e+05	
45	-2.25000e+00	7.574797e+05	
46	-2.30000e+00	7.858462e+05	
47	-2.35000e+00	8.137587e+05	
48	-2.40000e+00	8.412371e+05	
49	-2.45000e+00	8.682982e+05	
50	-2.50000e+00	8.949564e+05	
51	-2.55000e+00	9.212246e+05	
52	-2.60000e+00	9.471142e+05	
53	-2.65000e+00	9.726355e+05	
54	-2.70000e+00	9.977980e+05	

Index   v-sweep         rds             
--------------------------------------------------------------------------------
55	-2.75000e+00	1.022611e+06	
56	-2.80000e+00	1.047081e+06	
57	-2.85000e+00	1.071218e+06	
58	-2.90000e+00	1.095029e+06	
59	-2.95000e+00	1.118519e+06	
60	-3.00000e+00	1.141697e+06	
61	-3.05000e+00	1.164569e+06	
62	-3.10000e+00	1.187140e+06	
63	-3.15000e+00	1.209416e+06	
64	-3.20000e+00	1.231404e+06	
65	-3.25000e+00	1.253109e+06	
66	-3.30000e+00	1.274536e+06	
67	-3.35000e+00	1.295691e+06	
68	-3.40000e+00	1.316578e+06	
69	-3.45000e+00	1.337203e+06	
70	-3.50000e+00	1.357570e+06	
71	-3.55000e+00	1.377684e+06	
72	-3.60000e+00	1.397550e+06	
73	-3.65000e+00	1.417172e+06	
74	-3.70000e+00	1.436554e+06	
75	-3.75000e+00	1.455701e+06	
76	-3.80000e+00	1.474616e+06	
77	-3.85000e+00	1.493304e+06	
78	-3.90000e+00	1.511769e+06	
79	-3.95000e+00	1.530014e+06	
80	-4.00000e+00	1.548043e+06	
81	-4.05000e+00	1.565860e+06	
82	-4.10000e+00	1.583468e+06	
83	-4.15000e+00	1.600871e+06	
84	-4.20000e+00	1.618073e+06	
85	-4.25000e+00	1.635075e+06	
86	-4.30000e+00	1.651883e+06	
87	-4.35000e+00	1.668498e+06	
88	-4.40000e+00	1.684925e+06	
89	-4.45000e+00	1.701165e+06	
90	-4.50000e+00	1.717222e+06	
91	-4.55000e+00	1.733099e+06	
92	-4.60000e+00	1.748798e+06	
93	-4.65000e+00	1.764323e+06	
94	-4.70000e+00	1.779675e+06	
95	-4.75000e+00	1.794857e+06	
96	-4.80000e+00	1.809872e+06	
97	-4.85000e+00	1.824721e+06	
98	-4.90000e+00	1.839409e+06	
99	-4.95000e+00	1.853935e+06	
100	-5.00000e+00	1.868304e+06	
101	-5.05000e+00	1.882516e+06	
102	-5.10000e+00	1.896574e+06	
103	-5.15000e+00	1.910479e+06	
104	-5.20000e+00	1.924234e+06	
105	-5.25000e+00	1.937840e+06	
106	-5.30000e+00	1.951300e+06	
107	-5.35000e+00	1.964614e+06	
108	-5.40000e+00	1.977784e+06	
109	-5.45000e+00	1.990812e+06	
110	-5.50000e+00	2.003699e+06	
111	-5.55000e+00	2.016446e+06	
112	-5.60000e+00	2.029055e+06	

Index   v-sweep         rds             
--------------------------------------------------------------------------------
113	-5.65000e+00	2.041528e+06	
114	-5.70000e+00	2.053864e+06	
115	-5.75000e+00	2.066066e+06	
116	-5.80000e+00	2.078134e+06	
117	-5.85000e+00	2.090069e+06	
118	-5.90000e+00	2.101872e+06	
119	-5.95000e+00	2.113544e+06	
120	-6.00000e+00	2.125087e+06	
121	-6.05000e+00	2.136499e+06	
122	-6.10000e+00	2.147784e+06	
123	-6.15000e+00	2.158940e+06	
124	-6.20000e+00	2.169968e+06	
125	-6.25000e+00	2.180870e+06	
126	-6.30000e+00	2.191645e+06	
127	-6.35000e+00	2.202294e+06	
128	-6.40000e+00	2.212818e+06	
129	-6.45000e+00	2.223216e+06	
130	-6.50000e+00	2.233490e+06	
131	-6.55000e+00	2.243639e+06	
132	-6.60000e+00	2.253664e+06	
Reset re-loads circuit ***************************

Circuit: ***************************

Doing analysis at TEMP = 25.000000 and TNOM = 25.000000


No. of Data Rows : 133
                          ***************************
                          DC transfer characteristic  Mon Jan  9 13:57:54  2023
--------------------------------------------------------------------------------
Index   v-sweep         rds             
--------------------------------------------------------------------------------
0	0.000000e+00	1.596582e+04	
1	-5.00000e-02	1.636106e+04	
2	-1.00000e-01	1.677404e+04	
3	-1.50000e-01	1.720599e+04	
4	-2.00000e-01	1.765823e+04	
5	-2.50000e-01	1.813224e+04	
6	-3.00000e-01	1.862960e+04	
7	-3.50000e-01	1.915210e+04	
8	-4.00000e-01	1.970169e+04	
9	-4.50000e-01	2.028051e+04	
10	-5.00000e-01	2.089097e+04	
11	-5.50000e-01	2.153572e+04	
12	-6.00000e-01	2.221773e+04	
13	-6.50000e-01	2.294031e+04	
14	-7.00000e-01	2.370721e+04	
15	-7.50000e-01	2.452260e+04	
16	-8.00000e-01	2.539122e+04	
17	-8.50000e-01	2.631846e+04	
18	-9.00000e-01	2.731043e+04	
19	-9.50000e-01	2.837414e+04	
20	-1.00000e+00	2.951763e+04	
21	-1.05000e+00	3.075019e+04	
22	-1.10000e+00	3.208260e+04	
23	-1.15000e+00	3.352746e+04	
24	-1.20000e+00	3.509952e+04	
25	-1.25000e+00	3.681625e+04	
26	-1.30000e+00	3.869841e+04	
27	-1.35000e+00	4.077087e+04	
28	-1.40000e+00	4.306367e+04	
29	-1.45000e+00	4.561335e+04	
30	-1.50000e+00	4.846479e+04	
31	-1.55000e+00	5.167355e+04	
32	-1.60000e+00	5.530901e+04	
33	-1.65000e+00	5.945856e+04	
34	-1.70000e+00	6.423293e+04	
35	-1.75000e+00	6.977299e+04	
36	-1.80000e+00	7.625743e+04	
37	-1.85000e+00	8.390991e+04	
38	-1.90000e+00	9.300066e+04	
39	-1.95000e+00	1.038324e+05	
40	-2.00000e+00	1.166927e+05	
41	-2.05000e+00	1.317559e+05	
42	-2.10000e+00	1.489510e+05	
43	-2.15000e+00	1.678807e+05	
44	-2.20000e+00	1.878994e+05	
45	-2.25000e+00	2.083350e+05	
46	-2.30000e+00	2.286860e+05	
47	-2.35000e+00	2.486765e+05	
48	-2.40000e+00	2.682006e+05	
49	-2.45000e+00	2.872464e+05	
50	-2.50000e+00	3.058403e+05	
51	-2.55000e+00	3.240193e+05	
52	-2.60000e+00	3.418188e+05	
53	-2.65000e+00	3.592688e+05	
54	-2.70000e+00	3.763939e+05	

Index   v-sweep         rds             
--------------------------------------------------------------------------------
55	-2.75000e+00	3.932140e+05	
56	-2.80000e+00	4.097452e+05	
57	-2.85000e+00	4.260009e+05	
58	-2.90000e+00	4.419922e+05	
59	-2.95000e+00	4.577288e+05	
60	-3.00000e+00	4.732189e+05	
61	-3.05000e+00	4.884701e+05	
62	-3.10000e+00	5.034891e+05	
63	-3.15000e+00	5.182820e+05	
64	-3.20000e+00	5.328546e+05	
65	-3.25000e+00	5.472123e+05	
66	-3.30000e+00	5.613600e+05	
67	-3.35000e+00	5.753025e+05	
68	-3.40000e+00	5.890445e+05	
69	-3.45000e+00	6.025902e+05	
70	-3.50000e+00	6.159440e+05	
71	-3.55000e+00	6.291097e+05	
72	-3.60000e+00	6.420914e+05	
73	-3.65000e+00	6.548928e+05	
74	-3.70000e+00	6.675175e+05	
75	-3.75000e+00	6.799691e+05	
76	-3.80000e+00	6.922511e+05	
77	-3.85000e+00	7.043668e+05	
78	-3.90000e+00	7.163194e+05	
79	-3.95000e+00	7.281121e+05	
80	-4.00000e+00	7.397480e+05	
81	-4.05000e+00	7.512301e+05	
82	-4.10000e+00	7.625612e+05	
83	-4.15000e+00	7.737443e+05	
84	-4.20000e+00	7.847822e+05	
85	-4.25000e+00	7.956774e+05	
86	-4.30000e+00	8.064327e+05	
87	-4.35000e+00	8.170507e+05	
88	-4.40000e+00	8.275338e+05	
89	-4.45000e+00	8.378845e+05	
90	-4.50000e+00	8.481052e+05	
91	-4.55000e+00	8.581982e+05	
92	-4.60000e+00	8.681657e+05	
93	-4.65000e+00	8.780101e+05	
94	-4.70000e+00	8.877335e+05	
95	-4.75000e+00	8.973380e+05	
96	-4.80000e+00	9.068256e+05	
97	-4.85000e+00	9.161984e+05	
98	-4.90000e+00	9.254584e+05	
99	-4.95000e+00	9.346073e+05	
100	-5.00000e+00	9.436472e+05	
101	-5.05000e+00	9.525797e+05	
102	-5.10000e+00	9.614067e+05	
103	-5.15000e+00	9.701299e+05	
104	-5.20000e+00	9.787510e+05	
105	-5.25000e+00	9.872715e+05	
106	-5.30000e+00	9.956931e+05	
107	-5.35000e+00	1.004017e+06	
108	-5.40000e+00	1.012245e+06	
109	-5.45000e+00	1.020379e+06	
110	-5.50000e+00	1.028420e+06	
111	-5.55000e+00	1.036368e+06	
112	-5.60000e+00	1.044227e+06	

Index   v-sweep         rds             
--------------------------------------------------------------------------------
113	-5.65000e+00	1.051996e+06	
114	-5.70000e+00	1.059677e+06	
115	-5.75000e+00	1.067271e+06	
116	-5.80000e+00	1.074780e+06	
117	-5.85000e+00	1.082203e+06	
118	-5.90000e+00	1.089544e+06	
119	-5.95000e+00	1.096801e+06	
120	-6.00000e+00	1.103977e+06	
121	-6.05000e+00	1.111072e+06	
122	-6.10000e+00	1.118087e+06	
123	-6.15000e+00	1.125023e+06	
124	-6.20000e+00	1.131881e+06	
125	-6.25000e+00	1.138661e+06	
126	-6.30000e+00	1.145364e+06	
127	-6.35000e+00	1.151991e+06	
128	-6.40000e+00	1.158543e+06	
129	-6.45000e+00	1.165019e+06	
130	-6.50000e+00	1.171421e+06	
131	-6.55000e+00	1.177749e+06	
132	-6.60000e+00	1.184004e+06	
Reset re-loads circuit ***************************

Circuit: ***************************

Doing analysis at TEMP = 25.000000 and TNOM = 25.000000


No. of Data Rows : 133
                          ***************************
                          DC transfer characteristic  Mon Jan  9 13:57:54  2023
--------------------------------------------------------------------------------
Index   v-sweep         rds             
--------------------------------------------------------------------------------
0	0.000000e+00	1.319757e+04	
1	-5.00000e-02	1.345155e+04	
2	-1.00000e-01	1.371416e+04	
3	-1.50000e-01	1.398582e+04	
4	-2.00000e-01	1.426703e+04	
5	-2.50000e-01	1.455829e+04	
6	-3.00000e-01	1.486015e+04	
7	-3.50000e-01	1.517319e+04	
8	-4.00000e-01	1.549805e+04	
9	-4.50000e-01	1.583541e+04	
10	-5.00000e-01	1.618599e+04	
11	-5.50000e-01	1.655060e+04	
12	-6.00000e-01	1.693009e+04	
13	-6.50000e-01	1.732538e+04	
14	-7.00000e-01	1.773749e+04	
15	-7.50000e-01	1.816751e+04	
16	-8.00000e-01	1.861662e+04	
17	-8.50000e-01	1.908612e+04	
18	-9.00000e-01	1.957744e+04	
19	-9.50000e-01	2.009213e+04	
20	-1.00000e+00	2.063188e+04	
21	-1.05000e+00	2.119857e+04	
22	-1.10000e+00	2.179427e+04	
23	-1.15000e+00	2.242126e+04	
24	-1.20000e+00	2.308205e+04	
25	-1.25000e+00	2.377945e+04	
26	-1.30000e+00	2.451659e+04	
27	-1.35000e+00	2.529694e+04	
28	-1.40000e+00	2.612440e+04	
29	-1.45000e+00	2.700337e+04	
30	-1.50000e+00	2.793878e+04	
31	-1.55000e+00	2.893622e+04	
32	-1.60000e+00	3.000204e+04	
33	-1.65000e+00	3.114348e+04	
34	-1.70000e+00	3.236883e+04	
35	-1.75000e+00	3.368763e+04	
36	-1.80000e+00	3.511088e+04	
37	-1.85000e+00	3.665138e+04	
38	-1.90000e+00	3.832405e+04	
39	-1.95000e+00	4.014638e+04	
40	-2.00000e+00	4.213904e+04	
41	-2.05000e+00	4.432651e+04	
42	-2.10000e+00	4.673799e+04	
43	-2.15000e+00	4.940847e+04	
44	-2.20000e+00	5.238008e+04	
45	-2.25000e+00	5.570362e+04	
46	-2.30000e+00	5.944044e+04	
47	-2.35000e+00	6.366430e+04	
48	-2.40000e+00	6.846279e+04	
49	-2.45000e+00	7.393749e+04	
50	-2.50000e+00	8.020077e+04	
51	-2.55000e+00	8.736628e+04	
52	-2.60000e+00	9.552963e+04	
53	-2.65000e+00	1.047383e+05	
54	-2.70000e+00	1.149582e+05	

Index   v-sweep         rds             
--------------------------------------------------------------------------------
55	-2.75000e+00	1.260564e+05	
56	-2.80000e+00	1.378194e+05	
57	-2.85000e+00	1.500043e+05	
58	-2.90000e+00	1.623940e+05	
59	-2.95000e+00	1.748270e+05	
60	-3.00000e+00	1.871990e+05	
61	-3.05000e+00	1.994493e+05	
62	-3.10000e+00	2.115455e+05	
63	-3.15000e+00	2.234714e+05	
64	-3.20000e+00	2.352200e+05	
65	-3.25000e+00	2.467893e+05	
66	-3.30000e+00	2.581796e+05	
67	-3.35000e+00	2.693928e+05	
68	-3.40000e+00	2.804313e+05	
69	-3.45000e+00	2.912980e+05	
70	-3.50000e+00	3.019961e+05	
71	-3.55000e+00	3.125286e+05	
72	-3.60000e+00	3.228988e+05	
73	-3.65000e+00	3.331099e+05	
74	-3.70000e+00	3.431650e+05	
75	-3.75000e+00	3.530673e+05	
76	-3.80000e+00	3.628198e+05	
77	-3.85000e+00	3.724257e+05	
78	-3.90000e+00	3.818878e+05	
79	-3.95000e+00	3.912091e+05	
80	-4.00000e+00	4.003924e+05	
81	-4.05000e+00	4.094407e+05	
82	-4.10000e+00	4.183565e+05	
83	-4.15000e+00	4.271426e+05	
84	-4.20000e+00	4.358015e+05	
85	-4.25000e+00	4.443360e+05	
86	-4.30000e+00	4.527483e+05	
87	-4.35000e+00	4.610411e+05	
88	-4.40000e+00	4.692166e+05	
89	-4.45000e+00	4.772773e+05	
90	-4.50000e+00	4.852253e+05	
91	-4.55000e+00	4.930629e+05	
92	-4.60000e+00	5.007922e+05	
93	-4.65000e+00	5.084155e+05	
94	-4.70000e+00	5.159346e+05	
95	-4.75000e+00	5.233517e+05	
96	-4.80000e+00	5.306686e+05	
97	-4.85000e+00	5.378874e+05	
98	-4.90000e+00	5.450099e+05	
99	-4.95000e+00	5.520379e+05	
100	-5.00000e+00	5.589732e+05	
101	-5.05000e+00	5.658175e+05	
102	-5.10000e+00	5.725725e+05	
103	-5.15000e+00	5.792400e+05	
104	-5.20000e+00	5.858214e+05	
105	-5.25000e+00	5.923184e+05	
106	-5.30000e+00	5.987325e+05	
107	-5.35000e+00	6.050652e+05	
108	-5.40000e+00	6.113180e+05	
109	-5.45000e+00	6.174923e+05	
110	-5.50000e+00	6.235894e+05	
111	-5.55000e+00	6.296108e+05	
112	-5.60000e+00	6.355578e+05	

Index   v-sweep         rds             
--------------------------------------------------------------------------------
113	-5.65000e+00	6.414315e+05	
114	-5.70000e+00	6.472334e+05	
115	-5.75000e+00	6.529645e+05	
116	-5.80000e+00	6.586262e+05	
117	-5.85000e+00	6.642194e+05	
118	-5.90000e+00	6.697454e+05	
119	-5.95000e+00	6.752051e+05	
120	-6.00000e+00	6.805998e+05	
121	-6.05000e+00	6.859302e+05	
122	-6.10000e+00	6.911976e+05	
123	-6.15000e+00	6.964027e+05	
124	-6.20000e+00	7.015465e+05	
125	-6.25000e+00	7.066299e+05	
126	-6.30000e+00	7.116537e+05	
127	-6.35000e+00	7.166188e+05	
128	-6.40000e+00	7.215259e+05	
129	-6.45000e+00	7.263758e+05	
130	-6.50000e+00	7.311693e+05	
131	-6.55000e+00	7.359069e+05	
132	-6.60000e+00	7.405895e+05	
Reset re-loads circuit ***************************

Circuit: ***************************

Doing analysis at TEMP = 25.000000 and TNOM = 25.000000


No. of Data Rows : 133
                          ***************************
                          DC transfer characteristic  Mon Jan  9 13:57:54  2023
--------------------------------------------------------------------------------
Index   v-sweep         rds             
--------------------------------------------------------------------------------
0	0.000000e+00	1.149738e+04	
1	-5.00000e-02	1.167930e+04	
2	-1.00000e-01	1.186618e+04	
3	-1.50000e-01	1.205824e+04	
4	-2.00000e-01	1.225567e+04	
5	-2.50000e-01	1.245872e+04	
6	-3.00000e-01	1.266763e+04	
7	-3.50000e-01	1.288265e+04	
8	-4.00000e-01	1.310405e+04	
9	-4.50000e-01	1.333213e+04	
10	-5.00000e-01	1.356718e+04	
11	-5.50000e-01	1.380954e+04	
12	-6.00000e-01	1.405954e+04	
13	-6.50000e-01	1.431755e+04	
14	-7.00000e-01	1.458396e+04	
15	-7.50000e-01	1.485919e+04	
16	-8.00000e-01	1.514369e+04	
17	-8.50000e-01	1.543792e+04	
18	-9.00000e-01	1.574240e+04	
19	-9.50000e-01	1.605766e+04	
20	-1.00000e+00	1.638429e+04	
21	-1.05000e+00	1.672292e+04	
22	-1.10000e+00	1.707421e+04	
23	-1.15000e+00	1.743889e+04	
24	-1.20000e+00	1.781773e+04	
25	-1.25000e+00	1.821158e+04	
26	-1.30000e+00	1.862134e+04	
27	-1.35000e+00	1.904800e+04	
28	-1.40000e+00	1.949261e+04	
29	-1.45000e+00	1.995633e+04	
30	-1.50000e+00	2.044042e+04	
31	-1.55000e+00	2.094625e+04	
32	-1.60000e+00	2.147531e+04	
33	-1.65000e+00	2.202924e+04	
34	-1.70000e+00	2.260981e+04	
35	-1.75000e+00	2.321900e+04	
36	-1.80000e+00	2.385897e+04	
37	-1.85000e+00	2.453210e+04	
38	-1.90000e+00	2.524102e+04	
39	-1.95000e+00	2.598867e+04	
40	-2.00000e+00	2.677827e+04	
41	-2.05000e+00	2.761345e+04	
42	-2.10000e+00	2.849825e+04	
43	-2.15000e+00	2.943719e+04	
44	-2.20000e+00	3.043536e+04	
45	-2.25000e+00	3.149850e+04	
46	-2.30000e+00	3.263310e+04	
47	-2.35000e+00	3.384654e+04	
48	-2.40000e+00	3.514722e+04	
49	-2.45000e+00	3.654475e+04	
50	-2.50000e+00	3.805017e+04	
51	-2.55000e+00	3.967620e+04	
52	-2.60000e+00	4.143755e+04	
53	-2.65000e+00	4.335130e+04	
54	-2.70000e+00	4.543732e+04	

Index   v-sweep         rds             
--------------------------------------------------------------------------------
55	-2.75000e+00	4.771882e+04	
56	-2.80000e+00	5.022289e+04	
57	-2.85000e+00	5.298113e+04	
58	-2.90000e+00	5.603026e+04	
59	-2.95000e+00	5.941257e+04	
60	-3.00000e+00	6.317585e+04	
61	-3.05000e+00	6.737253e+04	
62	-3.10000e+00	7.205710e+04	
63	-3.15000e+00	7.728097e+04	
64	-3.20000e+00	8.308414e+04	
65	-3.25000e+00	8.948411e+04	
66	-3.30000e+00	9.646495e+04	
67	-3.35000e+00	1.039721e+05	
68	-3.40000e+00	1.119175e+05	
69	-3.45000e+00	1.201943e+05	
70	-3.50000e+00	1.286954e+05	
71	-3.55000e+00	1.373268e+05	
72	-3.60000e+00	1.460139e+05	
73	-3.65000e+00	1.547014e+05	
74	-3.70000e+00	1.633497e+05	
75	-3.75000e+00	1.719315e+05	
76	-3.80000e+00	1.804282e+05	
77	-3.85000e+00	1.888273e+05	
78	-3.90000e+00	1.971205e+05	
79	-3.95000e+00	2.053027e+05	
80	-4.00000e+00	2.133705e+05	
81	-4.05000e+00	2.213224e+05	
82	-4.10000e+00	2.291576e+05	
83	-4.15000e+00	2.368764e+05	
84	-4.20000e+00	2.444793e+05	
85	-4.25000e+00	2.519673e+05	
86	-4.30000e+00	2.593419e+05	
87	-4.35000e+00	2.666045e+05	
88	-4.40000e+00	2.737568e+05	
89	-4.45000e+00	2.808006e+05	
90	-4.50000e+00	2.877378e+05	
91	-4.55000e+00	2.945702e+05	
92	-4.60000e+00	3.012997e+05	
93	-4.65000e+00	3.079282e+05	
94	-4.70000e+00	3.144578e+05	
95	-4.75000e+00	3.208901e+05	
96	-4.80000e+00	3.272273e+05	
97	-4.85000e+00	3.334710e+05	
98	-4.90000e+00	3.396232e+05	
99	-4.95000e+00	3.456857e+05	
100	-5.00000e+00	3.516602e+05	
101	-5.05000e+00	3.575484e+05	
102	-5.10000e+00	3.633521e+05	
103	-5.15000e+00	3.690730e+05	
104	-5.20000e+00	3.747126e+05	
105	-5.25000e+00	3.802727e+05	
106	-5.30000e+00	3.857546e+05	
107	-5.35000e+00	3.911601e+05	
108	-5.40000e+00	3.964905e+05	
109	-5.45000e+00	4.017473e+05	
110	-5.50000e+00	4.069320e+05	
111	-5.55000e+00	4.120460e+05	
112	-5.60000e+00	4.170906e+05	

Index   v-sweep         rds             
--------------------------------------------------------------------------------
113	-5.65000e+00	4.220671e+05	
114	-5.70000e+00	4.269769e+05	
115	-5.75000e+00	4.318212e+05	
116	-5.80000e+00	4.366012e+05	
117	-5.85000e+00	4.413182e+05	
118	-5.90000e+00	4.459733e+05	
119	-5.95000e+00	4.505676e+05	
120	-6.00000e+00	4.551024e+05	
121	-6.05000e+00	4.595786e+05	
122	-6.10000e+00	4.639974e+05	
123	-6.15000e+00	4.683598e+05	
124	-6.20000e+00	4.726667e+05	
125	-6.25000e+00	4.769192e+05	
126	-6.30000e+00	4.811181e+05	
127	-6.35000e+00	4.852646e+05	
128	-6.40000e+00	4.893593e+05	
129	-6.45000e+00	4.934033e+05	
130	-6.50000e+00	4.973973e+05	
131	-6.55000e+00	5.013422e+05	
132	-6.60000e+00	5.052387e+05	
Reset re-loads circuit ***************************

Circuit: ***************************

Note: No ".plot", ".print", or ".fourier" lines; no simulations run
