
Note: Compatibility modes selected: hs

Warning: m=xx on .subckt line will override multiplier m hierarchy!


Circuit: ***************************

Doing analysis at TEMP = -40.000000 and TNOM = -40.000000


No. of Data Rows : 133
                          ***************************
                          DC transfer characteristic  Mon Jan  9 13:57:55  2023
--------------------------------------------------------------------------------
Index   v-sweep         rds             
--------------------------------------------------------------------------------
0	0.000000e+00	3.197456e+05	
1	-5.00000e-02	5.186946e+05	
2	-1.00000e-01	1.123550e+06	
3	-1.50000e-01	3.353099e+06	
4	-2.00000e-01	7.410477e+06	
5	-2.50000e-01	1.037230e+07	
6	-3.00000e-01	1.205032e+07	
7	-3.50000e-01	1.314392e+07	
8	-4.00000e-01	1.397970e+07	
9	-4.50000e-01	1.468364e+07	
10	-5.00000e-01	1.530804e+07	
11	-5.50000e-01	1.587730e+07	
12	-6.00000e-01	1.640419e+07	
13	-6.50000e-01	1.689615e+07	
14	-7.00000e-01	1.735798e+07	
15	-7.50000e-01	1.779304e+07	
16	-8.00000e-01	1.820388e+07	
17	-8.50000e-01	1.859249e+07	
18	-9.00000e-01	1.896056e+07	
19	-9.50000e-01	1.930951e+07	
20	-1.00000e+00	1.964059e+07	
21	-1.05000e+00	1.995493e+07	
22	-1.10000e+00	2.025353e+07	
23	-1.15000e+00	2.053730e+07	
24	-1.20000e+00	2.080710e+07	
25	-1.25000e+00	2.106370e+07	
26	-1.30000e+00	2.130781e+07	
27	-1.35000e+00	2.154010e+07	
28	-1.40000e+00	2.176119e+07	
29	-1.45000e+00	2.197166e+07	
30	-1.50000e+00	2.217205e+07	
31	-1.55000e+00	2.236287e+07	
32	-1.60000e+00	2.254459e+07	
33	-1.65000e+00	2.271766e+07	
34	-1.70000e+00	2.288250e+07	
35	-1.75000e+00	2.303949e+07	
36	-1.80000e+00	2.318902e+07	
37	-1.85000e+00	2.333142e+07	
38	-1.90000e+00	2.346704e+07	
39	-1.95000e+00	2.359617e+07	
40	-2.00000e+00	2.371912e+07	
41	-2.05000e+00	2.383616e+07	
42	-2.10000e+00	2.394755e+07	
43	-2.15000e+00	2.405355e+07	
44	-2.20000e+00	2.415438e+07	
45	-2.25000e+00	2.425027e+07	
46	-2.30000e+00	2.434143e+07	
47	-2.35000e+00	2.442807e+07	
48	-2.40000e+00	2.451037e+07	
49	-2.45000e+00	2.458851e+07	
50	-2.50000e+00	2.466266e+07	
51	-2.55000e+00	2.473300e+07	
52	-2.60000e+00	2.479967e+07	
53	-2.65000e+00	2.486282e+07	
54	-2.70000e+00	2.492259e+07	

Index   v-sweep         rds             
--------------------------------------------------------------------------------
55	-2.75000e+00	2.497912e+07	
56	-2.80000e+00	2.503253e+07	
57	-2.85000e+00	2.508294e+07	
58	-2.90000e+00	2.513048e+07	
59	-2.95000e+00	2.517526e+07	
60	-3.00000e+00	2.521736e+07	
61	-3.05000e+00	2.525691e+07	
62	-3.10000e+00	2.529400e+07	
63	-3.15000e+00	2.532871e+07	
64	-3.20000e+00	2.536114e+07	
65	-3.25000e+00	2.539136e+07	
66	-3.30000e+00	2.541947e+07	
67	-3.35000e+00	2.544553e+07	
68	-3.40000e+00	2.546963e+07	
69	-3.45000e+00	2.549182e+07	
70	-3.50000e+00	2.551219e+07	
71	-3.55000e+00	2.553078e+07	
72	-3.60000e+00	2.554768e+07	
73	-3.65000e+00	2.556292e+07	
74	-3.70000e+00	2.557658e+07	
75	-3.75000e+00	2.558870e+07	
76	-3.80000e+00	2.559934e+07	
77	-3.85000e+00	2.560854e+07	
78	-3.90000e+00	2.561636e+07	
79	-3.95000e+00	2.562284e+07	
80	-4.00000e+00	2.562802e+07	
81	-4.05000e+00	2.563195e+07	
82	-4.10000e+00	2.563467e+07	
83	-4.15000e+00	2.563622e+07	
84	-4.20000e+00	2.563663e+07	
85	-4.25000e+00	2.563593e+07	
86	-4.30000e+00	2.563417e+07	
87	-4.35000e+00	2.563138e+07	
88	-4.40000e+00	2.562758e+07	
89	-4.45000e+00	2.562281e+07	
90	-4.50000e+00	2.561710e+07	
91	-4.55000e+00	2.561048e+07	
92	-4.60000e+00	2.560297e+07	
93	-4.65000e+00	2.559459e+07	
94	-4.70000e+00	2.558538e+07	
95	-4.75000e+00	2.557536e+07	
96	-4.80000e+00	2.556454e+07	
97	-4.85000e+00	2.555296e+07	
98	-4.90000e+00	2.554063e+07	
99	-4.95000e+00	2.552758e+07	
100	-5.00000e+00	2.551382e+07	
101	-5.05000e+00	2.549937e+07	
102	-5.10000e+00	2.548425e+07	
103	-5.15000e+00	2.546848e+07	
104	-5.20000e+00	2.545207e+07	
105	-5.25000e+00	2.543505e+07	
106	-5.30000e+00	2.541742e+07	
107	-5.35000e+00	2.539920e+07	
108	-5.40000e+00	2.538041e+07	
109	-5.45000e+00	2.536107e+07	
110	-5.50000e+00	2.534117e+07	
111	-5.55000e+00	2.532075e+07	
112	-5.60000e+00	2.529980e+07	

Index   v-sweep         rds             
--------------------------------------------------------------------------------
113	-5.65000e+00	2.527834e+07	
114	-5.70000e+00	2.525639e+07	
115	-5.75000e+00	2.523396e+07	
116	-5.80000e+00	2.521105e+07	
117	-5.85000e+00	2.518767e+07	
118	-5.90000e+00	2.516385e+07	
119	-5.95000e+00	2.513958e+07	
120	-6.00000e+00	2.511488e+07	
121	-6.05000e+00	2.508976e+07	
122	-6.10000e+00	2.506422e+07	
123	-6.15000e+00	2.503827e+07	
124	-6.20000e+00	2.501193e+07	
125	-6.25000e+00	2.498520e+07	
126	-6.30000e+00	2.495809e+07	
127	-6.35000e+00	2.493060e+07	
128	-6.40000e+00	2.490275e+07	
129	-6.45000e+00	2.487454e+07	
130	-6.50000e+00	2.484598e+07	
131	-6.55000e+00	2.481708e+07	
132	-6.60000e+00	2.478784e+07	
Reset re-loads circuit ***************************

Circuit: ***************************

Doing analysis at TEMP = -40.000000 and TNOM = -40.000000


No. of Data Rows : 133
                          ***************************
                          DC transfer characteristic  Mon Jan  9 13:57:55  2023
--------------------------------------------------------------------------------
Index   v-sweep         rds             
--------------------------------------------------------------------------------
0	0.000000e+00	4.230589e+04	
1	-5.00000e-02	4.551902e+04	
2	-1.00000e-01	4.915357e+04	
3	-1.50000e-01	5.329748e+04	
4	-2.00000e-01	5.806480e+04	
5	-2.50000e-01	6.360610e+04	
6	-3.00000e-01	7.012397e+04	
7	-3.50000e-01	7.789711e+04	
8	-4.00000e-01	8.731819e+04	
9	-4.50000e-01	9.895488e+04	
10	-5.00000e-01	1.136488e+05	
11	-5.50000e-01	1.326712e+05	
12	-6.00000e-01	1.579335e+05	
13	-6.50000e-01	1.921093e+05	
14	-7.00000e-01	2.380124e+05	
15	-7.50000e-01	2.959839e+05	
16	-8.00000e-01	3.606968e+05	
17	-8.50000e-01	4.240400e+05	
18	-9.00000e-01	4.818245e+05	
19	-9.50000e-01	5.342398e+05	
20	-1.00000e+00	5.827784e+05	
21	-1.05000e+00	6.286846e+05	
22	-1.10000e+00	6.727464e+05	
23	-1.15000e+00	7.154296e+05	
24	-1.20000e+00	7.570100e+05	
25	-1.25000e+00	7.976560e+05	
26	-1.30000e+00	8.374747e+05	
27	-1.35000e+00	8.765379e+05	
28	-1.40000e+00	9.148958e+05	
29	-1.45000e+00	9.525857e+05	
30	-1.50000e+00	9.896365e+05	
31	-1.55000e+00	1.026071e+06	
32	-1.60000e+00	1.061910e+06	
33	-1.65000e+00	1.097169e+06	
34	-1.70000e+00	1.131864e+06	
35	-1.75000e+00	1.166009e+06	
36	-1.80000e+00	1.199617e+06	
37	-1.85000e+00	1.232698e+06	
38	-1.90000e+00	1.265266e+06	
39	-1.95000e+00	1.297330e+06	
40	-2.00000e+00	1.328901e+06	
41	-2.05000e+00	1.359989e+06	
42	-2.10000e+00	1.390603e+06	
43	-2.15000e+00	1.420753e+06	
44	-2.20000e+00	1.450448e+06	
45	-2.25000e+00	1.479697e+06	
46	-2.30000e+00	1.508508e+06	
47	-2.35000e+00	1.536889e+06	
48	-2.40000e+00	1.564849e+06	
49	-2.45000e+00	1.592395e+06	
50	-2.50000e+00	1.619536e+06	
51	-2.55000e+00	1.646278e+06	
52	-2.60000e+00	1.672630e+06	
53	-2.65000e+00	1.698598e+06	
54	-2.70000e+00	1.724189e+06	

Index   v-sweep         rds             
--------------------------------------------------------------------------------
55	-2.75000e+00	1.749411e+06	
56	-2.80000e+00	1.774270e+06	
57	-2.85000e+00	1.798772e+06	
58	-2.90000e+00	1.822924e+06	
59	-2.95000e+00	1.846733e+06	
60	-3.00000e+00	1.870204e+06	
61	-3.05000e+00	1.893344e+06	
62	-3.10000e+00	1.916158e+06	
63	-3.15000e+00	1.938652e+06	
64	-3.20000e+00	1.960832e+06	
65	-3.25000e+00	1.982703e+06	
66	-3.30000e+00	2.004270e+06	
67	-3.35000e+00	2.025540e+06	
68	-3.40000e+00	2.046516e+06	
69	-3.45000e+00	2.067205e+06	
70	-3.50000e+00	2.087610e+06	
71	-3.55000e+00	2.107737e+06	
72	-3.60000e+00	2.127591e+06	
73	-3.65000e+00	2.147175e+06	
74	-3.70000e+00	2.166495e+06	
75	-3.75000e+00	2.185555e+06	
76	-3.80000e+00	2.204359e+06	
77	-3.85000e+00	2.222911e+06	
78	-3.90000e+00	2.241216e+06	
79	-3.95000e+00	2.259276e+06	
80	-4.00000e+00	2.277097e+06	
81	-4.05000e+00	2.294682e+06	
82	-4.10000e+00	2.312034e+06	
83	-4.15000e+00	2.329157e+06	
84	-4.20000e+00	2.346054e+06	
85	-4.25000e+00	2.362730e+06	
86	-4.30000e+00	2.379186e+06	
87	-4.35000e+00	2.395427e+06	
88	-4.40000e+00	2.411455e+06	
89	-4.45000e+00	2.427273e+06	
90	-4.50000e+00	2.442885e+06	
91	-4.55000e+00	2.458292e+06	
92	-4.60000e+00	2.473498e+06	
93	-4.65000e+00	2.488506e+06	
94	-4.70000e+00	2.503317e+06	
95	-4.75000e+00	2.517934e+06	
96	-4.80000e+00	2.532360e+06	
97	-4.85000e+00	2.546596e+06	
98	-4.90000e+00	2.560646e+06	
99	-4.95000e+00	2.574510e+06	
100	-5.00000e+00	2.588192e+06	
101	-5.05000e+00	2.601693e+06	
102	-5.10000e+00	2.615014e+06	
103	-5.15000e+00	2.628159e+06	
104	-5.20000e+00	2.641127e+06	
105	-5.25000e+00	2.653922e+06	
106	-5.30000e+00	2.666544e+06	
107	-5.35000e+00	2.678996e+06	
108	-5.40000e+00	2.691278e+06	
109	-5.45000e+00	2.703392e+06	
110	-5.50000e+00	2.715340e+06	
111	-5.55000e+00	2.727122e+06	
112	-5.60000e+00	2.738740e+06	

Index   v-sweep         rds             
--------------------------------------------------------------------------------
113	-5.65000e+00	2.750194e+06	
114	-5.70000e+00	2.761487e+06	
115	-5.75000e+00	2.772619e+06	
116	-5.80000e+00	2.783592e+06	
117	-5.85000e+00	2.794405e+06	
118	-5.90000e+00	2.805060e+06	
119	-5.95000e+00	2.815558e+06	
120	-6.00000e+00	2.825901e+06	
121	-6.05000e+00	2.836087e+06	
122	-6.10000e+00	2.846119e+06	
123	-6.15000e+00	2.855998e+06	
124	-6.20000e+00	2.865723e+06	
125	-6.25000e+00	2.875295e+06	
126	-6.30000e+00	2.884716e+06	
127	-6.35000e+00	2.893986e+06	
128	-6.40000e+00	2.903105e+06	
129	-6.45000e+00	2.912075e+06	
130	-6.50000e+00	2.920895e+06	
131	-6.55000e+00	2.929566e+06	
132	-6.60000e+00	2.938089e+06	
Reset re-loads circuit ***************************

Circuit: ***************************

Doing analysis at TEMP = -40.000000 and TNOM = -40.000000


No. of Data Rows : 133
                          ***************************
                          DC transfer characteristic  Mon Jan  9 13:57:55  2023
--------------------------------------------------------------------------------
Index   v-sweep         rds             
--------------------------------------------------------------------------------
0	0.000000e+00	2.540081e+04	
1	-5.00000e-02	2.655544e+04	
2	-1.00000e-01	2.779054e+04	
3	-1.50000e-01	2.911472e+04	
4	-2.00000e-01	3.053781e+04	
5	-2.50000e-01	3.207121e+04	
6	-3.00000e-01	3.372808e+04	
7	-3.50000e-01	3.552380e+04	
8	-4.00000e-01	3.747637e+04	
9	-4.50000e-01	3.960706e+04	
10	-5.00000e-01	4.194112e+04	
11	-5.50000e-01	4.450880e+04	
12	-6.00000e-01	4.734656e+04	
13	-6.50000e-01	5.049880e+04	
14	-7.00000e-01	5.402005e+04	
15	-7.50000e-01	5.797788e+04	
16	-8.00000e-01	6.245689e+04	
17	-8.50000e-01	6.756403e+04	
18	-9.00000e-01	7.343554e+04	
19	-9.50000e-01	8.024594e+04	
20	-1.00000e+00	8.821825e+04	
21	-1.05000e+00	9.763237e+04	
22	-1.10000e+00	1.088218e+05	
23	-1.15000e+00	1.221349e+05	
24	-1.20000e+00	1.378234e+05	
25	-1.25000e+00	1.558512e+05	
26	-1.30000e+00	1.757557e+05	
27	-1.35000e+00	1.967853e+05	
28	-1.40000e+00	2.182471e+05	
29	-1.45000e+00	2.397135e+05	
30	-1.50000e+00	2.609896e+05	
31	-1.55000e+00	2.820048e+05	
32	-1.60000e+00	3.027395e+05	
33	-1.65000e+00	3.231917e+05	
34	-1.70000e+00	3.433650e+05	
35	-1.75000e+00	3.632640e+05	
36	-1.80000e+00	3.828932e+05	
37	-1.85000e+00	4.022572e+05	
38	-1.90000e+00	4.213603e+05	
39	-1.95000e+00	4.402067e+05	
40	-2.00000e+00	4.588003e+05	
41	-2.05000e+00	4.771451e+05	
42	-2.10000e+00	4.952450e+05	
43	-2.15000e+00	5.131039e+05	
44	-2.20000e+00	5.307255e+05	
45	-2.25000e+00	5.481137e+05	
46	-2.30000e+00	5.652722e+05	
47	-2.35000e+00	5.822047e+05	
48	-2.40000e+00	5.989147e+05	
49	-2.45000e+00	6.154060e+05	
50	-2.50000e+00	6.316820e+05	
51	-2.55000e+00	6.477462e+05	
52	-2.60000e+00	6.636021e+05	
53	-2.65000e+00	6.792530e+05	
54	-2.70000e+00	6.947024e+05	

Index   v-sweep         rds             
--------------------------------------------------------------------------------
55	-2.75000e+00	7.099534e+05	
56	-2.80000e+00	7.250093e+05	
57	-2.85000e+00	7.398732e+05	
58	-2.90000e+00	7.545483e+05	
59	-2.95000e+00	7.690377e+05	
60	-3.00000e+00	7.833443e+05	
61	-3.05000e+00	7.974710e+05	
62	-3.10000e+00	8.114209e+05	
63	-3.15000e+00	8.251967e+05	
64	-3.20000e+00	8.388012e+05	
65	-3.25000e+00	8.522373e+05	
66	-3.30000e+00	8.655074e+05	
67	-3.35000e+00	8.786144e+05	
68	-3.40000e+00	8.915608e+05	
69	-3.45000e+00	9.043491e+05	
70	-3.50000e+00	9.169818e+05	
71	-3.55000e+00	9.294615e+05	
72	-3.60000e+00	9.417904e+05	
73	-3.65000e+00	9.539709e+05	
74	-3.70000e+00	9.660055e+05	
75	-3.75000e+00	9.778962e+05	
76	-3.80000e+00	9.896453e+05	
77	-3.85000e+00	1.001255e+06	
78	-3.90000e+00	1.012728e+06	
79	-3.95000e+00	1.024065e+06	
80	-4.00000e+00	1.035269e+06	
81	-4.05000e+00	1.046342e+06	
82	-4.10000e+00	1.057286e+06	
83	-4.15000e+00	1.068103e+06	
84	-4.20000e+00	1.078794e+06	
85	-4.25000e+00	1.089362e+06	
86	-4.30000e+00	1.099808e+06	
87	-4.35000e+00	1.110133e+06	
88	-4.40000e+00	1.120341e+06	
89	-4.45000e+00	1.130432e+06	
90	-4.50000e+00	1.140407e+06	
91	-4.55000e+00	1.150269e+06	
92	-4.60000e+00	1.160020e+06	
93	-4.65000e+00	1.169659e+06	
94	-4.70000e+00	1.179190e+06	
95	-4.75000e+00	1.188612e+06	
96	-4.80000e+00	1.197929e+06	
97	-4.85000e+00	1.207140e+06	
98	-4.90000e+00	1.216247e+06	
99	-4.95000e+00	1.225252e+06	
100	-5.00000e+00	1.234155e+06	
101	-5.05000e+00	1.242958e+06	
102	-5.10000e+00	1.251662e+06	
103	-5.15000e+00	1.260267e+06	
104	-5.20000e+00	1.268775e+06	
105	-5.25000e+00	1.277186e+06	
106	-5.30000e+00	1.285503e+06	
107	-5.35000e+00	1.293724e+06	
108	-5.40000e+00	1.301852e+06	
109	-5.45000e+00	1.309886e+06	
110	-5.50000e+00	1.317828e+06	
111	-5.55000e+00	1.325679e+06	
112	-5.60000e+00	1.333439e+06	

Index   v-sweep         rds             
--------------------------------------------------------------------------------
113	-5.65000e+00	1.341108e+06	
114	-5.70000e+00	1.348687e+06	
115	-5.75000e+00	1.356177e+06	
116	-5.80000e+00	1.363579e+06	
117	-5.85000e+00	1.370892e+06	
118	-5.90000e+00	1.378117e+06	
119	-5.95000e+00	1.385254e+06	
120	-6.00000e+00	1.392305e+06	
121	-6.05000e+00	1.399268e+06	
122	-6.10000e+00	1.406145e+06	
123	-6.15000e+00	1.412936e+06	
124	-6.20000e+00	1.419641e+06	
125	-6.25000e+00	1.426260e+06	
126	-6.30000e+00	1.432794e+06	
127	-6.35000e+00	1.439242e+06	
128	-6.40000e+00	1.445605e+06	
129	-6.45000e+00	1.451883e+06	
130	-6.50000e+00	1.458076e+06	
131	-6.55000e+00	1.464184e+06	
132	-6.60000e+00	1.470208e+06	
Reset re-loads circuit ***************************

Circuit: ***************************

Doing analysis at TEMP = -40.000000 and TNOM = -40.000000


No. of Data Rows : 133
                          ***************************
                          DC transfer characteristic  Mon Jan  9 13:57:55  2023
--------------------------------------------------------------------------------
Index   v-sweep         rds             
--------------------------------------------------------------------------------
0	0.000000e+00	1.917295e+04	
1	-5.00000e-02	1.981724e+04	
2	-1.00000e-01	2.049255e+04	
3	-1.50000e-01	2.120113e+04	
4	-2.00000e-01	2.194545e+04	
5	-2.50000e-01	2.272822e+04	
6	-3.00000e-01	2.355246e+04	
7	-3.50000e-01	2.442150e+04	
8	-4.00000e-01	2.533903e+04	
9	-4.50000e-01	2.630916e+04	
10	-5.00000e-01	2.733648e+04	
11	-5.50000e-01	2.842614e+04	
12	-6.00000e-01	2.958391e+04	
13	-6.50000e-01	3.081631e+04	
14	-7.00000e-01	3.213069e+04	
15	-7.50000e-01	3.353542e+04	
16	-8.00000e-01	3.504003e+04	
17	-8.50000e-01	3.665545e+04	
18	-9.00000e-01	3.839423e+04	
19	-9.50000e-01	4.027088e+04	
20	-1.00000e+00	4.230227e+04	
21	-1.05000e+00	4.450809e+04	
22	-1.10000e+00	4.691145e+04	
23	-1.15000e+00	4.953968e+04	
24	-1.20000e+00	5.242522e+04	
25	-1.25000e+00	5.560687e+04	
26	-1.30000e+00	5.913123e+04	
27	-1.35000e+00	6.305460e+04	
28	-1.40000e+00	6.744511e+04	
29	-1.45000e+00	7.238511e+04	
30	-1.50000e+00	7.797327e+04	
31	-1.55000e+00	8.432486e+04	
32	-1.60000e+00	9.156703e+04	
33	-1.65000e+00	9.982330e+04	
34	-1.70000e+00	1.091807e+05	
35	-1.75000e+00	1.196443e+05	
36	-1.80000e+00	1.311063e+05	
37	-1.85000e+00	1.433638e+05	
38	-1.90000e+00	1.561791e+05	
39	-1.95000e+00	1.693377e+05	
40	-2.00000e+00	1.826748e+05	
41	-2.05000e+00	1.960749e+05	
42	-2.10000e+00	2.094613e+05	
43	-2.15000e+00	2.227835e+05	
44	-2.20000e+00	2.360089e+05	
45	-2.25000e+00	2.491163e+05	
46	-2.30000e+00	2.620921e+05	
47	-2.35000e+00	2.749274e+05	
48	-2.40000e+00	2.876169e+05	
49	-2.45000e+00	3.001572e+05	
50	-2.50000e+00	3.125466e+05	
51	-2.55000e+00	3.247846e+05	
52	-2.60000e+00	3.368714e+05	
53	-2.65000e+00	3.488075e+05	
54	-2.70000e+00	3.605940e+05	

Index   v-sweep         rds             
--------------------------------------------------------------------------------
55	-2.75000e+00	3.722324e+05	
56	-2.80000e+00	3.837242e+05	
57	-2.85000e+00	3.950711e+05	
58	-2.90000e+00	4.062749e+05	
59	-2.95000e+00	4.173376e+05	
60	-3.00000e+00	4.282611e+05	
61	-3.05000e+00	4.390474e+05	
62	-3.10000e+00	4.496984e+05	
63	-3.15000e+00	4.602162e+05	
64	-3.20000e+00	4.706029e+05	
65	-3.25000e+00	4.808603e+05	
66	-3.30000e+00	4.909904e+05	
67	-3.35000e+00	5.009954e+05	
68	-3.40000e+00	5.108769e+05	
69	-3.45000e+00	5.206371e+05	
70	-3.50000e+00	5.302778e+05	
71	-3.55000e+00	5.398009e+05	
72	-3.60000e+00	5.492082e+05	
73	-3.65000e+00	5.585016e+05	
74	-3.70000e+00	5.676827e+05	
75	-3.75000e+00	5.767535e+05	
76	-3.80000e+00	5.857155e+05	
77	-3.85000e+00	5.945706e+05	
78	-3.90000e+00	6.033203e+05	
79	-3.95000e+00	6.119664e+05	
80	-4.00000e+00	6.205104e+05	
81	-4.05000e+00	6.289539e+05	
82	-4.10000e+00	6.372985e+05	
83	-4.15000e+00	6.455457e+05	
84	-4.20000e+00	6.536970e+05	
85	-4.25000e+00	6.617538e+05	
86	-4.30000e+00	6.697176e+05	
87	-4.35000e+00	6.775898e+05	
88	-4.40000e+00	6.853718e+05	
89	-4.45000e+00	6.930649e+05	
90	-4.50000e+00	7.006705e+05	
91	-4.55000e+00	7.081898e+05	
92	-4.60000e+00	7.156242e+05	
93	-4.65000e+00	7.229747e+05	
94	-4.70000e+00	7.302427e+05	
95	-4.75000e+00	7.374293e+05	
96	-4.80000e+00	7.445357e+05	
97	-4.85000e+00	7.515630e+05	
98	-4.90000e+00	7.585122e+05	
99	-4.95000e+00	7.653844e+05	
100	-5.00000e+00	7.721807e+05	
101	-5.05000e+00	7.789020e+05	
102	-5.10000e+00	7.855492e+05	
103	-5.15000e+00	7.921234e+05	
104	-5.20000e+00	7.986254e+05	
105	-5.25000e+00	8.050561e+05	
106	-5.30000e+00	8.114163e+05	
107	-5.35000e+00	8.177067e+05	
108	-5.40000e+00	8.239283e+05	
109	-5.45000e+00	8.300817e+05	
110	-5.50000e+00	8.361675e+05	
111	-5.55000e+00	8.421866e+05	
112	-5.60000e+00	8.481395e+05	

Index   v-sweep         rds             
--------------------------------------------------------------------------------
113	-5.65000e+00	8.540268e+05	
114	-5.70000e+00	8.598491e+05	
115	-5.75000e+00	8.656070e+05	
116	-5.80000e+00	8.713009e+05	
117	-5.85000e+00	8.769314e+05	
118	-5.90000e+00	8.824988e+05	
119	-5.95000e+00	8.880037e+05	
120	-6.00000e+00	8.934463e+05	
121	-6.05000e+00	8.988272e+05	
122	-6.10000e+00	9.041465e+05	
123	-6.15000e+00	9.094046e+05	
124	-6.20000e+00	9.146018e+05	
125	-6.25000e+00	9.197384e+05	
126	-6.30000e+00	9.248145e+05	
127	-6.35000e+00	9.298303e+05	
128	-6.40000e+00	9.347862e+05	
129	-6.45000e+00	9.396821e+05	
130	-6.50000e+00	9.445182e+05	
131	-6.55000e+00	9.492947e+05	
132	-6.60000e+00	9.540117e+05	
Reset re-loads circuit ***************************

Circuit: ***************************

Doing analysis at TEMP = -40.000000 and TNOM = -40.000000


No. of Data Rows : 133
                          ***************************
                          DC transfer characteristic  Mon Jan  9 13:57:55  2023
--------------------------------------------------------------------------------
Index   v-sweep         rds             
--------------------------------------------------------------------------------
0	0.000000e+00	1.586968e+04	
1	-5.00000e-02	1.629872e+04	
2	-1.00000e-01	1.674364e+04	
3	-1.50000e-01	1.720532e+04	
4	-2.00000e-01	1.768470e+04	
5	-2.50000e-01	1.818278e+04	
6	-3.00000e-01	1.870065e+04	
7	-3.50000e-01	1.923951e+04	
8	-4.00000e-01	1.980062e+04	
9	-4.50000e-01	2.038536e+04	
10	-5.00000e-01	2.099522e+04	
11	-5.50000e-01	2.163183e+04	
12	-6.00000e-01	2.229697e+04	
13	-6.50000e-01	2.299255e+04	
14	-7.00000e-01	2.372069e+04	
15	-7.50000e-01	2.448369e+04	
16	-8.00000e-01	2.528407e+04	
17	-8.50000e-01	2.612462e+04	
18	-9.00000e-01	2.700839e+04	
19	-9.50000e-01	2.793876e+04	
20	-1.00000e+00	2.891948e+04	
21	-1.05000e+00	2.995468e+04	
22	-1.10000e+00	3.104898e+04	
23	-1.15000e+00	3.220753e+04	
24	-1.20000e+00	3.343610e+04	
25	-1.25000e+00	3.474116e+04	
26	-1.30000e+00	3.612999e+04	
27	-1.35000e+00	3.761086e+04	
28	-1.40000e+00	3.919311e+04	
29	-1.45000e+00	4.088743e+04	
30	-1.50000e+00	4.270603e+04	
31	-1.55000e+00	4.466301e+04	
32	-1.60000e+00	4.677465e+04	
33	-1.65000e+00	4.905995e+04	
34	-1.70000e+00	5.154123e+04	
35	-1.75000e+00	5.424493e+04	
36	-1.80000e+00	5.720275e+04	
37	-1.85000e+00	6.045318e+04	
38	-1.90000e+00	6.404361e+04	
39	-1.95000e+00	6.803302e+04	
40	-2.00000e+00	7.249476e+04	
41	-2.05000e+00	7.751718e+04	
42	-2.10000e+00	8.319738e+04	
43	-2.15000e+00	8.962146e+04	
44	-2.20000e+00	9.683181e+04	
45	-2.25000e+00	1.047985e+05	
46	-2.30000e+00	1.134186e+05	
47	-2.35000e+00	1.225464e+05	
48	-2.40000e+00	1.320312e+05	
49	-2.45000e+00	1.417431e+05	
50	-2.50000e+00	1.515812e+05	
51	-2.55000e+00	1.614719e+05	
52	-2.60000e+00	1.713633e+05	
53	-2.65000e+00	1.812191e+05	
54	-2.70000e+00	1.910145e+05	

Index   v-sweep         rds             
--------------------------------------------------------------------------------
55	-2.75000e+00	2.007321e+05	
56	-2.80000e+00	2.103601e+05	
57	-2.85000e+00	2.198906e+05	
58	-2.90000e+00	2.293180e+05	
59	-2.95000e+00	2.386389e+05	
60	-3.00000e+00	2.478511e+05	
61	-3.05000e+00	2.569532e+05	
62	-3.10000e+00	2.659449e+05	
63	-3.15000e+00	2.748261e+05	
64	-3.20000e+00	2.835972e+05	
65	-3.25000e+00	2.922589e+05	
66	-3.30000e+00	3.008122e+05	
67	-3.35000e+00	3.092581e+05	
68	-3.40000e+00	3.175978e+05	
69	-3.45000e+00	3.258326e+05	
70	-3.50000e+00	3.339639e+05	
71	-3.55000e+00	3.419930e+05	
72	-3.60000e+00	3.499213e+05	
73	-3.65000e+00	3.577504e+05	
74	-3.70000e+00	3.654817e+05	
75	-3.75000e+00	3.731165e+05	
76	-3.80000e+00	3.806565e+05	
77	-3.85000e+00	3.881031e+05	
78	-3.90000e+00	3.954576e+05	
79	-3.95000e+00	4.027216e+05	
80	-4.00000e+00	4.098964e+05	
81	-4.05000e+00	4.169835e+05	
82	-4.10000e+00	4.239842e+05	
83	-4.15000e+00	4.308999e+05	
84	-4.20000e+00	4.377319e+05	
85	-4.25000e+00	4.444816e+05	
86	-4.30000e+00	4.511502e+05	
87	-4.35000e+00	4.577391e+05	
88	-4.40000e+00	4.642495e+05	
89	-4.45000e+00	4.706826e+05	
90	-4.50000e+00	4.770396e+05	
91	-4.55000e+00	4.833218e+05	
92	-4.60000e+00	4.895303e+05	
93	-4.65000e+00	4.956662e+05	
94	-4.70000e+00	5.017307e+05	
95	-4.75000e+00	5.077249e+05	
96	-4.80000e+00	5.136498e+05	
97	-4.85000e+00	5.195065e+05	
98	-4.90000e+00	5.252961e+05	
99	-4.95000e+00	5.310195e+05	
100	-5.00000e+00	5.366778e+05	
101	-5.05000e+00	5.422719e+05	
102	-5.10000e+00	5.478028e+05	
103	-5.15000e+00	5.532713e+05	
104	-5.20000e+00	5.586784e+05	
105	-5.25000e+00	5.640249e+05	
106	-5.30000e+00	5.693117e+05	
107	-5.35000e+00	5.745396e+05	
108	-5.40000e+00	5.797094e+05	
109	-5.45000e+00	5.848219e+05	
110	-5.50000e+00	5.898778e+05	
111	-5.55000e+00	5.948779e+05	
112	-5.60000e+00	5.998228e+05	

Index   v-sweep         rds             
--------------------------------------------------------------------------------
113	-5.65000e+00	6.047132e+05	
114	-5.70000e+00	6.095497e+05	
115	-5.75000e+00	6.143331e+05	
116	-5.80000e+00	6.190638e+05	
117	-5.85000e+00	6.237424e+05	
118	-5.90000e+00	6.283695e+05	
119	-5.95000e+00	6.329455e+05	
120	-6.00000e+00	6.374711e+05	
121	-6.05000e+00	6.419466e+05	
122	-6.10000e+00	6.463724e+05	
123	-6.15000e+00	6.507491e+05	
124	-6.20000e+00	6.550769e+05	
125	-6.25000e+00	6.593562e+05	
126	-6.30000e+00	6.635874e+05	
127	-6.35000e+00	6.677707e+05	
128	-6.40000e+00	6.719065e+05	
129	-6.45000e+00	6.759950e+05	
130	-6.50000e+00	6.800364e+05	
131	-6.55000e+00	6.840311e+05	
132	-6.60000e+00	6.879790e+05	
Reset re-loads circuit ***************************

Circuit: ***************************

Doing analysis at TEMP = -40.000000 and TNOM = -40.000000


No. of Data Rows : 133
                          ***************************
                          DC transfer characteristic  Mon Jan  9 13:57:55  2023
--------------------------------------------------------------------------------
Index   v-sweep         rds             
--------------------------------------------------------------------------------
0	0.000000e+00	1.378755e+04	
1	-5.00000e-02	1.410149e+04	
2	-1.00000e-01	1.442490e+04	
3	-1.50000e-01	1.475820e+04	
4	-2.00000e-01	1.510184e+04	
5	-2.50000e-01	1.545629e+04	
6	-3.00000e-01	1.582206e+04	
7	-3.50000e-01	1.619968e+04	
8	-4.00000e-01	1.658972e+04	
9	-4.50000e-01	1.699280e+04	
10	-5.00000e-01	1.740955e+04	
11	-5.50000e-01	1.784068e+04	
12	-6.00000e-01	1.828693e+04	
13	-6.50000e-01	1.874907e+04	
14	-7.00000e-01	1.922797e+04	
15	-7.50000e-01	1.972454e+04	
16	-8.00000e-01	2.023974e+04	
17	-8.50000e-01	2.077464e+04	
18	-9.00000e-01	2.133036e+04	
19	-9.50000e-01	2.190813e+04	
20	-1.00000e+00	2.250925e+04	
21	-1.05000e+00	2.313516e+04	
22	-1.10000e+00	2.378739e+04	
23	-1.15000e+00	2.446762e+04	
24	-1.20000e+00	2.517766e+04	
25	-1.25000e+00	2.591950e+04	
26	-1.30000e+00	2.669528e+04	
27	-1.35000e+00	2.750737e+04	
28	-1.40000e+00	2.835834e+04	
29	-1.45000e+00	2.925102e+04	
30	-1.50000e+00	3.018852e+04	
31	-1.55000e+00	3.117427e+04	
32	-1.60000e+00	3.221206e+04	
33	-1.65000e+00	3.330607e+04	
34	-1.70000e+00	3.446099e+04	
35	-1.75000e+00	3.568201e+04	
36	-1.80000e+00	3.697497e+04	
37	-1.85000e+00	3.834641e+04	
38	-1.90000e+00	3.980375e+04	
39	-1.95000e+00	4.135542e+04	
40	-2.00000e+00	4.301110e+04	
41	-2.05000e+00	4.478198e+04	
42	-2.10000e+00	4.668122e+04	
43	-2.15000e+00	4.872447e+04	
44	-2.20000e+00	5.093082e+04	
45	-2.25000e+00	5.332400e+04	
46	-2.30000e+00	5.593430e+04	
47	-2.35000e+00	5.880121e+04	
48	-2.40000e+00	6.197638e+04	
49	-2.45000e+00	6.552590e+04	
50	-2.50000e+00	6.952851e+04	
51	-2.55000e+00	7.406521e+04	
52	-2.60000e+00	7.919814e+04	
53	-2.65000e+00	8.494596e+04	
54	-2.70000e+00	9.127106e+04	

Index   v-sweep         rds             
--------------------------------------------------------------------------------
55	-2.75000e+00	9.808844e+04	
56	-2.80000e+00	1.052896e+05	
57	-2.85000e+00	1.127665e+05	
58	-2.90000e+00	1.204252e+05	
59	-2.95000e+00	1.281916e+05	
60	-3.00000e+00	1.360096e+05	
61	-3.05000e+00	1.438380e+05	
62	-3.10000e+00	1.516473e+05	
63	-3.15000e+00	1.594163e+05	
64	-3.20000e+00	1.671299e+05	
65	-3.25000e+00	1.747774e+05	
66	-3.30000e+00	1.823511e+05	
67	-3.35000e+00	1.898457e+05	
68	-3.40000e+00	1.972577e+05	
69	-3.45000e+00	2.045846e+05	
70	-3.50000e+00	2.118250e+05	
71	-3.55000e+00	2.189779e+05	
72	-3.60000e+00	2.260430e+05	
73	-3.65000e+00	2.330205e+05	
74	-3.70000e+00	2.399105e+05	
75	-3.75000e+00	2.467138e+05	
76	-3.80000e+00	2.534310e+05	
77	-3.85000e+00	2.600629e+05	
78	-3.90000e+00	2.666106e+05	
79	-3.95000e+00	2.730750e+05	
80	-4.00000e+00	2.794573e+05	
81	-4.05000e+00	2.857584e+05	
82	-4.10000e+00	2.919796e+05	
83	-4.15000e+00	2.981221e+05	
84	-4.20000e+00	3.041870e+05	
85	-4.25000e+00	3.101754e+05	
86	-4.30000e+00	3.160885e+05	
87	-4.35000e+00	3.219276e+05	
88	-4.40000e+00	3.276937e+05	
89	-4.45000e+00	3.333881e+05	
90	-4.50000e+00	3.390118e+05	
91	-4.55000e+00	3.445660e+05	
92	-4.60000e+00	3.500518e+05	
93	-4.65000e+00	3.554702e+05	
94	-4.70000e+00	3.608225e+05	
95	-4.75000e+00	3.661095e+05	
96	-4.80000e+00	3.713325e+05	
97	-4.85000e+00	3.764923e+05	
98	-4.90000e+00	3.815901e+05	
99	-4.95000e+00	3.866268e+05	
100	-5.00000e+00	3.916033e+05	
101	-5.05000e+00	3.965207e+05	
102	-5.10000e+00	4.013799e+05	
103	-5.15000e+00	4.061818e+05	
104	-5.20000e+00	4.109273e+05	
105	-5.25000e+00	4.156172e+05	
106	-5.30000e+00	4.202525e+05	
107	-5.35000e+00	4.248340e+05	
108	-5.40000e+00	4.293624e+05	
109	-5.45000e+00	4.338387e+05	
110	-5.50000e+00	4.382636e+05	
111	-5.55000e+00	4.426378e+05	
112	-5.60000e+00	4.469622e+05	

Index   v-sweep         rds             
--------------------------------------------------------------------------------
113	-5.65000e+00	4.512373e+05	
114	-5.70000e+00	4.554640e+05	
115	-5.75000e+00	4.596429e+05	
116	-5.80000e+00	4.637747e+05	
117	-5.85000e+00	4.678600e+05	
118	-5.90000e+00	4.718994e+05	
119	-5.95000e+00	4.758936e+05	
120	-6.00000e+00	4.798430e+05	
121	-6.05000e+00	4.837484e+05	
122	-6.10000e+00	4.876101e+05	
123	-6.15000e+00	4.914287e+05	
124	-6.20000e+00	4.952047e+05	
125	-6.25000e+00	4.989386e+05	
126	-6.30000e+00	5.026308e+05	
127	-6.35000e+00	5.062817e+05	
128	-6.40000e+00	5.098917e+05	
129	-6.45000e+00	5.134612e+05	
130	-6.50000e+00	5.169906e+05	
131	-6.55000e+00	5.204801e+05	
132	-6.60000e+00	5.239302e+05	
Reset re-loads circuit ***************************

Circuit: ***************************

Note: No ".plot", ".print", or ".fourier" lines; no simulations run
