
Note: Compatibility modes selected: hs

Warning: m=xx on .subckt line will override multiplier m hierarchy!


Circuit: ***************************

Doing analysis at TEMP = 125.000000 and TNOM = 125.000000


No. of Data Rows : 133
                          ***************************
                          DC transfer characteristic  Mon Jan  9 13:57:55  2023
--------------------------------------------------------------------------------
Index   v-sweep         rds             
--------------------------------------------------------------------------------
0	0.000000e+00	4.003124e+04	
1	-5.00000e-02	5.069459e+04	
2	-1.00000e-01	6.874275e+04	
3	-1.50000e-01	1.046753e+05	
4	-2.00000e-01	1.949590e+05	
5	-2.50000e-01	4.678840e+05	
6	-3.00000e-01	1.158800e+06	
7	-3.50000e-01	2.214933e+06	
8	-4.00000e-01	3.246994e+06	
9	-4.50000e-01	4.065523e+06	
10	-5.00000e-01	4.696111e+06	
11	-5.50000e-01	5.203557e+06	
12	-6.00000e-01	5.634932e+06	
13	-6.50000e-01	6.018487e+06	
14	-7.00000e-01	6.370627e+06	
15	-7.50000e-01	6.701029e+06	
16	-8.00000e-01	7.015577e+06	
17	-8.50000e-01	7.317978e+06	
18	-9.00000e-01	7.610652e+06	
19	-9.50000e-01	7.895232e+06	
20	-1.00000e+00	8.172857e+06	
21	-1.05000e+00	8.444346e+06	
22	-1.10000e+00	8.710304e+06	
23	-1.15000e+00	8.971192e+06	
24	-1.20000e+00	9.227367e+06	
25	-1.25000e+00	9.479118e+06	
26	-1.30000e+00	9.726678e+06	
27	-1.35000e+00	9.970243e+06	
28	-1.40000e+00	1.020998e+07	
29	-1.45000e+00	1.044603e+07	
30	-1.50000e+00	1.067852e+07	
31	-1.55000e+00	1.090757e+07	
32	-1.60000e+00	1.113327e+07	
33	-1.65000e+00	1.135572e+07	
34	-1.70000e+00	1.157501e+07	
35	-1.75000e+00	1.179121e+07	
36	-1.80000e+00	1.200440e+07	
37	-1.85000e+00	1.221465e+07	
38	-1.90000e+00	1.242203e+07	
39	-1.95000e+00	1.262659e+07	
40	-2.00000e+00	1.282841e+07	
41	-2.05000e+00	1.302753e+07	
42	-2.10000e+00	1.322401e+07	
43	-2.15000e+00	1.341790e+07	
44	-2.20000e+00	1.360926e+07	
45	-2.25000e+00	1.379814e+07	
46	-2.30000e+00	1.398458e+07	
47	-2.35000e+00	1.416862e+07	
48	-2.40000e+00	1.435032e+07	
49	-2.45000e+00	1.452972e+07	
50	-2.50000e+00	1.470686e+07	
51	-2.55000e+00	1.488178e+07	
52	-2.60000e+00	1.505451e+07	
53	-2.65000e+00	1.522511e+07	
54	-2.70000e+00	1.539360e+07	

Index   v-sweep         rds             
--------------------------------------------------------------------------------
55	-2.75000e+00	1.556003e+07	
56	-2.80000e+00	1.572443e+07	
57	-2.85000e+00	1.588683e+07	
58	-2.90000e+00	1.604727e+07	
59	-2.95000e+00	1.620578e+07	
60	-3.00000e+00	1.636239e+07	
61	-3.05000e+00	1.651714e+07	
62	-3.10000e+00	1.667006e+07	
63	-3.15000e+00	1.682117e+07	
64	-3.20000e+00	1.697051e+07	
65	-3.25000e+00	1.711810e+07	
66	-3.30000e+00	1.726397e+07	
67	-3.35000e+00	1.740814e+07	
68	-3.40000e+00	1.755065e+07	
69	-3.45000e+00	1.769152e+07	
70	-3.50000e+00	1.783078e+07	
71	-3.55000e+00	1.796844e+07	
72	-3.60000e+00	1.810453e+07	
73	-3.65000e+00	1.823907e+07	
74	-3.70000e+00	1.837208e+07	
75	-3.75000e+00	1.850360e+07	
76	-3.80000e+00	1.863362e+07	
77	-3.85000e+00	1.876219e+07	
78	-3.90000e+00	1.888930e+07	
79	-3.95000e+00	1.901499e+07	
80	-4.00000e+00	1.913927e+07	
81	-4.05000e+00	1.926215e+07	
82	-4.10000e+00	1.938366e+07	
83	-4.15000e+00	1.950381e+07	
84	-4.20000e+00	1.962261e+07	
85	-4.25000e+00	1.974008e+07	
86	-4.30000e+00	1.985623e+07	
87	-4.35000e+00	1.997107e+07	
88	-4.40000e+00	2.008462e+07	
89	-4.45000e+00	2.019689e+07	
90	-4.50000e+00	2.030789e+07	
91	-4.55000e+00	2.041763e+07	
92	-4.60000e+00	2.052613e+07	
93	-4.65000e+00	2.063338e+07	
94	-4.70000e+00	2.073941e+07	
95	-4.75000e+00	2.084421e+07	
96	-4.80000e+00	2.094780e+07	
97	-4.85000e+00	2.105019e+07	
98	-4.90000e+00	2.115138e+07	
99	-4.95000e+00	2.125138e+07	
100	-5.00000e+00	2.135020e+07	
101	-5.05000e+00	2.144783e+07	
102	-5.10000e+00	2.154430e+07	
103	-5.15000e+00	2.163960e+07	
104	-5.20000e+00	2.173373e+07	
105	-5.25000e+00	2.182671e+07	
106	-5.30000e+00	2.191854e+07	
107	-5.35000e+00	2.200921e+07	
108	-5.40000e+00	2.209875e+07	
109	-5.45000e+00	2.218714e+07	
110	-5.50000e+00	2.227439e+07	
111	-5.55000e+00	2.236051e+07	
112	-5.60000e+00	2.244549e+07	

Index   v-sweep         rds             
--------------------------------------------------------------------------------
113	-5.65000e+00	2.252934e+07	
114	-5.70000e+00	2.261207e+07	
115	-5.75000e+00	2.269367e+07	
116	-5.80000e+00	2.277415e+07	
117	-5.85000e+00	2.285351e+07	
118	-5.90000e+00	2.293175e+07	
119	-5.95000e+00	2.300887e+07	
120	-6.00000e+00	2.308487e+07	
121	-6.05000e+00	2.315976e+07	
122	-6.10000e+00	2.323354e+07	
123	-6.15000e+00	2.330621e+07	
124	-6.20000e+00	2.337777e+07	
125	-6.25000e+00	2.344822e+07	
126	-6.30000e+00	2.351757e+07	
127	-6.35000e+00	2.358581e+07	
128	-6.40000e+00	2.365295e+07	
129	-6.45000e+00	2.371898e+07	
130	-6.50000e+00	2.378392e+07	
131	-6.55000e+00	2.384776e+07	
132	-6.60000e+00	2.391050e+07	
Reset re-loads circuit ***************************

Circuit: ***************************

Doing analysis at TEMP = 125.000000 and TNOM = 125.000000


No. of Data Rows : 133
                          ***************************
                          DC transfer characteristic  Mon Jan  9 13:57:55  2023
--------------------------------------------------------------------------------
Index   v-sweep         rds             
--------------------------------------------------------------------------------
0	0.000000e+00	8.964700e+03	
1	-5.00000e-02	9.456925e+03	
2	-1.00000e-01	1.000413e+04	
3	-1.50000e-01	1.061605e+04	
4	-2.00000e-01	1.130486e+04	
5	-2.50000e-01	1.208597e+04	
6	-3.00000e-01	1.297922e+04	
7	-3.50000e-01	1.401047e+04	
8	-4.00000e-01	1.521418e+04	
9	-4.50000e-01	1.663715e+04	
10	-5.00000e-01	1.834456e+04	
11	-5.50000e-01	2.042960e+04	
12	-6.00000e-01	2.302981e+04	
13	-6.50000e-01	2.635537e+04	
14	-7.00000e-01	3.073978e+04	
15	-7.50000e-01	3.673252e+04	
16	-8.00000e-01	4.526442e+04	
17	-8.50000e-01	5.790540e+04	
18	-9.00000e-01	7.707477e+04	
19	-9.50000e-01	1.054978e+05	
20	-1.00000e+00	1.438200e+05	
21	-1.05000e+00	1.880785e+05	
22	-1.10000e+00	2.318692e+05	
23	-1.15000e+00	2.711027e+05	
24	-1.20000e+00	3.050555e+05	
25	-1.25000e+00	3.346412e+05	
26	-1.30000e+00	3.610246e+05	
27	-1.35000e+00	3.851373e+05	
28	-1.40000e+00	4.076288e+05	
29	-1.45000e+00	4.289318e+05	
30	-1.50000e+00	4.493331e+05	
31	-1.55000e+00	4.690242e+05	
32	-1.60000e+00	4.881358e+05	
33	-1.65000e+00	5.067590e+05	
34	-1.70000e+00	5.249588e+05	
35	-1.75000e+00	5.427825e+05	
36	-1.80000e+00	5.602659e+05	
37	-1.85000e+00	5.774361e+05	
38	-1.90000e+00	5.943146e+05	
39	-1.95000e+00	6.109185e+05	
40	-2.00000e+00	6.272618e+05	
41	-2.05000e+00	6.433564e+05	
42	-2.10000e+00	6.592123e+05	
43	-2.15000e+00	6.748382e+05	
44	-2.20000e+00	6.902416e+05	
45	-2.25000e+00	7.054295e+05	
46	-2.30000e+00	7.204079e+05	
47	-2.35000e+00	7.351826e+05	
48	-2.40000e+00	7.497586e+05	
49	-2.45000e+00	7.641407e+05	
50	-2.50000e+00	7.783336e+05	
51	-2.55000e+00	7.923414e+05	
52	-2.60000e+00	8.061682e+05	
53	-2.65000e+00	8.198178e+05	
54	-2.70000e+00	8.332938e+05	

Index   v-sweep         rds             
--------------------------------------------------------------------------------
55	-2.75000e+00	8.465996e+05	
56	-2.80000e+00	8.597388e+05	
57	-2.85000e+00	8.727144e+05	
58	-2.90000e+00	8.855297e+05	
59	-2.95000e+00	8.981876e+05	
60	-3.00000e+00	9.106909e+05	
61	-3.05000e+00	9.230427e+05	
62	-3.10000e+00	9.352455e+05	
63	-3.15000e+00	9.473021e+05	
64	-3.20000e+00	9.592149e+05	
65	-3.25000e+00	9.709867e+05	
66	-3.30000e+00	9.826197e+05	
67	-3.35000e+00	9.941163e+05	
68	-3.40000e+00	1.005479e+06	
69	-3.45000e+00	1.016710e+06	
70	-3.50000e+00	1.027811e+06	
71	-3.55000e+00	1.038785e+06	
72	-3.60000e+00	1.049634e+06	
73	-3.65000e+00	1.060359e+06	
74	-3.70000e+00	1.070963e+06	
75	-3.75000e+00	1.081448e+06	
76	-3.80000e+00	1.091815e+06	
77	-3.85000e+00	1.102067e+06	
78	-3.90000e+00	1.112205e+06	
79	-3.95000e+00	1.122231e+06	
80	-4.00000e+00	1.132146e+06	
81	-4.05000e+00	1.141953e+06	
82	-4.10000e+00	1.151653e+06	
83	-4.15000e+00	1.161247e+06	
84	-4.20000e+00	1.170737e+06	
85	-4.25000e+00	1.180125e+06	
86	-4.30000e+00	1.189411e+06	
87	-4.35000e+00	1.198598e+06	
88	-4.40000e+00	1.207686e+06	
89	-4.45000e+00	1.216677e+06	
90	-4.50000e+00	1.225572e+06	
91	-4.55000e+00	1.234372e+06	
92	-4.60000e+00	1.243079e+06	
93	-4.65000e+00	1.251693e+06	
94	-4.70000e+00	1.260216e+06	
95	-4.75000e+00	1.268648e+06	
96	-4.80000e+00	1.276991e+06	
97	-4.85000e+00	1.285246e+06	
98	-4.90000e+00	1.293412e+06	
99	-4.95000e+00	1.301492e+06	
100	-5.00000e+00	1.309487e+06	
101	-5.05000e+00	1.317396e+06	
102	-5.10000e+00	1.325220e+06	
103	-5.15000e+00	1.332961e+06	
104	-5.20000e+00	1.340618e+06	
105	-5.25000e+00	1.348193e+06	
106	-5.30000e+00	1.355686e+06	
107	-5.35000e+00	1.363098e+06	
108	-5.40000e+00	1.370428e+06	
109	-5.45000e+00	1.377678e+06	
110	-5.50000e+00	1.384849e+06	
111	-5.55000e+00	1.391939e+06	
112	-5.60000e+00	1.398950e+06	

Index   v-sweep         rds             
--------------------------------------------------------------------------------
113	-5.65000e+00	1.405883e+06	
114	-5.70000e+00	1.412736e+06	
115	-5.75000e+00	1.419511e+06	
116	-5.80000e+00	1.426209e+06	
117	-5.85000e+00	1.432828e+06	
118	-5.90000e+00	1.439370e+06	
119	-5.95000e+00	1.445834e+06	
120	-6.00000e+00	1.452221e+06	
121	-6.05000e+00	1.458531e+06	
122	-6.10000e+00	1.464763e+06	
123	-6.15000e+00	1.470919e+06	
124	-6.20000e+00	1.476998e+06	
125	-6.25000e+00	1.483000e+06	
126	-6.30000e+00	1.488926e+06	
127	-6.35000e+00	1.494775e+06	
128	-6.40000e+00	1.500547e+06	
129	-6.45000e+00	1.506242e+06	
130	-6.50000e+00	1.511862e+06	
131	-6.55000e+00	1.517404e+06	
132	-6.60000e+00	1.522870e+06	
Reset re-loads circuit ***************************

Circuit: ***************************

Doing analysis at TEMP = 125.000000 and TNOM = 125.000000


No. of Data Rows : 133
                          ***************************
                          DC transfer characteristic  Mon Jan  9 13:57:55  2023
--------------------------------------------------------------------------------
Index   v-sweep         rds             
--------------------------------------------------------------------------------
0	0.000000e+00	5.510483e+03	
1	-5.00000e-02	5.683188e+03	
2	-1.00000e-01	5.866418e+03	
3	-1.50000e-01	6.061162e+03	
4	-2.00000e-01	6.268541e+03	
5	-2.50000e-01	6.489823e+03	
6	-3.00000e-01	6.726454e+03	
7	-3.50000e-01	6.980086e+03	
8	-4.00000e-01	7.252617e+03	
9	-4.50000e-01	7.546236e+03	
10	-5.00000e-01	7.863486e+03	
11	-5.50000e-01	8.207334e+03	
12	-6.00000e-01	8.581262e+03	
13	-6.50000e-01	8.989386e+03	
14	-7.00000e-01	9.436608e+03	
15	-7.50000e-01	9.928805e+03	
16	-8.00000e-01	1.047309e+04	
17	-8.50000e-01	1.107814e+04	
18	-9.00000e-01	1.175467e+04	
19	-9.50000e-01	1.251602e+04	
20	-1.00000e+00	1.337904e+04	
21	-1.05000e+00	1.436524e+04	
22	-1.10000e+00	1.550252e+04	
23	-1.15000e+00	1.682761e+04	
24	-1.20000e+00	1.838960e+04	
25	-1.25000e+00	2.025525e+04	
26	-1.30000e+00	2.251670e+04	
27	-1.35000e+00	2.530265e+04	
28	-1.40000e+00	2.879350e+04	
29	-1.45000e+00	3.323833e+04	
30	-1.50000e+00	3.896309e+04	
31	-1.55000e+00	4.633868e+04	
32	-1.60000e+00	5.565367e+04	
33	-1.65000e+00	6.686965e+04	
34	-1.70000e+00	7.942091e+04	
35	-1.75000e+00	9.236270e+04	
36	-1.80000e+00	1.048378e+05	
37	-1.85000e+00	1.164016e+05	
38	-1.90000e+00	1.269890e+05	
39	-1.95000e+00	1.367262e+05	
40	-2.00000e+00	1.457851e+05	
41	-2.05000e+00	1.543189e+05	
42	-2.10000e+00	1.624459e+05	
43	-2.15000e+00	1.702520e+05	
44	-2.20000e+00	1.777985e+05	
45	-2.25000e+00	1.851291e+05	
46	-2.30000e+00	1.922752e+05	
47	-2.35000e+00	1.992595e+05	
48	-2.40000e+00	2.060992e+05	
49	-2.45000e+00	2.128070e+05	
50	-2.50000e+00	2.193931e+05	
51	-2.55000e+00	2.258652e+05	
52	-2.60000e+00	2.322298e+05	
53	-2.65000e+00	2.384921e+05	
54	-2.70000e+00	2.446566e+05	

Index   v-sweep         rds             
--------------------------------------------------------------------------------
55	-2.75000e+00	2.507270e+05	
56	-2.80000e+00	2.567068e+05	
57	-2.85000e+00	2.625988e+05	
58	-2.90000e+00	2.684057e+05	
59	-2.95000e+00	2.741299e+05	
60	-3.00000e+00	2.797736e+05	
61	-3.05000e+00	2.853387e+05	
62	-3.10000e+00	2.908273e+05	
63	-3.15000e+00	2.962412e+05	
64	-3.20000e+00	3.015819e+05	
65	-3.25000e+00	3.068511e+05	
66	-3.30000e+00	3.120504e+05	
67	-3.35000e+00	3.171811e+05	
68	-3.40000e+00	3.222448e+05	
69	-3.45000e+00	3.272427e+05	
70	-3.50000e+00	3.321762e+05	
71	-3.55000e+00	3.370464e+05	
72	-3.60000e+00	3.418548e+05	
73	-3.65000e+00	3.466023e+05	
74	-3.70000e+00	3.512901e+05	
75	-3.75000e+00	3.559195e+05	
76	-3.80000e+00	3.604914e+05	
77	-3.85000e+00	3.650068e+05	
78	-3.90000e+00	3.694669e+05	
79	-3.95000e+00	3.738725e+05	
80	-4.00000e+00	3.782247e+05	
81	-4.05000e+00	3.825245e+05	
82	-4.10000e+00	3.867726e+05	
83	-4.15000e+00	3.909701e+05	
84	-4.20000e+00	3.951177e+05	
85	-4.25000e+00	3.992164e+05	
86	-4.30000e+00	4.032669e+05	
87	-4.35000e+00	4.072701e+05	
88	-4.40000e+00	4.112268e+05	
89	-4.45000e+00	4.151377e+05	
90	-4.50000e+00	4.190035e+05	
91	-4.55000e+00	4.228250e+05	
92	-4.60000e+00	4.266029e+05	
93	-4.65000e+00	4.303379e+05	
94	-4.70000e+00	4.340307e+05	
95	-4.75000e+00	4.376819e+05	
96	-4.80000e+00	4.412921e+05	
97	-4.85000e+00	4.448619e+05	
98	-4.90000e+00	4.483919e+05	
99	-4.95000e+00	4.518828e+05	
100	-5.00000e+00	4.553351e+05	
101	-5.05000e+00	4.587492e+05	
102	-5.10000e+00	4.621258e+05	
103	-5.15000e+00	4.654653e+05	
104	-5.20000e+00	4.687682e+05	
105	-5.25000e+00	4.720350e+05	
106	-5.30000e+00	4.752661e+05	
107	-5.35000e+00	4.784619e+05	
108	-5.40000e+00	4.816229e+05	
109	-5.45000e+00	4.847495e+05	
110	-5.50000e+00	4.878419e+05	
111	-5.55000e+00	4.909007e+05	
112	-5.60000e+00	4.939261e+05	

Index   v-sweep         rds             
--------------------------------------------------------------------------------
113	-5.65000e+00	4.969185e+05	
114	-5.70000e+00	4.998781e+05	
115	-5.75000e+00	5.028053e+05	
116	-5.80000e+00	5.057003e+05	
117	-5.85000e+00	5.085634e+05	
118	-5.90000e+00	5.113949e+05	
119	-5.95000e+00	5.141949e+05	
120	-6.00000e+00	5.169637e+05	
121	-6.05000e+00	5.197015e+05	
122	-6.10000e+00	5.224085e+05	
123	-6.15000e+00	5.250849e+05	
124	-6.20000e+00	5.277307e+05	
125	-6.25000e+00	5.303462e+05	
126	-6.30000e+00	5.329316e+05	
127	-6.35000e+00	5.354868e+05	
128	-6.40000e+00	5.380121e+05	
129	-6.45000e+00	5.405075e+05	
130	-6.50000e+00	5.429732e+05	
131	-6.55000e+00	5.454092e+05	
132	-6.60000e+00	5.478155e+05	
Reset re-loads circuit ***************************

Circuit: ***************************

Doing analysis at TEMP = 125.000000 and TNOM = 125.000000


No. of Data Rows : 133
                          ***************************
                          DC transfer characteristic  Mon Jan  9 13:57:55  2023
--------------------------------------------------------------------------------
Index   v-sweep         rds             
--------------------------------------------------------------------------------
0	0.000000e+00	4.153727e+03	
1	-5.00000e-02	4.245852e+03	
2	-1.00000e-01	4.341839e+03	
3	-1.50000e-01	4.441936e+03	
4	-2.00000e-01	4.546413e+03	
5	-2.50000e-01	4.655563e+03	
6	-3.00000e-01	4.769706e+03	
7	-3.50000e-01	4.889193e+03	
8	-4.00000e-01	5.014407e+03	
9	-4.50000e-01	5.145771e+03	
10	-5.00000e-01	5.283747e+03	
11	-5.50000e-01	5.428847e+03	
12	-6.00000e-01	5.581638e+03	
13	-6.50000e-01	5.742746e+03	
14	-7.00000e-01	5.912868e+03	
15	-7.50000e-01	6.092781e+03	
16	-8.00000e-01	6.283355e+03	
17	-8.50000e-01	6.485565e+03	
18	-9.00000e-01	6.700506e+03	
19	-9.50000e-01	6.929419e+03	
20	-1.00000e+00	7.173708e+03	
21	-1.05000e+00	7.434972e+03	
22	-1.10000e+00	7.715038e+03	
23	-1.15000e+00	8.016006e+03	
24	-1.20000e+00	8.340296e+03	
25	-1.25000e+00	8.690717e+03	
26	-1.30000e+00	9.070543e+03	
27	-1.35000e+00	9.483615e+03	
28	-1.40000e+00	9.934465e+03	
29	-1.45000e+00	1.042848e+04	
30	-1.50000e+00	1.097210e+04	
31	-1.55000e+00	1.157311e+04	
32	-1.60000e+00	1.224094e+04	
33	-1.65000e+00	1.298719e+04	
34	-1.70000e+00	1.382616e+04	
35	-1.75000e+00	1.477574e+04	
36	-1.80000e+00	1.585843e+04	
37	-1.85000e+00	1.710276e+04	
38	-1.90000e+00	1.854517e+04	
39	-1.95000e+00	2.023224e+04	
40	-2.00000e+00	2.222326e+04	
41	-2.05000e+00	2.459219e+04	
42	-2.10000e+00	2.742738e+04	
43	-2.15000e+00	3.082473e+04	
44	-2.20000e+00	3.486801e+04	
45	-2.25000e+00	3.959141e+04	
46	-2.30000e+00	4.493289e+04	
47	-2.35000e+00	5.071212e+04	
48	-2.40000e+00	5.667103e+04	
49	-2.45000e+00	6.256399e+04	
50	-2.50000e+00	6.823066e+04	
51	-2.55000e+00	7.360794e+04	
52	-2.60000e+00	7.869922e+04	
53	-2.65000e+00	8.353819e+04	
54	-2.70000e+00	8.816527e+04	

Index   v-sweep         rds             
--------------------------------------------------------------------------------
55	-2.75000e+00	9.261693e+04	
56	-2.80000e+00	9.692258e+04	
57	-2.85000e+00	1.011048e+05	
58	-2.90000e+00	1.051805e+05	
59	-2.95000e+00	1.091624e+05	
60	-3.00000e+00	1.130601e+05	
61	-3.05000e+00	1.168809e+05	
62	-3.10000e+00	1.206307e+05	
63	-3.15000e+00	1.243138e+05	
64	-3.20000e+00	1.279339e+05	
65	-3.25000e+00	1.314942e+05	
66	-3.30000e+00	1.349970e+05	
67	-3.35000e+00	1.384447e+05	
68	-3.40000e+00	1.418392e+05	
69	-3.45000e+00	1.451821e+05	
70	-3.50000e+00	1.484750e+05	
71	-3.55000e+00	1.517192e+05	
72	-3.60000e+00	1.549162e+05	
73	-3.65000e+00	1.580670e+05	
74	-3.70000e+00	1.611728e+05	
75	-3.75000e+00	1.642346e+05	
76	-3.80000e+00	1.672535e+05	
77	-3.85000e+00	1.702304e+05	
78	-3.90000e+00	1.731662e+05	
79	-3.95000e+00	1.760617e+05	
80	-4.00000e+00	1.789179e+05	
81	-4.05000e+00	1.817356e+05	
82	-4.10000e+00	1.845154e+05	
83	-4.15000e+00	1.872582e+05	
84	-4.20000e+00	1.899648e+05	
85	-4.25000e+00	1.926357e+05	
86	-4.30000e+00	1.952717e+05	
87	-4.35000e+00	1.978736e+05	
88	-4.40000e+00	2.004418e+05	
89	-4.45000e+00	2.029771e+05	
90	-4.50000e+00	2.054801e+05	
91	-4.55000e+00	2.079513e+05	
92	-4.60000e+00	2.103914e+05	
93	-4.65000e+00	2.128009e+05	
94	-4.70000e+00	2.151804e+05	
95	-4.75000e+00	2.175304e+05	
96	-4.80000e+00	2.198514e+05	
97	-4.85000e+00	2.221440e+05	
98	-4.90000e+00	2.244086e+05	
99	-4.95000e+00	2.266457e+05	
100	-5.00000e+00	2.288559e+05	
101	-5.05000e+00	2.310396e+05	
102	-5.10000e+00	2.331971e+05	
103	-5.15000e+00	2.353291e+05	
104	-5.20000e+00	2.374358e+05	
105	-5.25000e+00	2.395177e+05	
106	-5.30000e+00	2.415752e+05	
107	-5.35000e+00	2.436088e+05	
108	-5.40000e+00	2.456187e+05	
109	-5.45000e+00	2.476053e+05	
110	-5.50000e+00	2.495691e+05	
111	-5.55000e+00	2.515104e+05	
112	-5.60000e+00	2.534294e+05	

Index   v-sweep         rds             
--------------------------------------------------------------------------------
113	-5.65000e+00	2.553265e+05	
114	-5.70000e+00	2.572021e+05	
115	-5.75000e+00	2.590565e+05	
116	-5.80000e+00	2.608898e+05	
117	-5.85000e+00	2.627025e+05	
118	-5.90000e+00	2.644948e+05	
119	-5.95000e+00	2.662670e+05	
120	-6.00000e+00	2.680192e+05	
121	-6.05000e+00	2.697518e+05	
122	-6.10000e+00	2.714650e+05	
123	-6.15000e+00	2.731589e+05	
124	-6.20000e+00	2.748339e+05	
125	-6.25000e+00	2.764901e+05	
126	-6.30000e+00	2.781277e+05	
127	-6.35000e+00	2.797468e+05	
128	-6.40000e+00	2.813478e+05	
129	-6.45000e+00	2.829306e+05	
130	-6.50000e+00	2.844955e+05	
131	-6.55000e+00	2.860426e+05	
132	-6.60000e+00	2.875720e+05	
Reset re-loads circuit ***************************

Circuit: ***************************

Doing analysis at TEMP = 125.000000 and TNOM = 125.000000


No. of Data Rows : 133
                          ***************************
                          DC transfer characteristic  Mon Jan  9 13:57:55  2023
--------------------------------------------------------------------------------
Index   v-sweep         rds             
--------------------------------------------------------------------------------
0	0.000000e+00	3.417070e+03	
1	-5.00000e-02	3.476146e+03	
2	-1.00000e-01	3.537109e+03	
3	-1.50000e-01	3.600052e+03	
4	-2.00000e-01	3.665074e+03	
5	-2.50000e-01	3.732278e+03	
6	-3.00000e-01	3.801776e+03	
7	-3.50000e-01	3.873687e+03	
8	-4.00000e-01	3.948140e+03	
9	-4.50000e-01	4.025272e+03	
10	-5.00000e-01	4.105228e+03	
11	-5.50000e-01	4.188168e+03	
12	-6.00000e-01	4.274260e+03	
13	-6.50000e-01	4.363689e+03	
14	-7.00000e-01	4.456652e+03	
15	-7.50000e-01	4.553361e+03	
16	-8.00000e-01	4.654048e+03	
17	-8.50000e-01	4.758964e+03	
18	-9.00000e-01	4.868379e+03	
19	-9.50000e-01	4.982590e+03	
20	-1.00000e+00	5.101917e+03	
21	-1.05000e+00	5.226713e+03	
22	-1.10000e+00	5.357361e+03	
23	-1.15000e+00	5.494282e+03	
24	-1.20000e+00	5.637938e+03	
25	-1.25000e+00	5.788839e+03	
26	-1.30000e+00	5.947544e+03	
27	-1.35000e+00	6.114673e+03	
28	-1.40000e+00	6.290916e+03	
29	-1.45000e+00	6.477035e+03	
30	-1.50000e+00	6.673882e+03	
31	-1.55000e+00	6.882411e+03	
32	-1.60000e+00	7.103687e+03	
33	-1.65000e+00	7.338914e+03	
34	-1.70000e+00	7.589447e+03	
35	-1.75000e+00	7.856822e+03	
36	-1.80000e+00	8.142788e+03	
37	-1.85000e+00	8.449341e+03	
38	-1.90000e+00	8.778770e+03	
39	-1.95000e+00	9.133712e+03	
40	-2.00000e+00	9.517221e+03	
41	-2.05000e+00	9.932848e+03	
42	-2.10000e+00	1.038475e+04	
43	-2.15000e+00	1.087780e+04	
44	-2.20000e+00	1.141777e+04	
45	-2.25000e+00	1.201153e+04	
46	-2.30000e+00	1.266728e+04	
47	-2.35000e+00	1.339486e+04	
48	-2.40000e+00	1.420617e+04	
49	-2.45000e+00	1.511561e+04	
50	-2.50000e+00	1.614061e+04	
51	-2.55000e+00	1.730225e+04	
52	-2.60000e+00	1.862572e+04	
53	-2.65000e+00	2.014055e+04	
54	-2.70000e+00	2.187990e+04	

Index   v-sweep         rds             
--------------------------------------------------------------------------------
55	-2.75000e+00	2.387826e+04	
56	-2.80000e+00	2.616614e+04	
57	-2.85000e+00	2.876087e+04	
58	-2.90000e+00	3.165448e+04	
59	-2.95000e+00	3.480381e+04	
60	-3.00000e+00	3.813136e+04	
61	-3.05000e+00	4.154183e+04	
62	-3.10000e+00	4.494733e+04	
63	-3.15000e+00	4.828616e+04	
64	-3.20000e+00	5.152680e+04	
65	-3.25000e+00	5.466068e+04	
66	-3.30000e+00	5.769224e+04	
67	-3.35000e+00	6.063119e+04	
68	-3.40000e+00	6.348807e+04	
69	-3.45000e+00	6.627237e+04	
70	-3.50000e+00	6.899196e+04	
71	-3.55000e+00	7.165311e+04	
72	-3.60000e+00	7.426076e+04	
73	-3.65000e+00	7.681882e+04	
74	-3.70000e+00	7.933041e+04	
75	-3.75000e+00	8.179803e+04	
76	-3.80000e+00	8.422377e+04	
77	-3.85000e+00	8.660938e+04	
78	-3.90000e+00	8.895635e+04	
79	-3.95000e+00	9.126600e+04	
80	-4.00000e+00	9.353948e+04	
81	-4.05000e+00	9.577784e+04	
82	-4.10000e+00	9.798206e+04	
83	-4.15000e+00	1.001530e+05	
84	-4.20000e+00	1.022915e+05	
85	-4.25000e+00	1.043984e+05	
86	-4.30000e+00	1.064743e+05	
87	-4.35000e+00	1.085201e+05	
88	-4.40000e+00	1.105362e+05	
89	-4.45000e+00	1.125235e+05	
90	-4.50000e+00	1.144825e+05	
91	-4.55000e+00	1.164139e+05	
92	-4.60000e+00	1.183181e+05	
93	-4.65000e+00	1.201958e+05	
94	-4.70000e+00	1.220474e+05	
95	-4.75000e+00	1.238736e+05	
96	-4.80000e+00	1.256749e+05	
97	-4.85000e+00	1.274516e+05	
98	-4.90000e+00	1.292044e+05	
99	-4.95000e+00	1.309336e+05	
100	-5.00000e+00	1.326398e+05	
101	-5.05000e+00	1.343233e+05	
102	-5.10000e+00	1.359847e+05	
103	-5.15000e+00	1.376242e+05	
104	-5.20000e+00	1.392424e+05	
105	-5.25000e+00	1.408397e+05	
106	-5.30000e+00	1.424163e+05	
107	-5.35000e+00	1.439728e+05	
108	-5.40000e+00	1.455095e+05	
109	-5.45000e+00	1.470267e+05	
110	-5.50000e+00	1.485248e+05	
111	-5.55000e+00	1.500041e+05	
112	-5.60000e+00	1.514650e+05	

Index   v-sweep         rds             
--------------------------------------------------------------------------------
113	-5.65000e+00	1.529077e+05	
114	-5.70000e+00	1.543327e+05	
115	-5.75000e+00	1.557403e+05	
116	-5.80000e+00	1.571306e+05	
117	-5.85000e+00	1.585040e+05	
118	-5.90000e+00	1.598609e+05	
119	-5.95000e+00	1.612014e+05	
120	-6.00000e+00	1.625259e+05	
121	-6.05000e+00	1.638346e+05	
122	-6.10000e+00	1.651277e+05	
123	-6.15000e+00	1.664056e+05	
124	-6.20000e+00	1.676684e+05	
125	-6.25000e+00	1.689164e+05	
126	-6.30000e+00	1.701497e+05	
127	-6.35000e+00	1.713687e+05	
128	-6.40000e+00	1.725736e+05	
129	-6.45000e+00	1.737644e+05	
130	-6.50000e+00	1.749415e+05	
131	-6.55000e+00	1.761050e+05	
132	-6.60000e+00	1.772550e+05	
Reset re-loads circuit ***************************

Circuit: ***************************

Doing analysis at TEMP = 125.000000 and TNOM = 125.000000


No. of Data Rows : 133
                          ***************************
                          DC transfer characteristic  Mon Jan  9 13:57:55  2023
--------------------------------------------------------------------------------
Index   v-sweep         rds             
--------------------------------------------------------------------------------
0	0.000000e+00	2.947166e+03	
1	-5.00000e-02	2.989133e+03	
2	-1.00000e-01	3.032184e+03	
3	-1.50000e-01	3.076361e+03	
4	-2.00000e-01	3.121710e+03	
5	-2.50000e-01	3.168277e+03	
6	-3.00000e-01	3.216112e+03	
7	-3.50000e-01	3.265267e+03	
8	-4.00000e-01	3.315797e+03	
9	-4.50000e-01	3.367762e+03	
10	-5.00000e-01	3.421223e+03	
11	-5.50000e-01	3.476246e+03	
12	-6.00000e-01	3.532899e+03	
13	-6.50000e-01	3.591257e+03	
14	-7.00000e-01	3.651396e+03	
15	-7.50000e-01	3.713401e+03	
16	-8.00000e-01	3.777359e+03	
17	-8.50000e-01	3.843363e+03	
18	-9.00000e-01	3.911514e+03	
19	-9.50000e-01	3.981917e+03	
20	-1.00000e+00	4.054687e+03	
21	-1.05000e+00	4.129943e+03	
22	-1.10000e+00	4.207816e+03	
23	-1.15000e+00	4.288444e+03	
24	-1.20000e+00	4.371976e+03	
25	-1.25000e+00	4.458572e+03	
26	-1.30000e+00	4.548402e+03	
27	-1.35000e+00	4.641651e+03	
28	-1.40000e+00	4.738519e+03	
29	-1.45000e+00	4.839218e+03	
30	-1.50000e+00	4.943981e+03	
31	-1.55000e+00	5.053059e+03	
32	-1.60000e+00	5.166722e+03	
33	-1.65000e+00	5.285267e+03	
34	-1.70000e+00	5.409012e+03	
35	-1.75000e+00	5.538308e+03	
36	-1.80000e+00	5.673536e+03	
37	-1.85000e+00	5.815112e+03	
38	-1.90000e+00	5.963492e+03	
39	-1.95000e+00	6.119178e+03	
40	-2.00000e+00	6.282722e+03	
41	-2.05000e+00	6.454730e+03	
42	-2.10000e+00	6.635876e+03	
43	-2.15000e+00	6.826903e+03	
44	-2.20000e+00	7.028640e+03	
45	-2.25000e+00	7.242007e+03	
46	-2.30000e+00	7.468034e+03	
47	-2.35000e+00	7.707874e+03	
48	-2.40000e+00	7.962824e+03	
49	-2.45000e+00	8.234344e+03	
50	-2.50000e+00	8.524088e+03	
51	-2.55000e+00	8.833932e+03	
52	-2.60000e+00	9.166015e+03	
53	-2.65000e+00	9.522780e+03	
54	-2.70000e+00	9.907033e+03	

Index   v-sweep         rds             
--------------------------------------------------------------------------------
55	-2.75000e+00	1.032201e+04	
56	-2.80000e+00	1.077144e+04	
57	-2.85000e+00	1.125966e+04	
58	-2.90000e+00	1.179173e+04	
59	-2.95000e+00	1.237353e+04	
60	-3.00000e+00	1.301196e+04	
61	-3.05000e+00	1.371506e+04	
62	-3.10000e+00	1.449225e+04	
63	-3.15000e+00	1.535439e+04	
64	-3.20000e+00	1.631396e+04	
65	-3.25000e+00	1.738488e+04	
66	-3.30000e+00	1.858215e+04	
67	-3.35000e+00	1.992077e+04	
68	-3.40000e+00	2.141386e+04	
69	-3.45000e+00	2.306963e+04	
70	-3.50000e+00	2.488746e+04	
71	-3.55000e+00	2.685430e+04	
72	-3.60000e+00	2.894340e+04	
73	-3.65000e+00	3.111743e+04	
74	-3.70000e+00	3.333567e+04	
75	-3.75000e+00	3.556210e+04	
76	-3.80000e+00	3.777053e+04	
77	-3.85000e+00	3.994536e+04	
78	-3.90000e+00	4.207933e+04	
79	-3.95000e+00	4.417042e+04	
80	-4.00000e+00	4.621940e+04	
81	-4.05000e+00	4.822811e+04	
82	-4.10000e+00	5.019872e+04	
83	-4.15000e+00	5.213322e+04	
84	-4.20000e+00	5.403342e+04	
85	-4.25000e+00	5.590084e+04	
86	-4.30000e+00	5.773676e+04	
87	-4.35000e+00	5.954232e+04	
88	-4.40000e+00	6.131848e+04	
89	-4.45000e+00	6.306611e+04	
90	-4.50000e+00	6.478599e+04	
91	-4.55000e+00	6.647883e+04	
92	-4.60000e+00	6.814530e+04	
93	-4.65000e+00	6.978601e+04	
94	-4.70000e+00	7.140157e+04	
95	-4.75000e+00	7.299252e+04	
96	-4.80000e+00	7.455942e+04	
97	-4.85000e+00	7.610278e+04	
98	-4.90000e+00	7.762311e+04	
99	-4.95000e+00	7.912089e+04	
100	-5.00000e+00	8.059660e+04	
101	-5.05000e+00	8.205069e+04	
102	-5.10000e+00	8.348361e+04	
103	-5.15000e+00	8.489580e+04	
104	-5.20000e+00	8.628768e+04	
105	-5.25000e+00	8.765965e+04	
106	-5.30000e+00	8.901213e+04	
107	-5.35000e+00	9.034550e+04	
108	-5.40000e+00	9.166015e+04	
109	-5.45000e+00	9.295644e+04	
110	-5.50000e+00	9.423475e+04	
111	-5.55000e+00	9.549541e+04	
112	-5.60000e+00	9.673879e+04	

Index   v-sweep         rds             
--------------------------------------------------------------------------------
113	-5.65000e+00	9.796520e+04	
114	-5.70000e+00	9.917500e+04	
115	-5.75000e+00	1.003685e+05	
116	-5.80000e+00	1.015460e+05	
117	-5.85000e+00	1.027078e+05	
118	-5.90000e+00	1.038542e+05	
119	-5.95000e+00	1.049855e+05	
120	-6.00000e+00	1.061020e+05	
121	-6.05000e+00	1.072039e+05	
122	-6.10000e+00	1.082916e+05	
123	-6.15000e+00	1.093652e+05	
124	-6.20000e+00	1.104251e+05	
125	-6.25000e+00	1.114715e+05	
126	-6.30000e+00	1.125047e+05	
127	-6.35000e+00	1.135248e+05	
128	-6.40000e+00	1.145321e+05	
129	-6.45000e+00	1.155268e+05	
130	-6.50000e+00	1.165092e+05	
131	-6.55000e+00	1.174794e+05	
132	-6.60000e+00	1.184377e+05	
Reset re-loads circuit ***************************

Circuit: ***************************

Note: No ".plot", ".print", or ".fourier" lines; no simulations run
