
Note: Compatibility modes selected: hs

Warning: m=xx on .subckt line will override multiplier m hierarchy!


Circuit: ***************************

Doing analysis at TEMP = 25.000000 and TNOM = 25.000000


No. of Data Rows : 133
                          ***************************
                          DC transfer characteristic  Mon Jan  9 13:57:54  2023
--------------------------------------------------------------------------------
Index   v-sweep         rds             
--------------------------------------------------------------------------------
0	0.000000e+00	1.019882e+04	
1	-5.00000e-02	1.485543e+04	
2	-1.00000e-01	2.587629e+04	
3	-1.50000e-01	6.068843e+04	
4	-2.00000e-01	1.544099e+05	
5	-2.50000e-01	2.647076e+05	
6	-3.00000e-01	3.345785e+05	
7	-3.50000e-01	3.756551e+05	
8	-4.00000e-01	4.031718e+05	
9	-4.50000e-01	4.239587e+05	
10	-5.00000e-01	4.408898e+05	
11	-5.50000e-01	4.552911e+05	
12	-6.00000e-01	4.678526e+05	
13	-6.50000e-01	4.789767e+05	
14	-7.00000e-01	4.889232e+05	
15	-7.50000e-01	4.978738e+05	
16	-8.00000e-01	5.059640e+05	
17	-8.50000e-01	5.132998e+05	
18	-9.00000e-01	5.199670e+05	
19	-9.50000e-01	5.260370e+05	
20	-1.00000e+00	5.315700e+05	
21	-1.05000e+00	5.366180e+05	
22	-1.10000e+00	5.412261e+05	
23	-1.15000e+00	5.454337e+05	
24	-1.20000e+00	5.492757e+05	
25	-1.25000e+00	5.527831e+05	
26	-1.30000e+00	5.559834e+05	
27	-1.35000e+00	5.589014e+05	
28	-1.40000e+00	5.615593e+05	
29	-1.45000e+00	5.639771e+05	
30	-1.50000e+00	5.661731e+05	
31	-1.55000e+00	5.681635e+05	
32	-1.60000e+00	5.699634e+05	
33	-1.65000e+00	5.715864e+05	
34	-1.70000e+00	5.730450e+05	
35	-1.75000e+00	5.743506e+05	
36	-1.80000e+00	5.755135e+05	
37	-1.85000e+00	5.765433e+05	
38	-1.90000e+00	5.774489e+05	
39	-1.95000e+00	5.782385e+05	
40	-2.00000e+00	5.789194e+05	
41	-2.05000e+00	5.794986e+05	
42	-2.10000e+00	5.799825e+05	
43	-2.15000e+00	5.803771e+05	
44	-2.20000e+00	5.806878e+05	
45	-2.25000e+00	5.809197e+05	
46	-2.30000e+00	5.810777e+05	
47	-2.35000e+00	5.811660e+05	
48	-2.40000e+00	5.811889e+05	
49	-2.45000e+00	5.811501e+05	
50	-2.50000e+00	5.810533e+05	
51	-2.55000e+00	5.809018e+05	
52	-2.60000e+00	5.806987e+05	
53	-2.65000e+00	5.804470e+05	
54	-2.70000e+00	5.801493e+05	

Index   v-sweep         rds             
--------------------------------------------------------------------------------
55	-2.75000e+00	5.798084e+05	
56	-2.80000e+00	5.794266e+05	
57	-2.85000e+00	5.790061e+05	
58	-2.90000e+00	5.785491e+05	
59	-2.95000e+00	5.780576e+05	
60	-3.00000e+00	5.775335e+05	
61	-3.05000e+00	5.769786e+05	
62	-3.10000e+00	5.763945e+05	
63	-3.15000e+00	5.757828e+05	
64	-3.20000e+00	5.751449e+05	
65	-3.25000e+00	5.744824e+05	
66	-3.30000e+00	5.737965e+05	
67	-3.35000e+00	5.730885e+05	
68	-3.40000e+00	5.723595e+05	
69	-3.45000e+00	5.716107e+05	
70	-3.50000e+00	5.708431e+05	
71	-3.55000e+00	5.700577e+05	
72	-3.60000e+00	5.692554e+05	
73	-3.65000e+00	5.684372e+05	
74	-3.70000e+00	5.676039e+05	
75	-3.75000e+00	5.667563e+05	
76	-3.80000e+00	5.658951e+05	
77	-3.85000e+00	5.650211e+05	
78	-3.90000e+00	5.641350e+05	
79	-3.95000e+00	5.632373e+05	
80	-4.00000e+00	5.623287e+05	
81	-4.05000e+00	5.614098e+05	
82	-4.10000e+00	5.604811e+05	
83	-4.15000e+00	5.595431e+05	
84	-4.20000e+00	5.585964e+05	
85	-4.25000e+00	5.576414e+05	
86	-4.30000e+00	5.566785e+05	
87	-4.35000e+00	5.557081e+05	
88	-4.40000e+00	5.547308e+05	
89	-4.45000e+00	5.537467e+05	
90	-4.50000e+00	5.527563e+05	
91	-4.55000e+00	5.517600e+05	
92	-4.60000e+00	5.507580e+05	
93	-4.65000e+00	5.497506e+05	
94	-4.70000e+00	5.487382e+05	
95	-4.75000e+00	5.477209e+05	
96	-4.80000e+00	5.466992e+05	
97	-4.85000e+00	5.456731e+05	
98	-4.90000e+00	5.446431e+05	
99	-4.95000e+00	5.436091e+05	
100	-5.00000e+00	5.425716e+05	
101	-5.05000e+00	5.415306e+05	
102	-5.10000e+00	5.404864e+05	
103	-5.15000e+00	5.394391e+05	
104	-5.20000e+00	5.383889e+05	
105	-5.25000e+00	5.373360e+05	
106	-5.30000e+00	5.362805e+05	
107	-5.35000e+00	5.352226e+05	
108	-5.40000e+00	5.341624e+05	
109	-5.45000e+00	5.331000e+05	
110	-5.50000e+00	5.320356e+05	
111	-5.55000e+00	5.309693e+05	
112	-5.60000e+00	5.299011e+05	

Index   v-sweep         rds             
--------------------------------------------------------------------------------
113	-5.65000e+00	5.288312e+05	
114	-5.70000e+00	5.277597e+05	
115	-5.75000e+00	5.266867e+05	
116	-5.80000e+00	5.256123e+05	
117	-5.85000e+00	5.245365e+05	
118	-5.90000e+00	5.234595e+05	
119	-5.95000e+00	5.223813e+05	
120	-6.00000e+00	5.213020e+05	
121	-6.05000e+00	5.202216e+05	
122	-6.10000e+00	5.191403e+05	
123	-6.15000e+00	5.180581e+05	
124	-6.20000e+00	5.169750e+05	
125	-6.25000e+00	5.158912e+05	
126	-6.30000e+00	5.148066e+05	
127	-6.35000e+00	5.137214e+05	
128	-6.40000e+00	5.126355e+05	
129	-6.45000e+00	5.115490e+05	
130	-6.50000e+00	5.104621e+05	
131	-6.55000e+00	5.093746e+05	
132	-6.60000e+00	5.082867e+05	
Reset re-loads circuit ***************************

Circuit: ***************************

Doing analysis at TEMP = 25.000000 and TNOM = 25.000000


No. of Data Rows : 133
                          ***************************
                          DC transfer characteristic  Mon Jan  9 13:57:54  2023
--------------------------------------------------------------------------------
Index   v-sweep         rds             
--------------------------------------------------------------------------------
0	0.000000e+00	1.553791e+03	
1	-5.00000e-02	1.653378e+03	
2	-1.00000e-01	1.764714e+03	
3	-1.50000e-01	1.889996e+03	
4	-2.00000e-01	2.032005e+03	
5	-2.50000e-01	2.194306e+03	
6	-3.00000e-01	2.381551e+03	
7	-3.50000e-01	2.599908e+03	
8	-4.00000e-01	2.857730e+03	
9	-4.50000e-01	3.166579e+03	
10	-5.00000e-01	3.542851e+03	
11	-5.50000e-01	4.010404e+03	
12	-6.00000e-01	4.604808e+03	
13	-6.50000e-01	5.379955e+03	
14	-7.00000e-01	6.416742e+03	
15	-7.50000e-01	7.827317e+03	
16	-8.00000e-01	9.728833e+03	
17	-8.50000e-01	1.214412e+04	
18	-9.00000e-01	1.488671e+04	
19	-9.50000e-01	1.765047e+04	
20	-1.00000e+00	2.023949e+04	
21	-1.05000e+00	2.261631e+04	
22	-1.10000e+00	2.481293e+04	
23	-1.15000e+00	2.686884e+04	
24	-1.20000e+00	2.881381e+04	
25	-1.25000e+00	3.066784e+04	
26	-1.30000e+00	3.244426e+04	
27	-1.35000e+00	3.415216e+04	
28	-1.40000e+00	3.579808e+04	
29	-1.45000e+00	3.738694e+04	
30	-1.50000e+00	3.892263e+04	
31	-1.55000e+00	4.040835e+04	
32	-1.60000e+00	4.184682e+04	
33	-1.65000e+00	4.324043e+04	
34	-1.70000e+00	4.459132e+04	
35	-1.75000e+00	4.590141e+04	
36	-1.80000e+00	4.717249e+04	
37	-1.85000e+00	4.840619e+04	
38	-1.90000e+00	4.960404e+04	
39	-1.95000e+00	5.076748e+04	
40	-2.00000e+00	5.189786e+04	
41	-2.05000e+00	5.299645e+04	
42	-2.10000e+00	5.406445e+04	
43	-2.15000e+00	5.510301e+04	
44	-2.20000e+00	5.611321e+04	
45	-2.25000e+00	5.709608e+04	
46	-2.30000e+00	5.805260e+04	
47	-2.35000e+00	5.898371e+04	
48	-2.40000e+00	5.989028e+04	
49	-2.45000e+00	6.077318e+04	
50	-2.50000e+00	6.163322e+04	
51	-2.55000e+00	6.247117e+04	
52	-2.60000e+00	6.328776e+04	
53	-2.65000e+00	6.408372e+04	
54	-2.70000e+00	6.485972e+04	

Index   v-sweep         rds             
--------------------------------------------------------------------------------
55	-2.75000e+00	6.561642e+04	
56	-2.80000e+00	6.635442e+04	
57	-2.85000e+00	6.707434e+04	
58	-2.90000e+00	6.777674e+04	
59	-2.95000e+00	6.846217e+04	
60	-3.00000e+00	6.913116e+04	
61	-3.05000e+00	6.978422e+04	
62	-3.10000e+00	7.042184e+04	
63	-3.15000e+00	7.104447e+04	
64	-3.20000e+00	7.165258e+04	
65	-3.25000e+00	7.224658e+04	
66	-3.30000e+00	7.282691e+04	
67	-3.35000e+00	7.339395e+04	
68	-3.40000e+00	7.394809e+04	
69	-3.45000e+00	7.448971e+04	
70	-3.50000e+00	7.501915e+04	
71	-3.55000e+00	7.553676e+04	
72	-3.60000e+00	7.604287e+04	
73	-3.65000e+00	7.653780e+04	
74	-3.70000e+00	7.702185e+04	
75	-3.75000e+00	7.749532e+04	
76	-3.80000e+00	7.795850e+04	
77	-3.85000e+00	7.841165e+04	
78	-3.90000e+00	7.885504e+04	
79	-3.95000e+00	7.928893e+04	
80	-4.00000e+00	7.971356e+04	
81	-4.05000e+00	8.012916e+04	
82	-4.10000e+00	8.053597e+04	
83	-4.15000e+00	8.093419e+04	
84	-4.20000e+00	8.132405e+04	
85	-4.25000e+00	8.170574e+04	
86	-4.30000e+00	8.207945e+04	
87	-4.35000e+00	8.244539e+04	
88	-4.40000e+00	8.280372e+04	
89	-4.45000e+00	8.315462e+04	
90	-4.50000e+00	8.349826e+04	
91	-4.55000e+00	8.383479e+04	
92	-4.60000e+00	8.416438e+04	
93	-4.65000e+00	8.448717e+04	
94	-4.70000e+00	8.480330e+04	
95	-4.75000e+00	8.511292e+04	
96	-4.80000e+00	8.541614e+04	
97	-4.85000e+00	8.571310e+04	
98	-4.90000e+00	8.600392e+04	
99	-4.95000e+00	8.628871e+04	
100	-5.00000e+00	8.656759e+04	
101	-5.05000e+00	8.684066e+04	
102	-5.10000e+00	8.710803e+04	
103	-5.15000e+00	8.736979e+04	
104	-5.20000e+00	8.762603e+04	
105	-5.25000e+00	8.787685e+04	
106	-5.30000e+00	8.812234e+04	
107	-5.35000e+00	8.836257e+04	
108	-5.40000e+00	8.859762e+04	
109	-5.45000e+00	8.882758e+04	
110	-5.50000e+00	8.905250e+04	
111	-5.55000e+00	8.927247e+04	
112	-5.60000e+00	8.948755e+04	

Index   v-sweep         rds             
--------------------------------------------------------------------------------
113	-5.65000e+00	8.969780e+04	
114	-5.70000e+00	8.990328e+04	
115	-5.75000e+00	9.010405e+04	
116	-5.80000e+00	9.030017e+04	
117	-5.85000e+00	9.049169e+04	
118	-5.90000e+00	9.067867e+04	
119	-5.95000e+00	9.086114e+04	
120	-6.00000e+00	9.103917e+04	
121	-6.05000e+00	9.121278e+04	
122	-6.10000e+00	9.138204e+04	
123	-6.15000e+00	9.154698e+04	
124	-6.20000e+00	9.170763e+04	
125	-6.25000e+00	9.186405e+04	
126	-6.30000e+00	9.201626e+04	
127	-6.35000e+00	9.216431e+04	
128	-6.40000e+00	9.230823e+04	
129	-6.45000e+00	9.244805e+04	
130	-6.50000e+00	9.258381e+04	
131	-6.55000e+00	9.271553e+04	
132	-6.60000e+00	9.284326e+04	
Reset re-loads circuit ***************************

Circuit: ***************************

Doing analysis at TEMP = 25.000000 and TNOM = 25.000000


No. of Data Rows : 133
                          ***************************
                          DC transfer characteristic  Mon Jan  9 13:57:54  2023
--------------------------------------------------------------------------------
Index   v-sweep         rds             
--------------------------------------------------------------------------------
0	0.000000e+00	9.658191e+02	
1	-5.00000e-02	1.002212e+03	
2	-1.00000e-01	1.040902e+03	
3	-1.50000e-01	1.082112e+03	
4	-2.00000e-01	1.126096e+03	
5	-2.50000e-01	1.173141e+03	
6	-3.00000e-01	1.223576e+03	
7	-3.50000e-01	1.277781e+03	
8	-4.00000e-01	1.336189e+03	
9	-4.50000e-01	1.399309e+03	
10	-5.00000e-01	1.467730e+03	
11	-5.50000e-01	1.542145e+03	
12	-6.00000e-01	1.623372e+03	
13	-6.50000e-01	1.712385e+03	
14	-7.00000e-01	1.810351e+03	
15	-7.50000e-01	1.918679e+03	
16	-8.00000e-01	2.039086e+03	
17	-8.50000e-01	2.173685e+03	
18	-9.00000e-01	2.325099e+03	
19	-9.50000e-01	2.496620e+03	
20	-1.00000e+00	2.692418e+03	
21	-1.05000e+00	2.917830e+03	
22	-1.10000e+00	3.179731e+03	
23	-1.15000e+00	3.487003e+03	
24	-1.20000e+00	3.851014e+03	
25	-1.25000e+00	4.285882e+03	
26	-1.30000e+00	4.807825e+03	
27	-1.35000e+00	5.432304e+03	
28	-1.40000e+00	6.167669e+03	
29	-1.45000e+00	7.007108e+03	
30	-1.50000e+00	7.926284e+03	
31	-1.55000e+00	8.892106e+03	
32	-1.60000e+00	9.875387e+03	
33	-1.65000e+00	1.085677e+04	
34	-1.70000e+00	1.182556e+04	
35	-1.75000e+00	1.277646e+04	
36	-1.80000e+00	1.370707e+04	
37	-1.85000e+00	1.461647e+04	
38	-1.90000e+00	1.550444e+04	
39	-1.95000e+00	1.637114e+04	
40	-2.00000e+00	1.721694e+04	
41	-2.05000e+00	1.804231e+04	
42	-2.10000e+00	1.884776e+04	
43	-2.15000e+00	1.963383e+04	
44	-2.20000e+00	2.040108e+04	
45	-2.25000e+00	2.115004e+04	
46	-2.30000e+00	2.188127e+04	
47	-2.35000e+00	2.259530e+04	
48	-2.40000e+00	2.329264e+04	
49	-2.45000e+00	2.397380e+04	
50	-2.50000e+00	2.463926e+04	
51	-2.55000e+00	2.528950e+04	
52	-2.60000e+00	2.592498e+04	
53	-2.65000e+00	2.654613e+04	
54	-2.70000e+00	2.715339e+04	

Index   v-sweep         rds             
--------------------------------------------------------------------------------
55	-2.75000e+00	2.774716e+04	
56	-2.80000e+00	2.832785e+04	
57	-2.85000e+00	2.889584e+04	
58	-2.90000e+00	2.945149e+04	
59	-2.95000e+00	2.999516e+04	
60	-3.00000e+00	3.052721e+04	
61	-3.05000e+00	3.104795e+04	
62	-3.10000e+00	3.155772e+04	
63	-3.15000e+00	3.205682e+04	
64	-3.20000e+00	3.254554e+04	
65	-3.25000e+00	3.302418e+04	
66	-3.30000e+00	3.349301e+04	
67	-3.35000e+00	3.395230e+04	
68	-3.40000e+00	3.440231e+04	
69	-3.45000e+00	3.484330e+04	
70	-3.50000e+00	3.527549e+04	
71	-3.55000e+00	3.569913e+04	
72	-3.60000e+00	3.611445e+04	
73	-3.65000e+00	3.652165e+04	
74	-3.70000e+00	3.692095e+04	
75	-3.75000e+00	3.731255e+04	
76	-3.80000e+00	3.769665e+04	
77	-3.85000e+00	3.807344e+04	
78	-3.90000e+00	3.844311e+04	
79	-3.95000e+00	3.880583e+04	
80	-4.00000e+00	3.916177e+04	
81	-4.05000e+00	3.951111e+04	
82	-4.10000e+00	3.985400e+04	
83	-4.15000e+00	4.019059e+04	
84	-4.20000e+00	4.052105e+04	
85	-4.25000e+00	4.084551e+04	
86	-4.30000e+00	4.116411e+04	
87	-4.35000e+00	4.147700e+04	
88	-4.40000e+00	4.178430e+04	
89	-4.45000e+00	4.208615e+04	
90	-4.50000e+00	4.238265e+04	
91	-4.55000e+00	4.267394e+04	
92	-4.60000e+00	4.296013e+04	
93	-4.65000e+00	4.324133e+04	
94	-4.70000e+00	4.351765e+04	
95	-4.75000e+00	4.378918e+04	
96	-4.80000e+00	4.405603e+04	
97	-4.85000e+00	4.431830e+04	
98	-4.90000e+00	4.457607e+04	
99	-4.95000e+00	4.482944e+04	
100	-5.00000e+00	4.507849e+04	
101	-5.05000e+00	4.532331e+04	
102	-5.10000e+00	4.556396e+04	
103	-5.15000e+00	4.580054e+04	
104	-5.20000e+00	4.603310e+04	
105	-5.25000e+00	4.626172e+04	
106	-5.30000e+00	4.648647e+04	
107	-5.35000e+00	4.670741e+04	
108	-5.40000e+00	4.692460e+04	
109	-5.45000e+00	4.713810e+04	
110	-5.50000e+00	4.734797e+04	
111	-5.55000e+00	4.755425e+04	
112	-5.60000e+00	4.775701e+04	

Index   v-sweep         rds             
--------------------------------------------------------------------------------
113	-5.65000e+00	4.795628e+04	
114	-5.70000e+00	4.815211e+04	
115	-5.75000e+00	4.834455e+04	
116	-5.80000e+00	4.853364e+04	
117	-5.85000e+00	4.871942e+04	
118	-5.90000e+00	4.890192e+04	
119	-5.95000e+00	4.908119e+04	
120	-6.00000e+00	4.925724e+04	
121	-6.05000e+00	4.943013e+04	
122	-6.10000e+00	4.959986e+04	
123	-6.15000e+00	4.976649e+04	
124	-6.20000e+00	4.993002e+04	
125	-6.25000e+00	5.009049e+04	
126	-6.30000e+00	5.024792e+04	
127	-6.35000e+00	5.040233e+04	
128	-6.40000e+00	5.055375e+04	
129	-6.45000e+00	5.070219e+04	
130	-6.50000e+00	5.084767e+04	
131	-6.55000e+00	5.099021e+04	
132	-6.60000e+00	5.112983e+04	
Reset re-loads circuit ***************************

Circuit: ***************************

Doing analysis at TEMP = 25.000000 and TNOM = 25.000000


No. of Data Rows : 133
                          ***************************
                          DC transfer characteristic  Mon Jan  9 13:57:54  2023
--------------------------------------------------------------------------------
Index   v-sweep         rds             
--------------------------------------------------------------------------------
0	0.000000e+00	7.492978e+02	
1	-5.00000e-02	7.699700e+02	
2	-1.00000e-01	7.915434e+02	
3	-1.50000e-01	8.140778e+02	
4	-2.00000e-01	8.376382e+02	
5	-2.50000e-01	8.622957e+02	
6	-3.00000e-01	8.881279e+02	
7	-3.50000e-01	9.152203e+02	
8	-4.00000e-01	9.436665e+02	
9	-4.50000e-01	9.735699e+02	
10	-5.00000e-01	1.005044e+03	
11	-5.50000e-01	1.038217e+03	
12	-6.00000e-01	1.073226e+03	
13	-6.50000e-01	1.110230e+03	
14	-7.00000e-01	1.149401e+03	
15	-7.50000e-01	1.190935e+03	
16	-8.00000e-01	1.235051e+03	
17	-8.50000e-01	1.281995e+03	
18	-9.00000e-01	1.332048e+03	
19	-9.50000e-01	1.385525e+03	
20	-1.00000e+00	1.442790e+03	
21	-1.05000e+00	1.504254e+03	
22	-1.10000e+00	1.570396e+03	
23	-1.15000e+00	1.641766e+03	
24	-1.20000e+00	1.719002e+03	
25	-1.25000e+00	1.802853e+03	
26	-1.30000e+00	1.894197e+03	
27	-1.35000e+00	1.994071e+03	
28	-1.40000e+00	2.103710e+03	
29	-1.45000e+00	2.224593e+03	
30	-1.50000e+00	2.358502e+03	
31	-1.55000e+00	2.507601e+03	
32	-1.60000e+00	2.674528e+03	
33	-1.65000e+00	2.862514e+03	
34	-1.70000e+00	3.075515e+03	
35	-1.75000e+00	3.318332e+03	
36	-1.80000e+00	3.596654e+03	
37	-1.85000e+00	3.916839e+03	
38	-1.90000e+00	4.285148e+03	
39	-1.95000e+00	4.706126e+03	
40	-2.00000e+00	5.180387e+03	
41	-2.05000e+00	5.703082e+03	
42	-2.10000e+00	6.264565e+03	
43	-2.15000e+00	6.853067e+03	
44	-2.20000e+00	7.457481e+03	
45	-2.25000e+00	8.068896e+03	
46	-2.30000e+00	8.680839e+03	
47	-2.35000e+00	9.288887e+03	
48	-2.40000e+00	9.890122e+03	
49	-2.45000e+00	1.048268e+04	
50	-2.50000e+00	1.106538e+04	
51	-2.55000e+00	1.163754e+04	
52	-2.60000e+00	1.219877e+04	
53	-2.65000e+00	1.274889e+04	
54	-2.70000e+00	1.328788e+04	

Index   v-sweep         rds             
--------------------------------------------------------------------------------
55	-2.75000e+00	1.381579e+04	
56	-2.80000e+00	1.433275e+04	
57	-2.85000e+00	1.483894e+04	
58	-2.90000e+00	1.533456e+04	
59	-2.95000e+00	1.581982e+04	
60	-3.00000e+00	1.629495e+04	
61	-3.05000e+00	1.676020e+04	
62	-3.10000e+00	1.721580e+04	
63	-3.15000e+00	1.766199e+04	
64	-3.20000e+00	1.809901e+04	
65	-3.25000e+00	1.852710e+04	
66	-3.30000e+00	1.894649e+04	
67	-3.35000e+00	1.935740e+04	
68	-3.40000e+00	1.976006e+04	
69	-3.45000e+00	2.015468e+04	
70	-3.50000e+00	2.054147e+04	
71	-3.55000e+00	2.092063e+04	
72	-3.60000e+00	2.129237e+04	
73	-3.65000e+00	2.165688e+04	
74	-3.70000e+00	2.201435e+04	
75	-3.75000e+00	2.236495e+04	
76	-3.80000e+00	2.270887e+04	
77	-3.85000e+00	2.304627e+04	
78	-3.90000e+00	2.337731e+04	
79	-3.95000e+00	2.370217e+04	
80	-4.00000e+00	2.402100e+04	
81	-4.05000e+00	2.433394e+04	
82	-4.10000e+00	2.464114e+04	
83	-4.15000e+00	2.494275e+04	
84	-4.20000e+00	2.523890e+04	
85	-4.25000e+00	2.552973e+04	
86	-4.30000e+00	2.581536e+04	
87	-4.35000e+00	2.609591e+04	
88	-4.40000e+00	2.637152e+04	
89	-4.45000e+00	2.664229e+04	
90	-4.50000e+00	2.690834e+04	
91	-4.55000e+00	2.716979e+04	
92	-4.60000e+00	2.742673e+04	
93	-4.65000e+00	2.767927e+04	
94	-4.70000e+00	2.792752e+04	
95	-4.75000e+00	2.817156e+04	
96	-4.80000e+00	2.841149e+04	
97	-4.85000e+00	2.864741e+04	
98	-4.90000e+00	2.887940e+04	
99	-4.95000e+00	2.910754e+04	
100	-5.00000e+00	2.933193e+04	
101	-5.05000e+00	2.955263e+04	
102	-5.10000e+00	2.976973e+04	
103	-5.15000e+00	2.998330e+04	
104	-5.20000e+00	3.019341e+04	
105	-5.25000e+00	3.040013e+04	
106	-5.30000e+00	3.060352e+04	
107	-5.35000e+00	3.080366e+04	
108	-5.40000e+00	3.100060e+04	
109	-5.45000e+00	3.119440e+04	
110	-5.50000e+00	3.138512e+04	
111	-5.55000e+00	3.157282e+04	
112	-5.60000e+00	3.175754e+04	

Index   v-sweep         rds             
--------------------------------------------------------------------------------
113	-5.65000e+00	3.193934e+04	
114	-5.70000e+00	3.211826e+04	
115	-5.75000e+00	3.229435e+04	
116	-5.80000e+00	3.246766e+04	
117	-5.85000e+00	3.263822e+04	
118	-5.90000e+00	3.280608e+04	
119	-5.95000e+00	3.297127e+04	
120	-6.00000e+00	3.313383e+04	
121	-6.05000e+00	3.329379e+04	
122	-6.10000e+00	3.345119e+04	
123	-6.15000e+00	3.360605e+04	
124	-6.20000e+00	3.375841e+04	
125	-6.25000e+00	3.390830e+04	
126	-6.30000e+00	3.405573e+04	
127	-6.35000e+00	3.420073e+04	
128	-6.40000e+00	3.434332e+04	
129	-6.45000e+00	3.448353e+04	
130	-6.50000e+00	3.462137e+04	
131	-6.55000e+00	3.475687e+04	
132	-6.60000e+00	3.489004e+04	
Reset re-loads circuit ***************************

Circuit: ***************************

Doing analysis at TEMP = 25.000000 and TNOM = 25.000000


No. of Data Rows : 133
                          ***************************
                          DC transfer characteristic  Mon Jan  9 13:57:54  2023
--------------------------------------------------------------------------------
Index   v-sweep         rds             
--------------------------------------------------------------------------------
0	0.000000e+00	6.361188e+02	
1	-5.00000e-02	6.501906e+02	
2	-1.00000e-01	6.647339e+02	
3	-1.50000e-01	6.797726e+02	
4	-2.00000e-01	6.953320e+02	
5	-2.50000e-01	7.114394e+02	
6	-3.00000e-01	7.281238e+02	
7	-3.50000e-01	7.454166e+02	
8	-4.00000e-01	7.633511e+02	
9	-4.50000e-01	7.819635e+02	
10	-5.00000e-01	8.012925e+02	
11	-5.50000e-01	8.213799e+02	
12	-6.00000e-01	8.422707e+02	
13	-6.50000e-01	8.640139e+02	
14	-7.00000e-01	8.866621e+02	
15	-7.50000e-01	9.102725e+02	
16	-8.00000e-01	9.349074e+02	
17	-8.50000e-01	9.606343e+02	
18	-9.00000e-01	9.875270e+02	
19	-9.50000e-01	1.015666e+03	
20	-1.00000e+00	1.045139e+03	
21	-1.05000e+00	1.076043e+03	
22	-1.10000e+00	1.108484e+03	
23	-1.15000e+00	1.142579e+03	
24	-1.20000e+00	1.178455e+03	
25	-1.25000e+00	1.216258e+03	
26	-1.30000e+00	1.256143e+03	
27	-1.35000e+00	1.298287e+03	
28	-1.40000e+00	1.342888e+03	
29	-1.45000e+00	1.390163e+03	
30	-1.50000e+00	1.440360e+03	
31	-1.55000e+00	1.493756e+03	
32	-1.60000e+00	1.550666e+03	
33	-1.65000e+00	1.611446e+03	
34	-1.70000e+00	1.676503e+03	
35	-1.75000e+00	1.746301e+03	
36	-1.80000e+00	1.821378e+03	
37	-1.85000e+00	1.902352e+03	
38	-1.90000e+00	1.989947e+03	
39	-1.95000e+00	2.085011e+03	
40	-2.00000e+00	2.188546e+03	
41	-2.05000e+00	2.301753e+03	
42	-2.10000e+00	2.426080e+03	
43	-2.15000e+00	2.563299e+03	
44	-2.20000e+00	2.715602e+03	
45	-2.25000e+00	2.885723e+03	
46	-2.30000e+00	3.077056e+03	
47	-2.35000e+00	3.293684e+03	
48	-2.40000e+00	3.540141e+03	
49	-2.45000e+00	3.820669e+03	
50	-2.50000e+00	4.137910e+03	
51	-2.55000e+00	4.491553e+03	
52	-2.60000e+00	4.877862e+03	
53	-2.65000e+00	5.290517e+03	
54	-2.70000e+00	5.722210e+03	

Index   v-sweep         rds             
--------------------------------------------------------------------------------
55	-2.75000e+00	6.166054e+03	
56	-2.80000e+00	6.616327e+03	
57	-2.85000e+00	7.068641e+03	
58	-2.90000e+00	7.519790e+03	
59	-2.95000e+00	7.967511e+03	
60	-3.00000e+00	8.410234e+03	
61	-3.05000e+00	8.846898e+03	
62	-3.10000e+00	9.276797e+03	
63	-3.15000e+00	9.699480e+03	
64	-3.20000e+00	1.011468e+04	
65	-3.25000e+00	1.052224e+04	
66	-3.30000e+00	1.092212e+04	
67	-3.35000e+00	1.131433e+04	
68	-3.40000e+00	1.169892e+04	
69	-3.45000e+00	1.207599e+04	
70	-3.50000e+00	1.244564e+04	
71	-3.55000e+00	1.280802e+04	
72	-3.60000e+00	1.316326e+04	
73	-3.65000e+00	1.351150e+04	
74	-3.70000e+00	1.385291e+04	
75	-3.75000e+00	1.418763e+04	
76	-3.80000e+00	1.451582e+04	
77	-3.85000e+00	1.483763e+04	
78	-3.90000e+00	1.515322e+04	
79	-3.95000e+00	1.546275e+04	
80	-4.00000e+00	1.576635e+04	
81	-4.05000e+00	1.606417e+04	
82	-4.10000e+00	1.635637e+04	
83	-4.15000e+00	1.664306e+04	
84	-4.20000e+00	1.692440e+04	
85	-4.25000e+00	1.720052e+04	
86	-4.30000e+00	1.747154e+04	
87	-4.35000e+00	1.773758e+04	
88	-4.40000e+00	1.799878e+04	
89	-4.45000e+00	1.825524e+04	
90	-4.50000e+00	1.850709e+04	
91	-4.55000e+00	1.875444e+04	
92	-4.60000e+00	1.899739e+04	
93	-4.65000e+00	1.923605e+04	
94	-4.70000e+00	1.947052e+04	
95	-4.75000e+00	1.970090e+04	
96	-4.80000e+00	1.992730e+04	
97	-4.85000e+00	2.014979e+04	
98	-4.90000e+00	2.036848e+04	
99	-4.95000e+00	2.058345e+04	
100	-5.00000e+00	2.079479e+04	
101	-5.05000e+00	2.100258e+04	
102	-5.10000e+00	2.120689e+04	
103	-5.15000e+00	2.140782e+04	
104	-5.20000e+00	2.160542e+04	
105	-5.25000e+00	2.179979e+04	
106	-5.30000e+00	2.199098e+04	
107	-5.35000e+00	2.217907e+04	
108	-5.40000e+00	2.236412e+04	
109	-5.45000e+00	2.254620e+04	
110	-5.50000e+00	2.272537e+04	
111	-5.55000e+00	2.290169e+04	
112	-5.60000e+00	2.307521e+04	

Index   v-sweep         rds             
--------------------------------------------------------------------------------
113	-5.65000e+00	2.324600e+04	
114	-5.70000e+00	2.341411e+04	
115	-5.75000e+00	2.357959e+04	
116	-5.80000e+00	2.374248e+04	
117	-5.85000e+00	2.390285e+04	
118	-5.90000e+00	2.406073e+04	
119	-5.95000e+00	2.421617e+04	
120	-6.00000e+00	2.436921e+04	
121	-6.05000e+00	2.451989e+04	
122	-6.10000e+00	2.466825e+04	
123	-6.15000e+00	2.481433e+04	
124	-6.20000e+00	2.495817e+04	
125	-6.25000e+00	2.509979e+04	
126	-6.30000e+00	2.523924e+04	
127	-6.35000e+00	2.537653e+04	
128	-6.40000e+00	2.551171e+04	
129	-6.45000e+00	2.564479e+04	
130	-6.50000e+00	2.577581e+04	
131	-6.55000e+00	2.590478e+04	
132	-6.60000e+00	2.603174e+04	
Reset re-loads circuit ***************************

Circuit: ***************************

Doing analysis at TEMP = 25.000000 and TNOM = 25.000000


No. of Data Rows : 133
                          ***************************
                          DC transfer characteristic  Mon Jan  9 13:57:54  2023
--------------------------------------------------------------------------------
Index   v-sweep         rds             
--------------------------------------------------------------------------------
0	0.000000e+00	5.662683e+02	
1	-5.00000e-02	5.768218e+02	
2	-1.00000e-01	5.876637e+02	
3	-1.50000e-01	5.988056e+02	
4	-2.00000e-01	6.102601e+02	
5	-2.50000e-01	6.220402e+02	
6	-3.00000e-01	6.341599e+02	
7	-3.50000e-01	6.466339e+02	
8	-4.00000e-01	6.594776e+02	
9	-4.50000e-01	6.727075e+02	
10	-5.00000e-01	6.863411e+02	
11	-5.50000e-01	7.003970e+02	
12	-6.00000e-01	7.148947e+02	
13	-6.50000e-01	7.298553e+02	
14	-7.00000e-01	7.453011e+02	
15	-7.50000e-01	7.612556e+02	
16	-8.00000e-01	7.777443e+02	
17	-8.50000e-01	7.947942e+02	
18	-9.00000e-01	8.124341e+02	
19	-9.50000e-01	8.306948e+02	
20	-1.00000e+00	8.496096e+02	
21	-1.05000e+00	8.692137e+02	
22	-1.10000e+00	8.895453e+02	
23	-1.15000e+00	9.106452e+02	
24	-1.20000e+00	9.325576e+02	
25	-1.25000e+00	9.553299e+02	
26	-1.30000e+00	9.790132e+02	
27	-1.35000e+00	1.003663e+03	
28	-1.40000e+00	1.029339e+03	
29	-1.45000e+00	1.056107e+03	
30	-1.50000e+00	1.084036e+03	
31	-1.55000e+00	1.113205e+03	
32	-1.60000e+00	1.143696e+03	
33	-1.65000e+00	1.175601e+03	
34	-1.70000e+00	1.209019e+03	
35	-1.75000e+00	1.244062e+03	
36	-1.80000e+00	1.280849e+03	
37	-1.85000e+00	1.319513e+03	
38	-1.90000e+00	1.360202e+03	
39	-1.95000e+00	1.403077e+03	
40	-2.00000e+00	1.448319e+03	
41	-2.05000e+00	1.496131e+03	
42	-2.10000e+00	1.546736e+03	
43	-2.15000e+00	1.600389e+03	
44	-2.20000e+00	1.657375e+03	
45	-2.25000e+00	1.718019e+03	
46	-2.30000e+00	1.782690e+03	
47	-2.35000e+00	1.851814e+03	
48	-2.40000e+00	1.925888e+03	
49	-2.45000e+00	2.005493e+03	
50	-2.50000e+00	2.091322e+03	
51	-2.55000e+00	2.184217e+03	
52	-2.60000e+00	2.285217e+03	
53	-2.65000e+00	2.395629e+03	
54	-2.70000e+00	2.517126e+03	

Index   v-sweep         rds             
--------------------------------------------------------------------------------
55	-2.75000e+00	2.651860e+03	
56	-2.80000e+00	2.802561e+03	
57	-2.85000e+00	2.972533e+03	
58	-2.90000e+00	3.165398e+03	
59	-2.95000e+00	3.384462e+03	
60	-3.00000e+00	3.631750e+03	
61	-3.05000e+00	3.907144e+03	
62	-3.10000e+00	4.208142e+03	
63	-3.15000e+00	4.530424e+03	
64	-3.20000e+00	4.868852e+03	
65	-3.25000e+00	5.218394e+03	
66	-3.30000e+00	5.574674e+03	
67	-3.35000e+00	5.934170e+03	
68	-3.40000e+00	6.294185e+03	
69	-3.45000e+00	6.652719e+03	
70	-3.50000e+00	7.008323e+03	
71	-3.55000e+00	7.359965e+03	
72	-3.60000e+00	7.706919e+03	
73	-3.65000e+00	8.048692e+03	
74	-3.70000e+00	8.384954e+03	
75	-3.75000e+00	8.715498e+03	
76	-3.80000e+00	9.040206e+03	
77	-3.85000e+00	9.359026e+03	
78	-3.90000e+00	9.671953e+03	
79	-3.95000e+00	9.979020e+03	
80	-4.00000e+00	1.028028e+04	
81	-4.05000e+00	1.057582e+04	
82	-4.10000e+00	1.086571e+04	
83	-4.15000e+00	1.115007e+04	
84	-4.20000e+00	1.142900e+04	
85	-4.25000e+00	1.170260e+04	
86	-4.30000e+00	1.197100e+04	
87	-4.35000e+00	1.223430e+04	
88	-4.40000e+00	1.249262e+04	
89	-4.45000e+00	1.274607e+04	
90	-4.50000e+00	1.299478e+04	
91	-4.55000e+00	1.323884e+04	
92	-4.60000e+00	1.347838e+04	
93	-4.65000e+00	1.371349e+04	
94	-4.70000e+00	1.394429e+04	
95	-4.75000e+00	1.417088e+04	
96	-4.80000e+00	1.439335e+04	
97	-4.85000e+00	1.461182e+04	
98	-4.90000e+00	1.482636e+04	
99	-4.95000e+00	1.503709e+04	
100	-5.00000e+00	1.524409e+04	
101	-5.05000e+00	1.544744e+04	
102	-5.10000e+00	1.564724e+04	
103	-5.15000e+00	1.584357e+04	
104	-5.20000e+00	1.603650e+04	
105	-5.25000e+00	1.622613e+04	
106	-5.30000e+00	1.641252e+04	
107	-5.35000e+00	1.659576e+04	
108	-5.40000e+00	1.677591e+04	
109	-5.45000e+00	1.695304e+04	
110	-5.50000e+00	1.712723e+04	
111	-5.55000e+00	1.729853e+04	
112	-5.60000e+00	1.746702e+04	

Index   v-sweep         rds             
--------------------------------------------------------------------------------
113	-5.65000e+00	1.763276e+04	
114	-5.70000e+00	1.779580e+04	
115	-5.75000e+00	1.795621e+04	
116	-5.80000e+00	1.811404e+04	
117	-5.85000e+00	1.826935e+04	
118	-5.90000e+00	1.842220e+04	
119	-5.95000e+00	1.857262e+04	
120	-6.00000e+00	1.872068e+04	
121	-6.05000e+00	1.886641e+04	
122	-6.10000e+00	1.900988e+04	
123	-6.15000e+00	1.915111e+04	
124	-6.20000e+00	1.929016e+04	
125	-6.25000e+00	1.942707e+04	
126	-6.30000e+00	1.956187e+04	
127	-6.35000e+00	1.969461e+04	
128	-6.40000e+00	1.982532e+04	
129	-6.45000e+00	1.995404e+04	
130	-6.50000e+00	2.008079e+04	
131	-6.55000e+00	2.020562e+04	
132	-6.60000e+00	2.032855e+04	
Reset re-loads circuit ***************************

Circuit: ***************************

Note: No ".plot", ".print", or ".fourier" lines; no simulations run
