
Note: Compatibility modes selected: hs

Warning: m=xx on .subckt line will override multiplier m hierarchy!


Circuit: ***************************

Doing analysis at TEMP = -40.000000 and TNOM = -40.000000


No. of Data Rows : 133
                          ***************************
                          DC transfer characteristic  Mon Jan  9 13:57:54  2023
--------------------------------------------------------------------------------
Index   v-sweep         rds             
--------------------------------------------------------------------------------
0	0.000000e+00	1.708975e+04	
1	-5.00000e-02	4.051851e+04	
2	-1.00000e-01	1.679185e+05	
3	-1.50000e-01	4.504538e+05	
4	-2.00000e-01	6.393826e+05	
5	-2.50000e-01	7.352203e+05	
6	-3.00000e-01	7.924327e+05	
7	-3.50000e-01	8.322535e+05	
8	-4.00000e-01	8.625331e+05	
9	-4.50000e-01	8.866748e+05	
10	-5.00000e-01	9.064250e+05	
11	-5.50000e-01	9.228153e+05	
12	-6.00000e-01	9.365232e+05	
13	-6.50000e-01	9.480291e+05	
14	-7.00000e-01	9.576926e+05	
15	-7.50000e-01	9.657932e+05	
16	-8.00000e-01	9.725541e+05	
17	-8.50000e-01	9.781574e+05	
18	-9.00000e-01	9.827536e+05	
19	-9.50000e-01	9.864691e+05	
20	-1.00000e+00	9.894105e+05	
21	-1.05000e+00	9.916690e+05	
22	-1.10000e+00	9.933228e+05	
23	-1.15000e+00	9.944396e+05	
24	-1.20000e+00	9.950780e+05	
25	-1.25000e+00	9.952894e+05	
26	-1.30000e+00	9.951186e+05	
27	-1.35000e+00	9.946054e+05	
28	-1.40000e+00	9.937845e+05	
29	-1.45000e+00	9.926869e+05	
30	-1.50000e+00	9.913402e+05	
31	-1.55000e+00	9.897689e+05	
32	-1.60000e+00	9.879949e+05	
33	-1.65000e+00	9.860378e+05	
34	-1.70000e+00	9.839154e+05	
35	-1.75000e+00	9.816434e+05	
36	-1.80000e+00	9.792362e+05	
37	-1.85000e+00	9.767067e+05	
38	-1.90000e+00	9.740667e+05	
39	-1.95000e+00	9.713267e+05	
40	-2.00000e+00	9.684964e+05	
41	-2.05000e+00	9.655846e+05	
42	-2.10000e+00	9.625993e+05	
43	-2.15000e+00	9.595478e+05	
44	-2.20000e+00	9.564367e+05	
45	-2.25000e+00	9.532722e+05	
46	-2.30000e+00	9.500598e+05	
47	-2.35000e+00	9.468046e+05	
48	-2.40000e+00	9.435114e+05	
49	-2.45000e+00	9.401845e+05	
50	-2.50000e+00	9.368278e+05	
51	-2.55000e+00	9.334449e+05	
52	-2.60000e+00	9.300393e+05	
53	-2.65000e+00	9.266140e+05	
54	-2.70000e+00	9.231719e+05	

Index   v-sweep         rds             
--------------------------------------------------------------------------------
55	-2.75000e+00	9.197157e+05	
56	-2.80000e+00	9.162477e+05	
57	-2.85000e+00	9.127701e+05	
58	-2.90000e+00	9.092852e+05	
59	-2.95000e+00	9.057947e+05	
60	-3.00000e+00	9.023005e+05	
61	-3.05000e+00	8.988043e+05	
62	-3.10000e+00	8.953074e+05	
63	-3.15000e+00	8.918114e+05	
64	-3.20000e+00	8.883174e+05	
65	-3.25000e+00	8.848268e+05	
66	-3.30000e+00	8.813407e+05	
67	-3.35000e+00	8.778600e+05	
68	-3.40000e+00	8.743857e+05	
69	-3.45000e+00	8.709187e+05	
70	-3.50000e+00	8.674597e+05	
71	-3.55000e+00	8.640097e+05	
72	-3.60000e+00	8.605691e+05	
73	-3.65000e+00	8.571387e+05	
74	-3.70000e+00	8.537190e+05	
75	-3.75000e+00	8.503106e+05	
76	-3.80000e+00	8.469140e+05	
77	-3.85000e+00	8.435296e+05	
78	-3.90000e+00	8.401579e+05	
79	-3.95000e+00	8.367992e+05	
80	-4.00000e+00	8.334538e+05	
81	-4.05000e+00	8.301221e+05	
82	-4.10000e+00	8.268044e+05	
83	-4.15000e+00	8.235009e+05	
84	-4.20000e+00	8.202118e+05	
85	-4.25000e+00	8.169374e+05	
86	-4.30000e+00	8.136778e+05	
87	-4.35000e+00	8.104332e+05	
88	-4.40000e+00	8.072038e+05	
89	-4.45000e+00	8.039896e+05	
90	-4.50000e+00	8.007908e+05	
91	-4.55000e+00	7.976075e+05	
92	-4.60000e+00	7.944398e+05	
93	-4.65000e+00	7.912876e+05	
94	-4.70000e+00	7.881512e+05	
95	-4.75000e+00	7.850304e+05	
96	-4.80000e+00	7.819254e+05	
97	-4.85000e+00	7.788361e+05	
98	-4.90000e+00	7.757626e+05	
99	-4.95000e+00	7.727049e+05	
100	-5.00000e+00	7.696628e+05	
101	-5.05000e+00	7.666366e+05	
102	-5.10000e+00	7.636260e+05	
103	-5.15000e+00	7.606310e+05	
104	-5.20000e+00	7.576517e+05	
105	-5.25000e+00	7.546880e+05	
106	-5.30000e+00	7.517398e+05	
107	-5.35000e+00	7.488071e+05	
108	-5.40000e+00	7.458898e+05	
109	-5.45000e+00	7.429879e+05	
110	-5.50000e+00	7.401012e+05	
111	-5.55000e+00	7.372297e+05	
112	-5.60000e+00	7.343733e+05	

Index   v-sweep         rds             
--------------------------------------------------------------------------------
113	-5.65000e+00	7.315320e+05	
114	-5.70000e+00	7.287057e+05	
115	-5.75000e+00	7.258942e+05	
116	-5.80000e+00	7.230976e+05	
117	-5.85000e+00	7.203156e+05	
118	-5.90000e+00	7.175483e+05	
119	-5.95000e+00	7.147955e+05	
120	-6.00000e+00	7.120571e+05	
121	-6.05000e+00	7.093330e+05	
122	-6.10000e+00	7.066232e+05	
123	-6.15000e+00	7.039275e+05	
124	-6.20000e+00	7.012459e+05	
125	-6.25000e+00	6.985782e+05	
126	-6.30000e+00	6.959244e+05	
127	-6.35000e+00	6.932843e+05	
128	-6.40000e+00	6.906579e+05	
129	-6.45000e+00	6.880450e+05	
130	-6.50000e+00	6.854455e+05	
131	-6.55000e+00	6.828594e+05	
132	-6.60000e+00	6.802866e+05	
Reset re-loads circuit ***************************

Circuit: ***************************

Doing analysis at TEMP = -40.000000 and TNOM = -40.000000


No. of Data Rows : 133
                          ***************************
                          DC transfer characteristic  Mon Jan  9 13:57:54  2023
--------------------------------------------------------------------------------
Index   v-sweep         rds             
--------------------------------------------------------------------------------
0	0.000000e+00	1.215022e+03	
1	-5.00000e-02	1.308521e+03	
2	-1.00000e-01	1.414656e+03	
3	-1.50000e-01	1.536152e+03	
4	-2.00000e-01	1.676573e+03	
5	-2.50000e-01	1.840669e+03	
6	-3.00000e-01	2.034900e+03	
7	-3.50000e-01	2.268270e+03	
8	-4.00000e-01	2.553654e+03	
9	-4.50000e-01	2.909999e+03	
10	-5.00000e-01	3.365984e+03	
11	-5.50000e-01	3.965942e+03	
12	-6.00000e-01	4.778136e+03	
13	-6.50000e-01	5.899777e+03	
14	-7.00000e-01	7.434447e+03	
15	-7.50000e-01	9.406046e+03	
16	-8.00000e-01	1.167727e+04	
17	-8.50000e-01	1.403801e+04	
18	-9.00000e-01	1.635239e+04	
19	-9.50000e-01	1.857341e+04	
20	-1.00000e+00	2.069546e+04	
21	-1.05000e+00	2.272453e+04	
22	-1.10000e+00	2.466818e+04	
23	-1.15000e+00	2.653312e+04	
24	-1.20000e+00	2.832496e+04	
25	-1.25000e+00	3.004847e+04	
26	-1.30000e+00	3.170772e+04	
27	-1.35000e+00	3.330634e+04	
28	-1.40000e+00	3.484755e+04	
29	-1.45000e+00	3.633430e+04	
30	-1.50000e+00	3.776929e+04	
31	-1.55000e+00	3.915502e+04	
32	-1.60000e+00	4.049382e+04	
33	-1.65000e+00	4.178787e+04	
34	-1.70000e+00	4.303918e+04	
35	-1.75000e+00	4.424969e+04	
36	-1.80000e+00	4.542118e+04	
37	-1.85000e+00	4.655534e+04	
38	-1.90000e+00	4.765378e+04	
39	-1.95000e+00	4.871800e+04	
40	-2.00000e+00	4.974944e+04	
41	-2.05000e+00	5.074943e+04	
42	-2.10000e+00	5.171926e+04	
43	-2.15000e+00	5.266015e+04	
44	-2.20000e+00	5.357323e+04	
45	-2.25000e+00	5.445961e+04	
46	-2.30000e+00	5.532032e+04	
47	-2.35000e+00	5.615633e+04	
48	-2.40000e+00	5.696860e+04	
49	-2.45000e+00	5.775801e+04	
50	-2.50000e+00	5.852541e+04	
51	-2.55000e+00	5.927160e+04	
52	-2.60000e+00	5.999737e+04	
53	-2.65000e+00	6.070343e+04	
54	-2.70000e+00	6.139049e+04	

Index   v-sweep         rds             
--------------------------------------------------------------------------------
55	-2.75000e+00	6.205923e+04	
56	-2.80000e+00	6.271027e+04	
57	-2.85000e+00	6.334424e+04	
58	-2.90000e+00	6.396170e+04	
59	-2.95000e+00	6.456323e+04	
60	-3.00000e+00	6.514935e+04	
61	-3.05000e+00	6.572057e+04	
62	-3.10000e+00	6.627738e+04	
63	-3.15000e+00	6.682026e+04	
64	-3.20000e+00	6.734964e+04	
65	-3.25000e+00	6.786596e+04	
66	-3.30000e+00	6.836963e+04	
67	-3.35000e+00	6.886105e+04	
68	-3.40000e+00	6.934059e+04	
69	-3.45000e+00	6.980861e+04	
70	-3.50000e+00	7.026548e+04	
71	-3.55000e+00	7.071151e+04	
72	-3.60000e+00	7.114704e+04	
73	-3.65000e+00	7.157237e+04	
74	-3.70000e+00	7.198780e+04	
75	-3.75000e+00	7.239361e+04	
76	-3.80000e+00	7.279008e+04	
77	-3.85000e+00	7.317747e+04	
78	-3.90000e+00	7.355603e+04	
79	-3.95000e+00	7.392601e+04	
80	-4.00000e+00	7.428763e+04	
81	-4.05000e+00	7.464113e+04	
82	-4.10000e+00	7.498671e+04	
83	-4.15000e+00	7.532458e+04	
84	-4.20000e+00	7.565494e+04	
85	-4.25000e+00	7.597799e+04	
86	-4.30000e+00	7.629389e+04	
87	-4.35000e+00	7.660284e+04	
88	-4.40000e+00	7.690499e+04	
89	-4.45000e+00	7.720051e+04	
90	-4.50000e+00	7.748955e+04	
91	-4.55000e+00	7.777226e+04	
92	-4.60000e+00	7.804879e+04	
93	-4.65000e+00	7.831926e+04	
94	-4.70000e+00	7.858382e+04	
95	-4.75000e+00	7.884258e+04	
96	-4.80000e+00	7.909567e+04	
97	-4.85000e+00	7.934319e+04	
98	-4.90000e+00	7.958527e+04	
99	-4.95000e+00	7.982200e+04	
100	-5.00000e+00	8.005349e+04	
101	-5.05000e+00	8.027983e+04	
102	-5.10000e+00	8.050111e+04	
103	-5.15000e+00	8.071743e+04	
104	-5.20000e+00	8.092887e+04	
105	-5.25000e+00	8.113551e+04	
106	-5.30000e+00	8.133742e+04	
107	-5.35000e+00	8.153468e+04	
108	-5.40000e+00	8.172736e+04	
109	-5.45000e+00	8.191553e+04	
110	-5.50000e+00	8.209925e+04	
111	-5.55000e+00	8.227858e+04	
112	-5.60000e+00	8.245359e+04	

Index   v-sweep         rds             
--------------------------------------------------------------------------------
113	-5.65000e+00	8.262433e+04	
114	-5.70000e+00	8.279085e+04	
115	-5.75000e+00	8.295321e+04	
116	-5.80000e+00	8.311145e+04	
117	-5.85000e+00	8.326563e+04	
118	-5.90000e+00	8.341579e+04	
119	-5.95000e+00	8.356196e+04	
120	-6.00000e+00	8.370421e+04	
121	-6.05000e+00	8.384256e+04	
122	-6.10000e+00	8.397705e+04	
123	-6.15000e+00	8.410773e+04	
124	-6.20000e+00	8.423463e+04	
125	-6.25000e+00	8.435777e+04	
126	-6.30000e+00	8.447721e+04	
127	-6.35000e+00	8.459296e+04	
128	-6.40000e+00	8.470507e+04	
129	-6.45000e+00	8.481356e+04	
130	-6.50000e+00	8.491846e+04	
131	-6.55000e+00	8.501980e+04	
132	-6.60000e+00	8.511761e+04	
Reset re-loads circuit ***************************

Circuit: ***************************

Doing analysis at TEMP = -40.000000 and TNOM = -40.000000


No. of Data Rows : 133
                          ***************************
                          DC transfer characteristic  Mon Jan  9 13:57:54  2023
--------------------------------------------------------------------------------
Index   v-sweep         rds             
--------------------------------------------------------------------------------
0	0.000000e+00	7.411479e+02	
1	-5.00000e-02	7.743086e+02	
2	-1.00000e-01	8.097723e+02	
3	-1.50000e-01	8.477846e+02	
4	-2.00000e-01	8.886268e+02	
5	-2.50000e-01	9.326237e+02	
6	-3.00000e-01	9.801513e+02	
7	-3.50000e-01	1.031648e+03	
8	-4.00000e-01	1.087629e+03	
9	-4.50000e-01	1.148699e+03	
10	-5.00000e-01	1.215581e+03	
11	-5.50000e-01	1.289137e+03	
12	-6.00000e-01	1.370411e+03	
13	-6.50000e-01	1.460674e+03	
14	-7.00000e-01	1.561489e+03	
15	-7.50000e-01	1.674804e+03	
16	-8.00000e-01	1.803071e+03	
17	-8.50000e-01	1.949417e+03	
18	-9.00000e-01	2.117890e+03	
19	-9.50000e-01	2.313807e+03	
20	-1.00000e+00	2.544248e+03	
21	-1.05000e+00	2.818742e+03	
22	-1.10000e+00	3.150111e+03	
23	-1.15000e+00	3.555110e+03	
24	-1.20000e+00	4.053622e+03	
25	-1.25000e+00	4.663950e+03	
26	-1.30000e+00	5.393210e+03	
27	-1.35000e+00	6.229299e+03	
28	-1.40000e+00	7.144252e+03	
29	-1.45000e+00	8.106366e+03	
30	-1.50000e+00	9.089556e+03	
31	-1.55000e+00	1.007580e+04	
32	-1.60000e+00	1.105375e+04	
33	-1.65000e+00	1.201661e+04	
34	-1.70000e+00	1.296046e+04	
35	-1.75000e+00	1.388314e+04	
36	-1.80000e+00	1.478358e+04	
37	-1.85000e+00	1.566135e+04	
38	-1.90000e+00	1.651646e+04	
39	-1.95000e+00	1.734917e+04	
40	-2.00000e+00	1.815988e+04	
41	-2.05000e+00	1.894912e+04	
42	-2.10000e+00	1.971746e+04	
43	-2.15000e+00	2.046549e+04	
44	-2.20000e+00	2.119384e+04	
45	-2.25000e+00	2.190312e+04	
46	-2.30000e+00	2.259395e+04	
47	-2.35000e+00	2.326692e+04	
48	-2.40000e+00	2.392262e+04	
49	-2.45000e+00	2.456163e+04	
50	-2.50000e+00	2.518449e+04	
51	-2.55000e+00	2.579175e+04	
52	-2.60000e+00	2.638392e+04	
53	-2.65000e+00	2.696148e+04	
54	-2.70000e+00	2.752494e+04	

Index   v-sweep         rds             
--------------------------------------------------------------------------------
55	-2.75000e+00	2.807473e+04	
56	-2.80000e+00	2.861132e+04	
57	-2.85000e+00	2.913511e+04	
58	-2.90000e+00	2.964653e+04	
59	-2.95000e+00	3.014597e+04	
60	-3.00000e+00	3.063379e+04	
61	-3.05000e+00	3.111038e+04	
62	-3.10000e+00	3.157607e+04	
63	-3.15000e+00	3.203120e+04	
64	-3.20000e+00	3.247610e+04	
65	-3.25000e+00	3.291107e+04	
66	-3.30000e+00	3.333642e+04	
67	-3.35000e+00	3.375243e+04	
68	-3.40000e+00	3.415938e+04	
69	-3.45000e+00	3.455754e+04	
70	-3.50000e+00	3.494715e+04	
71	-3.55000e+00	3.532847e+04	
72	-3.60000e+00	3.570174e+04	
73	-3.65000e+00	3.606718e+04	
74	-3.70000e+00	3.642501e+04	
75	-3.75000e+00	3.677545e+04	
76	-3.80000e+00	3.711870e+04	
77	-3.85000e+00	3.745495e+04	
78	-3.90000e+00	3.778440e+04	
79	-3.95000e+00	3.810724e+04	
80	-4.00000e+00	3.842363e+04	
81	-4.05000e+00	3.873375e+04	
82	-4.10000e+00	3.903776e+04	
83	-4.15000e+00	3.933582e+04	
84	-4.20000e+00	3.962808e+04	
85	-4.25000e+00	3.991468e+04	
86	-4.30000e+00	4.019578e+04	
87	-4.35000e+00	4.047151e+04	
88	-4.40000e+00	4.074199e+04	
89	-4.45000e+00	4.100735e+04	
90	-4.50000e+00	4.126772e+04	
91	-4.55000e+00	4.152321e+04	
92	-4.60000e+00	4.177394e+04	
93	-4.65000e+00	4.202001e+04	
94	-4.70000e+00	4.226153e+04	
95	-4.75000e+00	4.249859e+04	
96	-4.80000e+00	4.273129e+04	
97	-4.85000e+00	4.295973e+04	
98	-4.90000e+00	4.318399e+04	
99	-4.95000e+00	4.340415e+04	
100	-5.00000e+00	4.362030e+04	
101	-5.05000e+00	4.383252e+04	
102	-5.10000e+00	4.404088e+04	
103	-5.15000e+00	4.424544e+04	
104	-5.20000e+00	4.444628e+04	
105	-5.25000e+00	4.464347e+04	
106	-5.30000e+00	4.483705e+04	
107	-5.35000e+00	4.502710e+04	
108	-5.40000e+00	4.521366e+04	
109	-5.45000e+00	4.539679e+04	
110	-5.50000e+00	4.557654e+04	
111	-5.55000e+00	4.575296e+04	
112	-5.60000e+00	4.592610e+04	

Index   v-sweep         rds             
--------------------------------------------------------------------------------
113	-5.65000e+00	4.609599e+04	
114	-5.70000e+00	4.626268e+04	
115	-5.75000e+00	4.642620e+04	
116	-5.80000e+00	4.658660e+04	
117	-5.85000e+00	4.674390e+04	
118	-5.90000e+00	4.689814e+04	
119	-5.95000e+00	4.704936e+04	
120	-6.00000e+00	4.719757e+04	
121	-6.05000e+00	4.734282e+04	
122	-6.10000e+00	4.748511e+04	
123	-6.15000e+00	4.762448e+04	
124	-6.20000e+00	4.776096e+04	
125	-6.25000e+00	4.789456e+04	
126	-6.30000e+00	4.802530e+04	
127	-6.35000e+00	4.815320e+04	
128	-6.40000e+00	4.827829e+04	
129	-6.45000e+00	4.840057e+04	
130	-6.50000e+00	4.852007e+04	
131	-6.55000e+00	4.863680e+04	
132	-6.60000e+00	4.875078e+04	
Reset re-loads circuit ***************************

Circuit: ***************************

Doing analysis at TEMP = -40.000000 and TNOM = -40.000000


No. of Data Rows : 133
                          ***************************
                          DC transfer characteristic  Mon Jan  9 13:57:54  2023
--------------------------------------------------------------------------------
Index   v-sweep         rds             
--------------------------------------------------------------------------------
0	0.000000e+00	5.776548e+02	
1	-5.00000e-02	5.966278e+02	
2	-1.00000e-01	6.165019e+02	
3	-1.50000e-01	6.373416e+02	
4	-2.00000e-01	6.592178e+02	
5	-2.50000e-01	6.822084e+02	
6	-3.00000e-01	7.063994e+02	
7	-3.50000e-01	7.318859e+02	
8	-4.00000e-01	7.587734e+02	
9	-4.50000e-01	7.871789e+02	
10	-5.00000e-01	8.172334e+02	
11	-5.50000e-01	8.490828e+02	
12	-6.00000e-01	8.828912e+02	
13	-6.50000e-01	9.188431e+02	
14	-7.00000e-01	9.571473e+02	
15	-7.50000e-01	9.980403e+02	
16	-8.00000e-01	1.041792e+03	
17	-8.50000e-01	1.088710e+03	
18	-9.00000e-01	1.139149e+03	
19	-9.50000e-01	1.193520e+03	
20	-1.00000e+00	1.252299e+03	
21	-1.05000e+00	1.316044e+03	
22	-1.10000e+00	1.385413e+03	
23	-1.15000e+00	1.461190e+03	
24	-1.20000e+00	1.544316e+03	
25	-1.25000e+00	1.635933e+03	
26	-1.30000e+00	1.737451e+03	
27	-1.35000e+00	1.850639e+03	
28	-1.40000e+00	1.977766e+03	
29	-1.45000e+00	2.121809e+03	
30	-1.50000e+00	2.286788e+03	
31	-1.55000e+00	2.478237e+03	
32	-1.60000e+00	2.703793e+03	
33	-1.65000e+00	2.973548e+03	
34	-1.70000e+00	3.299295e+03	
35	-1.75000e+00	3.691515e+03	
36	-1.80000e+00	4.154556e+03	
37	-1.85000e+00	4.683426e+03	
38	-1.90000e+00	5.265305e+03	
39	-1.95000e+00	5.884317e+03	
40	-2.00000e+00	6.525742e+03	
41	-2.05000e+00	7.177920e+03	
42	-2.10000e+00	7.832412e+03	
43	-2.15000e+00	8.483408e+03	
44	-2.20000e+00	9.127031e+03	
45	-2.25000e+00	9.760751e+03	
46	-2.30000e+00	1.038296e+04	
47	-2.35000e+00	1.099268e+04	
48	-2.40000e+00	1.158936e+04	
49	-2.45000e+00	1.217273e+04	
50	-2.50000e+00	1.274271e+04	
51	-2.55000e+00	1.329939e+04	
52	-2.60000e+00	1.384292e+04	
53	-2.65000e+00	1.437353e+04	
54	-2.70000e+00	1.489148e+04	

Index   v-sweep         rds             
--------------------------------------------------------------------------------
55	-2.75000e+00	1.539707e+04	
56	-2.80000e+00	1.589061e+04	
57	-2.85000e+00	1.637241e+04	
58	-2.90000e+00	1.684281e+04	
59	-2.95000e+00	1.730212e+04	
60	-3.00000e+00	1.775067e+04	
61	-3.05000e+00	1.818876e+04	
62	-3.10000e+00	1.861672e+04	
63	-3.15000e+00	1.903485e+04	
64	-3.20000e+00	1.944343e+04	
65	-3.25000e+00	1.984275e+04	
66	-3.30000e+00	2.023309e+04	
67	-3.35000e+00	2.061471e+04	
68	-3.40000e+00	2.098788e+04	
69	-3.45000e+00	2.135285e+04	
70	-3.50000e+00	2.170986e+04	
71	-3.55000e+00	2.205914e+04	
72	-3.60000e+00	2.240092e+04	
73	-3.65000e+00	2.273541e+04	
74	-3.70000e+00	2.306283e+04	
75	-3.75000e+00	2.338338e+04	
76	-3.80000e+00	2.369726e+04	
77	-3.85000e+00	2.400465e+04	
78	-3.90000e+00	2.430574e+04	
79	-3.95000e+00	2.460071e+04	
80	-4.00000e+00	2.488971e+04	
81	-4.05000e+00	2.517292e+04	
82	-4.10000e+00	2.545050e+04	
83	-4.15000e+00	2.572260e+04	
84	-4.20000e+00	2.598935e+04	
85	-4.25000e+00	2.625092e+04	
86	-4.30000e+00	2.650743e+04	
87	-4.35000e+00	2.675902e+04	
88	-4.40000e+00	2.700581e+04	
89	-4.45000e+00	2.724793e+04	
90	-4.50000e+00	2.748550e+04	
91	-4.55000e+00	2.771862e+04	
92	-4.60000e+00	2.794742e+04	
93	-4.65000e+00	2.817200e+04	
94	-4.70000e+00	2.839247e+04	
95	-4.75000e+00	2.860891e+04	
96	-4.80000e+00	2.882143e+04	
97	-4.85000e+00	2.903013e+04	
98	-4.90000e+00	2.923508e+04	
99	-4.95000e+00	2.943637e+04	
100	-5.00000e+00	2.963409e+04	
101	-5.05000e+00	2.982831e+04	
102	-5.10000e+00	3.001912e+04	
103	-5.15000e+00	3.020658e+04	
104	-5.20000e+00	3.039076e+04	
105	-5.25000e+00	3.057173e+04	
106	-5.30000e+00	3.074956e+04	
107	-5.35000e+00	3.092430e+04	
108	-5.40000e+00	3.109602e+04	
109	-5.45000e+00	3.126476e+04	
110	-5.50000e+00	3.143059e+04	
111	-5.55000e+00	3.159356e+04	
112	-5.60000e+00	3.175371e+04	

Index   v-sweep         rds             
--------------------------------------------------------------------------------
113	-5.65000e+00	3.191108e+04	
114	-5.70000e+00	3.206573e+04	
115	-5.75000e+00	3.221770e+04	
116	-5.80000e+00	3.236701e+04	
117	-5.85000e+00	3.251372e+04	
118	-5.90000e+00	3.265786e+04	
119	-5.95000e+00	3.279945e+04	
120	-6.00000e+00	3.293853e+04	
121	-6.05000e+00	3.307514e+04	
122	-6.10000e+00	3.320929e+04	
123	-6.15000e+00	3.334101e+04	
124	-6.20000e+00	3.347033e+04	
125	-6.25000e+00	3.359727e+04	
126	-6.30000e+00	3.372185e+04	
127	-6.35000e+00	3.384410e+04	
128	-6.40000e+00	3.396402e+04	
129	-6.45000e+00	3.408164e+04	
130	-6.50000e+00	3.419697e+04	
131	-6.55000e+00	3.431002e+04	
132	-6.60000e+00	3.442082e+04	
Reset re-loads circuit ***************************

Circuit: ***************************

Doing analysis at TEMP = -40.000000 and TNOM = -40.000000


No. of Data Rows : 133
                          ***************************
                          DC transfer characteristic  Mon Jan  9 13:57:54  2023
--------------------------------------------------------------------------------
Index   v-sweep         rds             
--------------------------------------------------------------------------------
0	0.000000e+00	4.949045e+02	
1	-5.00000e-02	5.079665e+02	
2	-1.00000e-01	5.215036e+02	
3	-1.50000e-01	5.355415e+02	
4	-2.00000e-01	5.501079e+02	
5	-2.50000e-01	5.652324e+02	
6	-3.00000e-01	5.809471e+02	
7	-3.50000e-01	5.972865e+02	
8	-4.00000e-01	6.142878e+02	
9	-4.50000e-01	6.319913e+02	
10	-5.00000e-01	6.504408e+02	
11	-5.50000e-01	6.696835e+02	
12	-6.00000e-01	6.897710e+02	
13	-6.50000e-01	7.107594e+02	
14	-7.00000e-01	7.327096e+02	
15	-7.50000e-01	7.556886e+02	
16	-8.00000e-01	7.797696e+02	
17	-8.50000e-01	8.050327e+02	
18	-9.00000e-01	8.315664e+02	
19	-9.50000e-01	8.594679e+02	
20	-1.00000e+00	8.888450e+02	
21	-1.05000e+00	9.198168e+02	
22	-1.10000e+00	9.525161e+02	
23	-1.15000e+00	9.870907e+02	
24	-1.20000e+00	1.023706e+03	
25	-1.25000e+00	1.062548e+03	
26	-1.30000e+00	1.103827e+03	
27	-1.35000e+00	1.147780e+03	
28	-1.40000e+00	1.194678e+03	
29	-1.45000e+00	1.244833e+03	
30	-1.50000e+00	1.298604e+03	
31	-1.55000e+00	1.356410e+03	
32	-1.60000e+00	1.418747e+03	
33	-1.65000e+00	1.486206e+03	
34	-1.70000e+00	1.559508e+03	
35	-1.75000e+00	1.639550e+03	
36	-1.80000e+00	1.727477e+03	
37	-1.85000e+00	1.824796e+03	
38	-1.90000e+00	1.933550e+03	
39	-1.95000e+00	2.056583e+03	
40	-2.00000e+00	2.197900e+03	
41	-2.05000e+00	2.363046e+03	
42	-2.10000e+00	2.559239e+03	
43	-2.15000e+00	2.794720e+03	
44	-2.20000e+00	3.076825e+03	
45	-2.25000e+00	3.409239e+03	
46	-2.30000e+00	3.790094e+03	
47	-2.35000e+00	4.212431e+03	
48	-2.40000e+00	4.666527e+03	
49	-2.45000e+00	5.142411e+03	
50	-2.50000e+00	5.631413e+03	
51	-2.55000e+00	6.126693e+03	
52	-2.60000e+00	6.623166e+03	
53	-2.65000e+00	7.117179e+03	
54	-2.70000e+00	7.606174e+03	

Index   v-sweep         rds             
--------------------------------------------------------------------------------
55	-2.75000e+00	8.088390e+03	
56	-2.80000e+00	8.562646e+03	
57	-2.85000e+00	9.028168e+03	
58	-2.90000e+00	9.484476e+03	
59	-2.95000e+00	9.931300e+03	
60	-3.00000e+00	1.036852e+04	
61	-3.05000e+00	1.079612e+04	
62	-3.10000e+00	1.121415e+04	
63	-3.15000e+00	1.162275e+04	
64	-3.20000e+00	1.202205e+04	
65	-3.25000e+00	1.241224e+04	
66	-3.30000e+00	1.279353e+04	
67	-3.35000e+00	1.316611e+04	
68	-3.40000e+00	1.353020e+04	
69	-3.45000e+00	1.388604e+04	
70	-3.50000e+00	1.423383e+04	
71	-3.55000e+00	1.457380e+04	
72	-3.60000e+00	1.490616e+04	
73	-3.65000e+00	1.523113e+04	
74	-3.70000e+00	1.554892e+04	
75	-3.75000e+00	1.585974e+04	
76	-3.80000e+00	1.616378e+04	
77	-3.85000e+00	1.646123e+04	
78	-3.90000e+00	1.675230e+04	
79	-3.95000e+00	1.703715e+04	
80	-4.00000e+00	1.731596e+04	
81	-4.05000e+00	1.758892e+04	
82	-4.10000e+00	1.785617e+04	
83	-4.15000e+00	1.811790e+04	
84	-4.20000e+00	1.837424e+04	
85	-4.25000e+00	1.862535e+04	
86	-4.30000e+00	1.887138e+04	
87	-4.35000e+00	1.911246e+04	
88	-4.40000e+00	1.934874e+04	
89	-4.45000e+00	1.958034e+04	
90	-4.50000e+00	1.980738e+04	
91	-4.55000e+00	2.003000e+04	
92	-4.60000e+00	2.024831e+04	
93	-4.65000e+00	2.046242e+04	
94	-4.70000e+00	2.067245e+04	
95	-4.75000e+00	2.087850e+04	
96	-4.80000e+00	2.108067e+04	
97	-4.85000e+00	2.127906e+04	
98	-4.90000e+00	2.147378e+04	
99	-4.95000e+00	2.166490e+04	
100	-5.00000e+00	2.185252e+04	
101	-5.05000e+00	2.203674e+04	
102	-5.10000e+00	2.221762e+04	
103	-5.15000e+00	2.239525e+04	
104	-5.20000e+00	2.256971e+04	
105	-5.25000e+00	2.274107e+04	
106	-5.30000e+00	2.290940e+04	
107	-5.35000e+00	2.307478e+04	
108	-5.40000e+00	2.323726e+04	
109	-5.45000e+00	2.339692e+04	
110	-5.50000e+00	2.355381e+04	
111	-5.55000e+00	2.370799e+04	
112	-5.60000e+00	2.385952e+04	

Index   v-sweep         rds             
--------------------------------------------------------------------------------
113	-5.65000e+00	2.400846e+04	
114	-5.70000e+00	2.415484e+04	
115	-5.75000e+00	2.429873e+04	
116	-5.80000e+00	2.444017e+04	
117	-5.85000e+00	2.457920e+04	
118	-5.90000e+00	2.471588e+04	
119	-5.95000e+00	2.485022e+04	
120	-6.00000e+00	2.498229e+04	
121	-6.05000e+00	2.511211e+04	
122	-6.10000e+00	2.523971e+04	
123	-6.15000e+00	2.536514e+04	
124	-6.20000e+00	2.548841e+04	
125	-6.25000e+00	2.560957e+04	
126	-6.30000e+00	2.572863e+04	
127	-6.35000e+00	2.584563e+04	
128	-6.40000e+00	2.596059e+04	
129	-6.45000e+00	2.607352e+04	
130	-6.50000e+00	2.618446e+04	
131	-6.55000e+00	2.629341e+04	
132	-6.60000e+00	2.640041e+04	
Reset re-loads circuit ***************************

Circuit: ***************************

Doing analysis at TEMP = -40.000000 and TNOM = -40.000000


No. of Data Rows : 133
                          ***************************
                          DC transfer characteristic  Mon Jan  9 13:57:54  2023
--------------------------------------------------------------------------------
Index   v-sweep         rds             
--------------------------------------------------------------------------------
0	0.000000e+00	4.450804e+02	
1	-5.00000e-02	4.549840e+02	
2	-1.00000e-01	4.651806e+02	
3	-1.50000e-01	4.756832e+02	
4	-2.00000e-01	4.865052e+02	
5	-2.50000e-01	4.976611e+02	
6	-3.00000e-01	5.091661e+02	
7	-3.50000e-01	5.210364e+02	
8	-4.00000e-01	5.332893e+02	
9	-4.50000e-01	5.459432e+02	
10	-5.00000e-01	5.590176e+02	
11	-5.50000e-01	5.725334e+02	
12	-6.00000e-01	5.865128e+02	
13	-6.50000e-01	6.009797e+02	
14	-7.00000e-01	6.159596e+02	
15	-7.50000e-01	6.314797e+02	
16	-8.00000e-01	6.475693e+02	
17	-8.50000e-01	6.642599e+02	
18	-9.00000e-01	6.815852e+02	
19	-9.50000e-01	6.995816e+02	
20	-1.00000e+00	7.182884e+02	
21	-1.05000e+00	7.377480e+02	
22	-1.10000e+00	7.580061e+02	
23	-1.15000e+00	7.791123e+02	
24	-1.20000e+00	8.011206e+02	
25	-1.25000e+00	8.240895e+02	
26	-1.30000e+00	8.480826e+02	
27	-1.35000e+00	8.731697e+02	
28	-1.40000e+00	8.994269e+02	
29	-1.45000e+00	9.269376e+02	
30	-1.50000e+00	9.557938e+02	
31	-1.55000e+00	9.860967e+02	
32	-1.60000e+00	1.017958e+03	
33	-1.65000e+00	1.051504e+03	
34	-1.70000e+00	1.086871e+03	
35	-1.75000e+00	1.124217e+03	
36	-1.80000e+00	1.163717e+03	
37	-1.85000e+00	1.205572e+03	
38	-1.90000e+00	1.250011e+03	
39	-1.95000e+00	1.297299e+03	
40	-2.00000e+00	1.347751e+03	
41	-2.05000e+00	1.401741e+03	
42	-2.10000e+00	1.459725e+03	
43	-2.15000e+00	1.522276e+03	
44	-2.20000e+00	1.590128e+03	
45	-2.25000e+00	1.664257e+03	
46	-2.30000e+00	1.745989e+03	
47	-2.35000e+00	1.837171e+03	
48	-2.40000e+00	1.940399e+03	
49	-2.45000e+00	2.059272e+03	
50	-2.50000e+00	2.198562e+03	
51	-2.55000e+00	2.364052e+03	
52	-2.60000e+00	2.561718e+03	
53	-2.65000e+00	2.796210e+03	
54	-2.70000e+00	3.069205e+03	

Index   v-sweep         rds             
--------------------------------------------------------------------------------
55	-2.75000e+00	3.378626e+03	
56	-2.80000e+00	3.719249e+03	
57	-2.85000e+00	4.084193e+03	
58	-2.90000e+00	4.466411e+03	
59	-2.95000e+00	4.859636e+03	
60	-3.00000e+00	5.258757e+03	
61	-3.05000e+00	5.659827e+03	
62	-3.10000e+00	6.059902e+03	
63	-3.15000e+00	6.456837e+03	
64	-3.20000e+00	6.849098e+03	
65	-3.25000e+00	7.235610e+03	
66	-3.30000e+00	7.615634e+03	
67	-3.35000e+00	7.988680e+03	
68	-3.40000e+00	8.354440e+03	
69	-3.45000e+00	8.712740e+03	
70	-3.50000e+00	9.063505e+03	
71	-3.55000e+00	9.406731e+03	
72	-3.60000e+00	9.742467e+03	
73	-3.65000e+00	1.007080e+04	
74	-3.70000e+00	1.039185e+04	
75	-3.75000e+00	1.070575e+04	
76	-3.80000e+00	1.101264e+04	
77	-3.85000e+00	1.131269e+04	
78	-3.90000e+00	1.160607e+04	
79	-3.95000e+00	1.189293e+04	
80	-4.00000e+00	1.217344e+04	
81	-4.05000e+00	1.244778e+04	
82	-4.10000e+00	1.271611e+04	
83	-4.15000e+00	1.297859e+04	
84	-4.20000e+00	1.323539e+04	
85	-4.25000e+00	1.348666e+04	
86	-4.30000e+00	1.373256e+04	
87	-4.35000e+00	1.397324e+04	
88	-4.40000e+00	1.420884e+04	
89	-4.45000e+00	1.443951e+04	
90	-4.50000e+00	1.466538e+04	
91	-4.55000e+00	1.488659e+04	
92	-4.60000e+00	1.510327e+04	
93	-4.65000e+00	1.531554e+04	
94	-4.70000e+00	1.552353e+04	
95	-4.75000e+00	1.572735e+04	
96	-4.80000e+00	1.592711e+04	
97	-4.85000e+00	1.612293e+04	
98	-4.90000e+00	1.631492e+04	
99	-4.95000e+00	1.650317e+04	
100	-5.00000e+00	1.668778e+04	
101	-5.05000e+00	1.686886e+04	
102	-5.10000e+00	1.704648e+04	
103	-5.15000e+00	1.722076e+04	
104	-5.20000e+00	1.739176e+04	
105	-5.25000e+00	1.755958e+04	
106	-5.30000e+00	1.772430e+04	
107	-5.35000e+00	1.788599e+04	
108	-5.40000e+00	1.804473e+04	
109	-5.45000e+00	1.820059e+04	
110	-5.50000e+00	1.835365e+04	
111	-5.55000e+00	1.850396e+04	
112	-5.60000e+00	1.865161e+04	

Index   v-sweep         rds             
--------------------------------------------------------------------------------
113	-5.65000e+00	1.879664e+04	
114	-5.70000e+00	1.893912e+04	
115	-5.75000e+00	1.907910e+04	
116	-5.80000e+00	1.921665e+04	
117	-5.85000e+00	1.935182e+04	
118	-5.90000e+00	1.948466e+04	
119	-5.95000e+00	1.961522e+04	
120	-6.00000e+00	1.974354e+04	
121	-6.05000e+00	1.986967e+04	
122	-6.10000e+00	1.999366e+04	
123	-6.15000e+00	2.011554e+04	
124	-6.20000e+00	2.023536e+04	
125	-6.25000e+00	2.035316e+04	
126	-6.30000e+00	2.046896e+04	
127	-6.35000e+00	2.058281e+04	
128	-6.40000e+00	2.069473e+04	
129	-6.45000e+00	2.080476e+04	
130	-6.50000e+00	2.091292e+04	
131	-6.55000e+00	2.101924e+04	
132	-6.60000e+00	2.112375e+04	
Reset re-loads circuit ***************************

Circuit: ***************************

Note: No ".plot", ".print", or ".fourier" lines; no simulations run
