
Note: Compatibility modes selected: hs

Warning: m=xx on .subckt line will override multiplier m hierarchy!


Circuit: ***************************

Doing analysis at TEMP = 125.000000 and TNOM = 125.000000


No. of Data Rows : 133
                          ***************************
                          DC transfer characteristic  Mon Jan  9 13:57:55  2023
--------------------------------------------------------------------------------
Index   v-sweep         rds             
--------------------------------------------------------------------------------
0	0.000000e+00	2.470934e+05	
1	-5.00000e-02	3.300034e+05	
2	-1.00000e-01	4.916738e+05	
3	-1.50000e-01	8.987226e+05	
4	-2.00000e-01	2.298068e+06	
5	-2.50000e-01	7.368304e+06	
6	-3.00000e-01	2.074386e+07	
7	-3.50000e-01	4.481945e+07	
8	-4.00000e-01	7.673002e+07	
9	-4.50000e-01	1.107067e+08	
10	-5.00000e-01	1.421315e+08	
11	-5.50000e-01	1.689992e+08	
12	-6.00000e-01	1.911706e+08	
13	-6.50000e-01	2.093032e+08	
14	-7.00000e-01	2.242166e+08	
15	-7.50000e-01	2.366392e+08	
16	-8.00000e-01	2.471476e+08	
17	-8.50000e-01	2.561769e+08	
18	-9.00000e-01	2.640502e+08	
19	-9.50000e-01	2.710071e+08	
20	-1.00000e+00	2.772263e+08	
21	-1.05000e+00	2.828423e+08	
22	-1.10000e+00	2.879580e+08	
23	-1.15000e+00	2.926527e+08	
24	-1.20000e+00	2.969888e+08	
25	-1.25000e+00	3.010158e+08	
26	-1.30000e+00	3.047735e+08	
27	-1.35000e+00	3.082945e+08	
28	-1.40000e+00	3.116056e+08	
29	-1.45000e+00	3.147291e+08	
30	-1.50000e+00	3.176838e+08	
31	-1.55000e+00	3.204859e+08	
32	-1.60000e+00	3.231489e+08	
33	-1.65000e+00	3.256849e+08	
34	-1.70000e+00	3.281041e+08	
35	-1.75000e+00	3.304158e+08	
36	-1.80000e+00	3.326279e+08	
37	-1.85000e+00	3.347476e+08	
38	-1.90000e+00	3.367812e+08	
39	-1.95000e+00	3.387345e+08	
40	-2.00000e+00	3.406127e+08	
41	-2.05000e+00	3.424204e+08	
42	-2.10000e+00	3.441619e+08	
43	-2.15000e+00	3.458411e+08	
44	-2.20000e+00	3.474614e+08	
45	-2.25000e+00	3.490263e+08	
46	-2.30000e+00	3.505386e+08	
47	-2.35000e+00	3.520011e+08	
48	-2.40000e+00	3.534163e+08	
49	-2.45000e+00	3.547868e+08	
50	-2.50000e+00	3.561145e+08	
51	-2.55000e+00	3.574017e+08	
52	-2.60000e+00	3.586502e+08	
53	-2.65000e+00	3.598618e+08	
54	-2.70000e+00	3.610382e+08	

Index   v-sweep         rds             
--------------------------------------------------------------------------------
55	-2.75000e+00	3.621809e+08	
56	-2.80000e+00	3.632914e+08	
57	-2.85000e+00	3.643710e+08	
58	-2.90000e+00	3.654212e+08	
59	-2.95000e+00	3.664430e+08	
60	-3.00000e+00	3.674377e+08	
61	-3.05000e+00	3.684063e+08	
62	-3.10000e+00	3.693499e+08	
63	-3.15000e+00	3.702694e+08	
64	-3.20000e+00	3.711657e+08	
65	-3.25000e+00	3.720398e+08	
66	-3.30000e+00	3.728924e+08	
67	-3.35000e+00	3.737243e+08	
68	-3.40000e+00	3.745363e+08	
69	-3.45000e+00	3.753291e+08	
70	-3.50000e+00	3.761033e+08	
71	-3.55000e+00	3.768596e+08	
72	-3.60000e+00	3.775986e+08	
73	-3.65000e+00	3.783208e+08	
74	-3.70000e+00	3.790269e+08	
75	-3.75000e+00	3.797172e+08	
76	-3.80000e+00	3.803924e+08	
77	-3.85000e+00	3.810530e+08	
78	-3.90000e+00	3.816993e+08	
79	-3.95000e+00	3.823318e+08	
80	-4.00000e+00	3.829509e+08	
81	-4.05000e+00	3.835570e+08	
82	-4.10000e+00	3.841505e+08	
83	-4.15000e+00	3.847317e+08	
84	-4.20000e+00	3.853011e+08	
85	-4.25000e+00	3.858589e+08	
86	-4.30000e+00	3.864054e+08	
87	-4.35000e+00	3.869409e+08	
88	-4.40000e+00	3.874658e+08	
89	-4.45000e+00	3.879804e+08	
90	-4.50000e+00	3.884848e+08	
91	-4.55000e+00	3.889793e+08	
92	-4.60000e+00	3.894642e+08	
93	-4.65000e+00	3.899397e+08	
94	-4.70000e+00	3.904061e+08	
95	-4.75000e+00	3.908635e+08	
96	-4.80000e+00	3.913122e+08	
97	-4.85000e+00	3.917524e+08	
98	-4.90000e+00	3.921842e+08	
99	-4.95000e+00	3.926079e+08	
100	-5.00000e+00	3.930235e+08	
101	-5.05000e+00	3.934314e+08	
102	-5.10000e+00	3.938316e+08	
103	-5.15000e+00	3.942243e+08	
104	-5.20000e+00	3.946097e+08	
105	-5.25000e+00	3.949879e+08	
106	-5.30000e+00	3.953590e+08	
107	-5.35000e+00	3.957232e+08	
108	-5.40000e+00	3.960806e+08	
109	-5.45000e+00	3.964314e+08	
110	-5.50000e+00	3.967756e+08	
111	-5.55000e+00	3.971134e+08	
112	-5.60000e+00	3.974449e+08	

Index   v-sweep         rds             
--------------------------------------------------------------------------------
113	-5.65000e+00	3.977702e+08	
114	-5.70000e+00	3.980894e+08	
115	-5.75000e+00	3.984026e+08	
116	-5.80000e+00	3.987099e+08	
117	-5.85000e+00	3.990115e+08	
118	-5.90000e+00	3.993073e+08	
119	-5.95000e+00	3.995975e+08	
120	-6.00000e+00	3.998822e+08	
121	-6.05000e+00	4.001615e+08	
122	-6.10000e+00	4.004354e+08	
123	-6.15000e+00	4.007041e+08	
124	-6.20000e+00	4.009675e+08	
125	-6.25000e+00	4.012258e+08	
126	-6.30000e+00	4.014791e+08	
127	-6.35000e+00	4.017275e+08	
128	-6.40000e+00	4.019709e+08	
129	-6.45000e+00	4.022095e+08	
130	-6.50000e+00	4.024433e+08	
131	-6.55000e+00	4.026724e+08	
132	-6.60000e+00	4.028969e+08	
Reset re-loads circuit ***************************

Circuit: ***************************

Doing analysis at TEMP = 125.000000 and TNOM = 125.000000


No. of Data Rows : 133
                          ***************************
                          DC transfer characteristic  Mon Jan  9 13:57:55  2023
--------------------------------------------------------------------------------
Index   v-sweep         rds             
--------------------------------------------------------------------------------
0	0.000000e+00	4.894763e+04	
1	-5.00000e-02	5.182475e+04	
2	-1.00000e-01	5.505970e+04	
3	-1.50000e-01	5.872355e+04	
4	-2.00000e-01	6.290741e+04	
5	-2.50000e-01	6.773006e+04	
6	-3.00000e-01	7.334923e+04	
7	-3.50000e-01	7.997881e+04	
8	-4.00000e-01	8.791602e+04	
9	-4.50000e-01	9.758557e+04	
10	-5.00000e-01	1.096146e+05	
11	-5.50000e-01	1.249656e+05	
12	-6.00000e-01	1.451833e+05	
13	-6.50000e-01	1.728795e+05	
14	-7.00000e-01	2.127373e+05	
15	-7.50000e-01	2.736759e+05	
16	-8.00000e-01	3.735446e+05	
17	-8.50000e-01	5.483863e+05	
18	-9.00000e-01	8.652613e+05	
19	-9.50000e-01	1.422289e+06	
20	-1.00000e+00	2.303588e+06	
21	-1.05000e+00	3.499499e+06	
22	-1.10000e+00	4.881458e+06	
23	-1.15000e+00	6.275119e+06	
24	-1.20000e+00	7.550060e+06	
25	-1.25000e+00	8.649256e+06	
26	-1.30000e+00	9.569619e+06	
27	-1.35000e+00	1.033346e+07	
28	-1.40000e+00	1.096963e+07	
29	-1.45000e+00	1.150486e+07	
30	-1.50000e+00	1.196111e+07	
31	-1.55000e+00	1.235545e+07	
32	-1.60000e+00	1.270085e+07	
33	-1.65000e+00	1.300713e+07	
34	-1.70000e+00	1.328171e+07	
35	-1.75000e+00	1.353025e+07	
36	-1.80000e+00	1.375710e+07	
37	-1.85000e+00	1.396566e+07	
38	-1.90000e+00	1.415860e+07	
39	-1.95000e+00	1.433806e+07	
40	-2.00000e+00	1.450575e+07	
41	-2.05000e+00	1.466309e+07	
42	-2.10000e+00	1.481123e+07	
43	-2.15000e+00	1.495114e+07	
44	-2.20000e+00	1.508366e+07	
45	-2.25000e+00	1.520946e+07	
46	-2.30000e+00	1.532915e+07	
47	-2.35000e+00	1.544324e+07	
48	-2.40000e+00	1.555220e+07	
49	-2.45000e+00	1.565641e+07	
50	-2.50000e+00	1.575622e+07	
51	-2.55000e+00	1.585195e+07	
52	-2.60000e+00	1.594387e+07	
53	-2.65000e+00	1.603224e+07	
54	-2.70000e+00	1.611728e+07	

Index   v-sweep         rds             
--------------------------------------------------------------------------------
55	-2.75000e+00	1.619919e+07	
56	-2.80000e+00	1.627816e+07	
57	-2.85000e+00	1.635436e+07	
58	-2.90000e+00	1.642795e+07	
59	-2.95000e+00	1.649906e+07	
60	-3.00000e+00	1.656783e+07	
61	-3.05000e+00	1.663439e+07	
62	-3.10000e+00	1.669883e+07	
63	-3.15000e+00	1.676127e+07	
64	-3.20000e+00	1.682181e+07	
65	-3.25000e+00	1.688052e+07	
66	-3.30000e+00	1.693751e+07	
67	-3.35000e+00	1.699284e+07	
68	-3.40000e+00	1.704659e+07	
69	-3.45000e+00	1.709883e+07	
70	-3.50000e+00	1.714963e+07	
71	-3.55000e+00	1.719904e+07	
72	-3.60000e+00	1.724712e+07	
73	-3.65000e+00	1.729393e+07	
74	-3.70000e+00	1.733951e+07	
75	-3.75000e+00	1.738392e+07	
76	-3.80000e+00	1.742721e+07	
77	-3.85000e+00	1.746940e+07	
78	-3.90000e+00	1.751055e+07	
79	-3.95000e+00	1.755070e+07	
80	-4.00000e+00	1.758988e+07	
81	-4.05000e+00	1.762812e+07	
82	-4.10000e+00	1.766546e+07	
83	-4.15000e+00	1.770193e+07	
84	-4.20000e+00	1.773756e+07	
85	-4.25000e+00	1.777237e+07	
86	-4.30000e+00	1.780641e+07	
87	-4.35000e+00	1.783968e+07	
88	-4.40000e+00	1.787222e+07	
89	-4.45000e+00	1.790405e+07	
90	-4.50000e+00	1.793519e+07	
91	-4.55000e+00	1.796566e+07	
92	-4.60000e+00	1.799549e+07	
93	-4.65000e+00	1.802468e+07	
94	-4.70000e+00	1.805327e+07	
95	-4.75000e+00	1.808127e+07	
96	-4.80000e+00	1.810870e+07	
97	-4.85000e+00	1.813556e+07	
98	-4.90000e+00	1.816189e+07	
99	-4.95000e+00	1.818768e+07	
100	-5.00000e+00	1.821296e+07	
101	-5.05000e+00	1.823775e+07	
102	-5.10000e+00	1.826204e+07	
103	-5.15000e+00	1.828586e+07	
104	-5.20000e+00	1.830922e+07	
105	-5.25000e+00	1.833213e+07	
106	-5.30000e+00	1.835460e+07	
107	-5.35000e+00	1.837664e+07	
108	-5.40000e+00	1.839826e+07	
109	-5.45000e+00	1.841947e+07	
110	-5.50000e+00	1.844029e+07	
111	-5.55000e+00	1.846071e+07	
112	-5.60000e+00	1.848074e+07	

Index   v-sweep         rds             
--------------------------------------------------------------------------------
113	-5.65000e+00	1.850041e+07	
114	-5.70000e+00	1.851971e+07	
115	-5.75000e+00	1.853865e+07	
116	-5.80000e+00	1.855723e+07	
117	-5.85000e+00	1.857548e+07	
118	-5.90000e+00	1.859338e+07	
119	-5.95000e+00	1.861096e+07	
120	-6.00000e+00	1.862821e+07	
121	-6.05000e+00	1.864515e+07	
122	-6.10000e+00	1.866177e+07	
123	-6.15000e+00	1.867808e+07	
124	-6.20000e+00	1.869410e+07	
125	-6.25000e+00	1.870981e+07	
126	-6.30000e+00	1.872524e+07	
127	-6.35000e+00	1.874038e+07	
128	-6.40000e+00	1.875524e+07	
129	-6.45000e+00	1.876983e+07	
130	-6.50000e+00	1.878414e+07	
131	-6.55000e+00	1.879819e+07	
132	-6.60000e+00	1.881197e+07	
Reset re-loads circuit ***************************

Circuit: ***************************

Doing analysis at TEMP = 125.000000 and TNOM = 125.000000


No. of Data Rows : 133
                          ***************************
                          DC transfer characteristic  Mon Jan  9 13:57:55  2023
--------------------------------------------------------------------------------
Index   v-sweep         rds             
--------------------------------------------------------------------------------
0	0.000000e+00	2.925680e+04	
1	-5.00000e-02	3.018989e+04	
2	-1.00000e-01	3.118410e+04	
3	-1.50000e-01	3.224567e+04	
4	-2.00000e-01	3.338166e+04	
5	-2.50000e-01	3.460017e+04	
6	-3.00000e-01	3.591054e+04	
7	-3.50000e-01	3.732355e+04	
8	-4.00000e-01	3.885172e+04	
9	-4.50000e-01	4.050972e+04	
10	-5.00000e-01	4.231481e+04	
11	-5.50000e-01	4.428742e+04	
12	-6.00000e-01	4.645195e+04	
13	-6.50000e-01	4.883779e+04	
14	-7.00000e-01	5.148058e+04	
15	-7.50000e-01	5.442404e+04	
16	-8.00000e-01	5.772233e+04	
17	-8.50000e-01	6.144337e+04	
18	-9.00000e-01	6.567340e+04	
19	-9.50000e-01	7.052359e+04	
20	-1.00000e+00	7.613953e+04	
21	-1.05000e+00	8.271538e+04	
22	-1.10000e+00	9.051541e+04	
23	-1.15000e+00	9.990756e+04	
24	-1.20000e+00	1.114173e+05	
25	-1.25000e+00	1.258162e+05	
26	-1.30000e+00	1.442726e+05	
27	-1.35000e+00	1.686106e+05	
28	-1.40000e+00	2.017632e+05	
29	-1.45000e+00	2.485464e+05	
30	-1.50000e+00	3.168752e+05	
31	-1.55000e+00	4.192611e+05	
32	-1.60000e+00	5.733760e+05	
33	-1.65000e+00	7.986467e+05	
34	-1.70000e+00	1.106144e+06	
35	-1.75000e+00	1.486250e+06	
36	-1.80000e+00	1.906830e+06	
37	-1.85000e+00	2.327087e+06	
38	-1.90000e+00	2.714876e+06	
39	-1.95000e+00	3.054150e+06	
40	-2.00000e+00	3.342307e+06	
41	-2.05000e+00	3.584174e+06	
42	-2.10000e+00	3.787211e+06	
43	-2.15000e+00	3.958891e+06	
44	-2.20000e+00	4.105658e+06	
45	-2.25000e+00	4.232692e+06	
46	-2.30000e+00	4.344029e+06	
47	-2.35000e+00	4.442765e+06	
48	-2.40000e+00	4.531273e+06	
49	-2.45000e+00	4.611375e+06	
50	-2.50000e+00	4.684480e+06	
51	-2.55000e+00	4.751688e+06	
52	-2.60000e+00	4.813867e+06	
53	-2.65000e+00	4.871710e+06	
54	-2.70000e+00	4.925775e+06	

Index   v-sweep         rds             
--------------------------------------------------------------------------------
55	-2.75000e+00	4.976517e+06	
56	-2.80000e+00	5.024313e+06	
57	-2.85000e+00	5.069476e+06	
58	-2.90000e+00	5.112270e+06	
59	-2.95000e+00	5.152917e+06	
60	-3.00000e+00	5.191611e+06	
61	-3.05000e+00	5.228517e+06	
62	-3.10000e+00	5.263779e+06	
63	-3.15000e+00	5.297524e+06	
64	-3.20000e+00	5.329864e+06	
65	-3.25000e+00	5.360897e+06	
66	-3.30000e+00	5.390713e+06	
67	-3.35000e+00	5.419391e+06	
68	-3.40000e+00	5.447003e+06	
69	-3.45000e+00	5.473614e+06	
70	-3.50000e+00	5.499282e+06	
71	-3.55000e+00	5.524062e+06	
72	-3.60000e+00	5.548003e+06	
73	-3.65000e+00	5.571150e+06	
74	-3.70000e+00	5.593545e+06	
75	-3.75000e+00	5.615227e+06	
76	-3.80000e+00	5.636231e+06	
77	-3.85000e+00	5.656590e+06	
78	-3.90000e+00	5.676336e+06	
79	-3.95000e+00	5.695496e+06	
80	-4.00000e+00	5.714099e+06	
81	-4.05000e+00	5.732168e+06	
82	-4.10000e+00	5.749727e+06	
83	-4.15000e+00	5.766799e+06	
84	-4.20000e+00	5.783404e+06	
85	-4.25000e+00	5.799562e+06	
86	-4.30000e+00	5.815290e+06	
87	-4.35000e+00	5.830606e+06	
88	-4.40000e+00	5.845527e+06	
89	-4.45000e+00	5.860068e+06	
90	-4.50000e+00	5.874243e+06	
91	-4.55000e+00	5.888067e+06	
92	-4.60000e+00	5.901552e+06	
93	-4.65000e+00	5.914711e+06	
94	-4.70000e+00	5.927555e+06	
95	-4.75000e+00	5.940096e+06	
96	-4.80000e+00	5.952344e+06	
97	-4.85000e+00	5.964310e+06	
98	-4.90000e+00	5.976002e+06	
99	-4.95000e+00	5.987431e+06	
100	-5.00000e+00	5.998605e+06	
101	-5.05000e+00	6.009532e+06	
102	-5.10000e+00	6.020220e+06	
103	-5.15000e+00	6.030677e+06	
104	-5.20000e+00	6.040909e+06	
105	-5.25000e+00	6.050925e+06	
106	-5.30000e+00	6.060729e+06	
107	-5.35000e+00	6.070329e+06	
108	-5.40000e+00	6.079731e+06	
109	-5.45000e+00	6.088940e+06	
110	-5.50000e+00	6.097961e+06	
111	-5.55000e+00	6.106801e+06	
112	-5.60000e+00	6.115464e+06	

Index   v-sweep         rds             
--------------------------------------------------------------------------------
113	-5.65000e+00	6.123954e+06	
114	-5.70000e+00	6.132277e+06	
115	-5.75000e+00	6.140436e+06	
116	-5.80000e+00	6.148437e+06	
117	-5.85000e+00	6.156283e+06	
118	-5.90000e+00	6.163977e+06	
119	-5.95000e+00	6.171524e+06	
120	-6.00000e+00	6.178928e+06	
121	-6.05000e+00	6.186191e+06	
122	-6.10000e+00	6.193316e+06	
123	-6.15000e+00	6.200308e+06	
124	-6.20000e+00	6.207169e+06	
125	-6.25000e+00	6.213902e+06	
126	-6.30000e+00	6.220509e+06	
127	-6.35000e+00	6.226994e+06	
128	-6.40000e+00	6.233359e+06	
129	-6.45000e+00	6.239606e+06	
130	-6.50000e+00	6.245739e+06	
131	-6.55000e+00	6.251758e+06	
132	-6.60000e+00	6.257667e+06	
Reset re-loads circuit ***************************

Circuit: ***************************

Doing analysis at TEMP = 125.000000 and TNOM = 125.000000


No. of Data Rows : 133
                          ***************************
                          DC transfer characteristic  Mon Jan  9 13:57:55  2023
--------------------------------------------------------------------------------
Index   v-sweep         rds             
--------------------------------------------------------------------------------
0	0.000000e+00	2.169375e+04	
1	-5.00000e-02	2.216513e+04	
2	-1.00000e-01	2.265730e+04	
3	-1.50000e-01	2.317165e+04	
4	-2.00000e-01	2.370974e+04	
5	-2.50000e-01	2.427322e+04	
6	-3.00000e-01	2.486396e+04	
7	-3.50000e-01	2.548397e+04	
8	-4.00000e-01	2.613548e+04	
9	-4.50000e-01	2.682095e+04	
10	-5.00000e-01	2.754311e+04	
11	-5.50000e-01	2.830499e+04	
12	-6.00000e-01	2.910995e+04	
13	-6.50000e-01	2.996174e+04	
14	-7.00000e-01	3.086458e+04	
15	-7.50000e-01	3.182319e+04	
16	-8.00000e-01	3.284289e+04	
17	-8.50000e-01	3.392971e+04	
18	-9.00000e-01	3.509050e+04	
19	-9.50000e-01	3.633306e+04	
20	-1.00000e+00	3.766632e+04	
21	-1.05000e+00	3.910059e+04	
22	-1.10000e+00	4.064775e+04	
23	-1.15000e+00	4.232166e+04	
24	-1.20000e+00	4.413850e+04	
25	-1.25000e+00	4.611732e+04	
26	-1.30000e+00	4.828072e+04	
27	-1.35000e+00	5.065565e+04	
28	-1.40000e+00	5.327455e+04	
29	-1.45000e+00	5.617679e+04	
30	-1.50000e+00	5.941061e+04	
31	-1.55000e+00	6.303570e+04	
32	-1.60000e+00	6.712677e+04	
33	-1.65000e+00	7.177850e+04	
34	-1.70000e+00	7.711245e+04	
35	-1.75000e+00	8.328707e+04	
36	-1.80000e+00	9.051214e+04	
37	-1.85000e+00	9.907038e+04	
38	-1.90000e+00	1.093498e+05	
39	-1.95000e+00	1.218934e+05	
40	-2.00000e+00	1.374760e+05	
41	-2.05000e+00	1.572229e+05	
42	-2.10000e+00	1.827905e+05	
43	-2.15000e+00	2.166254e+05	
44	-2.20000e+00	2.622888e+05	
45	-2.25000e+00	3.247207e+05	
46	-2.30000e+00	4.100714e+05	
47	-2.35000e+00	5.244273e+05	
48	-2.40000e+00	6.709538e+05	
49	-2.45000e+00	8.464435e+05	
50	-2.50000e+00	1.040162e+06	
51	-2.55000e+00	1.237051e+06	
52	-2.60000e+00	1.423306e+06	
53	-2.65000e+00	1.590241e+06	
54	-2.70000e+00	1.734731e+06	

Index   v-sweep         rds             
--------------------------------------------------------------------------------
55	-2.75000e+00	1.857536e+06	
56	-2.80000e+00	1.961326e+06	
57	-2.85000e+00	2.049297e+06	
58	-2.90000e+00	2.124461e+06	
59	-2.95000e+00	2.189373e+06	
60	-3.00000e+00	2.246087e+06	
61	-3.05000e+00	2.296214e+06	
62	-3.10000e+00	2.341002e+06	
63	-3.15000e+00	2.381418e+06	
64	-3.20000e+00	2.418209e+06	
65	-3.25000e+00	2.451961e+06	
66	-3.30000e+00	2.483135e+06	
67	-3.35000e+00	2.512095e+06	
68	-3.40000e+00	2.539136e+06	
69	-3.45000e+00	2.564495e+06	
70	-3.50000e+00	2.588370e+06	
71	-3.55000e+00	2.610921e+06	
72	-3.60000e+00	2.632284e+06	
73	-3.65000e+00	2.652575e+06	
74	-3.70000e+00	2.671890e+06	
75	-3.75000e+00	2.690315e+06	
76	-3.80000e+00	2.707922e+06	
77	-3.85000e+00	2.724774e+06	
78	-3.90000e+00	2.740929e+06	
79	-3.95000e+00	2.756435e+06	
80	-4.00000e+00	2.771337e+06	
81	-4.05000e+00	2.785674e+06	
82	-4.10000e+00	2.799482e+06	
83	-4.15000e+00	2.812794e+06	
84	-4.20000e+00	2.825638e+06	
85	-4.25000e+00	2.838042e+06	
86	-4.30000e+00	2.850029e+06	
87	-4.35000e+00	2.861622e+06	
88	-4.40000e+00	2.872842e+06	
89	-4.45000e+00	2.883707e+06	
90	-4.50000e+00	2.894237e+06	
91	-4.55000e+00	2.904445e+06	
92	-4.60000e+00	2.914349e+06	
93	-4.65000e+00	2.923962e+06	
94	-4.70000e+00	2.933297e+06	
95	-4.75000e+00	2.942367e+06	
96	-4.80000e+00	2.951183e+06	
97	-4.85000e+00	2.959757e+06	
98	-4.90000e+00	2.968098e+06	
99	-4.95000e+00	2.976216e+06	
100	-5.00000e+00	2.984120e+06	
101	-5.05000e+00	2.991819e+06	
102	-5.10000e+00	2.999320e+06	
103	-5.15000e+00	3.006632e+06	
104	-5.20000e+00	3.013761e+06	
105	-5.25000e+00	3.020715e+06	
106	-5.30000e+00	3.027500e+06	
107	-5.35000e+00	3.034122e+06	
108	-5.40000e+00	3.040587e+06	
109	-5.45000e+00	3.046900e+06	
110	-5.50000e+00	3.053067e+06	
111	-5.55000e+00	3.059093e+06	
112	-5.60000e+00	3.064982e+06	

Index   v-sweep         rds             
--------------------------------------------------------------------------------
113	-5.65000e+00	3.070739e+06	
114	-5.70000e+00	3.076368e+06	
115	-5.75000e+00	3.081874e+06	
116	-5.80000e+00	3.087261e+06	
117	-5.85000e+00	3.092531e+06	
118	-5.90000e+00	3.097690e+06	
119	-5.95000e+00	3.102739e+06	
120	-6.00000e+00	3.107683e+06	
121	-6.05000e+00	3.112524e+06	
122	-6.10000e+00	3.117266e+06	
123	-6.15000e+00	3.121912e+06	
124	-6.20000e+00	3.126463e+06	
125	-6.25000e+00	3.130923e+06	
126	-6.30000e+00	3.135295e+06	
127	-6.35000e+00	3.139580e+06	
128	-6.40000e+00	3.143781e+06	
129	-6.45000e+00	3.147900e+06	
130	-6.50000e+00	3.151939e+06	
131	-6.55000e+00	3.155901e+06	
132	-6.60000e+00	3.159787e+06	
Reset re-loads circuit ***************************

Circuit: ***************************

Doing analysis at TEMP = 125.000000 and TNOM = 125.000000


No. of Data Rows : 133
                          ***************************
                          DC transfer characteristic  Mon Jan  9 13:57:55  2023
--------------------------------------------------------------------------------
Index   v-sweep         rds             
--------------------------------------------------------------------------------
0	0.000000e+00	1.763585e+04	
1	-5.00000e-02	1.792483e+04	
2	-1.00000e-01	1.822335e+04	
3	-1.50000e-01	1.853189e+04	
4	-2.00000e-01	1.885096e+04	
5	-2.50000e-01	1.918111e+04	
6	-3.00000e-01	1.952293e+04	
7	-3.50000e-01	1.987705e+04	
8	-4.00000e-01	2.024413e+04	
9	-4.50000e-01	2.062492e+04	
10	-5.00000e-01	2.102018e+04	
11	-5.50000e-01	2.143077e+04	
12	-6.00000e-01	2.185758e+04	
13	-6.50000e-01	2.230161e+04	
14	-7.00000e-01	2.276390e+04	
15	-7.50000e-01	2.324562e+04	
16	-8.00000e-01	2.374801e+04	
17	-8.50000e-01	2.427243e+04	
18	-9.00000e-01	2.482037e+04	
19	-9.50000e-01	2.539343e+04	
20	-1.00000e+00	2.599339e+04	
21	-1.05000e+00	2.662219e+04	
22	-1.10000e+00	2.728194e+04	
23	-1.15000e+00	2.797500e+04	
24	-1.20000e+00	2.870395e+04	
25	-1.25000e+00	2.947165e+04	
26	-1.30000e+00	3.028126e+04	
27	-1.35000e+00	3.113632e+04	
28	-1.40000e+00	3.204075e+04	
29	-1.45000e+00	3.299895e+04	
30	-1.50000e+00	3.401585e+04	
31	-1.55000e+00	3.509701e+04	
32	-1.60000e+00	3.624871e+04	
33	-1.65000e+00	3.747805e+04	
34	-1.70000e+00	3.879314e+04	
35	-1.75000e+00	4.020326e+04	
36	-1.80000e+00	4.171904e+04	
37	-1.85000e+00	4.335279e+04	
38	-1.90000e+00	4.511875e+04	
39	-1.95000e+00	4.703358e+04	
40	-2.00000e+00	4.911680e+04	
41	-2.05000e+00	5.139148e+04	
42	-2.10000e+00	5.388509e+04	
43	-2.15000e+00	5.663049e+04	
44	-2.20000e+00	5.966741e+04	
45	-2.25000e+00	6.304425e+04	
46	-2.30000e+00	6.682051e+04	
47	-2.35000e+00	7.107010e+04	
48	-2.40000e+00	7.588580e+04	
49	-2.45000e+00	8.138546e+04	
50	-2.50000e+00	8.772055e+04	
51	-2.55000e+00	9.508840e+04	
52	-2.60000e+00	1.037494e+05	
53	-2.65000e+00	1.140518e+05	
54	-2.70000e+00	1.264673e+05	

Index   v-sweep         rds             
--------------------------------------------------------------------------------
55	-2.75000e+00	1.416410e+05	
56	-2.80000e+00	1.604613e+05	
57	-2.85000e+00	1.841477e+05	
58	-2.90000e+00	2.143478e+05	
59	-2.95000e+00	2.531981e+05	
60	-3.00000e+00	3.032436e+05	
61	-3.05000e+00	3.670396e+05	
62	-3.10000e+00	4.462693e+05	
63	-3.15000e+00	5.404984e+05	
64	-3.20000e+00	6.462514e+05	
65	-3.25000e+00	7.573517e+05	
66	-3.30000e+00	8.667003e+05	
67	-3.35000e+00	9.684247e+05	
68	-3.40000e+00	1.059098e+06	
69	-3.45000e+00	1.137693e+06	
70	-3.50000e+00	1.204825e+06	
71	-3.55000e+00	1.261919e+06	
72	-3.60000e+00	1.310621e+06	
73	-3.65000e+00	1.352478e+06	
74	-3.70000e+00	1.388816e+06	
75	-3.75000e+00	1.420710e+06	
76	-3.80000e+00	1.449015e+06	
77	-3.85000e+00	1.474395e+06	
78	-3.90000e+00	1.497372e+06	
79	-3.95000e+00	1.518351e+06	
80	-4.00000e+00	1.537649e+06	
81	-4.05000e+00	1.555517e+06	
82	-4.10000e+00	1.572156e+06	
83	-4.15000e+00	1.587726e+06	
84	-4.20000e+00	1.602359e+06	
85	-4.25000e+00	1.616162e+06	
86	-4.30000e+00	1.629225e+06	
87	-4.35000e+00	1.641621e+06	
88	-4.40000e+00	1.653414e+06	
89	-4.45000e+00	1.664658e+06	
90	-4.50000e+00	1.675400e+06	
91	-4.55000e+00	1.685679e+06	
92	-4.60000e+00	1.695531e+06	
93	-4.65000e+00	1.704987e+06	
94	-4.70000e+00	1.714075e+06	
95	-4.75000e+00	1.722819e+06	
96	-4.80000e+00	1.731240e+06	
97	-4.85000e+00	1.739360e+06	
98	-4.90000e+00	1.747195e+06	
99	-4.95000e+00	1.754762e+06	
100	-5.00000e+00	1.762077e+06	
101	-5.05000e+00	1.769152e+06	
102	-5.10000e+00	1.776000e+06	
103	-5.15000e+00	1.782633e+06	
104	-5.20000e+00	1.789061e+06	
105	-5.25000e+00	1.795295e+06	
106	-5.30000e+00	1.801343e+06	
107	-5.35000e+00	1.807215e+06	
108	-5.40000e+00	1.812918e+06	
109	-5.45000e+00	1.818460e+06	
110	-5.50000e+00	1.823847e+06	
111	-5.55000e+00	1.829087e+06	
112	-5.60000e+00	1.834185e+06	

Index   v-sweep         rds             
--------------------------------------------------------------------------------
113	-5.65000e+00	1.839148e+06	
114	-5.70000e+00	1.843980e+06	
115	-5.75000e+00	1.848688e+06	
116	-5.80000e+00	1.853275e+06	
117	-5.85000e+00	1.857747e+06	
118	-5.90000e+00	1.862108e+06	
119	-5.95000e+00	1.866362e+06	
120	-6.00000e+00	1.870513e+06	
121	-6.05000e+00	1.874565e+06	
122	-6.10000e+00	1.878521e+06	
123	-6.15000e+00	1.882385e+06	
124	-6.20000e+00	1.886159e+06	
125	-6.25000e+00	1.889848e+06	
126	-6.30000e+00	1.893453e+06	
127	-6.35000e+00	1.896977e+06	
128	-6.40000e+00	1.900424e+06	
129	-6.45000e+00	1.903795e+06	
130	-6.50000e+00	1.907094e+06	
131	-6.55000e+00	1.910322e+06	
132	-6.60000e+00	1.913481e+06	
Reset re-loads circuit ***************************

Circuit: ***************************

Doing analysis at TEMP = 125.000000 and TNOM = 125.000000


No. of Data Rows : 133
                          ***************************
                          DC transfer characteristic  Mon Jan  9 13:57:55  2023
--------------------------------------------------------------------------------
Index   v-sweep         rds             
--------------------------------------------------------------------------------
0	0.000000e+00	1.506904e+04	
1	-5.00000e-02	1.526631e+04	
2	-1.00000e-01	1.546875e+04	
3	-1.50000e-01	1.567657e+04	
4	-2.00000e-01	1.589000e+04	
5	-2.50000e-01	1.610924e+04	
6	-3.00000e-01	1.633456e+04	
7	-3.50000e-01	1.656621e+04	
8	-4.00000e-01	1.680444e+04	
9	-4.50000e-01	1.704956e+04	
10	-5.00000e-01	1.730186e+04	
11	-5.50000e-01	1.756167e+04	
12	-6.00000e-01	1.782931e+04	
13	-6.50000e-01	1.810516e+04	
14	-7.00000e-01	1.838960e+04	
15	-7.50000e-01	1.868303e+04	
16	-8.00000e-01	1.898589e+04	
17	-8.50000e-01	1.929863e+04	
18	-9.00000e-01	1.962176e+04	
19	-9.50000e-01	1.995579e+04	
20	-1.00000e+00	2.030128e+04	
21	-1.05000e+00	2.065885e+04	
22	-1.10000e+00	2.102912e+04	
23	-1.15000e+00	2.141280e+04	
24	-1.20000e+00	2.181061e+04	
25	-1.25000e+00	2.222336e+04	
26	-1.30000e+00	2.265191e+04	
27	-1.35000e+00	2.309717e+04	
28	-1.40000e+00	2.356014e+04	
29	-1.45000e+00	2.404191e+04	
30	-1.50000e+00	2.454363e+04	
31	-1.55000e+00	2.506657e+04	
32	-1.60000e+00	2.561212e+04	
33	-1.65000e+00	2.618175e+04	
34	-1.70000e+00	2.677711e+04	
35	-1.75000e+00	2.739998e+04	
36	-1.80000e+00	2.805229e+04	
37	-1.85000e+00	2.873620e+04	
38	-1.90000e+00	2.945404e+04	
39	-1.95000e+00	3.020841e+04	
40	-2.00000e+00	3.100215e+04	
41	-2.05000e+00	3.183843e+04	
42	-2.10000e+00	3.272076e+04	
43	-2.15000e+00	3.365303e+04	
44	-2.20000e+00	3.463960e+04	
45	-2.25000e+00	3.568534e+04	
46	-2.30000e+00	3.679573e+04	
47	-2.35000e+00	3.797692e+04	
48	-2.40000e+00	3.923588e+04	
49	-2.45000e+00	4.058053e+04	
50	-2.50000e+00	4.201987e+04	
51	-2.55000e+00	4.356423e+04	
52	-2.60000e+00	4.522544e+04	
53	-2.65000e+00	4.701721e+04	
54	-2.70000e+00	4.895542e+04	

Index   v-sweep         rds             
--------------------------------------------------------------------------------
55	-2.75000e+00	5.105864e+04	
56	-2.80000e+00	5.334863e+04	
57	-2.85000e+00	5.585114e+04	
58	-2.90000e+00	5.859676e+04	
59	-2.95000e+00	6.162212e+04	
60	-3.00000e+00	6.497144e+04	
61	-3.05000e+00	6.869849e+04	
62	-3.10000e+00	7.286922e+04	
63	-3.15000e+00	7.756526e+04	
64	-3.20000e+00	8.288854e+04	
65	-3.25000e+00	8.896766e+04	
66	-3.30000e+00	9.596634e+04	
67	-3.35000e+00	1.040950e+05	
68	-3.40000e+00	1.136264e+05	
69	-3.45000e+00	1.249164e+05	
70	-3.50000e+00	1.384309e+05	
71	-3.55000e+00	1.547779e+05	
72	-3.60000e+00	1.747422e+05	
73	-3.65000e+00	1.993075e+05	
74	-3.70000e+00	2.296413e+05	
75	-3.75000e+00	2.669902e+05	
76	-3.80000e+00	3.124233e+05	
77	-3.85000e+00	3.663939e+05	
78	-3.90000e+00	4.282192e+05	
79	-3.95000e+00	4.957669e+05	
80	-4.00000e+00	5.656851e+05	
81	-4.05000e+00	6.342161e+05	
82	-4.10000e+00	6.981817e+05	
83	-4.15000e+00	7.556081e+05	
84	-4.20000e+00	8.057863e+05	
85	-4.25000e+00	8.489501e+05	
86	-4.30000e+00	8.858557e+05	
87	-4.35000e+00	9.174474e+05	
88	-4.40000e+00	9.446547e+05	
89	-4.45000e+00	9.682973e+05	
90	-4.50000e+00	9.890562e+05	
91	-4.55000e+00	1.007479e+06	
92	-4.60000e+00	1.023999e+06	
93	-4.65000e+00	1.038955e+06	
94	-4.70000e+00	1.052612e+06	
95	-4.75000e+00	1.065180e+06	
96	-4.80000e+00	1.076823e+06	
97	-4.85000e+00	1.087671e+06	
98	-4.90000e+00	1.097832e+06	
99	-4.95000e+00	1.107389e+06	
100	-5.00000e+00	1.116412e+06	
101	-5.05000e+00	1.124959e+06	
102	-5.10000e+00	1.133079e+06	
103	-5.15000e+00	1.140812e+06	
104	-5.20000e+00	1.148193e+06	
105	-5.25000e+00	1.155250e+06	
106	-5.30000e+00	1.162011e+06	
107	-5.35000e+00	1.168497e+06	
108	-5.40000e+00	1.174728e+06	
109	-5.45000e+00	1.180721e+06	
110	-5.50000e+00	1.186493e+06	
111	-5.55000e+00	1.192057e+06	
112	-5.60000e+00	1.197426e+06	

Index   v-sweep         rds             
--------------------------------------------------------------------------------
113	-5.65000e+00	1.202611e+06	
114	-5.70000e+00	1.207622e+06	
115	-5.75000e+00	1.212469e+06	
116	-5.80000e+00	1.217161e+06	
117	-5.85000e+00	1.221705e+06	
118	-5.90000e+00	1.226110e+06	
119	-5.95000e+00	1.230381e+06	
120	-6.00000e+00	1.234525e+06	
121	-6.05000e+00	1.238549e+06	
122	-6.10000e+00	1.242457e+06	
123	-6.15000e+00	1.246254e+06	
124	-6.20000e+00	1.249946e+06	
125	-6.25000e+00	1.253537e+06	
126	-6.30000e+00	1.257031e+06	
127	-6.35000e+00	1.260432e+06	
128	-6.40000e+00	1.263744e+06	
129	-6.45000e+00	1.266971e+06	
130	-6.50000e+00	1.270115e+06	
131	-6.55000e+00	1.273181e+06	
132	-6.60000e+00	1.276170e+06	
Reset re-loads circuit ***************************

Circuit: ***************************

Note: No ".plot", ".print", or ".fourier" lines; no simulations run
