
Note: Compatibility modes selected: hs

Warning: m=xx on .subckt line will override multiplier m hierarchy!


Circuit: ***************************

Doing analysis at TEMP = 25.000000 and TNOM = 25.000000


No. of Data Rows : 133
                          ***************************
                          DC transfer characteristic  Mon Jan  9 13:57:54  2023
--------------------------------------------------------------------------------
Index   v-sweep         rds             
--------------------------------------------------------------------------------
0	0.000000e+00	2.025651e+04	
1	-5.00000e-02	2.932197e+04	
2	-1.00000e-01	5.044089e+04	
3	-1.50000e-01	1.160461e+05	
4	-2.00000e-01	2.957373e+05	
5	-2.50000e-01	5.155963e+05	
6	-3.00000e-01	6.571782e+05	
7	-3.50000e-01	7.400898e+05	
8	-4.00000e-01	7.952786e+05	
9	-4.50000e-01	8.368439e+05	
10	-5.00000e-01	8.706980e+05	
11	-5.50000e-01	8.995440e+05	
12	-6.00000e-01	9.247713e+05	
13	-6.50000e-01	9.471813e+05	
14	-7.00000e-01	9.672855e+05	
15	-7.50000e-01	9.854388e+05	
16	-8.00000e-01	1.001904e+06	
17	-8.50000e-01	1.016888e+06	
18	-9.00000e-01	1.030554e+06	
19	-9.50000e-01	1.043040e+06	
20	-1.00000e+00	1.054465e+06	
21	-1.05000e+00	1.064927e+06	
22	-1.10000e+00	1.074513e+06	
23	-1.15000e+00	1.083302e+06	
24	-1.20000e+00	1.091360e+06	
25	-1.25000e+00	1.098748e+06	
26	-1.30000e+00	1.105520e+06	
27	-1.35000e+00	1.111724e+06	
28	-1.40000e+00	1.117404e+06	
29	-1.45000e+00	1.122599e+06	
30	-1.50000e+00	1.127346e+06	
31	-1.55000e+00	1.131676e+06	
32	-1.60000e+00	1.135619e+06	
33	-1.65000e+00	1.139202e+06	
34	-1.70000e+00	1.142450e+06	
35	-1.75000e+00	1.145386e+06	
36	-1.80000e+00	1.148030e+06	
37	-1.85000e+00	1.150401e+06	
38	-1.90000e+00	1.152518e+06	
39	-1.95000e+00	1.154396e+06	
40	-2.00000e+00	1.156051e+06	
41	-2.05000e+00	1.157496e+06	
42	-2.10000e+00	1.158745e+06	
43	-2.15000e+00	1.159809e+06	
44	-2.20000e+00	1.160699e+06	
45	-2.25000e+00	1.161425e+06	
46	-2.30000e+00	1.161999e+06	
47	-2.35000e+00	1.162427e+06	
48	-2.40000e+00	1.162719e+06	
49	-2.45000e+00	1.162882e+06	
50	-2.50000e+00	1.162924e+06	
51	-2.55000e+00	1.162852e+06	
52	-2.60000e+00	1.162671e+06	
53	-2.65000e+00	1.162389e+06	
54	-2.70000e+00	1.162010e+06	

Index   v-sweep         rds             
--------------------------------------------------------------------------------
55	-2.75000e+00	1.161539e+06	
56	-2.80000e+00	1.160983e+06	
57	-2.85000e+00	1.160345e+06	
58	-2.90000e+00	1.159629e+06	
59	-2.95000e+00	1.158840e+06	
60	-3.00000e+00	1.157983e+06	
61	-3.05000e+00	1.157059e+06	
62	-3.10000e+00	1.156073e+06	
63	-3.15000e+00	1.155029e+06	
64	-3.20000e+00	1.153928e+06	
65	-3.25000e+00	1.152775e+06	
66	-3.30000e+00	1.151571e+06	
67	-3.35000e+00	1.150320e+06	
68	-3.40000e+00	1.149024e+06	
69	-3.45000e+00	1.147684e+06	
70	-3.50000e+00	1.146305e+06	
71	-3.55000e+00	1.144886e+06	
72	-3.60000e+00	1.143431e+06	
73	-3.65000e+00	1.141941e+06	
74	-3.70000e+00	1.140418e+06	
75	-3.75000e+00	1.138863e+06	
76	-3.80000e+00	1.137279e+06	
77	-3.85000e+00	1.135666e+06	
78	-3.90000e+00	1.134027e+06	
79	-3.95000e+00	1.132362e+06	
80	-4.00000e+00	1.130673e+06	
81	-4.05000e+00	1.128961e+06	
82	-4.10000e+00	1.127227e+06	
83	-4.15000e+00	1.125472e+06	
84	-4.20000e+00	1.123697e+06	
85	-4.25000e+00	1.121904e+06	
86	-4.30000e+00	1.120092e+06	
87	-4.35000e+00	1.118264e+06	
88	-4.40000e+00	1.116420e+06	
89	-4.45000e+00	1.114560e+06	
90	-4.50000e+00	1.112686e+06	
91	-4.55000e+00	1.110797e+06	
92	-4.60000e+00	1.108896e+06	
93	-4.65000e+00	1.106982e+06	
94	-4.70000e+00	1.105056e+06	
95	-4.75000e+00	1.103119e+06	
96	-4.80000e+00	1.101171e+06	
97	-4.85000e+00	1.099213e+06	
98	-4.90000e+00	1.097245e+06	
99	-4.95000e+00	1.095268e+06	
100	-5.00000e+00	1.093282e+06	
101	-5.05000e+00	1.091287e+06	
102	-5.10000e+00	1.089285e+06	
103	-5.15000e+00	1.087275e+06	
104	-5.20000e+00	1.085257e+06	
105	-5.25000e+00	1.083233e+06	
106	-5.30000e+00	1.081202e+06	
107	-5.35000e+00	1.079165e+06	
108	-5.40000e+00	1.077122e+06	
109	-5.45000e+00	1.075073e+06	
110	-5.50000e+00	1.073019e+06	
111	-5.55000e+00	1.070960e+06	
112	-5.60000e+00	1.068895e+06	

Index   v-sweep         rds             
--------------------------------------------------------------------------------
113	-5.65000e+00	1.066826e+06	
114	-5.70000e+00	1.064753e+06	
115	-5.75000e+00	1.062675e+06	
116	-5.80000e+00	1.060594e+06	
117	-5.85000e+00	1.058508e+06	
118	-5.90000e+00	1.056419e+06	
119	-5.95000e+00	1.054326e+06	
120	-6.00000e+00	1.052230e+06	
121	-6.05000e+00	1.050131e+06	
122	-6.10000e+00	1.048028e+06	
123	-6.15000e+00	1.045923e+06	
124	-6.20000e+00	1.043815e+06	
125	-6.25000e+00	1.041705e+06	
126	-6.30000e+00	1.039592e+06	
127	-6.35000e+00	1.037476e+06	
128	-6.40000e+00	1.035358e+06	
129	-6.45000e+00	1.033239e+06	
130	-6.50000e+00	1.031117e+06	
131	-6.55000e+00	1.028993e+06	
132	-6.60000e+00	1.026868e+06	
Reset re-loads circuit ***************************

Circuit: ***************************

Doing analysis at TEMP = 25.000000 and TNOM = 25.000000


No. of Data Rows : 133
                          ***************************
                          DC transfer characteristic  Mon Jan  9 13:57:54  2023
--------------------------------------------------------------------------------
Index   v-sweep         rds             
--------------------------------------------------------------------------------
0	0.000000e+00	3.135501e+03	
1	-5.00000e-02	3.336081e+03	
2	-1.00000e-01	3.560276e+03	
3	-1.50000e-01	3.812495e+03	
4	-2.00000e-01	4.098314e+03	
5	-2.50000e-01	4.424878e+03	
6	-3.00000e-01	4.801501e+03	
7	-3.50000e-01	5.240532e+03	
8	-4.00000e-01	5.758673e+03	
9	-4.50000e-01	6.379025e+03	
10	-5.00000e-01	7.134318e+03	
11	-5.50000e-01	8.072120e+03	
12	-6.00000e-01	9.263264e+03	
13	-6.50000e-01	1.081496e+04	
14	-7.00000e-01	1.288802e+04	
15	-7.50000e-01	1.570570e+04	
16	-8.00000e-01	1.950261e+04	
17	-8.50000e-01	2.432741e+04	
18	-9.00000e-01	2.980661e+04	
19	-9.50000e-01	3.531698e+04	
20	-1.00000e+00	4.045799e+04	
21	-1.05000e+00	4.515781e+04	
22	-1.10000e+00	4.948837e+04	
23	-1.15000e+00	5.353512e+04	
24	-1.20000e+00	5.736147e+04	
25	-1.25000e+00	6.100947e+04	
26	-1.30000e+00	6.450668e+04	
27	-1.35000e+00	6.787165e+04	
28	-1.40000e+00	7.111749e+04	
29	-1.45000e+00	7.425390e+04	
30	-1.50000e+00	7.728848e+04	
31	-1.55000e+00	8.022737e+04	
32	-1.60000e+00	8.307578e+04	
33	-1.65000e+00	8.583824e+04	
34	-1.70000e+00	8.851875e+04	
35	-1.75000e+00	9.112095e+04	
36	-1.80000e+00	9.364815e+04	
37	-1.85000e+00	9.610344e+04	
38	-1.90000e+00	9.848968e+04	
39	-1.95000e+00	1.008095e+05	
40	-2.00000e+00	1.030656e+05	
41	-2.05000e+00	1.052601e+05	
42	-2.10000e+00	1.073955e+05	
43	-2.15000e+00	1.094737e+05	
44	-2.20000e+00	1.114970e+05	
45	-2.25000e+00	1.134671e+05	
46	-2.30000e+00	1.153860e+05	
47	-2.35000e+00	1.172554e+05	
48	-2.40000e+00	1.190770e+05	
49	-2.45000e+00	1.208524e+05	
50	-2.50000e+00	1.225831e+05	
51	-2.55000e+00	1.242707e+05	
52	-2.60000e+00	1.259164e+05	
53	-2.65000e+00	1.275217e+05	
54	-2.70000e+00	1.290878e+05	

Index   v-sweep         rds             
--------------------------------------------------------------------------------
55	-2.75000e+00	1.306161e+05	
56	-2.80000e+00	1.321076e+05	
57	-2.85000e+00	1.335635e+05	
58	-2.90000e+00	1.349849e+05	
59	-2.95000e+00	1.363729e+05	
60	-3.00000e+00	1.377285e+05	
61	-3.05000e+00	1.390526e+05	
62	-3.10000e+00	1.403463e+05	
63	-3.15000e+00	1.416103e+05	
64	-3.20000e+00	1.428455e+05	
65	-3.25000e+00	1.440528e+05	
66	-3.30000e+00	1.452330e+05	
67	-3.35000e+00	1.463869e+05	
68	-3.40000e+00	1.475151e+05	
69	-3.45000e+00	1.486185e+05	
70	-3.50000e+00	1.496976e+05	
71	-3.55000e+00	1.507533e+05	
72	-3.60000e+00	1.517860e+05	
73	-3.65000e+00	1.527965e+05	
74	-3.70000e+00	1.537853e+05	
75	-3.75000e+00	1.547529e+05	
76	-3.80000e+00	1.557001e+05	
77	-3.85000e+00	1.566272e+05	
78	-3.90000e+00	1.575348e+05	
79	-3.95000e+00	1.584234e+05	
80	-4.00000e+00	1.592935e+05	
81	-4.05000e+00	1.601455e+05	
82	-4.10000e+00	1.609799e+05	
83	-4.15000e+00	1.617971e+05	
84	-4.20000e+00	1.625975e+05	
85	-4.25000e+00	1.633815e+05	
86	-4.30000e+00	1.641495e+05	
87	-4.35000e+00	1.649019e+05	
88	-4.40000e+00	1.656390e+05	
89	-4.45000e+00	1.663612e+05	
90	-4.50000e+00	1.670688e+05	
91	-4.55000e+00	1.677620e+05	
92	-4.60000e+00	1.684413e+05	
93	-4.65000e+00	1.691069e+05	
94	-4.70000e+00	1.697591e+05	
95	-4.75000e+00	1.703981e+05	
96	-4.80000e+00	1.710242e+05	
97	-4.85000e+00	1.716378e+05	
98	-4.90000e+00	1.722389e+05	
99	-4.95000e+00	1.728278e+05	
100	-5.00000e+00	1.734048e+05	
101	-5.05000e+00	1.739701e+05	
102	-5.10000e+00	1.745238e+05	
103	-5.15000e+00	1.750662e+05	
104	-5.20000e+00	1.755975e+05	
105	-5.25000e+00	1.761177e+05	
106	-5.30000e+00	1.766272e+05	
107	-5.35000e+00	1.771260e+05	
108	-5.40000e+00	1.776144e+05	
109	-5.45000e+00	1.780924e+05	
110	-5.50000e+00	1.785602e+05	
111	-5.55000e+00	1.790180e+05	
112	-5.60000e+00	1.794659e+05	

Index   v-sweep         rds             
--------------------------------------------------------------------------------
113	-5.65000e+00	1.799040e+05	
114	-5.70000e+00	1.803324e+05	
115	-5.75000e+00	1.807512e+05	
116	-5.80000e+00	1.811606e+05	
117	-5.85000e+00	1.815607e+05	
118	-5.90000e+00	1.819516e+05	
119	-5.95000e+00	1.823333e+05	
120	-6.00000e+00	1.827060e+05	
121	-6.05000e+00	1.830697e+05	
122	-6.10000e+00	1.834245e+05	
123	-6.15000e+00	1.837706e+05	
124	-6.20000e+00	1.841080e+05	
125	-6.25000e+00	1.844368e+05	
126	-6.30000e+00	1.847570e+05	
127	-6.35000e+00	1.850688e+05	
128	-6.40000e+00	1.853722e+05	
129	-6.45000e+00	1.856672e+05	
130	-6.50000e+00	1.859540e+05	
131	-6.55000e+00	1.862325e+05	
132	-6.60000e+00	1.865030e+05	
Reset re-loads circuit ***************************

Circuit: ***************************

Doing analysis at TEMP = 25.000000 and TNOM = 25.000000


No. of Data Rows : 133
                          ***************************
                          DC transfer characteristic  Mon Jan  9 13:57:54  2023
--------------------------------------------------------------------------------
Index   v-sweep         rds             
--------------------------------------------------------------------------------
0	0.000000e+00	1.948132e+03	
1	-5.00000e-02	2.021456e+03	
2	-1.00000e-01	2.099406e+03	
3	-1.50000e-01	2.182428e+03	
4	-2.00000e-01	2.271034e+03	
5	-2.50000e-01	2.365800e+03	
6	-3.00000e-01	2.467390e+03	
7	-3.50000e-01	2.576563e+03	
8	-4.00000e-01	2.694197e+03	
9	-4.50000e-01	2.821307e+03	
10	-5.00000e-01	2.959082e+03	
11	-5.50000e-01	3.108911e+03	
12	-6.00000e-01	3.272441e+03	
13	-6.50000e-01	3.451625e+03	
14	-7.00000e-01	3.648806e+03	
15	-7.50000e-01	3.866813e+03	
16	-8.00000e-01	4.109092e+03	
17	-8.50000e-01	4.379879e+03	
18	-9.00000e-01	4.684434e+03	
19	-9.50000e-01	5.029350e+03	
20	-1.00000e+00	5.422979e+03	
21	-1.05000e+00	5.875992e+03	
22	-1.10000e+00	6.402125e+03	
23	-1.15000e+00	7.019085e+03	
24	-1.20000e+00	7.749485e+03	
25	-1.25000e+00	8.621290e+03	
26	-1.30000e+00	9.666414e+03	
27	-1.35000e+00	1.091482e+04	
28	-1.40000e+00	1.238169e+04	
29	-1.45000e+00	1.405138e+04	
30	-1.50000e+00	1.587340e+04	
31	-1.55000e+00	1.778098e+04	
32	-1.60000e+00	1.971684e+04	
33	-1.65000e+00	2.164437e+04	
34	-1.70000e+00	2.354432e+04	
35	-1.75000e+00	2.540781e+04	
36	-1.80000e+00	2.723117e+04	
37	-1.85000e+00	2.901325e+04	
38	-1.90000e+00	3.075404e+04	
39	-1.95000e+00	3.245411e+04	
40	-2.00000e+00	3.411427e+04	
41	-2.05000e+00	3.573550e+04	
42	-2.10000e+00	3.731881e+04	
43	-2.15000e+00	3.886525e+04	
44	-2.20000e+00	4.037584e+04	
45	-2.25000e+00	4.185164e+04	
46	-2.30000e+00	4.329363e+04	
47	-2.35000e+00	4.470281e+04	
48	-2.40000e+00	4.608015e+04	
49	-2.45000e+00	4.742657e+04	
50	-2.50000e+00	4.874297e+04	
51	-2.55000e+00	5.003024e+04	
52	-2.60000e+00	5.128922e+04	
53	-2.65000e+00	5.252073e+04	
54	-2.70000e+00	5.372556e+04	

Index   v-sweep         rds             
--------------------------------------------------------------------------------
55	-2.75000e+00	5.490447e+04	
56	-2.80000e+00	5.605821e+04	
57	-2.85000e+00	5.718749e+04	
58	-2.90000e+00	5.829300e+04	
59	-2.95000e+00	5.937540e+04	
60	-3.00000e+00	6.043534e+04	
61	-3.05000e+00	6.147343e+04	
62	-3.10000e+00	6.249028e+04	
63	-3.15000e+00	6.348647e+04	
64	-3.20000e+00	6.446255e+04	
65	-3.25000e+00	6.541907e+04	
66	-3.30000e+00	6.635654e+04	
67	-3.35000e+00	6.727548e+04	
68	-3.40000e+00	6.817637e+04	
69	-3.45000e+00	6.905968e+04	
70	-3.50000e+00	6.992588e+04	
71	-3.55000e+00	7.077539e+04	
72	-3.60000e+00	7.160865e+04	
73	-3.65000e+00	7.242608e+04	
74	-3.70000e+00	7.322806e+04	
75	-3.75000e+00	7.401499e+04	
76	-3.80000e+00	7.478725e+04	
77	-3.85000e+00	7.554518e+04	
78	-3.90000e+00	7.628916e+04	
79	-3.95000e+00	7.701950e+04	
80	-4.00000e+00	7.773655e+04	
81	-4.05000e+00	7.844062e+04	
82	-4.10000e+00	7.913202e+04	
83	-4.15000e+00	7.981105e+04	
84	-4.20000e+00	8.047799e+04	
85	-4.25000e+00	8.113313e+04	
86	-4.30000e+00	8.177674e+04	
87	-4.35000e+00	8.240907e+04	
88	-4.40000e+00	8.303039e+04	
89	-4.45000e+00	8.364093e+04	
90	-4.50000e+00	8.424094e+04	
91	-4.55000e+00	8.483064e+04	
92	-4.60000e+00	8.541025e+04	
93	-4.65000e+00	8.597999e+04	
94	-4.70000e+00	8.654007e+04	
95	-4.75000e+00	8.709067e+04	
96	-4.80000e+00	8.763201e+04	
97	-4.85000e+00	8.816425e+04	
98	-4.90000e+00	8.868758e+04	
99	-4.95000e+00	8.920218e+04	
100	-5.00000e+00	8.970820e+04	
101	-5.05000e+00	9.020580e+04	
102	-5.10000e+00	9.069514e+04	
103	-5.15000e+00	9.117637e+04	
104	-5.20000e+00	9.164963e+04	
105	-5.25000e+00	9.211504e+04	
106	-5.30000e+00	9.257275e+04	
107	-5.35000e+00	9.302287e+04	
108	-5.40000e+00	9.346553e+04	
109	-5.45000e+00	9.390083e+04	
110	-5.50000e+00	9.432889e+04	
111	-5.55000e+00	9.474980e+04	
112	-5.60000e+00	9.516368e+04	

Index   v-sweep         rds             
--------------------------------------------------------------------------------
113	-5.65000e+00	9.557060e+04	
114	-5.70000e+00	9.597066e+04	
115	-5.75000e+00	9.636395e+04	
116	-5.80000e+00	9.675055e+04	
117	-5.85000e+00	9.713053e+04	
118	-5.90000e+00	9.750396e+04	
119	-5.95000e+00	9.787092e+04	
120	-6.00000e+00	9.823147e+04	
121	-6.05000e+00	9.858566e+04	
122	-6.10000e+00	9.893357e+04	
123	-6.15000e+00	9.927525e+04	
124	-6.20000e+00	9.961074e+04	
125	-6.25000e+00	9.994010e+04	
126	-6.30000e+00	1.002634e+05	
127	-6.35000e+00	1.005806e+05	
128	-6.40000e+00	1.008918e+05	
129	-6.45000e+00	1.011971e+05	
130	-6.50000e+00	1.014964e+05	
131	-6.55000e+00	1.017899e+05	
132	-6.60000e+00	1.020775e+05	
Reset re-loads circuit ***************************

Circuit: ***************************

Doing analysis at TEMP = 25.000000 and TNOM = 25.000000


No. of Data Rows : 133
                          ***************************
                          DC transfer characteristic  Mon Jan  9 13:57:54  2023
--------------------------------------------------------------------------------
Index   v-sweep         rds             
--------------------------------------------------------------------------------
0	0.000000e+00	1.509982e+03	
1	-5.00000e-02	1.551596e+03	
2	-1.00000e-01	1.595023e+03	
3	-1.50000e-01	1.640383e+03	
4	-2.00000e-01	1.687807e+03	
5	-2.50000e-01	1.737439e+03	
6	-3.00000e-01	1.789434e+03	
7	-3.50000e-01	1.843963e+03	
8	-4.00000e-01	1.901216e+03	
9	-4.50000e-01	1.961400e+03	
10	-5.00000e-01	2.024744e+03	
11	-5.50000e-01	2.091503e+03	
12	-6.00000e-01	2.161957e+03	
13	-6.50000e-01	2.236420e+03	
14	-7.00000e-01	2.315243e+03	
15	-7.50000e-01	2.398817e+03	
16	-8.00000e-01	2.487582e+03	
17	-8.50000e-01	2.582035e+03	
18	-9.00000e-01	2.682735e+03	
19	-9.50000e-01	2.790321e+03	
20	-1.00000e+00	2.905517e+03	
21	-1.05000e+00	3.029156e+03	
22	-1.10000e+00	3.162194e+03	
23	-1.15000e+00	3.305735e+03	
24	-1.20000e+00	3.461062e+03	
25	-1.25000e+00	3.629675e+03	
26	-1.30000e+00	3.813332e+03	
27	-1.35000e+00	4.014113e+03	
28	-1.40000e+00	4.234490e+03	
29	-1.45000e+00	4.477419e+03	
30	-1.50000e+00	4.746459e+03	
31	-1.55000e+00	5.045920e+03	
32	-1.60000e+00	5.381044e+03	
33	-1.65000e+00	5.758224e+03	
34	-1.70000e+00	6.185244e+03	
35	-1.75000e+00	6.671475e+03	
36	-1.80000e+00	7.227890e+03	
37	-1.85000e+00	7.866561e+03	
38	-1.90000e+00	8.599088e+03	
39	-1.95000e+00	9.433494e+03	
40	-2.00000e+00	1.037012e+04	
41	-2.05000e+00	1.139896e+04	
42	-2.10000e+00	1.250117e+04	
43	-2.15000e+00	1.365414e+04	
44	-2.20000e+00	1.483677e+04	
45	-2.25000e+00	1.603224e+04	
46	-2.30000e+00	1.722840e+04	
47	-2.35000e+00	1.841697e+04	
48	-2.40000e+00	1.959250e+04	
49	-2.45000e+00	2.075152e+04	
50	-2.50000e+00	2.189185e+04	
51	-2.55000e+00	2.301219e+04	
52	-2.60000e+00	2.411181e+04	
53	-2.65000e+00	2.519038e+04	
54	-2.70000e+00	2.624784e+04	

Index   v-sweep         rds             
--------------------------------------------------------------------------------
55	-2.75000e+00	2.728429e+04	
56	-2.80000e+00	2.829996e+04	
57	-2.85000e+00	2.929517e+04	
58	-2.90000e+00	3.027026e+04	
59	-2.95000e+00	3.122565e+04	
60	-3.00000e+00	3.216175e+04	
61	-3.05000e+00	3.307901e+04	
62	-3.10000e+00	3.397785e+04	
63	-3.15000e+00	3.485873e+04	
64	-3.20000e+00	3.572208e+04	
65	-3.25000e+00	3.656834e+04	
66	-3.30000e+00	3.739792e+04	
67	-3.35000e+00	3.821126e+04	
68	-3.40000e+00	3.900876e+04	
69	-3.45000e+00	3.979083e+04	
70	-3.50000e+00	4.055784e+04	
71	-3.55000e+00	4.131019e+04	
72	-3.60000e+00	4.204825e+04	
73	-3.65000e+00	4.277236e+04	
74	-3.70000e+00	4.348289e+04	
75	-3.75000e+00	4.418017e+04	
76	-3.80000e+00	4.486453e+04	
77	-3.85000e+00	4.553630e+04	
78	-3.90000e+00	4.619577e+04	
79	-3.95000e+00	4.684326e+04	
80	-4.00000e+00	4.747905e+04	
81	-4.05000e+00	4.810343e+04	
82	-4.10000e+00	4.871668e+04	
83	-4.15000e+00	4.931906e+04	
84	-4.20000e+00	4.991082e+04	
85	-4.25000e+00	5.049223e+04	
86	-4.30000e+00	5.106352e+04	
87	-4.35000e+00	5.162494e+04	
88	-4.40000e+00	5.217670e+04	
89	-4.45000e+00	5.271904e+04	
90	-4.50000e+00	5.325217e+04	
91	-4.55000e+00	5.377629e+04	
92	-4.60000e+00	5.429162e+04	
93	-4.65000e+00	5.479834e+04	
94	-4.70000e+00	5.529666e+04	
95	-4.75000e+00	5.578674e+04	
96	-4.80000e+00	5.626878e+04	
97	-4.85000e+00	5.674295e+04	
98	-4.90000e+00	5.720941e+04	
99	-4.95000e+00	5.766832e+04	
100	-5.00000e+00	5.811986e+04	
101	-5.05000e+00	5.856416e+04	
102	-5.10000e+00	5.900137e+04	
103	-5.15000e+00	5.943164e+04	
104	-5.20000e+00	5.985511e+04	
105	-5.25000e+00	6.027190e+04	
106	-5.30000e+00	6.068215e+04	
107	-5.35000e+00	6.108598e+04	
108	-5.40000e+00	6.148350e+04	
109	-5.45000e+00	6.187483e+04	
110	-5.50000e+00	6.226008e+04	
111	-5.55000e+00	6.263936e+04	
112	-5.60000e+00	6.301277e+04	

Index   v-sweep         rds             
--------------------------------------------------------------------------------
113	-5.65000e+00	6.338039e+04	
114	-5.70000e+00	6.374234e+04	
115	-5.75000e+00	6.409869e+04	
116	-5.80000e+00	6.444952e+04	
117	-5.85000e+00	6.479493e+04	
118	-5.90000e+00	6.513498e+04	
119	-5.95000e+00	6.546975e+04	
120	-6.00000e+00	6.579931e+04	
121	-6.05000e+00	6.612372e+04	
122	-6.10000e+00	6.644305e+04	
123	-6.15000e+00	6.675735e+04	
124	-6.20000e+00	6.706669e+04	
125	-6.25000e+00	6.737111e+04	
126	-6.30000e+00	6.767066e+04	
127	-6.35000e+00	6.796539e+04	
128	-6.40000e+00	6.825534e+04	
129	-6.45000e+00	6.854055e+04	
130	-6.50000e+00	6.882106e+04	
131	-6.55000e+00	6.909691e+04	
132	-6.60000e+00	6.936813e+04	
Reset re-loads circuit ***************************

Circuit: ***************************

Doing analysis at TEMP = 25.000000 and TNOM = 25.000000


No. of Data Rows : 133
                          ***************************
                          DC transfer characteristic  Mon Jan  9 13:57:54  2023
--------------------------------------------------------------------------------
Index   v-sweep         rds             
--------------------------------------------------------------------------------
0	0.000000e+00	1.280652e+03	
1	-5.00000e-02	1.308946e+03	
2	-1.00000e-01	1.338188e+03	
3	-1.50000e-01	1.368426e+03	
4	-2.00000e-01	1.399710e+03	
5	-2.50000e-01	1.432095e+03	
6	-3.00000e-01	1.465640e+03	
7	-3.50000e-01	1.500407e+03	
8	-4.00000e-01	1.536464e+03	
9	-4.50000e-01	1.573883e+03	
10	-5.00000e-01	1.612742e+03	
11	-5.50000e-01	1.653125e+03	
12	-6.00000e-01	1.695122e+03	
13	-6.50000e-01	1.738832e+03	
14	-7.00000e-01	1.784361e+03	
15	-7.50000e-01	1.831822e+03	
16	-8.00000e-01	1.881342e+03	
17	-8.50000e-01	1.933056e+03	
18	-9.00000e-01	1.987111e+03	
19	-9.50000e-01	2.043671e+03	
20	-1.00000e+00	2.102910e+03	
21	-1.05000e+00	2.165024e+03	
22	-1.10000e+00	2.230224e+03	
23	-1.15000e+00	2.298746e+03	
24	-1.20000e+00	2.370847e+03	
25	-1.25000e+00	2.446815e+03	
26	-1.30000e+00	2.526966e+03	
27	-1.35000e+00	2.611653e+03	
28	-1.40000e+00	2.701270e+03	
29	-1.45000e+00	2.796258e+03	
30	-1.50000e+00	2.897110e+03	
31	-1.55000e+00	3.004384e+03	
32	-1.60000e+00	3.118708e+03	
33	-1.65000e+00	3.240797e+03	
34	-1.70000e+00	3.371464e+03	
35	-1.75000e+00	3.511639e+03	
36	-1.80000e+00	3.662393e+03	
37	-1.85000e+00	3.824963e+03	
38	-1.90000e+00	4.000788e+03	
39	-1.95000e+00	4.191554e+03	
40	-2.00000e+00	4.399248e+03	
41	-2.05000e+00	4.626236e+03	
42	-2.10000e+00	4.875361e+03	
43	-2.15000e+00	5.150075e+03	
44	-2.20000e+00	5.454616e+03	
45	-2.25000e+00	5.794213e+03	
46	-2.30000e+00	6.175290e+03	
47	-2.35000e+00	6.605498e+03	
48	-2.40000e+00	7.093268e+03	
49	-2.45000e+00	7.646437e+03	
50	-2.50000e+00	8.269851e+03	
51	-2.55000e+00	8.962844e+03	
52	-2.60000e+00	9.718312e+03	
53	-2.65000e+00	1.052425e+04	
54	-2.70000e+00	1.136675e+04	

Index   v-sweep         rds             
--------------------------------------------------------------------------------
55	-2.75000e+00	1.223267e+04	
56	-2.80000e+00	1.311109e+04	
57	-2.85000e+00	1.399362e+04	
58	-2.90000e+00	1.487414e+04	
59	-2.95000e+00	1.574832e+04	
60	-3.00000e+00	1.661315e+04	
61	-3.05000e+00	1.746660e+04	
62	-3.10000e+00	1.830732e+04	
63	-3.15000e+00	1.913443e+04	
64	-3.20000e+00	1.994740e+04	
65	-3.25000e+00	2.074594e+04	
66	-3.30000e+00	2.152993e+04	
67	-3.35000e+00	2.229938e+04	
68	-3.40000e+00	2.305439e+04	
69	-3.45000e+00	2.379511e+04	
70	-3.50000e+00	2.452174e+04	
71	-3.55000e+00	2.523453e+04	
72	-3.60000e+00	2.593372e+04	
73	-3.65000e+00	2.661958e+04	
74	-3.70000e+00	2.729240e+04	
75	-3.75000e+00	2.795245e+04	
76	-3.80000e+00	2.860002e+04	
77	-3.85000e+00	2.923540e+04	
78	-3.90000e+00	2.985887e+04	
79	-3.95000e+00	3.047071e+04	
80	-4.00000e+00	3.107119e+04	
81	-4.05000e+00	3.166058e+04	
82	-4.10000e+00	3.223916e+04	
83	-4.15000e+00	3.280717e+04	
84	-4.20000e+00	3.336487e+04	
85	-4.25000e+00	3.391250e+04	
86	-4.30000e+00	3.445032e+04	
87	-4.35000e+00	3.497854e+04	
88	-4.40000e+00	3.549741e+04	
89	-4.45000e+00	3.600713e+04	
90	-4.50000e+00	3.650794e+04	
91	-4.55000e+00	3.700003e+04	
92	-4.60000e+00	3.748361e+04	
93	-4.65000e+00	3.795888e+04	
94	-4.70000e+00	3.842604e+04	
95	-4.75000e+00	3.888526e+04	
96	-4.80000e+00	3.933674e+04	
97	-4.85000e+00	3.978065e+04	
98	-4.90000e+00	4.021715e+04	
99	-4.95000e+00	4.064643e+04	
100	-5.00000e+00	4.106863e+04	
101	-5.05000e+00	4.148391e+04	
102	-5.10000e+00	4.189244e+04	
103	-5.15000e+00	4.229435e+04	
104	-5.20000e+00	4.268979e+04	
105	-5.25000e+00	4.307890e+04	
106	-5.30000e+00	4.346181e+04	
107	-5.35000e+00	4.383866e+04	
108	-5.40000e+00	4.420957e+04	
109	-5.45000e+00	4.457466e+04	
110	-5.50000e+00	4.493406e+04	
111	-5.55000e+00	4.528787e+04	
112	-5.60000e+00	4.563621e+04	

Index   v-sweep         rds             
--------------------------------------------------------------------------------
113	-5.65000e+00	4.597918e+04	
114	-5.70000e+00	4.631690e+04	
115	-5.75000e+00	4.664945e+04	
116	-5.80000e+00	4.697693e+04	
117	-5.85000e+00	4.729944e+04	
118	-5.90000e+00	4.761707e+04	
119	-5.95000e+00	4.792990e+04	
120	-6.00000e+00	4.823800e+04	
121	-6.05000e+00	4.854147e+04	
122	-6.10000e+00	4.884038e+04	
123	-6.15000e+00	4.913479e+04	
124	-6.20000e+00	4.942477e+04	
125	-6.25000e+00	4.971040e+04	
126	-6.30000e+00	4.999173e+04	
127	-6.35000e+00	5.026882e+04	
128	-6.40000e+00	5.054172e+04	
129	-6.45000e+00	5.081050e+04	
130	-6.50000e+00	5.107520e+04	
131	-6.55000e+00	5.133586e+04	
132	-6.60000e+00	5.159253e+04	
Reset re-loads circuit ***************************

Circuit: ***************************

Doing analysis at TEMP = 25.000000 and TNOM = 25.000000


No. of Data Rows : 133
                          ***************************
                          DC transfer characteristic  Mon Jan  9 13:57:54  2023
--------------------------------------------------------------------------------
Index   v-sweep         rds             
--------------------------------------------------------------------------------
0	0.000000e+00	1.138938e+03	
1	-5.00000e-02	1.160132e+03	
2	-1.00000e-01	1.181905e+03	
3	-1.50000e-01	1.204280e+03	
4	-2.00000e-01	1.227282e+03	
5	-2.50000e-01	1.250938e+03	
6	-3.00000e-01	1.275275e+03	
7	-3.50000e-01	1.300324e+03	
8	-4.00000e-01	1.326114e+03	
9	-4.50000e-01	1.352680e+03	
10	-5.00000e-01	1.380056e+03	
11	-5.50000e-01	1.408279e+03	
12	-6.00000e-01	1.437389e+03	
13	-6.50000e-01	1.467429e+03	
14	-7.00000e-01	1.498441e+03	
15	-7.50000e-01	1.530475e+03	
16	-8.00000e-01	1.563581e+03	
17	-8.50000e-01	1.597812e+03	
18	-9.00000e-01	1.633228e+03	
19	-9.50000e-01	1.669890e+03	
20	-1.00000e+00	1.707863e+03	
21	-1.05000e+00	1.747220e+03	
22	-1.10000e+00	1.788037e+03	
23	-1.15000e+00	1.830395e+03	
24	-1.20000e+00	1.874383e+03	
25	-1.25000e+00	1.920096e+03	
26	-1.30000e+00	1.967637e+03	
27	-1.35000e+00	2.017117e+03	
28	-1.40000e+00	2.068656e+03	
29	-1.45000e+00	2.122384e+03	
30	-1.50000e+00	2.178442e+03	
31	-1.55000e+00	2.236985e+03	
32	-1.60000e+00	2.298181e+03	
33	-1.65000e+00	2.362212e+03	
34	-1.70000e+00	2.429278e+03	
35	-1.75000e+00	2.499601e+03	
36	-1.80000e+00	2.573421e+03	
37	-1.85000e+00	2.651004e+03	
38	-1.90000e+00	2.732643e+03	
39	-1.95000e+00	2.818666e+03	
40	-2.00000e+00	2.909431e+03	
41	-2.05000e+00	3.005343e+03	
42	-2.10000e+00	3.106850e+03	
43	-2.15000e+00	3.214458e+03	
44	-2.20000e+00	3.328736e+03	
45	-2.25000e+00	3.450328e+03	
46	-2.30000e+00	3.579970e+03	
47	-2.35000e+00	3.718505e+03	
48	-2.40000e+00	3.866910e+03	
49	-2.45000e+00	4.026330e+03	
50	-2.50000e+00	4.198119e+03	
51	-2.55000e+00	4.383911e+03	
52	-2.60000e+00	4.585707e+03	
53	-2.65000e+00	4.806007e+03	
54	-2.70000e+00	5.047981e+03	

Index   v-sweep         rds             
--------------------------------------------------------------------------------
55	-2.75000e+00	5.315679e+03	
56	-2.80000e+00	5.614209e+03	
57	-2.85000e+00	5.949743e+03	
58	-2.90000e+00	6.329067e+03	
59	-2.95000e+00	6.758420e+03	
60	-3.00000e+00	7.241712e+03	
61	-3.05000e+00	7.778856e+03	
62	-3.10000e+00	8.365243e+03	
63	-3.15000e+00	8.992737e+03	
64	-3.20000e+00	9.651570e+03	
65	-3.25000e+00	1.033211e+04	
66	-3.30000e+00	1.102594e+04	
67	-3.35000e+00	1.172630e+04	
68	-3.40000e+00	1.242796e+04	
69	-3.45000e+00	1.312708e+04	
70	-3.50000e+00	1.382085e+04	
71	-3.55000e+00	1.450727e+04	
72	-3.60000e+00	1.518493e+04	
73	-3.65000e+00	1.585288e+04	
74	-3.70000e+00	1.651045e+04	
75	-3.75000e+00	1.715725e+04	
76	-3.80000e+00	1.779302e+04	
77	-3.85000e+00	1.841766e+04	
78	-3.90000e+00	1.903114e+04	
79	-3.95000e+00	1.963352e+04	
80	-4.00000e+00	2.022487e+04	
81	-4.05000e+00	2.080534e+04	
82	-4.10000e+00	2.137509e+04	
83	-4.15000e+00	2.193430e+04	
84	-4.20000e+00	2.248316e+04	
85	-4.25000e+00	2.302186e+04	
86	-4.30000e+00	2.355063e+04	
87	-4.35000e+00	2.406966e+04	
88	-4.40000e+00	2.457916e+04	
89	-4.45000e+00	2.507936e+04	
90	-4.50000e+00	2.557046e+04	
91	-4.55000e+00	2.605266e+04	
92	-4.60000e+00	2.652616e+04	
93	-4.65000e+00	2.699118e+04	
94	-4.70000e+00	2.744791e+04	
95	-4.75000e+00	2.789654e+04	
96	-4.80000e+00	2.833725e+04	
97	-4.85000e+00	2.877024e+04	
98	-4.90000e+00	2.919568e+04	
99	-4.95000e+00	2.961375e+04	
100	-5.00000e+00	3.002461e+04	
101	-5.05000e+00	3.042845e+04	
102	-5.10000e+00	3.082540e+04	
103	-5.15000e+00	3.121565e+04	
104	-5.20000e+00	3.159933e+04	
105	-5.25000e+00	3.197660e+04	
106	-5.30000e+00	3.234760e+04	
107	-5.35000e+00	3.271248e+04	
108	-5.40000e+00	3.307136e+04	
109	-5.45000e+00	3.342439e+04	
110	-5.50000e+00	3.377170e+04	
111	-5.55000e+00	3.411340e+04	
112	-5.60000e+00	3.444962e+04	

Index   v-sweep         rds             
--------------------------------------------------------------------------------
113	-5.65000e+00	3.478049e+04	
114	-5.70000e+00	3.510611e+04	
115	-5.75000e+00	3.542659e+04	
116	-5.80000e+00	3.574205e+04	
117	-5.85000e+00	3.605259e+04	
118	-5.90000e+00	3.635830e+04	
119	-5.95000e+00	3.665930e+04	
120	-6.00000e+00	3.695567e+04	
121	-6.05000e+00	3.724750e+04	
122	-6.10000e+00	3.753489e+04	
123	-6.15000e+00	3.781792e+04	
124	-6.20000e+00	3.809667e+04	
125	-6.25000e+00	3.837122e+04	
126	-6.30000e+00	3.864164e+04	
127	-6.35000e+00	3.890802e+04	
128	-6.40000e+00	3.917042e+04	
129	-6.45000e+00	3.942890e+04	
130	-6.50000e+00	3.968354e+04	
131	-6.55000e+00	3.993440e+04	
132	-6.60000e+00	4.018153e+04	
Reset re-loads circuit ***************************

Circuit: ***************************

Note: No ".plot", ".print", or ".fourier" lines; no simulations run
