
Note: Compatibility modes selected: hs

Warning: m=xx on .subckt line will override multiplier m hierarchy!


Circuit: ***************************

Doing analysis at TEMP = -40.000000 and TNOM = -40.000000


No. of Data Rows : 133
                          ***************************
                          DC transfer characteristic  Mon Jan  9 13:57:54  2023
--------------------------------------------------------------------------------
Index   v-sweep         rds             
--------------------------------------------------------------------------------
0	0.000000e+00	9.664540e+04	
1	-5.00000e-02	2.925408e+05	
2	-1.00000e-01	1.816296e+06	
3	-1.50000e-01	6.796463e+06	
4	-2.00000e-01	1.289482e+07	
5	-2.50000e-01	1.785429e+07	
6	-3.00000e-01	2.173220e+07	
7	-3.50000e-01	2.495439e+07	
8	-4.00000e-01	2.779179e+07	
9	-4.50000e-01	3.038942e+07	
10	-5.00000e-01	3.282531e+07	
11	-5.50000e-01	3.514342e+07	
12	-6.00000e-01	3.736986e+07	
13	-6.50000e-01	3.952103e+07	
14	-7.00000e-01	4.160774e+07	
15	-7.50000e-01	4.363748e+07	
16	-8.00000e-01	4.561566e+07	
17	-8.50000e-01	4.754633e+07	
18	-9.00000e-01	4.943269e+07	
19	-9.50000e-01	5.127729e+07	
20	-1.00000e+00	5.308225e+07	
21	-1.05000e+00	5.484939e+07	
22	-1.10000e+00	5.658027e+07	
23	-1.15000e+00	5.827630e+07	
24	-1.20000e+00	5.993872e+07	
25	-1.25000e+00	6.156867e+07	
26	-1.30000e+00	6.316720e+07	
27	-1.35000e+00	6.473530e+07	
28	-1.40000e+00	6.627386e+07	
29	-1.45000e+00	6.778374e+07	
30	-1.50000e+00	6.926576e+07	
31	-1.55000e+00	7.072068e+07	
32	-1.60000e+00	7.214924e+07	
33	-1.65000e+00	7.355212e+07	
34	-1.70000e+00	7.493001e+07	
35	-1.75000e+00	7.628354e+07	
36	-1.80000e+00	7.761332e+07	
37	-1.85000e+00	7.891994e+07	
38	-1.90000e+00	8.020399e+07	
39	-1.95000e+00	8.146600e+07	
40	-2.00000e+00	8.270650e+07	
41	-2.05000e+00	8.392601e+07	
42	-2.10000e+00	8.512503e+07	
43	-2.15000e+00	8.630403e+07	
44	-2.20000e+00	8.746347e+07	
45	-2.25000e+00	8.860380e+07	
46	-2.30000e+00	8.972547e+07	
47	-2.35000e+00	9.082888e+07	
48	-2.40000e+00	9.191445e+07	
49	-2.45000e+00	9.298257e+07	
50	-2.50000e+00	9.403363e+07	
51	-2.55000e+00	9.506800e+07	
52	-2.60000e+00	9.608603e+07	
53	-2.65000e+00	9.708810e+07	
54	-2.70000e+00	9.807452e+07	

Index   v-sweep         rds             
--------------------------------------------------------------------------------
55	-2.75000e+00	9.904564e+07	
56	-2.80000e+00	1.000018e+08	
57	-2.85000e+00	1.009432e+08	
58	-2.90000e+00	1.018703e+08	
59	-2.95000e+00	1.027833e+08	
60	-3.00000e+00	1.036825e+08	
61	-3.05000e+00	1.045683e+08	
62	-3.10000e+00	1.054407e+08	
63	-3.15000e+00	1.063002e+08	
64	-3.20000e+00	1.071470e+08	
65	-3.25000e+00	1.079812e+08	
66	-3.30000e+00	1.088032e+08	
67	-3.35000e+00	1.096133e+08	
68	-3.40000e+00	1.104115e+08	
69	-3.45000e+00	1.111981e+08	
70	-3.50000e+00	1.119734e+08	
71	-3.55000e+00	1.127375e+08	
72	-3.60000e+00	1.134907e+08	
73	-3.65000e+00	1.142331e+08	
74	-3.70000e+00	1.149650e+08	
75	-3.75000e+00	1.156864e+08	
76	-3.80000e+00	1.163976e+08	
77	-3.85000e+00	1.170987e+08	
78	-3.90000e+00	1.177900e+08	
79	-3.95000e+00	1.184715e+08	
80	-4.00000e+00	1.191434e+08	
81	-4.05000e+00	1.198058e+08	
82	-4.10000e+00	1.204590e+08	
83	-4.15000e+00	1.211030e+08	
84	-4.20000e+00	1.217379e+08	
85	-4.25000e+00	1.223640e+08	
86	-4.30000e+00	1.229812e+08	
87	-4.35000e+00	1.235898e+08	
88	-4.40000e+00	1.241898e+08	
89	-4.45000e+00	1.247813e+08	
90	-4.50000e+00	1.253645e+08	
91	-4.55000e+00	1.259394e+08	
92	-4.60000e+00	1.265062e+08	
93	-4.65000e+00	1.270650e+08	
94	-4.70000e+00	1.276157e+08	
95	-4.75000e+00	1.281586e+08	
96	-4.80000e+00	1.286936e+08	
97	-4.85000e+00	1.292210e+08	
98	-4.90000e+00	1.297406e+08	
99	-4.95000e+00	1.302527e+08	
100	-5.00000e+00	1.307573e+08	
101	-5.05000e+00	1.312545e+08	
102	-5.10000e+00	1.317442e+08	
103	-5.15000e+00	1.322267e+08	
104	-5.20000e+00	1.327019e+08	
105	-5.25000e+00	1.331699e+08	
106	-5.30000e+00	1.336307e+08	
107	-5.35000e+00	1.340845e+08	
108	-5.40000e+00	1.345312e+08	
109	-5.45000e+00	1.349710e+08	
110	-5.50000e+00	1.354038e+08	
111	-5.55000e+00	1.358297e+08	
112	-5.60000e+00	1.362488e+08	

Index   v-sweep         rds             
--------------------------------------------------------------------------------
113	-5.65000e+00	1.366610e+08	
114	-5.70000e+00	1.370665e+08	
115	-5.75000e+00	1.374653e+08	
116	-5.80000e+00	1.378574e+08	
117	-5.85000e+00	1.382428e+08	
118	-5.90000e+00	1.386217e+08	
119	-5.95000e+00	1.389940e+08	
120	-6.00000e+00	1.393597e+08	
121	-6.05000e+00	1.397190e+08	
122	-6.10000e+00	1.400718e+08	
123	-6.15000e+00	1.404182e+08	
124	-6.20000e+00	1.407582e+08	
125	-6.25000e+00	1.410918e+08	
126	-6.30000e+00	1.414191e+08	
127	-6.35000e+00	1.417402e+08	
128	-6.40000e+00	1.420549e+08	
129	-6.45000e+00	1.423635e+08	
130	-6.50000e+00	1.426659e+08	
131	-6.55000e+00	1.429621e+08	
132	-6.60000e+00	1.432522e+08	
Reset re-loads circuit ***************************

Circuit: ***************************

Doing analysis at TEMP = -40.000000 and TNOM = -40.000000


No. of Data Rows : 133
                          ***************************
                          DC transfer characteristic  Mon Jan  9 13:57:54  2023
--------------------------------------------------------------------------------
Index   v-sweep         rds             
--------------------------------------------------------------------------------
0	0.000000e+00	5.474641e+03	
1	-5.00000e-02	5.881259e+03	
2	-1.00000e-01	6.347358e+03	
3	-1.50000e-01	6.886965e+03	
4	-2.00000e-01	7.518869e+03	
5	-2.50000e-01	8.268800e+03	
6	-3.00000e-01	9.172920e+03	
7	-3.50000e-01	1.028359e+04	
8	-4.00000e-01	1.167926e+04	
9	-4.50000e-01	1.348226e+04	
10	-5.00000e-01	1.589183e+04	
11	-5.50000e-01	1.924747e+04	
12	-6.00000e-01	2.414768e+04	
13	-6.50000e-01	3.163861e+04	
14	-7.00000e-01	4.332202e+04	
15	-7.50000e-01	6.071636e+04	
16	-8.00000e-01	8.343763e+04	
17	-8.50000e-01	1.086938e+05	
18	-9.00000e-01	1.337220e+05	
19	-9.50000e-01	1.573613e+05	
20	-1.00000e+00	1.795332e+05	
21	-1.05000e+00	2.004913e+05	
22	-1.10000e+00	2.205001e+05	
23	-1.15000e+00	2.397607e+05	
24	-1.20000e+00	2.584141e+05	
25	-1.25000e+00	2.765573e+05	
26	-1.30000e+00	2.942580e+05	
27	-1.35000e+00	3.115643e+05	
28	-1.40000e+00	3.285118e+05	
29	-1.45000e+00	3.451271e+05	
30	-1.50000e+00	3.614311e+05	
31	-1.55000e+00	3.774406e+05	
32	-1.60000e+00	3.931693e+05	
33	-1.65000e+00	4.086290e+05	
34	-1.70000e+00	4.238298e+05	
35	-1.75000e+00	4.387805e+05	
36	-1.80000e+00	4.534891e+05	
37	-1.85000e+00	4.679628e+05	
38	-1.90000e+00	4.822084e+05	
39	-1.95000e+00	4.962319e+05	
40	-2.00000e+00	5.100391e+05	
41	-2.05000e+00	5.236355e+05	
42	-2.10000e+00	5.370261e+05	
43	-2.15000e+00	5.502159e+05	
44	-2.20000e+00	5.632096e+05	
45	-2.25000e+00	5.760115e+05	
46	-2.30000e+00	5.886261e+05	
47	-2.35000e+00	6.010573e+05	
48	-2.40000e+00	6.133092e+05	
49	-2.45000e+00	6.253857e+05	
50	-2.50000e+00	6.372904e+05	
51	-2.55000e+00	6.490269e+05	
52	-2.60000e+00	6.605987e+05	
53	-2.65000e+00	6.720092e+05	
54	-2.70000e+00	6.832617e+05	

Index   v-sweep         rds             
--------------------------------------------------------------------------------
55	-2.75000e+00	6.943593e+05	
56	-2.80000e+00	7.053051e+05	
57	-2.85000e+00	7.161022e+05	
58	-2.90000e+00	7.267534e+05	
59	-2.95000e+00	7.372617e+05	
60	-3.00000e+00	7.476297e+05	
61	-3.05000e+00	7.578601e+05	
62	-3.10000e+00	7.679557e+05	
63	-3.15000e+00	7.779188e+05	
64	-3.20000e+00	7.877521e+05	
65	-3.25000e+00	7.974580e+05	
66	-3.30000e+00	8.070387e+05	
67	-3.35000e+00	8.164966e+05	
68	-3.40000e+00	8.258340e+05	
69	-3.45000e+00	8.350530e+05	
70	-3.50000e+00	8.441557e+05	
71	-3.55000e+00	8.531443e+05	
72	-3.60000e+00	8.620207e+05	
73	-3.65000e+00	8.707869e+05	
74	-3.70000e+00	8.794447e+05	
75	-3.75000e+00	8.879962e+05	
76	-3.80000e+00	8.964429e+05	
77	-3.85000e+00	9.047868e+05	
78	-3.90000e+00	9.130295e+05	
79	-3.95000e+00	9.211727e+05	
80	-4.00000e+00	9.292179e+05	
81	-4.05000e+00	9.371667e+05	
82	-4.10000e+00	9.450207e+05	
83	-4.15000e+00	9.527812e+05	
84	-4.20000e+00	9.604498e+05	
85	-4.25000e+00	9.680277e+05	
86	-4.30000e+00	9.755162e+05	
87	-4.35000e+00	9.829167e+05	
88	-4.40000e+00	9.902304e+05	
89	-4.45000e+00	9.974584e+05	
90	-4.50000e+00	1.004602e+06	
91	-4.55000e+00	1.011662e+06	
92	-4.60000e+00	1.018640e+06	
93	-4.65000e+00	1.025536e+06	
94	-4.70000e+00	1.032352e+06	
95	-4.75000e+00	1.039088e+06	
96	-4.80000e+00	1.045746e+06	
97	-4.85000e+00	1.052326e+06	
98	-4.90000e+00	1.058829e+06	
99	-4.95000e+00	1.065256e+06	
100	-5.00000e+00	1.071607e+06	
101	-5.05000e+00	1.077884e+06	
102	-5.10000e+00	1.084086e+06	
103	-5.15000e+00	1.090215e+06	
104	-5.20000e+00	1.096271e+06	
105	-5.25000e+00	1.102254e+06	
106	-5.30000e+00	1.108166e+06	
107	-5.35000e+00	1.114006e+06	
108	-5.40000e+00	1.119775e+06	
109	-5.45000e+00	1.125474e+06	
110	-5.50000e+00	1.131102e+06	
111	-5.55000e+00	1.136661e+06	
112	-5.60000e+00	1.142150e+06	

Index   v-sweep         rds             
--------------------------------------------------------------------------------
113	-5.65000e+00	1.147571e+06	
114	-5.70000e+00	1.152922e+06	
115	-5.75000e+00	1.158205e+06	
116	-5.80000e+00	1.163420e+06	
117	-5.85000e+00	1.168566e+06	
118	-5.90000e+00	1.173645e+06	
119	-5.95000e+00	1.178656e+06	
120	-6.00000e+00	1.183600e+06	
121	-6.05000e+00	1.188477e+06	
122	-6.10000e+00	1.193286e+06	
123	-6.15000e+00	1.198029e+06	
124	-6.20000e+00	1.202704e+06	
125	-6.25000e+00	1.207314e+06	
126	-6.30000e+00	1.211856e+06	
127	-6.35000e+00	1.216332e+06	
128	-6.40000e+00	1.220742e+06	
129	-6.45000e+00	1.225085e+06	
130	-6.50000e+00	1.229362e+06	
131	-6.55000e+00	1.233573e+06	
132	-6.60000e+00	1.237718e+06	
Reset re-loads circuit ***************************

Circuit: ***************************

Doing analysis at TEMP = -40.000000 and TNOM = -40.000000


No. of Data Rows : 133
                          ***************************
                          DC transfer characteristic  Mon Jan  9 13:57:54  2023
--------------------------------------------------------------------------------
Index   v-sweep         rds             
--------------------------------------------------------------------------------
0	0.000000e+00	3.161477e+03	
1	-5.00000e-02	3.287250e+03	
2	-1.00000e-01	3.422040e+03	
3	-1.50000e-01	3.566852e+03	
4	-2.00000e-01	3.722841e+03	
5	-2.50000e-01	3.891350e+03	
6	-3.00000e-01	4.073944e+03	
7	-3.50000e-01	4.272460e+03	
8	-4.00000e-01	4.489069e+03	
9	-4.50000e-01	4.726354e+03	
10	-5.00000e-01	4.987412e+03	
11	-5.50000e-01	5.275987e+03	
12	-6.00000e-01	5.596653e+03	
13	-6.50000e-01	5.955045e+03	
14	-7.00000e-01	6.358190e+03	
15	-7.50000e-01	6.814957e+03	
16	-8.00000e-01	7.336688e+03	
17	-8.50000e-01	7.938103e+03	
18	-9.00000e-01	8.638607e+03	
19	-9.50000e-01	9.464224e+03	
20	-1.00000e+00	1.045046e+04	
21	-1.05000e+00	1.164655e+04	
22	-1.10000e+00	1.312168e+04	
23	-1.15000e+00	1.497325e+04	
24	-1.20000e+00	1.733574e+04	
25	-1.25000e+00	2.038246e+04	
26	-1.30000e+00	2.430092e+04	
27	-1.35000e+00	2.921715e+04	
28	-1.40000e+00	3.508923e+04	
29	-1.45000e+00	4.167792e+04	
30	-1.50000e+00	4.866011e+04	
31	-1.55000e+00	5.577077e+04	
32	-1.60000e+00	6.285243e+04	
33	-1.65000e+00	6.983081e+04	
34	-1.70000e+00	7.667763e+04	
35	-1.75000e+00	8.338576e+04	
36	-1.80000e+00	8.995661e+04	
37	-1.85000e+00	9.639462e+04	
38	-1.90000e+00	1.027049e+05	
39	-1.95000e+00	1.088925e+05	
40	-2.00000e+00	1.149621e+05	
41	-2.05000e+00	1.209179e+05	
42	-2.10000e+00	1.267638e+05	
43	-2.15000e+00	1.325033e+05	
44	-2.20000e+00	1.381397e+05	
45	-2.25000e+00	1.436759e+05	
46	-2.30000e+00	1.491149e+05	
47	-2.35000e+00	1.544593e+05	
48	-2.40000e+00	1.597116e+05	
49	-2.45000e+00	1.648742e+05	
50	-2.50000e+00	1.699495e+05	
51	-2.55000e+00	1.749396e+05	
52	-2.60000e+00	1.798467e+05	
53	-2.65000e+00	1.846728e+05	
54	-2.70000e+00	1.894198e+05	

Index   v-sweep         rds             
--------------------------------------------------------------------------------
55	-2.75000e+00	1.940896e+05	
56	-2.80000e+00	1.986842e+05	
57	-2.85000e+00	2.032051e+05	
58	-2.90000e+00	2.076542e+05	
59	-2.95000e+00	2.120331e+05	
60	-3.00000e+00	2.163433e+05	
61	-3.05000e+00	2.205866e+05	
62	-3.10000e+00	2.247642e+05	
63	-3.15000e+00	2.288778e+05	
64	-3.20000e+00	2.329286e+05	
65	-3.25000e+00	2.369182e+05	
66	-3.30000e+00	2.408478e+05	
67	-3.35000e+00	2.447188e+05	
68	-3.40000e+00	2.485323e+05	
69	-3.45000e+00	2.522896e+05	
70	-3.50000e+00	2.559920e+05	
71	-3.55000e+00	2.596405e+05	
72	-3.60000e+00	2.632363e+05	
73	-3.65000e+00	2.667805e+05	
74	-3.70000e+00	2.702741e+05	
75	-3.75000e+00	2.737182e+05	
76	-3.80000e+00	2.771138e+05	
77	-3.85000e+00	2.804618e+05	
78	-3.90000e+00	2.837633e+05	
79	-3.95000e+00	2.870191e+05	
80	-4.00000e+00	2.902301e+05	
81	-4.05000e+00	2.933973e+05	
82	-4.10000e+00	2.965215e+05	
83	-4.15000e+00	2.996035e+05	
84	-4.20000e+00	3.026440e+05	
85	-4.25000e+00	3.056440e+05	
86	-4.30000e+00	3.086041e+05	
87	-4.35000e+00	3.115252e+05	
88	-4.40000e+00	3.144078e+05	
89	-4.45000e+00	3.172527e+05	
90	-4.50000e+00	3.200607e+05	
91	-4.55000e+00	3.228322e+05	
92	-4.60000e+00	3.255681e+05	
93	-4.65000e+00	3.282688e+05	
94	-4.70000e+00	3.309351e+05	
95	-4.75000e+00	3.335673e+05	
96	-4.80000e+00	3.361662e+05	
97	-4.85000e+00	3.387323e+05	
98	-4.90000e+00	3.412660e+05	
99	-4.95000e+00	3.437679e+05	
100	-5.00000e+00	3.462384e+05	
101	-5.05000e+00	3.486781e+05	
102	-5.10000e+00	3.510873e+05	
103	-5.15000e+00	3.534664e+05	
104	-5.20000e+00	3.558160e+05	
105	-5.25000e+00	3.581364e+05	
106	-5.30000e+00	3.604279e+05	
107	-5.35000e+00	3.626909e+05	
108	-5.40000e+00	3.649258e+05	
109	-5.45000e+00	3.671328e+05	
110	-5.50000e+00	3.693124e+05	
111	-5.55000e+00	3.714647e+05	
112	-5.60000e+00	3.735901e+05	

Index   v-sweep         rds             
--------------------------------------------------------------------------------
113	-5.65000e+00	3.756889e+05	
114	-5.70000e+00	3.777612e+05	
115	-5.75000e+00	3.798074e+05	
116	-5.80000e+00	3.818276e+05	
117	-5.85000e+00	3.838221e+05	
118	-5.90000e+00	3.857910e+05	
119	-5.95000e+00	3.877346e+05	
120	-6.00000e+00	3.896530e+05	
121	-6.05000e+00	3.915464e+05	
122	-6.10000e+00	3.934150e+05	
123	-6.15000e+00	3.952588e+05	
124	-6.20000e+00	3.970781e+05	
125	-6.25000e+00	3.988729e+05	
126	-6.30000e+00	4.006433e+05	
127	-6.35000e+00	4.023896e+05	
128	-6.40000e+00	4.041117e+05	
129	-6.45000e+00	4.058097e+05	
130	-6.50000e+00	4.074839e+05	
131	-6.55000e+00	4.091341e+05	
132	-6.60000e+00	4.107605e+05	
Reset re-loads circuit ***************************

Circuit: ***************************

Doing analysis at TEMP = -40.000000 and TNOM = -40.000000


No. of Data Rows : 133
                          ***************************
                          DC transfer characteristic  Mon Jan  9 13:57:54  2023
--------------------------------------------------------------------------------
Index   v-sweep         rds             
--------------------------------------------------------------------------------
0	0.000000e+00	2.385208e+03	
1	-5.00000e-02	2.451819e+03	
2	-1.00000e-01	2.521613e+03	
3	-1.50000e-01	2.594822e+03	
4	-2.00000e-01	2.671702e+03	
5	-2.50000e-01	2.752535e+03	
6	-3.00000e-01	2.837633e+03	
7	-3.50000e-01	2.927342e+03	
8	-4.00000e-01	3.022044e+03	
9	-4.50000e-01	3.122167e+03	
10	-5.00000e-01	3.228189e+03	
11	-5.50000e-01	3.340645e+03	
12	-6.00000e-01	3.460136e+03	
13	-6.50000e-01	3.587342e+03	
14	-7.00000e-01	3.723033e+03	
15	-7.50000e-01	3.868083e+03	
16	-8.00000e-01	4.023491e+03	
17	-8.50000e-01	4.190405e+03	
18	-9.00000e-01	4.370147e+03	
19	-9.50000e-01	4.564247e+03	
20	-1.00000e+00	4.774491e+03	
21	-1.05000e+00	5.002969e+03	
22	-1.10000e+00	5.252149e+03	
23	-1.15000e+00	5.524960e+03	
24	-1.20000e+00	5.824907e+03	
25	-1.25000e+00	6.156214e+03	
26	-1.30000e+00	6.524019e+03	
27	-1.35000e+00	6.934625e+03	
28	-1.40000e+00	7.395839e+03	
29	-1.45000e+00	7.917427e+03	
30	-1.50000e+00	8.511726e+03	
31	-1.55000e+00	9.194474e+03	
32	-1.60000e+00	9.985897e+03	
33	-1.65000e+00	1.091210e+04	
34	-1.70000e+00	1.200664e+04	
35	-1.75000e+00	1.331187e+04	
36	-1.80000e+00	1.487880e+04	
37	-1.85000e+00	1.676296e+04	
38	-1.90000e+00	1.901304e+04	
39	-1.95000e+00	2.165211e+04	
40	-2.00000e+00	2.466040e+04	
41	-2.05000e+00	2.797471e+04	
42	-2.10000e+00	3.150823e+04	
43	-2.15000e+00	3.517598e+04	
44	-2.20000e+00	3.891004e+04	
45	-2.25000e+00	4.266248e+04	
46	-2.30000e+00	4.640186e+04	
47	-2.35000e+00	5.010837e+04	
48	-2.40000e+00	5.376983e+04	
49	-2.45000e+00	5.737890e+04	
50	-2.50000e+00	6.093132e+04	
51	-2.55000e+00	6.442478e+04	
52	-2.60000e+00	6.785821e+04	
53	-2.65000e+00	7.123135e+04	
54	-2.70000e+00	7.454447e+04	

Index   v-sweep         rds             
--------------------------------------------------------------------------------
55	-2.75000e+00	7.779819e+04	
56	-2.80000e+00	8.099336e+04	
57	-2.85000e+00	8.413096e+04	
58	-2.90000e+00	8.721209e+04	
59	-2.95000e+00	9.023790e+04	
60	-3.00000e+00	9.320957e+04	
61	-3.05000e+00	9.612830e+04	
62	-3.10000e+00	9.899527e+04	
63	-3.15000e+00	1.018117e+05	
64	-3.20000e+00	1.045787e+05	
65	-3.25000e+00	1.072975e+05	
66	-3.30000e+00	1.099693e+05	
67	-3.35000e+00	1.125950e+05	
68	-3.40000e+00	1.151759e+05	
69	-3.45000e+00	1.177129e+05	
70	-3.50000e+00	1.202071e+05	
71	-3.55000e+00	1.226595e+05	
72	-3.60000e+00	1.250712e+05	
73	-3.65000e+00	1.274429e+05	
74	-3.70000e+00	1.297758e+05	
75	-3.75000e+00	1.320706e+05	
76	-3.80000e+00	1.343282e+05	
77	-3.85000e+00	1.365496e+05	
78	-3.90000e+00	1.387355e+05	
79	-3.95000e+00	1.408867e+05	
80	-4.00000e+00	1.430040e+05	
81	-4.05000e+00	1.450882e+05	
82	-4.10000e+00	1.471401e+05	
83	-4.15000e+00	1.491603e+05	
84	-4.20000e+00	1.511495e+05	
85	-4.25000e+00	1.531084e+05	
86	-4.30000e+00	1.550377e+05	
87	-4.35000e+00	1.569380e+05	
88	-4.40000e+00	1.588099e+05	
89	-4.45000e+00	1.606541e+05	
90	-4.50000e+00	1.624711e+05	
91	-4.55000e+00	1.642615e+05	
92	-4.60000e+00	1.660259e+05	
93	-4.65000e+00	1.677648e+05	
94	-4.70000e+00	1.694786e+05	
95	-4.75000e+00	1.711681e+05	
96	-4.80000e+00	1.728335e+05	
97	-4.85000e+00	1.744754e+05	
98	-4.90000e+00	1.760943e+05	
99	-4.95000e+00	1.776906e+05	
100	-5.00000e+00	1.792648e+05	
101	-5.05000e+00	1.808173e+05	
102	-5.10000e+00	1.823484e+05	
103	-5.15000e+00	1.838587e+05	
104	-5.20000e+00	1.853484e+05	
105	-5.25000e+00	1.868179e+05	
106	-5.30000e+00	1.882677e+05	
107	-5.35000e+00	1.896980e+05	
108	-5.40000e+00	1.911092e+05	
109	-5.45000e+00	1.925016e+05	
110	-5.50000e+00	1.938756e+05	
111	-5.55000e+00	1.952313e+05	
112	-5.60000e+00	1.965692e+05	

Index   v-sweep         rds             
--------------------------------------------------------------------------------
113	-5.65000e+00	1.978894e+05	
114	-5.70000e+00	1.991923e+05	
115	-5.75000e+00	2.004781e+05	
116	-5.80000e+00	2.017471e+05	
117	-5.85000e+00	2.029994e+05	
118	-5.90000e+00	2.042354e+05	
119	-5.95000e+00	2.054551e+05	
120	-6.00000e+00	2.066589e+05	
121	-6.05000e+00	2.078469e+05	
122	-6.10000e+00	2.090193e+05	
123	-6.15000e+00	2.101763e+05	
124	-6.20000e+00	2.113180e+05	
125	-6.25000e+00	2.124446e+05	
126	-6.30000e+00	2.135563e+05	
127	-6.35000e+00	2.146531e+05	
128	-6.40000e+00	2.157353e+05	
129	-6.45000e+00	2.168029e+05	
130	-6.50000e+00	2.178561e+05	
131	-6.55000e+00	2.188950e+05	
132	-6.60000e+00	2.199196e+05	
Reset re-loads circuit ***************************

Circuit: ***************************

Doing analysis at TEMP = -40.000000 and TNOM = -40.000000


No. of Data Rows : 133
                          ***************************
                          DC transfer characteristic  Mon Jan  9 13:57:54  2023
--------------------------------------------------------------------------------
Index   v-sweep         rds             
--------------------------------------------------------------------------------
0	0.000000e+00	2.000204e+03	
1	-5.00000e-02	2.043791e+03	
2	-1.00000e-01	2.088945e+03	
3	-1.50000e-01	2.135749e+03	
4	-2.00000e-01	2.184297e+03	
5	-2.50000e-01	2.234686e+03	
6	-3.00000e-01	2.287022e+03	
7	-3.50000e-01	2.341420e+03	
8	-4.00000e-01	2.398004e+03	
9	-4.50000e-01	2.456908e+03	
10	-5.00000e-01	2.518276e+03	
11	-5.50000e-01	2.582266e+03	
12	-6.00000e-01	2.649048e+03	
13	-6.50000e-01	2.718809e+03	
14	-7.00000e-01	2.791751e+03	
15	-7.50000e-01	2.868096e+03	
16	-8.00000e-01	2.948087e+03	
17	-8.50000e-01	3.031991e+03	
18	-9.00000e-01	3.120101e+03	
19	-9.50000e-01	3.212740e+03	
20	-1.00000e+00	3.310264e+03	
21	-1.05000e+00	3.413071e+03	
22	-1.10000e+00	3.521598e+03	
23	-1.15000e+00	3.636335e+03	
24	-1.20000e+00	3.757829e+03	
25	-1.25000e+00	3.886694e+03	
26	-1.30000e+00	4.023617e+03	
27	-1.35000e+00	4.169376e+03	
28	-1.40000e+00	4.324852e+03	
29	-1.45000e+00	4.491046e+03	
30	-1.50000e+00	4.669101e+03	
31	-1.55000e+00	4.860326e+03	
32	-1.60000e+00	5.066233e+03	
33	-1.65000e+00	5.288569e+03	
34	-1.70000e+00	5.529371e+03	
35	-1.75000e+00	5.791021e+03	
36	-1.80000e+00	6.076328e+03	
37	-1.85000e+00	6.388620e+03	
38	-1.90000e+00	6.731870e+03	
39	-1.95000e+00	7.110856e+03	
40	-2.00000e+00	7.531365e+03	
41	-2.05000e+00	8.000458e+03	
42	-2.10000e+00	8.526813e+03	
43	-2.15000e+00	9.121154e+03	
44	-2.20000e+00	9.796777e+03	
45	-2.25000e+00	1.057013e+04	
46	-2.30000e+00	1.146127e+04	
47	-2.35000e+00	1.249396e+04	
48	-2.40000e+00	1.369442e+04	
49	-2.45000e+00	1.508803e+04	
50	-2.50000e+00	1.669318e+04	
51	-2.55000e+00	1.851391e+04	
52	-2.60000e+00	2.053528e+04	
53	-2.65000e+00	2.272548e+04	
54	-2.70000e+00	2.504361e+04	

Index   v-sweep         rds             
--------------------------------------------------------------------------------
55	-2.75000e+00	2.744856e+04	
56	-2.80000e+00	2.990478e+04	
57	-2.85000e+00	3.238443e+04	
58	-2.90000e+00	3.486698e+04	
59	-2.95000e+00	3.733785e+04	
60	-3.00000e+00	3.978695e+04	
61	-3.05000e+00	4.220741e+04	
62	-3.10000e+00	4.459466e+04	
63	-3.15000e+00	4.694573e+04	
64	-3.20000e+00	4.925875e+04	
65	-3.25000e+00	5.153267e+04	
66	-3.30000e+00	5.376699e+04	
67	-3.35000e+00	5.596159e+04	
68	-3.40000e+00	5.811664e+04	
69	-3.45000e+00	6.023252e+04	
70	-3.50000e+00	6.230973e+04	
71	-3.55000e+00	6.434889e+04	
72	-3.60000e+00	6.635067e+04	
73	-3.65000e+00	6.831580e+04	
74	-3.70000e+00	7.024503e+04	
75	-3.75000e+00	7.213914e+04	
76	-3.80000e+00	7.399889e+04	
77	-3.85000e+00	7.582507e+04	
78	-3.90000e+00	7.761845e+04	
79	-3.95000e+00	7.937980e+04	
80	-4.00000e+00	8.110986e+04	
81	-4.05000e+00	8.280939e+04	
82	-4.10000e+00	8.447910e+04	
83	-4.15000e+00	8.611971e+04	
84	-4.20000e+00	8.773191e+04	
85	-4.25000e+00	8.931637e+04	
86	-4.30000e+00	9.087377e+04	
87	-4.35000e+00	9.240473e+04	
88	-4.40000e+00	9.390989e+04	
89	-4.45000e+00	9.538986e+04	
90	-4.50000e+00	9.684523e+04	
91	-4.55000e+00	9.827657e+04	
92	-4.60000e+00	9.968444e+04	
93	-4.65000e+00	1.010694e+05	
94	-4.70000e+00	1.024320e+05	
95	-4.75000e+00	1.037726e+05	
96	-4.80000e+00	1.050919e+05	
97	-4.85000e+00	1.063903e+05	
98	-4.90000e+00	1.076683e+05	
99	-4.95000e+00	1.089264e+05	
100	-5.00000e+00	1.101649e+05	
101	-5.05000e+00	1.113843e+05	
102	-5.10000e+00	1.125850e+05	
103	-5.15000e+00	1.137675e+05	
104	-5.20000e+00	1.149321e+05	
105	-5.25000e+00	1.160792e+05	
106	-5.30000e+00	1.172092e+05	
107	-5.35000e+00	1.183225e+05	
108	-5.40000e+00	1.194193e+05	
109	-5.45000e+00	1.205001e+05	
110	-5.50000e+00	1.215652e+05	
111	-5.55000e+00	1.226149e+05	
112	-5.60000e+00	1.236494e+05	

Index   v-sweep         rds             
--------------------------------------------------------------------------------
113	-5.65000e+00	1.246691e+05	
114	-5.70000e+00	1.256743e+05	
115	-5.75000e+00	1.266653e+05	
116	-5.80000e+00	1.276423e+05	
117	-5.85000e+00	1.286056e+05	
118	-5.90000e+00	1.295555e+05	
119	-5.95000e+00	1.304921e+05	
120	-6.00000e+00	1.314157e+05	
121	-6.05000e+00	1.323266e+05	
122	-6.10000e+00	1.332250e+05	
123	-6.15000e+00	1.341110e+05	
124	-6.20000e+00	1.349849e+05	
125	-6.25000e+00	1.358468e+05	
126	-6.30000e+00	1.366970e+05	
127	-6.35000e+00	1.375357e+05	
128	-6.40000e+00	1.383629e+05	
129	-6.45000e+00	1.391788e+05	
130	-6.50000e+00	1.399837e+05	
131	-6.55000e+00	1.407776e+05	
132	-6.60000e+00	1.415607e+05	
Reset re-loads circuit ***************************

Circuit: ***************************

Doing analysis at TEMP = -40.000000 and TNOM = -40.000000


No. of Data Rows : 133
                          ***************************
                          DC transfer characteristic  Mon Jan  9 13:57:54  2023
--------------------------------------------------------------------------------
Index   v-sweep         rds             
--------------------------------------------------------------------------------
0	0.000000e+00	1.772978e+03	
1	-5.00000e-02	1.804859e+03	
2	-1.00000e-01	1.837659e+03	
3	-1.50000e-01	1.871417e+03	
4	-2.00000e-01	1.906176e+03	
5	-2.50000e-01	1.941981e+03	
6	-3.00000e-01	1.978878e+03	
7	-3.50000e-01	2.016919e+03	
8	-4.00000e-01	2.056157e+03	
9	-4.50000e-01	2.096649e+03	
10	-5.00000e-01	2.138455e+03	
11	-5.50000e-01	2.181642e+03	
12	-6.00000e-01	2.226276e+03	
13	-6.50000e-01	2.272433e+03	
14	-7.00000e-01	2.320191e+03	
15	-7.50000e-01	2.369634e+03	
16	-8.00000e-01	2.420852e+03	
17	-8.50000e-01	2.473943e+03	
18	-9.00000e-01	2.529010e+03	
19	-9.50000e-01	2.586166e+03	
20	-1.00000e+00	2.645531e+03	
21	-1.05000e+00	2.707234e+03	
22	-1.10000e+00	2.771417e+03	
23	-1.15000e+00	2.838231e+03	
24	-1.20000e+00	2.907840e+03	
25	-1.25000e+00	2.980424e+03	
26	-1.30000e+00	3.056175e+03	
27	-1.35000e+00	3.135305e+03	
28	-1.40000e+00	3.218046e+03	
29	-1.45000e+00	3.304647e+03	
30	-1.50000e+00	3.395385e+03	
31	-1.55000e+00	3.490563e+03	
32	-1.60000e+00	3.590513e+03	
33	-1.65000e+00	3.695602e+03	
34	-1.70000e+00	3.806236e+03	
35	-1.75000e+00	3.922863e+03	
36	-1.80000e+00	4.045982e+03	
37	-1.85000e+00	4.176149e+03	
38	-1.90000e+00	4.313984e+03	
39	-1.95000e+00	4.460183e+03	
40	-2.00000e+00	4.615528e+03	
41	-2.05000e+00	4.780901e+03	
42	-2.10000e+00	4.957302e+03	
43	-2.15000e+00	5.145868e+03	
44	-2.20000e+00	5.347896e+03	
45	-2.25000e+00	5.564875e+03	
46	-2.30000e+00	5.798520e+03	
47	-2.35000e+00	6.050822e+03	
48	-2.40000e+00	6.324096e+03	
49	-2.45000e+00	6.621059e+03	
50	-2.50000e+00	6.944919e+03	
51	-2.55000e+00	7.299486e+03	
52	-2.60000e+00	7.689324e+03	
53	-2.65000e+00	8.119938e+03	
54	-2.70000e+00	8.598017e+03	

Index   v-sweep         rds             
--------------------------------------------------------------------------------
55	-2.75000e+00	9.131728e+03	
56	-2.80000e+00	9.731054e+03	
57	-2.85000e+00	1.040809e+04	
58	-2.90000e+00	1.117713e+04	
59	-2.95000e+00	1.205418e+04	
60	-3.00000e+00	1.305535e+04	
61	-3.05000e+00	1.419380e+04	
62	-3.10000e+00	1.547578e+04	
63	-3.15000e+00	1.689730e+04	
64	-3.20000e+00	1.844380e+04	
65	-3.25000e+00	2.009295e+04	
66	-3.30000e+00	2.181926e+04	
67	-3.35000e+00	2.359818e+04	
68	-3.40000e+00	2.540850e+04	
69	-3.45000e+00	2.723322e+04	
70	-3.50000e+00	2.905933e+04	
71	-3.55000e+00	3.087718e+04	
72	-3.60000e+00	3.267980e+04	
73	-3.65000e+00	3.446222e+04	
74	-3.70000e+00	3.622098e+04	
75	-3.75000e+00	3.795370e+04	
76	-3.80000e+00	3.965883e+04	
77	-3.85000e+00	4.133539e+04	
78	-3.90000e+00	4.298285e+04	
79	-3.95000e+00	4.460097e+04	
80	-4.00000e+00	4.618977e+04	
81	-4.05000e+00	4.774943e+04	
82	-4.10000e+00	4.928025e+04	
83	-4.15000e+00	5.078263e+04	
84	-4.20000e+00	5.225702e+04	
85	-4.25000e+00	5.370393e+04	
86	-4.30000e+00	5.512389e+04	
87	-4.35000e+00	5.651747e+04	
88	-4.40000e+00	5.788522e+04	
89	-4.45000e+00	5.922773e+04	
90	-4.50000e+00	6.054558e+04	
91	-4.55000e+00	6.183932e+04	
92	-4.60000e+00	6.310953e+04	
93	-4.65000e+00	6.435676e+04	
94	-4.70000e+00	6.558157e+04	
95	-4.75000e+00	6.678450e+04	
96	-4.80000e+00	6.796606e+04	
97	-4.85000e+00	6.912678e+04	
98	-4.90000e+00	7.026716e+04	
99	-4.95000e+00	7.138769e+04	
100	-5.00000e+00	7.248885e+04	
101	-5.05000e+00	7.357110e+04	
102	-5.10000e+00	7.463489e+04	
103	-5.15000e+00	7.568067e+04	
104	-5.20000e+00	7.670887e+04	
105	-5.25000e+00	7.771989e+04	
106	-5.30000e+00	7.871415e+04	
107	-5.35000e+00	7.969203e+04	
108	-5.40000e+00	8.065393e+04	
109	-5.45000e+00	8.160020e+04	
110	-5.50000e+00	8.253122e+04	
111	-5.55000e+00	8.344732e+04	
112	-5.60000e+00	8.434885e+04	

Index   v-sweep         rds             
--------------------------------------------------------------------------------
113	-5.65000e+00	8.523614e+04	
114	-5.70000e+00	8.610950e+04	
115	-5.75000e+00	8.696926e+04	
116	-5.80000e+00	8.781570e+04	
117	-5.85000e+00	8.864911e+04	
118	-5.90000e+00	8.946980e+04	
119	-5.95000e+00	9.027801e+04	
120	-6.00000e+00	9.107403e+04	
121	-6.05000e+00	9.185811e+04	
122	-6.10000e+00	9.263049e+04	
123	-6.15000e+00	9.339143e+04	
124	-6.20000e+00	9.414114e+04	
125	-6.25000e+00	9.487987e+04	
126	-6.30000e+00	9.560782e+04	
127	-6.35000e+00	9.632520e+04	
128	-6.40000e+00	9.703223e+04	
129	-6.45000e+00	9.772909e+04	
130	-6.50000e+00	9.841597e+04	
131	-6.55000e+00	9.909306e+04	
132	-6.60000e+00	9.976052e+04	
Reset re-loads circuit ***************************

Circuit: ***************************

Note: No ".plot", ".print", or ".fourier" lines; no simulations run
