
Note: Compatibility modes selected: hs

Warning: m=xx on .subckt line will override multiplier m hierarchy!


Circuit: ***************************

Doing analysis at TEMP = -40.000000 and TNOM = -40.000000


No. of Data Rows : 133
                          ***************************
                          DC transfer characteristic  Mon Jan  9 13:57:54  2023
--------------------------------------------------------------------------------
Index   v-sweep         rds             
--------------------------------------------------------------------------------
0	0.000000e+00	6.215709e+06	
1	-5.00000e-02	2.275560e+07	
2	-1.00000e-01	1.780105e+08	
3	-1.50000e-01	8.494159e+08	
4	-2.00000e-01	2.280026e+09	
5	-2.50000e-01	4.277146e+09	
6	-3.00000e-01	6.435294e+09	
7	-3.50000e-01	8.451981e+09	
8	-4.00000e-01	1.020586e+10	
9	-4.50000e-01	1.168940e+10	
10	-5.00000e-01	1.293915e+10	
11	-5.50000e-01	1.399958e+10	
12	-6.00000e-01	1.490998e+10	
13	-6.50000e-01	1.570168e+10	
14	-7.00000e-01	1.639866e+10	
15	-7.50000e-01	1.701911e+10	
16	-8.00000e-01	1.757686e+10	
17	-8.50000e-01	1.808249e+10	
18	-9.00000e-01	1.854421e+10	
19	-9.50000e-01	1.896851e+10	
20	-1.00000e+00	1.936051e+10	
21	-1.05000e+00	1.972439e+10	
22	-1.10000e+00	2.006355e+10	
23	-1.15000e+00	2.038081e+10	
24	-1.20000e+00	2.067851e+10	
25	-1.25000e+00	2.095867e+10	
26	-1.30000e+00	2.122297e+10	
27	-1.35000e+00	2.147288e+10	
28	-1.40000e+00	2.170967e+10	
29	-1.45000e+00	2.193445e+10	
30	-1.50000e+00	2.214819e+10	
31	-1.55000e+00	2.235176e+10	
32	-1.60000e+00	2.254592e+10	
33	-1.65000e+00	2.273135e+10	
34	-1.70000e+00	2.290867e+10	
35	-1.75000e+00	2.307843e+10	
36	-1.80000e+00	2.324113e+10	
37	-1.85000e+00	2.339723e+10	
38	-1.90000e+00	2.354713e+10	
39	-1.95000e+00	2.369121e+10	
40	-2.00000e+00	2.382982e+10	
41	-2.05000e+00	2.396328e+10	
42	-2.10000e+00	2.409188e+10	
43	-2.15000e+00	2.421588e+10	
44	-2.20000e+00	2.433553e+10	
45	-2.25000e+00	2.445107e+10	
46	-2.30000e+00	2.456271e+10	
47	-2.35000e+00	2.467065e+10	
48	-2.40000e+00	2.477506e+10	
49	-2.45000e+00	2.487613e+10	
50	-2.50000e+00	2.497400e+10	
51	-2.55000e+00	2.506885e+10	
52	-2.60000e+00	2.516079e+10	
53	-2.65000e+00	2.524998e+10	
54	-2.70000e+00	2.533652e+10	

Index   v-sweep         rds             
--------------------------------------------------------------------------------
55	-2.75000e+00	2.542054e+10	
56	-2.80000e+00	2.550214e+10	
57	-2.85000e+00	2.558143e+10	
58	-2.90000e+00	2.565850e+10	
59	-2.95000e+00	2.573345e+10	
60	-3.00000e+00	2.580637e+10	
61	-3.05000e+00	2.587732e+10	
62	-3.10000e+00	2.594640e+10	
63	-3.15000e+00	2.601367e+10	
64	-3.20000e+00	2.607921e+10	
65	-3.25000e+00	2.614307e+10	
66	-3.30000e+00	2.620533e+10	
67	-3.35000e+00	2.626604e+10	
68	-3.40000e+00	2.632525e+10	
69	-3.45000e+00	2.638302e+10	
70	-3.50000e+00	2.643940e+10	
71	-3.55000e+00	2.649444e+10	
72	-3.60000e+00	2.654818e+10	
73	-3.65000e+00	2.660067e+10	
74	-3.70000e+00	2.665195e+10	
75	-3.75000e+00	2.670206e+10	
76	-3.80000e+00	2.675103e+10	
77	-3.85000e+00	2.679891e+10	
78	-3.90000e+00	2.684572e+10	
79	-3.95000e+00	2.689150e+10	
80	-4.00000e+00	2.693629e+10	
81	-4.05000e+00	2.698010e+10	
82	-4.10000e+00	2.702297e+10	
83	-4.15000e+00	2.706493e+10	
84	-4.20000e+00	2.710601e+10	
85	-4.25000e+00	2.714621e+10	
86	-4.30000e+00	2.718559e+10	
87	-4.35000e+00	2.722414e+10	
88	-4.40000e+00	2.726190e+10	
89	-4.45000e+00	2.729889e+10	
90	-4.50000e+00	2.733513e+10	
91	-4.55000e+00	2.737063e+10	
92	-4.60000e+00	2.740542e+10	
93	-4.65000e+00	2.743952e+10	
94	-4.70000e+00	2.747293e+10	
95	-4.75000e+00	2.750568e+10	
96	-4.80000e+00	2.753778e+10	
97	-4.85000e+00	2.756925e+10	
98	-4.90000e+00	2.760010e+10	
99	-4.95000e+00	2.763034e+10	
100	-5.00000e+00	2.766000e+10	
101	-5.05000e+00	2.768908e+10	
102	-5.10000e+00	2.771759e+10	
103	-5.15000e+00	2.774555e+10	
104	-5.20000e+00	2.777296e+10	
105	-5.25000e+00	2.779985e+10	
106	-5.30000e+00	2.782622e+10	
107	-5.35000e+00	2.785207e+10	
108	-5.40000e+00	2.787743e+10	
109	-5.45000e+00	2.790229e+10	
110	-5.50000e+00	2.792668e+10	
111	-5.55000e+00	2.795059e+10	
112	-5.60000e+00	2.797404e+10	

Index   v-sweep         rds             
--------------------------------------------------------------------------------
113	-5.65000e+00	2.799703e+10	
114	-5.70000e+00	2.801958e+10	
115	-5.75000e+00	2.804169e+10	
116	-5.80000e+00	2.806336e+10	
117	-5.85000e+00	2.808462e+10	
118	-5.90000e+00	2.810545e+10	
119	-5.95000e+00	2.812588e+10	
120	-6.00000e+00	2.814590e+10	
121	-6.05000e+00	2.816553e+10	
122	-6.10000e+00	2.818476e+10	
123	-6.15000e+00	2.820361e+10	
124	-6.20000e+00	2.822209e+10	
125	-6.25000e+00	2.824019e+10	
126	-6.30000e+00	2.825792e+10	
127	-6.35000e+00	2.827530e+10	
128	-6.40000e+00	2.829231e+10	
129	-6.45000e+00	2.830898e+10	
130	-6.50000e+00	2.832530e+10	
131	-6.55000e+00	2.834129e+10	
132	-6.60000e+00	2.835693e+10	
Reset re-loads circuit ***************************

Circuit: ***************************

Doing analysis at TEMP = -40.000000 and TNOM = -40.000000


No. of Data Rows : 133
                          ***************************
                          DC transfer characteristic  Mon Jan  9 13:57:54  2023
--------------------------------------------------------------------------------
Index   v-sweep         rds             
--------------------------------------------------------------------------------
0	0.000000e+00	3.128568e+05	
1	-5.00000e-02	3.359851e+05	
2	-1.00000e-01	3.627731e+05	
3	-1.50000e-01	3.941609e+05	
4	-2.00000e-01	4.314388e+05	
5	-2.50000e-01	4.764256e+05	
6	-3.00000e-01	5.317652e+05	
7	-3.50000e-01	6.014453e+05	
8	-4.00000e-01	6.917486e+05	
9	-4.50000e-01	8.131023e+05	
10	-5.00000e-01	9.839130e+05	
11	-5.50000e-01	1.239051e+06	
12	-6.00000e-01	1.649634e+06	
13	-6.50000e-01	2.369175e+06	
14	-7.00000e-01	3.726671e+06	
15	-7.50000e-01	6.329923e+06	
16	-8.00000e-01	1.094172e+07	
17	-8.50000e-01	1.791294e+07	
18	-9.00000e-01	2.669930e+07	
19	-9.50000e-01	3.616879e+07	
20	-1.00000e+00	4.530449e+07	
21	-1.05000e+00	5.355259e+07	
22	-1.10000e+00	6.075773e+07	
23	-1.15000e+00	6.697898e+07	
24	-1.20000e+00	7.235321e+07	
25	-1.25000e+00	7.702625e+07	
26	-1.30000e+00	8.112664e+07	
27	-1.35000e+00	8.475952e+07	
28	-1.40000e+00	8.800829e+07	
29	-1.45000e+00	9.093840e+07	
30	-1.50000e+00	9.360125e+07	
31	-1.55000e+00	9.603746e+07	
32	-1.60000e+00	9.827938e+07	
33	-1.65000e+00	1.003531e+08	
34	-1.70000e+00	1.022798e+08	
35	-1.75000e+00	1.040771e+08	
36	-1.80000e+00	1.057593e+08	
37	-1.85000e+00	1.073389e+08	
38	-1.90000e+00	1.088260e+08	
39	-1.95000e+00	1.102297e+08	
40	-2.00000e+00	1.115575e+08	
41	-2.05000e+00	1.128160e+08	
42	-2.10000e+00	1.140112e+08	
43	-2.15000e+00	1.151480e+08	
44	-2.20000e+00	1.162311e+08	
45	-2.25000e+00	1.172644e+08	
46	-2.30000e+00	1.182516e+08	
47	-2.35000e+00	1.191958e+08	
48	-2.40000e+00	1.201001e+08	
49	-2.45000e+00	1.209669e+08	
50	-2.50000e+00	1.217988e+08	
51	-2.55000e+00	1.225979e+08	
52	-2.60000e+00	1.233662e+08	
53	-2.65000e+00	1.241054e+08	
54	-2.70000e+00	1.248174e+08	

Index   v-sweep         rds             
--------------------------------------------------------------------------------
55	-2.75000e+00	1.255036e+08	
56	-2.80000e+00	1.261654e+08	
57	-2.85000e+00	1.268042e+08	
58	-2.90000e+00	1.274212e+08	
59	-2.95000e+00	1.280174e+08	
60	-3.00000e+00	1.285941e+08	
61	-3.05000e+00	1.291520e+08	
62	-3.10000e+00	1.296922e+08	
63	-3.15000e+00	1.302155e+08	
64	-3.20000e+00	1.307226e+08	
65	-3.25000e+00	1.312144e+08	
66	-3.30000e+00	1.316916e+08	
67	-3.35000e+00	1.321547e+08	
68	-3.40000e+00	1.326044e+08	
69	-3.45000e+00	1.330413e+08	
70	-3.50000e+00	1.334659e+08	
71	-3.55000e+00	1.338787e+08	
72	-3.60000e+00	1.342803e+08	
73	-3.65000e+00	1.346710e+08	
74	-3.70000e+00	1.350514e+08	
75	-3.75000e+00	1.354218e+08	
76	-3.80000e+00	1.357826e+08	
77	-3.85000e+00	1.361342e+08	
78	-3.90000e+00	1.364769e+08	
79	-3.95000e+00	1.368110e+08	
80	-4.00000e+00	1.371369e+08	
81	-4.05000e+00	1.374549e+08	
82	-4.10000e+00	1.377652e+08	
83	-4.15000e+00	1.380682e+08	
84	-4.20000e+00	1.383640e+08	
85	-4.25000e+00	1.386529e+08	
86	-4.30000e+00	1.389352e+08	
87	-4.35000e+00	1.392110e+08	
88	-4.40000e+00	1.394806e+08	
89	-4.45000e+00	1.397442e+08	
90	-4.50000e+00	1.400020e+08	
91	-4.55000e+00	1.402541e+08	
92	-4.60000e+00	1.405007e+08	
93	-4.65000e+00	1.407420e+08	
94	-4.70000e+00	1.409782e+08	
95	-4.75000e+00	1.412094e+08	
96	-4.80000e+00	1.414357e+08	
97	-4.85000e+00	1.416573e+08	
98	-4.90000e+00	1.418743e+08	
99	-4.95000e+00	1.420868e+08	
100	-5.00000e+00	1.422951e+08	
101	-5.05000e+00	1.424991e+08	
102	-5.10000e+00	1.426990e+08	
103	-5.15000e+00	1.428949e+08	
104	-5.20000e+00	1.430869e+08	
105	-5.25000e+00	1.432751e+08	
106	-5.30000e+00	1.434596e+08	
107	-5.35000e+00	1.436404e+08	
108	-5.40000e+00	1.438178e+08	
109	-5.45000e+00	1.439917e+08	
110	-5.50000e+00	1.441622e+08	
111	-5.55000e+00	1.443295e+08	
112	-5.60000e+00	1.444935e+08	

Index   v-sweep         rds             
--------------------------------------------------------------------------------
113	-5.65000e+00	1.446544e+08	
114	-5.70000e+00	1.448123e+08	
115	-5.75000e+00	1.449671e+08	
116	-5.80000e+00	1.451189e+08	
117	-5.85000e+00	1.452679e+08	
118	-5.90000e+00	1.454141e+08	
119	-5.95000e+00	1.455575e+08	
120	-6.00000e+00	1.456982e+08	
121	-6.05000e+00	1.458362e+08	
122	-6.10000e+00	1.459716e+08	
123	-6.15000e+00	1.461044e+08	
124	-6.20000e+00	1.462348e+08	
125	-6.25000e+00	1.463626e+08	
126	-6.30000e+00	1.464881e+08	
127	-6.35000e+00	1.466111e+08	
128	-6.40000e+00	1.467318e+08	
129	-6.45000e+00	1.468502e+08	
130	-6.50000e+00	1.469664e+08	
131	-6.55000e+00	1.470803e+08	
132	-6.60000e+00	1.471921e+08	
Reset re-loads circuit ***************************

Circuit: ***************************

Doing analysis at TEMP = -40.000000 and TNOM = -40.000000


No. of Data Rows : 133
                          ***************************
                          DC transfer characteristic  Mon Jan  9 13:57:54  2023
--------------------------------------------------------------------------------
Index   v-sweep         rds             
--------------------------------------------------------------------------------
0	0.000000e+00	1.718142e+05	
1	-5.00000e-02	1.780595e+05	
2	-1.00000e-01	1.847699e+05	
3	-1.50000e-01	1.919992e+05	
4	-2.00000e-01	1.998100e+05	
5	-2.50000e-01	2.082753e+05	
6	-3.00000e-01	2.174809e+05	
7	-3.50000e-01	2.275282e+05	
8	-4.00000e-01	2.385379e+05	
9	-4.50000e-01	2.506551e+05	
10	-5.00000e-01	2.640553e+05	
11	-5.50000e-01	2.789531e+05	
12	-6.00000e-01	2.956135e+05	
13	-6.50000e-01	3.143676e+05	
14	-7.00000e-01	3.356345e+05	
15	-7.50000e-01	3.599519e+05	
16	-8.00000e-01	3.880212e+05	
17	-8.50000e-01	4.207735e+05	
18	-9.00000e-01	4.594698e+05	
19	-9.50000e-01	5.058573e+05	
20	-1.00000e+00	5.624189e+05	
21	-1.05000e+00	6.327856e+05	
22	-1.10000e+00	7.224367e+05	
23	-1.15000e+00	8.399248e+05	
24	-1.20000e+00	9.990538e+05	
25	-1.25000e+00	1.222744e+06	
26	-1.30000e+00	1.549526e+06	
27	-1.35000e+00	2.042677e+06	
28	-1.40000e+00	2.796932e+06	
29	-1.45000e+00	3.926086e+06	
30	-1.50000e+00	5.510872e+06	
31	-1.55000e+00	7.525403e+06	
32	-1.60000e+00	9.816991e+06	
33	-1.65000e+00	1.217598e+07	
34	-1.70000e+00	1.442836e+07	
35	-1.75000e+00	1.647736e+07	
36	-1.80000e+00	1.829318e+07	
37	-1.85000e+00	1.988533e+07	
38	-1.90000e+00	2.127995e+07	
39	-1.95000e+00	2.250686e+07	
40	-2.00000e+00	2.359367e+07	
41	-2.05000e+00	2.456390e+07	
42	-2.10000e+00	2.543680e+07	
43	-2.15000e+00	2.622789e+07	
44	-2.20000e+00	2.694962e+07	
45	-2.25000e+00	2.761201e+07	
46	-2.30000e+00	2.822315e+07	
47	-2.35000e+00	2.878965e+07	
48	-2.40000e+00	2.931695e+07	
49	-2.45000e+00	2.980955e+07	
50	-2.50000e+00	3.027125e+07	
51	-2.55000e+00	3.070523e+07	
52	-2.60000e+00	3.111424e+07	
53	-2.65000e+00	3.150061e+07	
54	-2.70000e+00	3.186637e+07	

Index   v-sweep         rds             
--------------------------------------------------------------------------------
55	-2.75000e+00	3.221330e+07	
56	-2.80000e+00	3.254294e+07	
57	-2.85000e+00	3.285668e+07	
58	-2.90000e+00	3.315572e+07	
59	-2.95000e+00	3.344116e+07	
60	-3.00000e+00	3.371395e+07	
61	-3.05000e+00	3.397499e+07	
62	-3.10000e+00	3.422504e+07	
63	-3.15000e+00	3.446484e+07	
64	-3.20000e+00	3.469503e+07	
65	-3.25000e+00	3.491621e+07	
66	-3.30000e+00	3.512891e+07	
67	-3.35000e+00	3.533363e+07	
68	-3.40000e+00	3.553083e+07	
69	-3.45000e+00	3.572093e+07	
70	-3.50000e+00	3.590432e+07	
71	-3.55000e+00	3.608135e+07	
72	-3.60000e+00	3.625237e+07	
73	-3.65000e+00	3.641768e+07	
74	-3.70000e+00	3.657756e+07	
75	-3.75000e+00	3.673229e+07	
76	-3.80000e+00	3.688212e+07	
77	-3.85000e+00	3.702727e+07	
78	-3.90000e+00	3.716798e+07	
79	-3.95000e+00	3.730443e+07	
80	-4.00000e+00	3.743683e+07	
81	-4.05000e+00	3.756536e+07	
82	-4.10000e+00	3.769018e+07	
83	-4.15000e+00	3.781145e+07	
84	-4.20000e+00	3.792933e+07	
85	-4.25000e+00	3.804395e+07	
86	-4.30000e+00	3.815545e+07	
87	-4.35000e+00	3.826395e+07	
88	-4.40000e+00	3.836958e+07	
89	-4.45000e+00	3.847245e+07	
90	-4.50000e+00	3.857266e+07	
91	-4.55000e+00	3.867032e+07	
92	-4.60000e+00	3.876552e+07	
93	-4.65000e+00	3.885835e+07	
94	-4.70000e+00	3.894890e+07	
95	-4.75000e+00	3.903725e+07	
96	-4.80000e+00	3.912348e+07	
97	-4.85000e+00	3.920766e+07	
98	-4.90000e+00	3.928987e+07	
99	-4.95000e+00	3.937016e+07	
100	-5.00000e+00	3.944861e+07	
101	-5.05000e+00	3.952528e+07	
102	-5.10000e+00	3.960022e+07	
103	-5.15000e+00	3.967349e+07	
104	-5.20000e+00	3.974514e+07	
105	-5.25000e+00	3.981523e+07	
106	-5.30000e+00	3.988379e+07	
107	-5.35000e+00	3.995088e+07	
108	-5.40000e+00	4.001655e+07	
109	-5.45000e+00	4.008082e+07	
110	-5.50000e+00	4.014375e+07	
111	-5.55000e+00	4.020536e+07	
112	-5.60000e+00	4.026571e+07	

Index   v-sweep         rds             
--------------------------------------------------------------------------------
113	-5.65000e+00	4.032482e+07	
114	-5.70000e+00	4.038272e+07	
115	-5.75000e+00	4.043945e+07	
116	-5.80000e+00	4.049505e+07	
117	-5.85000e+00	4.054953e+07	
118	-5.90000e+00	4.060292e+07	
119	-5.95000e+00	4.065527e+07	
120	-6.00000e+00	4.070658e+07	
121	-6.05000e+00	4.075689e+07	
122	-6.10000e+00	4.080621e+07	
123	-6.15000e+00	4.085458e+07	
124	-6.20000e+00	4.090202e+07	
125	-6.25000e+00	4.094854e+07	
126	-6.30000e+00	4.099417e+07	
127	-6.35000e+00	4.103892e+07	
128	-6.40000e+00	4.108282e+07	
129	-6.45000e+00	4.112588e+07	
130	-6.50000e+00	4.116812e+07	
131	-6.55000e+00	4.120956e+07	
132	-6.60000e+00	4.125021e+07	
Reset re-loads circuit ***************************

Circuit: ***************************

Doing analysis at TEMP = -40.000000 and TNOM = -40.000000


No. of Data Rows : 133
                          ***************************
                          DC transfer characteristic  Mon Jan  9 13:57:54  2023
--------------------------------------------------------------------------------
Index   v-sweep         rds             
--------------------------------------------------------------------------------
0	0.000000e+00	1.250313e+05	
1	-5.00000e-02	1.280292e+05	
2	-1.00000e-01	1.311717e+05	
3	-1.50000e-01	1.344697e+05	
4	-2.00000e-01	1.379350e+05	
5	-2.50000e-01	1.415806e+05	
6	-3.00000e-01	1.454210e+05	
7	-3.50000e-01	1.494722e+05	
8	-4.00000e-01	1.537520e+05	
9	-4.50000e-01	1.582804e+05	
10	-5.00000e-01	1.630796e+05	
11	-5.50000e-01	1.681746e+05	
12	-6.00000e-01	1.735937e+05	
13	-6.50000e-01	1.793687e+05	
14	-7.00000e-01	1.855359e+05	
15	-7.50000e-01	1.921365e+05	
16	-8.00000e-01	1.992179e+05	
17	-8.50000e-01	2.068345e+05	
18	-9.00000e-01	2.150491e+05	
19	-9.50000e-01	2.239351e+05	
20	-1.00000e+00	2.335779e+05	
21	-1.05000e+00	2.440782e+05	
22	-1.10000e+00	2.555554e+05	
23	-1.15000e+00	2.681518e+05	
24	-1.20000e+00	2.820389e+05	
25	-1.25000e+00	2.974244e+05	
26	-1.30000e+00	3.145631e+05	
27	-1.35000e+00	3.337701e+05	
28	-1.40000e+00	3.554400e+05	
29	-1.45000e+00	3.800726e+05	
30	-1.50000e+00	4.083105e+05	
31	-1.55000e+00	4.409910e+05	
32	-1.60000e+00	4.792244e+05	
33	-1.65000e+00	5.245087e+05	
34	-1.70000e+00	5.789038e+05	
35	-1.75000e+00	6.453000e+05	
36	-1.80000e+00	7.278352e+05	
37	-1.85000e+00	8.325442e+05	
38	-1.90000e+00	9.683509e+05	
39	-1.95000e+00	1.148496e+06	
40	-2.00000e+00	1.392290e+06	
41	-2.05000e+00	1.726405e+06	
42	-2.10000e+00	2.183419e+06	
43	-2.15000e+00	2.793922e+06	
44	-2.20000e+00	3.570686e+06	
45	-2.25000e+00	4.492706e+06	
46	-2.30000e+00	5.504474e+06	
47	-2.35000e+00	6.535521e+06	
48	-2.40000e+00	7.525414e+06	
49	-2.45000e+00	8.437108e+06	
50	-2.50000e+00	9.256142e+06	
51	-2.55000e+00	9.983154e+06	
52	-2.60000e+00	1.062640e+07	
53	-2.65000e+00	1.119672e+07	
54	-2.70000e+00	1.170493e+07	

Index   v-sweep         rds             
--------------------------------------------------------------------------------
55	-2.75000e+00	1.216067e+07	
56	-2.80000e+00	1.257209e+07	
57	-2.85000e+00	1.294593e+07	
58	-2.90000e+00	1.328768e+07	
59	-2.95000e+00	1.360184e+07	
60	-3.00000e+00	1.389207e+07	
61	-3.05000e+00	1.416140e+07	
62	-3.10000e+00	1.441231e+07	
63	-3.15000e+00	1.464690e+07	
64	-3.20000e+00	1.486692e+07	
65	-3.25000e+00	1.507385e+07	
66	-3.30000e+00	1.526897e+07	
67	-3.35000e+00	1.545338e+07	
68	-3.40000e+00	1.562803e+07	
69	-3.45000e+00	1.579375e+07	
70	-3.50000e+00	1.595127e+07	
71	-3.55000e+00	1.610124e+07	
72	-3.60000e+00	1.624422e+07	
73	-3.65000e+00	1.638074e+07	
74	-3.70000e+00	1.651124e+07	
75	-3.75000e+00	1.663614e+07	
76	-3.80000e+00	1.675582e+07	
77	-3.85000e+00	1.687061e+07	
78	-3.90000e+00	1.698083e+07	
79	-3.95000e+00	1.708674e+07	
80	-4.00000e+00	1.718861e+07	
81	-4.05000e+00	1.728668e+07	
82	-4.10000e+00	1.738116e+07	
83	-4.15000e+00	1.747224e+07	
84	-4.20000e+00	1.756013e+07	
85	-4.25000e+00	1.764498e+07	
86	-4.30000e+00	1.772695e+07	
87	-4.35000e+00	1.780620e+07	
88	-4.40000e+00	1.788285e+07	
89	-4.45000e+00	1.795704e+07	
90	-4.50000e+00	1.802888e+07	
91	-4.55000e+00	1.809850e+07	
92	-4.60000e+00	1.816598e+07	
93	-4.65000e+00	1.823143e+07	
94	-4.70000e+00	1.829493e+07	
95	-4.75000e+00	1.835659e+07	
96	-4.80000e+00	1.841647e+07	
97	-4.85000e+00	1.847465e+07	
98	-4.90000e+00	1.853121e+07	
99	-4.95000e+00	1.858620e+07	
100	-5.00000e+00	1.863971e+07	
101	-5.05000e+00	1.869178e+07	
102	-5.10000e+00	1.874247e+07	
103	-5.15000e+00	1.879184e+07	
104	-5.20000e+00	1.883993e+07	
105	-5.25000e+00	1.888681e+07	
106	-5.30000e+00	1.893250e+07	
107	-5.35000e+00	1.897706e+07	
108	-5.40000e+00	1.902052e+07	
109	-5.45000e+00	1.906294e+07	
110	-5.50000e+00	1.910433e+07	
111	-5.55000e+00	1.914475e+07	
112	-5.60000e+00	1.918421e+07	

Index   v-sweep         rds             
--------------------------------------------------------------------------------
113	-5.65000e+00	1.922276e+07	
114	-5.70000e+00	1.926043e+07	
115	-5.75000e+00	1.929724e+07	
116	-5.80000e+00	1.933322e+07	
117	-5.85000e+00	1.936841e+07	
118	-5.90000e+00	1.940281e+07	
119	-5.95000e+00	1.943647e+07	
120	-6.00000e+00	1.946939e+07	
121	-6.05000e+00	1.950161e+07	
122	-6.10000e+00	1.953315e+07	
123	-6.15000e+00	1.956401e+07	
124	-6.20000e+00	1.959423e+07	
125	-6.25000e+00	1.962383e+07	
126	-6.30000e+00	1.965281e+07	
127	-6.35000e+00	1.968120e+07	
128	-6.40000e+00	1.970901e+07	
129	-6.45000e+00	1.973626e+07	
130	-6.50000e+00	1.976296e+07	
131	-6.55000e+00	1.978913e+07	
132	-6.60000e+00	1.981478e+07	
Reset re-loads circuit ***************************

Circuit: ***************************

Doing analysis at TEMP = -40.000000 and TNOM = -40.000000


No. of Data Rows : 133
                          ***************************
                          DC transfer characteristic  Mon Jan  9 13:57:54  2023
--------------------------------------------------------------------------------
Index   v-sweep         rds             
--------------------------------------------------------------------------------
0	0.000000e+00	1.019818e+05	
1	-5.00000e-02	1.037978e+05	
2	-1.00000e-01	1.056782e+05	
3	-1.50000e-01	1.076266e+05	
4	-2.00000e-01	1.096467e+05	
5	-2.50000e-01	1.117424e+05	
6	-3.00000e-01	1.139182e+05	
7	-3.50000e-01	1.161787e+05	
8	-4.00000e-01	1.185290e+05	
9	-4.50000e-01	1.209744e+05	
10	-5.00000e-01	1.235210e+05	
11	-5.50000e-01	1.261751e+05	
12	-6.00000e-01	1.289437e+05	
13	-6.50000e-01	1.318343e+05	
14	-7.00000e-01	1.348551e+05	
15	-7.50000e-01	1.380153e+05	
16	-8.00000e-01	1.413245e+05	
17	-8.50000e-01	1.447938e+05	
18	-9.00000e-01	1.484348e+05	
19	-9.50000e-01	1.522607e+05	
20	-1.00000e+00	1.562859e+05	
21	-1.05000e+00	1.605264e+05	
22	-1.10000e+00	1.650000e+05	
23	-1.15000e+00	1.697263e+05	
24	-1.20000e+00	1.747273e+05	
25	-1.25000e+00	1.800278e+05	
26	-1.30000e+00	1.856554e+05	
27	-1.35000e+00	1.916412e+05	
28	-1.40000e+00	1.980206e+05	
29	-1.45000e+00	2.048335e+05	
30	-1.50000e+00	2.121257e+05	
31	-1.55000e+00	2.199494e+05	
32	-1.60000e+00	2.283646e+05	
33	-1.65000e+00	2.374409e+05	
34	-1.70000e+00	2.472591e+05	
35	-1.75000e+00	2.579134e+05	
36	-1.80000e+00	2.695150e+05	
37	-1.85000e+00	2.821950e+05	
38	-1.90000e+00	2.961100e+05	
39	-1.95000e+00	3.114481e+05	
40	-2.00000e+00	3.284369e+05	
41	-2.05000e+00	3.473546e+05	
42	-2.10000e+00	3.685441e+05	
43	-2.15000e+00	3.924331e+05	
44	-2.20000e+00	4.195603e+05	
45	-2.25000e+00	4.506127e+05	
46	-2.30000e+00	4.864776e+05	
47	-2.35000e+00	5.283159e+05	
48	-2.40000e+00	5.776674e+05	
49	-2.45000e+00	6.366016e+05	
50	-2.50000e+00	7.079325e+05	
51	-2.55000e+00	7.955195e+05	
52	-2.60000e+00	9.046699e+05	
53	-2.65000e+00	1.042618e+06	
54	-2.70000e+00	1.218948e+06	

Index   v-sweep         rds             
--------------------------------------------------------------------------------
55	-2.75000e+00	1.445595e+06	
56	-2.80000e+00	1.735673e+06	
57	-2.85000e+00	2.100227e+06	
58	-2.90000e+00	2.542821e+06	
59	-2.95000e+00	3.054229e+06	
60	-3.00000e+00	3.611547e+06	
61	-3.05000e+00	4.184013e+06	
62	-3.10000e+00	4.742316e+06	
63	-3.15000e+00	5.265528e+06	
64	-3.20000e+00	5.742879e+06	
65	-3.25000e+00	6.171750e+06	
66	-3.30000e+00	6.554510e+06	
67	-3.35000e+00	6.895869e+06	
68	-3.40000e+00	7.201188e+06	
69	-3.45000e+00	7.475602e+06	
70	-3.50000e+00	7.723655e+06	
71	-3.55000e+00	7.949209e+06	
72	-3.60000e+00	8.155479e+06	
73	-3.65000e+00	8.345122e+06	
74	-3.70000e+00	8.520329e+06	
75	-3.75000e+00	8.682913e+06	
76	-3.80000e+00	8.834379e+06	
77	-3.85000e+00	8.975986e+06	
78	-3.90000e+00	9.108796e+06	
79	-3.95000e+00	9.233708e+06	
80	-4.00000e+00	9.351492e+06	
81	-4.05000e+00	9.462813e+06	
82	-4.10000e+00	9.568246e+06	
83	-4.15000e+00	9.668291e+06	
84	-4.20000e+00	9.763391e+06	
85	-4.25000e+00	9.853935e+06	
86	-4.30000e+00	9.940268e+06	
87	-4.35000e+00	1.002270e+07	
88	-4.40000e+00	1.010151e+07	
89	-4.45000e+00	1.017694e+07	
90	-4.50000e+00	1.024921e+07	
91	-4.55000e+00	1.031854e+07	
92	-4.60000e+00	1.038511e+07	
93	-4.65000e+00	1.044909e+07	
94	-4.70000e+00	1.051062e+07	
95	-4.75000e+00	1.056986e+07	
96	-4.80000e+00	1.062694e+07	
97	-4.85000e+00	1.068197e+07	
98	-4.90000e+00	1.073506e+07	
99	-4.95000e+00	1.078633e+07	
100	-5.00000e+00	1.083586e+07	
101	-5.05000e+00	1.088374e+07	
102	-5.10000e+00	1.093005e+07	
103	-5.15000e+00	1.097488e+07	
104	-5.20000e+00	1.101830e+07	
105	-5.25000e+00	1.106036e+07	
106	-5.30000e+00	1.110114e+07	
107	-5.35000e+00	1.114069e+07	
108	-5.40000e+00	1.117907e+07	
109	-5.45000e+00	1.121632e+07	
110	-5.50000e+00	1.125251e+07	
111	-5.55000e+00	1.128767e+07	
112	-5.60000e+00	1.132185e+07	

Index   v-sweep         rds             
--------------------------------------------------------------------------------
113	-5.65000e+00	1.135509e+07	
114	-5.70000e+00	1.138742e+07	
115	-5.75000e+00	1.141889e+07	
116	-5.80000e+00	1.144953e+07	
117	-5.85000e+00	1.147936e+07	
118	-5.90000e+00	1.150843e+07	
119	-5.95000e+00	1.153676e+07	
120	-6.00000e+00	1.156437e+07	
121	-6.05000e+00	1.159130e+07	
122	-6.10000e+00	1.161757e+07	
123	-6.15000e+00	1.164321e+07	
124	-6.20000e+00	1.166822e+07	
125	-6.25000e+00	1.169265e+07	
126	-6.30000e+00	1.171650e+07	
127	-6.35000e+00	1.173980e+07	
128	-6.40000e+00	1.176257e+07	
129	-6.45000e+00	1.178482e+07	
130	-6.50000e+00	1.180656e+07	
131	-6.55000e+00	1.182783e+07	
132	-6.60000e+00	1.184862e+07	
Reset re-loads circuit ***************************

Circuit: ***************************

Doing analysis at TEMP = -40.000000 and TNOM = -40.000000


No. of Data Rows : 133
                          ***************************
                          DC transfer characteristic  Mon Jan  9 13:57:54  2023
--------------------------------------------------------------------------------
Index   v-sweep         rds             
--------------------------------------------------------------------------------
0	0.000000e+00	8.843896e+04	
1	-5.00000e-02	8.968632e+04	
2	-1.00000e-01	9.096848e+04	
3	-1.50000e-01	9.228692e+04	
4	-2.00000e-01	9.364321e+04	
5	-2.50000e-01	9.503898e+04	
6	-3.00000e-01	9.647599e+04	
7	-3.50000e-01	9.795610e+04	
8	-4.00000e-01	9.948128e+04	
9	-4.50000e-01	1.010536e+05	
10	-5.00000e-01	1.026753e+05	
11	-5.50000e-01	1.043487e+05	
12	-6.00000e-01	1.060764e+05	
13	-6.50000e-01	1.078610e+05	
14	-7.00000e-01	1.097055e+05	
15	-7.50000e-01	1.116127e+05	
16	-8.00000e-01	1.135861e+05	
17	-8.50000e-01	1.156291e+05	
18	-9.00000e-01	1.177454e+05	
19	-9.50000e-01	1.199391e+05	
20	-1.00000e+00	1.222145e+05	
21	-1.05000e+00	1.245763e+05	
22	-1.10000e+00	1.270294e+05	
23	-1.15000e+00	1.295792e+05	
24	-1.20000e+00	1.322317e+05	
25	-1.25000e+00	1.349930e+05	
26	-1.30000e+00	1.378701e+05	
27	-1.35000e+00	1.408704e+05	
28	-1.40000e+00	1.440019e+05	
29	-1.45000e+00	1.472735e+05	
30	-1.50000e+00	1.506947e+05	
31	-1.55000e+00	1.542760e+05	
32	-1.60000e+00	1.580290e+05	
33	-1.65000e+00	1.619663e+05	
34	-1.70000e+00	1.661017e+05	
35	-1.75000e+00	1.704506e+05	
36	-1.80000e+00	1.750299e+05	
37	-1.85000e+00	1.798584e+05	
38	-1.90000e+00	1.849570e+05	
39	-1.95000e+00	1.903489e+05	
40	-2.00000e+00	1.960602e+05	
41	-2.05000e+00	2.021199e+05	
42	-2.10000e+00	2.085609e+05	
43	-2.15000e+00	2.154202e+05	
44	-2.20000e+00	2.227398e+05	
45	-2.25000e+00	2.305675e+05	
46	-2.30000e+00	2.389577e+05	
47	-2.35000e+00	2.479731e+05	
48	-2.40000e+00	2.576857e+05	
49	-2.45000e+00	2.681793e+05	
50	-2.50000e+00	2.795510e+05	
51	-2.55000e+00	2.919150e+05	
52	-2.60000e+00	3.054058e+05	
53	-2.65000e+00	3.201826e+05	
54	-2.70000e+00	3.364360e+05	

Index   v-sweep         rds             
--------------------------------------------------------------------------------
55	-2.75000e+00	3.543952e+05	
56	-2.80000e+00	3.743379e+05	
57	-2.85000e+00	3.966040e+05	
58	-2.90000e+00	4.216128e+05	
59	-2.95000e+00	4.498861e+05	
60	-3.00000e+00	4.820800e+05	
61	-3.05000e+00	5.190268e+05	
62	-3.10000e+00	5.617927e+05	
63	-3.15000e+00	6.117544e+05	
64	-3.20000e+00	6.707020e+05	
65	-3.25000e+00	7.409705e+05	
66	-3.30000e+00	8.255982e+05	
67	-3.35000e+00	9.284910e+05	
68	-3.40000e+00	1.054531e+06	
69	-3.45000e+00	1.209495e+06	
70	-3.50000e+00	1.399534e+06	
71	-3.55000e+00	1.629950e+06	
72	-3.60000e+00	1.903145e+06	
73	-3.65000e+00	2.216313e+06	
74	-3.70000e+00	2.560184e+06	
75	-3.75000e+00	2.920212e+06	
76	-3.80000e+00	3.280079e+06	
77	-3.85000e+00	3.625687e+06	
78	-3.90000e+00	3.947597e+06	
79	-3.95000e+00	4.241311e+06	
80	-4.00000e+00	4.506153e+06	
81	-4.05000e+00	4.743780e+06	
82	-4.10000e+00	4.956948e+06	
83	-4.15000e+00	5.148711e+06	
84	-4.20000e+00	5.321993e+06	
85	-4.25000e+00	5.479395e+06	
86	-4.30000e+00	5.623148e+06	
87	-4.35000e+00	5.755127e+06	
88	-4.40000e+00	5.876892e+06	
89	-4.45000e+00	5.989742e+06	
90	-4.50000e+00	6.094758e+06	
91	-4.55000e+00	6.192843e+06	
92	-4.60000e+00	6.284757e+06	
93	-4.65000e+00	6.371144e+06	
94	-4.70000e+00	6.452552e+06	
95	-4.75000e+00	6.529453e+06	
96	-4.80000e+00	6.602255e+06	
97	-4.85000e+00	6.671311e+06	
98	-4.90000e+00	6.736933e+06	
99	-4.95000e+00	6.799394e+06	
100	-5.00000e+00	6.858936e+06	
101	-5.05000e+00	6.915776e+06	
102	-5.10000e+00	6.970106e+06	
103	-5.15000e+00	7.022100e+06	
104	-5.20000e+00	7.071915e+06	
105	-5.25000e+00	7.119693e+06	
106	-5.30000e+00	7.165561e+06	
107	-5.35000e+00	7.209638e+06	
108	-5.40000e+00	7.252031e+06	
109	-5.45000e+00	7.292839e+06	
110	-5.50000e+00	7.332151e+06	
111	-5.55000e+00	7.370051e+06	
112	-5.60000e+00	7.406617e+06	

Index   v-sweep         rds             
--------------------------------------------------------------------------------
113	-5.65000e+00	7.441919e+06	
114	-5.70000e+00	7.476023e+06	
115	-5.75000e+00	7.508991e+06	
116	-5.80000e+00	7.540879e+06	
117	-5.85000e+00	7.571741e+06	
118	-5.90000e+00	7.601626e+06	
119	-5.95000e+00	7.630581e+06	
120	-6.00000e+00	7.658649e+06	
121	-6.05000e+00	7.685871e+06	
122	-6.10000e+00	7.712284e+06	
123	-6.15000e+00	7.737925e+06	
124	-6.20000e+00	7.762827e+06	
125	-6.25000e+00	7.787022e+06	
126	-6.30000e+00	7.810540e+06	
127	-6.35000e+00	7.833409e+06	
128	-6.40000e+00	7.855655e+06	
129	-6.45000e+00	7.877304e+06	
130	-6.50000e+00	7.898380e+06	
131	-6.55000e+00	7.918904e+06	
132	-6.60000e+00	7.938899e+06	
Reset re-loads circuit ***************************

Circuit: ***************************

Note: No ".plot", ".print", or ".fourier" lines; no simulations run
