
Note: Compatibility modes selected: hs

Warning: m=xx on .subckt line will override multiplier m hierarchy!


Circuit: ***************************

Doing analysis at TEMP = -40.000000 and TNOM = -40.000000


No. of Data Rows : 133
                          ***************************
                          DC transfer characteristic  Mon Jan  9 13:57:55  2023
--------------------------------------------------------------------------------
Index   v-sweep         rds             
--------------------------------------------------------------------------------
0	0.000000e+00	3.741143e+05	
1	-5.00000e-02	6.281967e+05	
2	-1.00000e-01	1.473327e+06	
3	-1.50000e-01	4.751727e+06	
4	-2.00000e-01	1.048921e+07	
5	-2.50000e-01	1.467805e+07	
6	-3.00000e-01	1.716024e+07	
7	-3.50000e-01	1.884483e+07	
8	-4.00000e-01	2.016641e+07	
9	-4.50000e-01	2.129867e+07	
10	-5.00000e-01	2.231578e+07	
11	-5.50000e-01	2.325291e+07	
12	-6.00000e-01	2.412862e+07	
13	-6.50000e-01	2.495371e+07	
14	-7.00000e-01	2.573509e+07	
15	-7.50000e-01	2.647754e+07	
16	-8.00000e-01	2.718460e+07	
17	-8.50000e-01	2.785907e+07	
18	-9.00000e-01	2.850321e+07	
19	-9.50000e-01	2.911900e+07	
20	-1.00000e+00	2.970811e+07	
21	-1.05000e+00	3.027207e+07	
22	-1.10000e+00	3.081224e+07	
23	-1.15000e+00	3.132986e+07	
24	-1.20000e+00	3.182608e+07	
25	-1.25000e+00	3.230196e+07	
26	-1.30000e+00	3.275848e+07	
27	-1.35000e+00	3.319657e+07	
28	-1.40000e+00	3.361708e+07	
29	-1.45000e+00	3.402082e+07	
30	-1.50000e+00	3.440855e+07	
31	-1.55000e+00	3.478099e+07	
32	-1.60000e+00	3.513881e+07	
33	-1.65000e+00	3.548264e+07	
34	-1.70000e+00	3.581310e+07	
35	-1.75000e+00	3.613074e+07	
36	-1.80000e+00	3.643610e+07	
37	-1.85000e+00	3.672971e+07	
38	-1.90000e+00	3.701203e+07	
39	-1.95000e+00	3.728354e+07	
40	-2.00000e+00	3.754466e+07	
41	-2.05000e+00	3.779582e+07	
42	-2.10000e+00	3.803740e+07	
43	-2.15000e+00	3.826979e+07	
44	-2.20000e+00	3.849334e+07	
45	-2.25000e+00	3.870838e+07	
46	-2.30000e+00	3.891525e+07	
47	-2.35000e+00	3.911426e+07	
48	-2.40000e+00	3.930569e+07	
49	-2.45000e+00	3.948983e+07	
50	-2.50000e+00	3.966696e+07	
51	-2.55000e+00	3.983731e+07	
52	-2.60000e+00	4.000115e+07	
53	-2.65000e+00	4.015870e+07	
54	-2.70000e+00	4.031019e+07	

Index   v-sweep         rds             
--------------------------------------------------------------------------------
55	-2.75000e+00	4.045583e+07	
56	-2.80000e+00	4.059584e+07	
57	-2.85000e+00	4.073039e+07	
58	-2.90000e+00	4.085969e+07	
59	-2.95000e+00	4.098391e+07	
60	-3.00000e+00	4.110322e+07	
61	-3.05000e+00	4.121780e+07	
62	-3.10000e+00	4.132779e+07	
63	-3.15000e+00	4.143336e+07	
64	-3.20000e+00	4.153464e+07	
65	-3.25000e+00	4.163178e+07	
66	-3.30000e+00	4.172490e+07	
67	-3.35000e+00	4.181415e+07	
68	-3.40000e+00	4.189964e+07	
69	-3.45000e+00	4.198150e+07	
70	-3.50000e+00	4.205983e+07	
71	-3.55000e+00	4.213474e+07	
72	-3.60000e+00	4.220635e+07	
73	-3.65000e+00	4.227474e+07	
74	-3.70000e+00	4.234003e+07	
75	-3.75000e+00	4.240230e+07	
76	-3.80000e+00	4.246165e+07	
77	-3.85000e+00	4.251815e+07	
78	-3.90000e+00	4.257190e+07	
79	-3.95000e+00	4.262296e+07	
80	-4.00000e+00	4.267143e+07	
81	-4.05000e+00	4.271737e+07	
82	-4.10000e+00	4.276086e+07	
83	-4.15000e+00	4.280195e+07	
84	-4.20000e+00	4.284073e+07	
85	-4.25000e+00	4.287724e+07	
86	-4.30000e+00	4.291156e+07	
87	-4.35000e+00	4.294375e+07	
88	-4.40000e+00	4.297385e+07	
89	-4.45000e+00	4.300192e+07	
90	-4.50000e+00	4.302802e+07	
91	-4.55000e+00	4.305219e+07	
92	-4.60000e+00	4.307449e+07	
93	-4.65000e+00	4.309496e+07	
94	-4.70000e+00	4.311365e+07	
95	-4.75000e+00	4.313059e+07	
96	-4.80000e+00	4.314584e+07	
97	-4.85000e+00	4.315944e+07	
98	-4.90000e+00	4.317141e+07	
99	-4.95000e+00	4.318180e+07	
100	-5.00000e+00	4.319065e+07	
101	-5.05000e+00	4.319799e+07	
102	-5.10000e+00	4.320386e+07	
103	-5.15000e+00	4.320828e+07	
104	-5.20000e+00	4.321130e+07	
105	-5.25000e+00	4.321293e+07	
106	-5.30000e+00	4.321321e+07	
107	-5.35000e+00	4.321217e+07	
108	-5.40000e+00	4.320984e+07	
109	-5.45000e+00	4.320624e+07	
110	-5.50000e+00	4.320139e+07	
111	-5.55000e+00	4.319533e+07	
112	-5.60000e+00	4.318808e+07	

Index   v-sweep         rds             
--------------------------------------------------------------------------------
113	-5.65000e+00	4.317966e+07	
114	-5.70000e+00	4.317009e+07	
115	-5.75000e+00	4.315940e+07	
116	-5.80000e+00	4.314760e+07	
117	-5.85000e+00	4.313473e+07	
118	-5.90000e+00	4.312079e+07	
119	-5.95000e+00	4.310581e+07	
120	-6.00000e+00	4.308980e+07	
121	-6.05000e+00	4.307279e+07	
122	-6.10000e+00	4.305480e+07	
123	-6.15000e+00	4.303583e+07	
124	-6.20000e+00	4.301591e+07	
125	-6.25000e+00	4.299506e+07	
126	-6.30000e+00	4.297328e+07	
127	-6.35000e+00	4.295060e+07	
128	-6.40000e+00	4.292704e+07	
129	-6.45000e+00	4.290260e+07	
130	-6.50000e+00	4.287730e+07	
131	-6.55000e+00	4.285115e+07	
132	-6.60000e+00	4.282418e+07	
Reset re-loads circuit ***************************

Circuit: ***************************

Doing analysis at TEMP = -40.000000 and TNOM = -40.000000


No. of Data Rows : 133
                          ***************************
                          DC transfer characteristic  Mon Jan  9 13:57:55  2023
--------------------------------------------------------------------------------
Index   v-sweep         rds             
--------------------------------------------------------------------------------
0	0.000000e+00	4.651767e+04	
1	-5.00000e-02	5.000260e+04	
2	-1.00000e-01	5.394970e+04	
3	-1.50000e-01	5.845668e+04	
4	-2.00000e-01	6.365072e+04	
5	-2.50000e-01	6.970035e+04	
6	-3.00000e-01	7.683338e+04	
7	-3.50000e-01	8.536483e+04	
8	-4.00000e-01	9.574148e+04	
9	-4.50000e-01	1.086145e+05	
10	-5.00000e-01	1.249594e+05	
11	-5.50000e-01	1.462712e+05	
12	-6.00000e-01	1.748465e+05	
13	-6.50000e-01	2.140171e+05	
14	-7.00000e-01	2.675911e+05	
15	-7.50000e-01	3.368283e+05	
16	-8.00000e-01	4.159700e+05	
17	-8.50000e-01	4.947438e+05	
18	-9.00000e-01	5.670658e+05	
19	-9.50000e-01	6.326440e+05	
20	-1.00000e+00	6.932314e+05	
21	-1.05000e+00	7.504243e+05	
22	-1.10000e+00	8.052670e+05	
23	-1.15000e+00	8.583864e+05	
24	-1.20000e+00	9.101564e+05	
25	-1.25000e+00	9.608052e+05	
26	-1.30000e+00	1.010478e+06	
27	-1.35000e+00	1.059269e+06	
28	-1.40000e+00	1.107246e+06	
29	-1.45000e+00	1.154457e+06	
30	-1.50000e+00	1.200937e+06	
31	-1.55000e+00	1.246715e+06	
32	-1.60000e+00	1.291814e+06	
33	-1.65000e+00	1.336255e+06	
34	-1.70000e+00	1.380054e+06	
35	-1.75000e+00	1.423227e+06	
36	-1.80000e+00	1.465789e+06	
37	-1.85000e+00	1.507752e+06	
38	-1.90000e+00	1.549128e+06	
39	-1.95000e+00	1.589929e+06	
40	-2.00000e+00	1.630166e+06	
41	-2.05000e+00	1.669850e+06	
42	-2.10000e+00	1.708991e+06	
43	-2.15000e+00	1.747598e+06	
44	-2.20000e+00	1.785682e+06	
45	-2.25000e+00	1.823250e+06	
46	-2.30000e+00	1.860313e+06	
47	-2.35000e+00	1.896880e+06	
48	-2.40000e+00	1.932958e+06	
49	-2.45000e+00	1.968556e+06	
50	-2.50000e+00	2.003682e+06	
51	-2.55000e+00	2.038344e+06	
52	-2.60000e+00	2.072551e+06	
53	-2.65000e+00	2.106309e+06	
54	-2.70000e+00	2.139626e+06	

Index   v-sweep         rds             
--------------------------------------------------------------------------------
55	-2.75000e+00	2.172510e+06	
56	-2.80000e+00	2.204968e+06	
57	-2.85000e+00	2.237006e+06	
58	-2.90000e+00	2.268632e+06	
59	-2.95000e+00	2.299852e+06	
60	-3.00000e+00	2.330673e+06	
61	-3.05000e+00	2.361101e+06	
62	-3.10000e+00	2.391143e+06	
63	-3.15000e+00	2.420805e+06	
64	-3.20000e+00	2.450093e+06	
65	-3.25000e+00	2.479013e+06	
66	-3.30000e+00	2.507571e+06	
67	-3.35000e+00	2.535773e+06	
68	-3.40000e+00	2.563623e+06	
69	-3.45000e+00	2.591128e+06	
70	-3.50000e+00	2.618293e+06	
71	-3.55000e+00	2.645124e+06	
72	-3.60000e+00	2.671624e+06	
73	-3.65000e+00	2.697801e+06	
74	-3.70000e+00	2.723657e+06	
75	-3.75000e+00	2.749199e+06	
76	-3.80000e+00	2.774430e+06	
77	-3.85000e+00	2.799356e+06	
78	-3.90000e+00	2.823981e+06	
79	-3.95000e+00	2.848309e+06	
80	-4.00000e+00	2.872345e+06	
81	-4.05000e+00	2.896092e+06	
82	-4.10000e+00	2.919555e+06	
83	-4.15000e+00	2.942738e+06	
84	-4.20000e+00	2.965645e+06	
85	-4.25000e+00	2.988278e+06	
86	-4.30000e+00	3.010642e+06	
87	-4.35000e+00	3.032741e+06	
88	-4.40000e+00	3.054577e+06	
89	-4.45000e+00	3.076155e+06	
90	-4.50000e+00	3.097476e+06	
91	-4.55000e+00	3.118545e+06	
92	-4.60000e+00	3.139364e+06	
93	-4.65000e+00	3.159937e+06	
94	-4.70000e+00	3.180265e+06	
95	-4.75000e+00	3.200352e+06	
96	-4.80000e+00	3.220199e+06	
97	-4.85000e+00	3.239811e+06	
98	-4.90000e+00	3.259189e+06	
99	-4.95000e+00	3.278334e+06	
100	-5.00000e+00	3.297251e+06	
101	-5.05000e+00	3.315940e+06	
102	-5.10000e+00	3.334403e+06	
103	-5.15000e+00	3.352643e+06	
104	-5.20000e+00	3.370662e+06	
105	-5.25000e+00	3.388461e+06	
106	-5.30000e+00	3.406041e+06	
107	-5.35000e+00	3.423405e+06	
108	-5.40000e+00	3.440554e+06	
109	-5.45000e+00	3.457489e+06	
110	-5.50000e+00	3.474212e+06	
111	-5.55000e+00	3.490724e+06	
112	-5.60000e+00	3.507026e+06	

Index   v-sweep         rds             
--------------------------------------------------------------------------------
113	-5.65000e+00	3.523120e+06	
114	-5.70000e+00	3.539006e+06	
115	-5.75000e+00	3.554686e+06	
116	-5.80000e+00	3.570160e+06	
117	-5.85000e+00	3.585431e+06	
118	-5.90000e+00	3.600497e+06	
119	-5.95000e+00	3.615361e+06	
120	-6.00000e+00	3.630024e+06	
121	-6.05000e+00	3.644485e+06	
122	-6.10000e+00	3.658745e+06	
123	-6.15000e+00	3.672807e+06	
124	-6.20000e+00	3.686669e+06	
125	-6.25000e+00	3.700332e+06	
126	-6.30000e+00	3.713798e+06	
127	-6.35000e+00	3.727067e+06	
128	-6.40000e+00	3.740139e+06	
129	-6.45000e+00	3.753015e+06	
130	-6.50000e+00	3.765695e+06	
131	-6.55000e+00	3.778180e+06	
132	-6.60000e+00	3.790470e+06	
Reset re-loads circuit ***************************

Circuit: ***************************

Doing analysis at TEMP = -40.000000 and TNOM = -40.000000


No. of Data Rows : 133
                          ***************************
                          DC transfer characteristic  Mon Jan  9 13:57:55  2023
--------------------------------------------------------------------------------
Index   v-sweep         rds             
--------------------------------------------------------------------------------
0	0.000000e+00	2.776984e+04	
1	-5.00000e-02	2.899482e+04	
2	-1.00000e-01	3.030524e+04	
3	-1.50000e-01	3.171026e+04	
4	-2.00000e-01	3.322038e+04	
5	-2.50000e-01	3.484775e+04	
6	-3.00000e-01	3.660643e+04	
7	-3.50000e-01	3.851282e+04	
8	-4.00000e-01	4.058618e+04	
9	-4.50000e-01	4.284924e+04	
10	-5.00000e-01	4.532903e+04	
11	-5.50000e-01	4.805796e+04	
12	-6.00000e-01	5.107513e+04	
13	-6.50000e-01	5.442824e+04	
14	-7.00000e-01	5.817592e+04	
15	-7.50000e-01	6.239100e+04	
16	-8.00000e-01	6.716492e+04	
17	-8.50000e-01	7.261359e+04	
18	-9.00000e-01	7.888550e+04	
19	-9.50000e-01	8.617218e+04	
20	-1.00000e+00	9.472136e+04	
21	-1.05000e+00	1.048504e+05	
22	-1.10000e+00	1.169519e+05	
23	-1.15000e+00	1.314698e+05	
24	-1.20000e+00	1.488008e+05	
25	-1.25000e+00	1.690828e+05	
26	-1.30000e+00	1.919539e+05	
27	-1.35000e+00	2.165658e+05	
28	-1.40000e+00	2.419712e+05	
29	-1.45000e+00	2.675038e+05	
30	-1.50000e+00	2.928370e+05	
31	-1.55000e+00	3.178530e+05	
32	-1.60000e+00	3.425249e+05	
33	-1.65000e+00	3.668557e+05	
34	-1.70000e+00	3.908560e+05	
35	-1.75000e+00	4.145364e+05	
36	-1.80000e+00	4.379062e+05	
37	-1.85000e+00	4.609732e+05	
38	-1.90000e+00	4.837439e+05	
39	-1.95000e+00	5.062244e+05	
40	-2.00000e+00	5.284197e+05	
41	-2.05000e+00	5.503349e+05	
42	-2.10000e+00	5.719746e+05	
43	-2.15000e+00	5.933432e+05	
44	-2.20000e+00	6.144451e+05	
45	-2.25000e+00	6.352843e+05	
46	-2.30000e+00	6.558651e+05	
47	-2.35000e+00	6.761915e+05	
48	-2.40000e+00	6.962673e+05	
49	-2.45000e+00	7.160964e+05	
50	-2.50000e+00	7.356828e+05	
51	-2.55000e+00	7.550301e+05	
52	-2.60000e+00	7.741419e+05	
53	-2.65000e+00	7.930221e+05	
54	-2.70000e+00	8.116740e+05	

Index   v-sweep         rds             
--------------------------------------------------------------------------------
55	-2.75000e+00	8.301013e+05	
56	-2.80000e+00	8.483073e+05	
57	-2.85000e+00	8.662956e+05	
58	-2.90000e+00	8.840693e+05	
59	-2.95000e+00	9.016319e+05	
60	-3.00000e+00	9.189866e+05	
61	-3.05000e+00	9.361365e+05	
62	-3.10000e+00	9.530847e+05	
63	-3.15000e+00	9.698343e+05	
64	-3.20000e+00	9.863884e+05	
65	-3.25000e+00	1.002750e+06	
66	-3.30000e+00	1.018922e+06	
67	-3.35000e+00	1.034907e+06	
68	-3.40000e+00	1.050708e+06	
69	-3.45000e+00	1.066327e+06	
70	-3.50000e+00	1.081768e+06	
71	-3.55000e+00	1.097034e+06	
72	-3.60000e+00	1.112126e+06	
73	-3.65000e+00	1.127047e+06	
74	-3.70000e+00	1.141800e+06	
75	-3.75000e+00	1.156388e+06	
76	-3.80000e+00	1.170812e+06	
77	-3.85000e+00	1.185075e+06	
78	-3.90000e+00	1.199179e+06	
79	-3.95000e+00	1.213128e+06	
80	-4.00000e+00	1.226922e+06	
81	-4.05000e+00	1.240565e+06	
82	-4.10000e+00	1.254057e+06	
83	-4.15000e+00	1.267402e+06	
84	-4.20000e+00	1.280602e+06	
85	-4.25000e+00	1.293658e+06	
86	-4.30000e+00	1.306573e+06	
87	-4.35000e+00	1.319347e+06	
88	-4.40000e+00	1.331985e+06	
89	-4.45000e+00	1.344486e+06	
90	-4.50000e+00	1.356853e+06	
91	-4.55000e+00	1.369087e+06	
92	-4.60000e+00	1.381191e+06	
93	-4.65000e+00	1.393166e+06	
94	-4.70000e+00	1.405013e+06	
95	-4.75000e+00	1.416734e+06	
96	-4.80000e+00	1.428330e+06	
97	-4.85000e+00	1.439803e+06	
98	-4.90000e+00	1.451155e+06	
99	-4.95000e+00	1.462386e+06	
100	-5.00000e+00	1.473498e+06	
101	-5.05000e+00	1.484492e+06	
102	-5.10000e+00	1.495370e+06	
103	-5.15000e+00	1.506131e+06	
104	-5.20000e+00	1.516779e+06	
105	-5.25000e+00	1.527312e+06	
106	-5.30000e+00	1.537734e+06	
107	-5.35000e+00	1.548043e+06	
108	-5.40000e+00	1.558242e+06	
109	-5.45000e+00	1.568331e+06	
110	-5.50000e+00	1.578311e+06	
111	-5.55000e+00	1.588182e+06	
112	-5.60000e+00	1.597946e+06	

Index   v-sweep         rds             
--------------------------------------------------------------------------------
113	-5.65000e+00	1.607603e+06	
114	-5.70000e+00	1.617153e+06	
115	-5.75000e+00	1.626598e+06	
116	-5.80000e+00	1.635937e+06	
117	-5.85000e+00	1.645171e+06	
118	-5.90000e+00	1.654300e+06	
119	-5.95000e+00	1.663326e+06	
120	-6.00000e+00	1.672248e+06	
121	-6.05000e+00	1.681066e+06	
122	-6.10000e+00	1.689782e+06	
123	-6.15000e+00	1.698394e+06	
124	-6.20000e+00	1.706904e+06	
125	-6.25000e+00	1.715312e+06	
126	-6.30000e+00	1.723617e+06	
127	-6.35000e+00	1.731821e+06	
128	-6.40000e+00	1.739922e+06	
129	-6.45000e+00	1.747921e+06	
130	-6.50000e+00	1.755819e+06	
131	-6.55000e+00	1.763614e+06	
132	-6.60000e+00	1.771308e+06	
Reset re-loads circuit ***************************

Circuit: ***************************

Doing analysis at TEMP = -40.000000 and TNOM = -40.000000


No. of Data Rows : 133
                          ***************************
                          DC transfer characteristic  Mon Jan  9 13:57:55  2023
--------------------------------------------------------------------------------
Index   v-sweep         rds             
--------------------------------------------------------------------------------
0	0.000000e+00	2.091397e+04	
1	-5.00000e-02	2.159016e+04	
2	-1.00000e-01	2.229876e+04	
3	-1.50000e-01	2.304211e+04	
4	-2.00000e-01	2.382279e+04	
5	-2.50000e-01	2.464365e+04	
6	-3.00000e-01	2.550782e+04	
7	-3.50000e-01	2.641878e+04	
8	-4.00000e-01	2.738039e+04	
9	-4.50000e-01	2.839693e+04	
10	-5.00000e-01	2.947320e+04	
11	-5.50000e-01	3.061457e+04	
12	-6.00000e-01	3.182705e+04	
13	-6.50000e-01	3.311744e+04	
14	-7.00000e-01	3.449341e+04	
15	-7.50000e-01	3.596370e+04	
16	-8.00000e-01	3.753824e+04	
17	-8.50000e-01	3.922841e+04	
18	-9.00000e-01	4.104732e+04	
19	-9.50000e-01	4.301009e+04	
20	-1.00000e+00	4.513430e+04	
21	-1.05000e+00	4.744049e+04	
22	-1.10000e+00	4.995277e+04	
23	-1.15000e+00	5.269965e+04	
24	-1.20000e+00	5.571498e+04	
25	-1.25000e+00	5.903930e+04	
26	-1.30000e+00	6.272138e+04	
27	-1.35000e+00	6.682022e+04	
28	-1.40000e+00	7.140748e+04	
29	-1.45000e+00	7.657032e+04	
30	-1.50000e+00	8.241419e+04	
31	-1.55000e+00	8.906474e+04	
32	-1.60000e+00	9.666603e+04	
33	-1.65000e+00	1.053703e+05	
34	-1.70000e+00	1.153112e+05	
35	-1.75000e+00	1.265576e+05	
36	-1.80000e+00	1.390632e+05	
37	-1.85000e+00	1.526512e+05	
38	-1.90000e+00	1.670599e+05	
39	-1.95000e+00	1.820174e+05	
40	-2.00000e+00	1.972959e+05	
41	-2.05000e+00	2.127283e+05	
42	-2.10000e+00	2.282005e+05	
43	-2.15000e+00	2.436376e+05	
44	-2.20000e+00	2.589906e+05	
45	-2.25000e+00	2.742280e+05	
46	-2.30000e+00	2.893293e+05	
47	-2.35000e+00	3.042812e+05	
48	-2.40000e+00	3.190753e+05	
49	-2.45000e+00	3.337064e+05	
50	-2.50000e+00	3.481713e+05	
51	-2.55000e+00	3.624685e+05	
52	-2.60000e+00	3.765975e+05	
53	-2.65000e+00	3.905587e+05	
54	-2.70000e+00	4.043528e+05	

Index   v-sweep         rds             
--------------------------------------------------------------------------------
55	-2.75000e+00	4.179810e+05	
56	-2.80000e+00	4.314449e+05	
57	-2.85000e+00	4.447461e+05	
58	-2.90000e+00	4.578865e+05	
59	-2.95000e+00	4.708681e+05	
60	-3.00000e+00	4.836929e+05	
61	-3.05000e+00	4.963630e+05	
62	-3.10000e+00	5.088805e+05	
63	-3.15000e+00	5.212477e+05	
64	-3.20000e+00	5.334666e+05	
65	-3.25000e+00	5.455394e+05	
66	-3.30000e+00	5.574682e+05	
67	-3.35000e+00	5.692552e+05	
68	-3.40000e+00	5.809025e+05	
69	-3.45000e+00	5.924122e+05	
70	-3.50000e+00	6.037863e+05	
71	-3.55000e+00	6.150269e+05	
72	-3.60000e+00	6.261361e+05	
73	-3.65000e+00	6.371157e+05	
74	-3.70000e+00	6.479679e+05	
75	-3.75000e+00	6.586944e+05	
76	-3.80000e+00	6.692972e+05	
77	-3.85000e+00	6.797782e+05	
78	-3.90000e+00	6.901393e+05	
79	-3.95000e+00	7.003821e+05	
80	-4.00000e+00	7.105086e+05	
81	-4.05000e+00	7.205204e+05	
82	-4.10000e+00	7.304192e+05	
83	-4.15000e+00	7.402069e+05	
84	-4.20000e+00	7.498849e+05	
85	-4.25000e+00	7.594550e+05	
86	-4.30000e+00	7.689186e+05	
87	-4.35000e+00	7.782775e+05	
88	-4.40000e+00	7.875331e+05	
89	-4.45000e+00	7.966870e+05	
90	-4.50000e+00	8.057405e+05	
91	-4.55000e+00	8.146952e+05	
92	-4.60000e+00	8.235524e+05	
93	-4.65000e+00	8.323135e+05	
94	-4.70000e+00	8.409800e+05	
95	-4.75000e+00	8.495530e+05	
96	-4.80000e+00	8.580338e+05	
97	-4.85000e+00	8.664238e+05	
98	-4.90000e+00	8.747241e+05	
99	-4.95000e+00	8.829359e+05	
100	-5.00000e+00	8.910604e+05	
101	-5.05000e+00	8.990986e+05	
102	-5.10000e+00	9.070517e+05	
103	-5.15000e+00	9.149207e+05	
104	-5.20000e+00	9.227066e+05	
105	-5.25000e+00	9.304104e+05	
106	-5.30000e+00	9.380330e+05	
107	-5.35000e+00	9.455754e+05	
108	-5.40000e+00	9.530383e+05	
109	-5.45000e+00	9.604227e+05	
110	-5.50000e+00	9.677293e+05	
111	-5.55000e+00	9.749589e+05	
112	-5.60000e+00	9.821122e+05	

Index   v-sweep         rds             
--------------------------------------------------------------------------------
113	-5.65000e+00	9.891899e+05	
114	-5.70000e+00	9.961926e+05	
115	-5.75000e+00	1.003121e+06	
116	-5.80000e+00	1.009976e+06	
117	-5.85000e+00	1.016757e+06	
118	-5.90000e+00	1.023466e+06	
119	-5.95000e+00	1.030102e+06	
120	-6.00000e+00	1.036667e+06	
121	-6.05000e+00	1.043160e+06	
122	-6.10000e+00	1.049583e+06	
123	-6.15000e+00	1.055934e+06	
124	-6.20000e+00	1.062216e+06	
125	-6.25000e+00	1.068427e+06	
126	-6.30000e+00	1.074569e+06	
127	-6.35000e+00	1.080641e+06	
128	-6.40000e+00	1.086643e+06	
129	-6.45000e+00	1.092576e+06	
130	-6.50000e+00	1.098441e+06	
131	-6.55000e+00	1.104236e+06	
132	-6.60000e+00	1.109963e+06	
Reset re-loads circuit ***************************

Circuit: ***************************

Doing analysis at TEMP = -40.000000 and TNOM = -40.000000


No. of Data Rows : 133
                          ***************************
                          DC transfer characteristic  Mon Jan  9 13:57:55  2023
--------------------------------------------------------------------------------
Index   v-sweep         rds             
--------------------------------------------------------------------------------
0	0.000000e+00	1.729356e+04	
1	-5.00000e-02	1.774092e+04	
2	-1.00000e-01	1.820469e+04	
3	-1.50000e-01	1.868580e+04	
4	-2.00000e-01	1.918520e+04	
5	-2.50000e-01	1.970393e+04	
6	-3.00000e-01	2.024313e+04	
7	-3.50000e-01	2.080400e+04	
8	-4.00000e-01	2.138786e+04	
9	-4.50000e-01	2.199613e+04	
10	-5.00000e-01	2.263034e+04	
11	-5.50000e-01	2.329217e+04	
12	-6.00000e-01	2.398344e+04	
13	-6.50000e-01	2.470612e+04	
14	-7.00000e-01	2.546238e+04	
15	-7.50000e-01	2.625459e+04	
16	-8.00000e-01	2.708533e+04	
17	-8.50000e-01	2.795747e+04	
18	-9.00000e-01	2.887413e+04	
19	-9.50000e-01	2.983879e+04	
20	-1.00000e+00	3.085526e+04	
21	-1.05000e+00	3.192779e+04	
22	-1.10000e+00	3.306111e+04	
23	-1.15000e+00	3.426048e+04	
24	-1.20000e+00	3.553180e+04	
25	-1.25000e+00	3.688166e+04	
26	-1.30000e+00	3.831753e+04	
27	-1.35000e+00	3.984779e+04	
28	-1.40000e+00	4.148200e+04	
29	-1.45000e+00	4.323100e+04	
30	-1.50000e+00	4.510722e+04	
31	-1.55000e+00	4.712493e+04	
32	-1.60000e+00	4.930060e+04	
33	-1.65000e+00	5.165337e+04	
34	-1.70000e+00	5.420561e+04	
35	-1.75000e+00	5.698361e+04	
36	-1.80000e+00	6.001859e+04	
37	-1.85000e+00	6.334791e+04	
38	-1.90000e+00	6.701672e+04	
39	-1.95000e+00	7.108014e+04	
40	-2.00000e+00	7.560587e+04	
41	-2.05000e+00	8.067654e+04	
42	-2.10000e+00	8.638960e+04	
43	-2.15000e+00	9.284986e+04	
44	-2.20000e+00	1.001485e+05	
45	-2.25000e+00	1.083292e+05	
46	-2.30000e+00	1.173586e+05	
47	-2.35000e+00	1.271243e+05	
48	-2.40000e+00	1.374664e+05	
49	-2.45000e+00	1.482182e+05	
50	-2.50000e+00	1.592340e+05	
51	-2.55000e+00	1.704001e+05	
52	-2.60000e+00	1.816326e+05	
53	-2.65000e+00	1.928721e+05	
54	-2.70000e+00	2.040770e+05	

Index   v-sweep         rds             
--------------------------------------------------------------------------------
55	-2.75000e+00	2.152186e+05	
56	-2.80000e+00	2.262768e+05	
57	-2.85000e+00	2.372380e+05	
58	-2.90000e+00	2.480927e+05	
59	-2.95000e+00	2.588344e+05	
60	-3.00000e+00	2.694591e+05	
61	-3.05000e+00	2.799639e+05	
62	-3.10000e+00	2.903473e+05	
63	-3.15000e+00	3.006086e+05	
64	-3.20000e+00	3.107477e+05	
65	-3.25000e+00	3.207648e+05	
66	-3.30000e+00	3.306607e+05	
67	-3.35000e+00	3.404363e+05	
68	-3.40000e+00	3.500926e+05	
69	-3.45000e+00	3.596309e+05	
70	-3.50000e+00	3.690527e+05	
71	-3.55000e+00	3.783592e+05	
72	-3.60000e+00	3.875521e+05	
73	-3.65000e+00	3.966328e+05	
74	-3.70000e+00	4.056030e+05	
75	-3.75000e+00	4.144641e+05	
76	-3.80000e+00	4.232178e+05	
77	-3.85000e+00	4.318657e+05	
78	-3.90000e+00	4.404092e+05	
79	-3.95000e+00	4.488501e+05	
80	-4.00000e+00	4.571899e+05	
81	-4.05000e+00	4.654300e+05	
82	-4.10000e+00	4.735721e+05	
83	-4.15000e+00	4.816176e+05	
84	-4.20000e+00	4.895680e+05	
85	-4.25000e+00	4.974248e+05	
86	-4.30000e+00	5.051895e+05	
87	-4.35000e+00	5.128634e+05	
88	-4.40000e+00	5.204480e+05	
89	-4.45000e+00	5.279446e+05	
90	-4.50000e+00	5.353546e+05	
91	-4.55000e+00	5.426793e+05	
92	-4.60000e+00	5.499201e+05	
93	-4.65000e+00	5.570782e+05	
94	-4.70000e+00	5.641549e+05	
95	-4.75000e+00	5.711513e+05	
96	-4.80000e+00	5.780688e+05	
97	-4.85000e+00	5.849086e+05	
98	-4.90000e+00	5.916717e+05	
99	-4.95000e+00	5.983593e+05	
100	-5.00000e+00	6.049725e+05	
101	-5.05000e+00	6.115125e+05	
102	-5.10000e+00	6.179803e+05	
103	-5.15000e+00	6.243769e+05	
104	-5.20000e+00	6.307033e+05	
105	-5.25000e+00	6.369605e+05	
106	-5.30000e+00	6.431496e+05	
107	-5.35000e+00	6.492713e+05	
108	-5.40000e+00	6.553267e+05	
109	-5.45000e+00	6.613166e+05	
110	-5.50000e+00	6.672419e+05	
111	-5.55000e+00	6.731034e+05	
112	-5.60000e+00	6.789018e+05	

Index   v-sweep         rds             
--------------------------------------------------------------------------------
113	-5.65000e+00	6.846381e+05	
114	-5.70000e+00	6.903128e+05	
115	-5.75000e+00	6.959267e+05	
116	-5.80000e+00	7.014806e+05	
117	-5.85000e+00	7.069750e+05	
118	-5.90000e+00	7.124106e+05	
119	-5.95000e+00	7.177880e+05	
120	-6.00000e+00	7.231078e+05	
121	-6.05000e+00	7.283704e+05	
122	-6.10000e+00	7.335765e+05	
123	-6.15000e+00	7.387264e+05	
124	-6.20000e+00	7.438207e+05	
125	-6.25000e+00	7.488598e+05	
126	-6.30000e+00	7.538440e+05	
127	-6.35000e+00	7.587738e+05	
128	-6.40000e+00	7.636494e+05	
129	-6.45000e+00	7.684713e+05	
130	-6.50000e+00	7.732396e+05	
131	-6.55000e+00	7.779547e+05	
132	-6.60000e+00	7.826168e+05	
Reset re-loads circuit ***************************

Circuit: ***************************

Doing analysis at TEMP = -40.000000 and TNOM = -40.000000


No. of Data Rows : 133
                          ***************************
                          DC transfer characteristic  Mon Jan  9 13:57:55  2023
--------------------------------------------------------------------------------
Index   v-sweep         rds             
--------------------------------------------------------------------------------
0	0.000000e+00	1.501967e+04	
1	-5.00000e-02	1.534560e+04	
2	-1.00000e-01	1.568124e+04	
3	-1.50000e-01	1.602705e+04	
4	-2.00000e-01	1.638346e+04	
5	-2.50000e-01	1.675098e+04	
6	-3.00000e-01	1.713010e+04	
7	-3.50000e-01	1.752138e+04	
8	-4.00000e-01	1.792541e+04	
9	-4.50000e-01	1.834279e+04	
10	-5.00000e-01	1.877420e+04	
11	-5.50000e-01	1.922034e+04	
12	-6.00000e-01	1.968195e+04	
13	-6.50000e-01	2.015985e+04	
14	-7.00000e-01	2.065491e+04	
15	-7.50000e-01	2.116804e+04	
16	-8.00000e-01	2.170023e+04	
17	-8.50000e-01	2.225257e+04	
18	-9.00000e-01	2.282618e+04	
19	-9.50000e-01	2.342232e+04	
20	-1.00000e+00	2.404232e+04	
21	-1.05000e+00	2.468762e+04	
22	-1.10000e+00	2.535978e+04	
23	-1.15000e+00	2.606049e+04	
24	-1.20000e+00	2.679159e+04	
25	-1.25000e+00	2.755509e+04	
26	-1.30000e+00	2.835315e+04	
27	-1.35000e+00	2.918815e+04	
28	-1.40000e+00	3.006270e+04	
29	-1.45000e+00	3.097965e+04	
30	-1.50000e+00	3.194211e+04	
31	-1.55000e+00	3.295355e+04	
32	-1.60000e+00	3.401775e+04	
33	-1.65000e+00	3.513893e+04	
34	-1.70000e+00	3.632175e+04	
35	-1.75000e+00	3.757142e+04	
36	-1.80000e+00	3.889372e+04	
37	-1.85000e+00	4.029516e+04	
38	-1.90000e+00	4.178305e+04	
39	-1.95000e+00	4.336567e+04	
40	-2.00000e+00	4.505241e+04	
41	-2.05000e+00	4.685405e+04	
42	-2.10000e+00	4.878300e+04	
43	-2.15000e+00	5.085375e+04	
44	-2.20000e+00	5.308339e+04	
45	-2.25000e+00	5.549246e+04	
46	-2.30000e+00	5.810604e+04	
47	-2.35000e+00	6.095549e+04	
48	-2.40000e+00	6.408072e+04	
49	-2.45000e+00	6.753311e+04	
50	-2.50000e+00	7.137804e+04	
51	-2.55000e+00	7.569495e+04	
52	-2.60000e+00	8.057039e+04	
53	-2.65000e+00	8.608061e+04	
54	-2.70000e+00	9.226611e+04	

Index   v-sweep         rds             
--------------------------------------------------------------------------------
55	-2.75000e+00	9.911136e+04	
56	-2.80000e+00	1.065440e+05	
57	-2.85000e+00	1.144545e+05	
58	-2.90000e+00	1.227229e+05	
59	-2.95000e+00	1.312387e+05	
60	-3.00000e+00	1.399109e+05	
61	-3.05000e+00	1.486688e+05	
62	-3.10000e+00	1.574600e+05	
63	-3.15000e+00	1.662462e+05	
64	-3.20000e+00	1.749996e+05	
65	-3.25000e+00	1.837005e+05	
66	-3.30000e+00	1.923348e+05	
67	-3.35000e+00	2.008922e+05	
68	-3.40000e+00	2.093658e+05	
69	-3.45000e+00	2.177505e+05	
70	-3.50000e+00	2.260429e+05	
71	-3.55000e+00	2.342409e+05	
72	-3.60000e+00	2.423430e+05	
73	-3.65000e+00	2.503486e+05	
74	-3.70000e+00	2.582574e+05	
75	-3.75000e+00	2.660697e+05	
76	-3.80000e+00	2.737859e+05	
77	-3.85000e+00	2.814065e+05	
78	-3.90000e+00	2.889326e+05	
79	-3.95000e+00	2.963649e+05	
80	-4.00000e+00	3.037047e+05	
81	-4.05000e+00	3.109530e+05	
82	-4.10000e+00	3.181109e+05	
83	-4.15000e+00	3.251798e+05	
84	-4.20000e+00	3.321608e+05	
85	-4.25000e+00	3.390552e+05	
86	-4.30000e+00	3.458643e+05	
87	-4.35000e+00	3.525894e+05	
88	-4.40000e+00	3.592317e+05	
89	-4.45000e+00	3.657924e+05	
90	-4.50000e+00	3.722730e+05	
91	-4.55000e+00	3.786745e+05	
92	-4.60000e+00	3.849982e+05	
93	-4.65000e+00	3.912455e+05	
94	-4.70000e+00	3.974173e+05	
95	-4.75000e+00	4.035151e+05	
96	-4.80000e+00	4.095398e+05	
97	-4.85000e+00	4.154928e+05	
98	-4.90000e+00	4.213750e+05	
99	-4.95000e+00	4.271877e+05	
100	-5.00000e+00	4.329319e+05	
101	-5.05000e+00	4.386087e+05	
102	-5.10000e+00	4.442192e+05	
103	-5.15000e+00	4.497644e+05	
104	-5.20000e+00	4.552453e+05	
105	-5.25000e+00	4.606630e+05	
106	-5.30000e+00	4.660183e+05	
107	-5.35000e+00	4.713123e+05	
108	-5.40000e+00	4.765459e+05	
109	-5.45000e+00	4.817200e+05	
110	-5.50000e+00	4.868355e+05	
111	-5.55000e+00	4.918933e+05	
112	-5.60000e+00	4.968942e+05	

Index   v-sweep         rds             
--------------------------------------------------------------------------------
113	-5.65000e+00	5.018390e+05	
114	-5.70000e+00	5.067287e+05	
115	-5.75000e+00	5.115639e+05	
116	-5.80000e+00	5.163454e+05	
117	-5.85000e+00	5.210739e+05	
118	-5.90000e+00	5.257503e+05	
119	-5.95000e+00	5.303751e+05	
120	-6.00000e+00	5.349491e+05	
121	-6.05000e+00	5.394728e+05	
122	-6.10000e+00	5.439470e+05	
123	-6.15000e+00	5.483721e+05	
124	-6.20000e+00	5.527489e+05	
125	-6.25000e+00	5.570778e+05	
126	-6.30000e+00	5.613593e+05	
127	-6.35000e+00	5.655941e+05	
128	-6.40000e+00	5.697824e+05	
129	-6.45000e+00	5.739249e+05	
130	-6.50000e+00	5.780219e+05	
131	-6.55000e+00	5.820738e+05	
132	-6.60000e+00	5.860810e+05	
Reset re-loads circuit ***************************

Circuit: ***************************

Note: No ".plot", ".print", or ".fourier" lines; no simulations run
