
Note: Compatibility modes selected: hs

Warning: m=xx on .subckt line will override multiplier m hierarchy!


Circuit: ***************************

Doing analysis at TEMP = 25.000000 and TNOM = 25.000000


No. of Data Rows : 133
                          ***************************
                          DC transfer characteristic  Mon Jan  9 13:57:54  2023
--------------------------------------------------------------------------------
Index   v-sweep         rds             
--------------------------------------------------------------------------------
0	0.000000e+00	1.740839e+06	
1	-5.00000e-02	3.051934e+06	
2	-1.00000e-01	8.213035e+06	
3	-1.50000e-01	3.617713e+07	
4	-2.00000e-01	1.357494e+08	
5	-2.50000e-01	3.320787e+08	
6	-3.00000e-01	5.857927e+08	
7	-3.50000e-01	8.402258e+08	
8	-4.00000e-01	1.065124e+09	
9	-4.50000e-01	1.254938e+09	
10	-5.00000e-01	1.414405e+09	
11	-5.50000e-01	1.550153e+09	
12	-6.00000e-01	1.667876e+09	
13	-6.50000e-01	1.771859e+09	
14	-7.00000e-01	1.865198e+09	
15	-7.50000e-01	1.950112e+09	
16	-8.00000e-01	2.028205e+09	
17	-8.50000e-01	2.100655e+09	
18	-9.00000e-01	2.168345e+09	
19	-9.50000e-01	2.231948e+09	
20	-1.00000e+00	2.291989e+09	
21	-1.05000e+00	2.348882e+09	
22	-1.10000e+00	2.402966e+09	
23	-1.15000e+00	2.454516e+09	
24	-1.20000e+00	2.503763e+09	
25	-1.25000e+00	2.550902e+09	
26	-1.30000e+00	2.596101e+09	
27	-1.35000e+00	2.639505e+09	
28	-1.40000e+00	2.681240e+09	
29	-1.45000e+00	2.721418e+09	
30	-1.50000e+00	2.760140e+09	
31	-1.55000e+00	2.797494e+09	
32	-1.60000e+00	2.833561e+09	
33	-1.65000e+00	2.868415e+09	
34	-1.70000e+00	2.902121e+09	
35	-1.75000e+00	2.934741e+09	
36	-1.80000e+00	2.966331e+09	
37	-1.85000e+00	2.996942e+09	
38	-1.90000e+00	3.026623e+09	
39	-1.95000e+00	3.055417e+09	
40	-2.00000e+00	3.083366e+09	
41	-2.05000e+00	3.110508e+09	
42	-2.10000e+00	3.136880e+09	
43	-2.15000e+00	3.162515e+09	
44	-2.20000e+00	3.187444e+09	
45	-2.25000e+00	3.211697e+09	
46	-2.30000e+00	3.235301e+09	
47	-2.35000e+00	3.258285e+09	
48	-2.40000e+00	3.280671e+09	
49	-2.45000e+00	3.302483e+09	
50	-2.50000e+00	3.323744e+09	
51	-2.55000e+00	3.344475e+09	
52	-2.60000e+00	3.364694e+09	
53	-2.65000e+00	3.384422e+09	
54	-2.70000e+00	3.403676e+09	

Index   v-sweep         rds             
--------------------------------------------------------------------------------
55	-2.75000e+00	3.422474e+09	
56	-2.80000e+00	3.440830e+09	
57	-2.85000e+00	3.458761e+09	
58	-2.90000e+00	3.476281e+09	
59	-2.95000e+00	3.493404e+09	
60	-3.00000e+00	3.510144e+09	
61	-3.05000e+00	3.526513e+09	
62	-3.10000e+00	3.542523e+09	
63	-3.15000e+00	3.558186e+09	
64	-3.20000e+00	3.573513e+09	
65	-3.25000e+00	3.588514e+09	
66	-3.30000e+00	3.603200e+09	
67	-3.35000e+00	3.617579e+09	
68	-3.40000e+00	3.631663e+09	
69	-3.45000e+00	3.645458e+09	
70	-3.50000e+00	3.658975e+09	
71	-3.55000e+00	3.672220e+09	
72	-3.60000e+00	3.685202e+09	
73	-3.65000e+00	3.697928e+09	
74	-3.70000e+00	3.710405e+09	
75	-3.75000e+00	3.722641e+09	
76	-3.80000e+00	3.734641e+09	
77	-3.85000e+00	3.746412e+09	
78	-3.90000e+00	3.757960e+09	
79	-3.95000e+00	3.769291e+09	
80	-4.00000e+00	3.780410e+09	
81	-4.05000e+00	3.791323e+09	
82	-4.10000e+00	3.802035e+09	
83	-4.15000e+00	3.812551e+09	
84	-4.20000e+00	3.822875e+09	
85	-4.25000e+00	3.833013e+09	
86	-4.30000e+00	3.842968e+09	
87	-4.35000e+00	3.852744e+09	
88	-4.40000e+00	3.862347e+09	
89	-4.45000e+00	3.871779e+09	
90	-4.50000e+00	3.881044e+09	
91	-4.55000e+00	3.890146e+09	
92	-4.60000e+00	3.899089e+09	
93	-4.65000e+00	3.907876e+09	
94	-4.70000e+00	3.916509e+09	
95	-4.75000e+00	3.924992e+09	
96	-4.80000e+00	3.933329e+09	
97	-4.85000e+00	3.941521e+09	
98	-4.90000e+00	3.949572e+09	
99	-4.95000e+00	3.957484e+09	
100	-5.00000e+00	3.965259e+09	
101	-5.05000e+00	3.972902e+09	
102	-5.10000e+00	3.980412e+09	
103	-5.15000e+00	3.987794e+09	
104	-5.20000e+00	3.995049e+09	
105	-5.25000e+00	4.002179e+09	
106	-5.30000e+00	4.009186e+09	
107	-5.35000e+00	4.016073e+09	
108	-5.40000e+00	4.022841e+09	
109	-5.45000e+00	4.029493e+09	
110	-5.50000e+00	4.036029e+09	
111	-5.55000e+00	4.042452e+09	
112	-5.60000e+00	4.048764e+09	

Index   v-sweep         rds             
--------------------------------------------------------------------------------
113	-5.65000e+00	4.054965e+09	
114	-5.70000e+00	4.061058e+09	
115	-5.75000e+00	4.067045e+09	
116	-5.80000e+00	4.072926e+09	
117	-5.85000e+00	4.078703e+09	
118	-5.90000e+00	4.084378e+09	
119	-5.95000e+00	4.089952e+09	
120	-6.00000e+00	4.095426e+09	
121	-6.05000e+00	4.100802e+09	
122	-6.10000e+00	4.106081e+09	
123	-6.15000e+00	4.111264e+09	
124	-6.20000e+00	4.116352e+09	
125	-6.25000e+00	4.121347e+09	
126	-6.30000e+00	4.126249e+09	
127	-6.35000e+00	4.131061e+09	
128	-6.40000e+00	4.135782e+09	
129	-6.45000e+00	4.140414e+09	
130	-6.50000e+00	4.144958e+09	
131	-6.55000e+00	4.149416e+09	
132	-6.60000e+00	4.153787e+09	
Reset re-loads circuit ***************************

Circuit: ***************************

Doing analysis at TEMP = 25.000000 and TNOM = 25.000000


No. of Data Rows : 133
                          ***************************
                          DC transfer characteristic  Mon Jan  9 13:57:54  2023
--------------------------------------------------------------------------------
Index   v-sweep         rds             
--------------------------------------------------------------------------------
0	0.000000e+00	1.961965e+05	
1	-5.00000e-02	2.092567e+05	
2	-1.00000e-01	2.241586e+05	
3	-1.50000e-01	2.413203e+05	
4	-2.00000e-01	2.612960e+05	
5	-2.50000e-01	2.848365e+05	
6	-3.00000e-01	3.129828e+05	
7	-3.50000e-01	3.472206e+05	
8	-4.00000e-01	3.897401e+05	
9	-4.50000e-01	4.438978e+05	
10	-5.00000e-01	5.150775e+05	
11	-5.50000e-01	6.123880e+05	
12	-6.00000e-01	7.522056e+05	
13	-6.50000e-01	9.659187e+05	
14	-7.00000e-01	1.316973e+06	
15	-7.50000e-01	1.934571e+06	
16	-8.00000e-01	3.055456e+06	
17	-8.50000e-01	4.992301e+06	
18	-9.00000e-01	7.908998e+06	
19	-9.50000e-01	1.157466e+07	
20	-1.00000e+00	1.548258e+07	
21	-1.05000e+00	1.919700e+07	
22	-1.10000e+00	2.251263e+07	
23	-1.15000e+00	2.540011e+07	
24	-1.20000e+00	2.790897e+07	
25	-1.25000e+00	3.010758e+07	
26	-1.30000e+00	3.205852e+07	
27	-1.35000e+00	3.381213e+07	
28	-1.40000e+00	3.540701e+07	
29	-1.45000e+00	3.687226e+07	
30	-1.50000e+00	3.822983e+07	
31	-1.55000e+00	3.949645e+07	
32	-1.60000e+00	4.068501e+07	
33	-1.65000e+00	4.180564e+07	
34	-1.70000e+00	4.286637e+07	
35	-1.75000e+00	4.387372e+07	
36	-1.80000e+00	4.483306e+07	
37	-1.85000e+00	4.574882e+07	
38	-1.90000e+00	4.662478e+07	
39	-1.95000e+00	4.746417e+07	
40	-2.00000e+00	4.826975e+07	
41	-2.05000e+00	4.904397e+07	
42	-2.10000e+00	4.978897e+07	
43	-2.15000e+00	5.050665e+07	
44	-2.20000e+00	5.119871e+07	
45	-2.25000e+00	5.186668e+07	
46	-2.30000e+00	5.251195e+07	
47	-2.35000e+00	5.313578e+07	
48	-2.40000e+00	5.373933e+07	
49	-2.45000e+00	5.432365e+07	
50	-2.50000e+00	5.488972e+07	
51	-2.55000e+00	5.543844e+07	
52	-2.60000e+00	5.597064e+07	
53	-2.65000e+00	5.648711e+07	
54	-2.70000e+00	5.698856e+07	

Index   v-sweep         rds             
--------------------------------------------------------------------------------
55	-2.75000e+00	5.747567e+07	
56	-2.80000e+00	5.794907e+07	
57	-2.85000e+00	5.840935e+07	
58	-2.90000e+00	5.885708e+07	
59	-2.95000e+00	5.929276e+07	
60	-3.00000e+00	5.971690e+07	
61	-3.05000e+00	6.012995e+07	
62	-3.10000e+00	6.053236e+07	
63	-3.15000e+00	6.092454e+07	
64	-3.20000e+00	6.130688e+07	
65	-3.25000e+00	6.167975e+07	
66	-3.30000e+00	6.204351e+07	
67	-3.35000e+00	6.239848e+07	
68	-3.40000e+00	6.274499e+07	
69	-3.45000e+00	6.308333e+07	
70	-3.50000e+00	6.341380e+07	
71	-3.55000e+00	6.373666e+07	
72	-3.60000e+00	6.405219e+07	
73	-3.65000e+00	6.436061e+07	
74	-3.70000e+00	6.466218e+07	
75	-3.75000e+00	6.495711e+07	
76	-3.80000e+00	6.524562e+07	
77	-3.85000e+00	6.552792e+07	
78	-3.90000e+00	6.580421e+07	
79	-3.95000e+00	6.607466e+07	
80	-4.00000e+00	6.633947e+07	
81	-4.05000e+00	6.659880e+07	
82	-4.10000e+00	6.685282e+07	
83	-4.15000e+00	6.710169e+07	
84	-4.20000e+00	6.734555e+07	
85	-4.25000e+00	6.758455e+07	
86	-4.30000e+00	6.781883e+07	
87	-4.35000e+00	6.804853e+07	
88	-4.40000e+00	6.827377e+07	
89	-4.45000e+00	6.849466e+07	
90	-4.50000e+00	6.871134e+07	
91	-4.55000e+00	6.892391e+07	
92	-4.60000e+00	6.913248e+07	
93	-4.65000e+00	6.933715e+07	
94	-4.70000e+00	6.953802e+07	
95	-4.75000e+00	6.973519e+07	
96	-4.80000e+00	6.992875e+07	
97	-4.85000e+00	7.011878e+07	
98	-4.90000e+00	7.030538e+07	
99	-4.95000e+00	7.048862e+07	
100	-5.00000e+00	7.066857e+07	
101	-5.05000e+00	7.084533e+07	
102	-5.10000e+00	7.101895e+07	
103	-5.15000e+00	7.118950e+07	
104	-5.20000e+00	7.135706e+07	
105	-5.25000e+00	7.152168e+07	
106	-5.30000e+00	7.168343e+07	
107	-5.35000e+00	7.184237e+07	
108	-5.40000e+00	7.199855e+07	
109	-5.45000e+00	7.215203e+07	
110	-5.50000e+00	7.230286e+07	
111	-5.55000e+00	7.245110e+07	
112	-5.60000e+00	7.259678e+07	

Index   v-sweep         rds             
--------------------------------------------------------------------------------
113	-5.65000e+00	7.273997e+07	
114	-5.70000e+00	7.288070e+07	
115	-5.75000e+00	7.301901e+07	
116	-5.80000e+00	7.315496e+07	
117	-5.85000e+00	7.328857e+07	
118	-5.90000e+00	7.341990e+07	
119	-5.95000e+00	7.354897e+07	
120	-6.00000e+00	7.367583e+07	
121	-6.05000e+00	7.380051e+07	
122	-6.10000e+00	7.392304e+07	
123	-6.15000e+00	7.404347e+07	
124	-6.20000e+00	7.416181e+07	
125	-6.25000e+00	7.427810e+07	
126	-6.30000e+00	7.439238e+07	
127	-6.35000e+00	7.450466e+07	
128	-6.40000e+00	7.461499e+07	
129	-6.45000e+00	7.472338e+07	
130	-6.50000e+00	7.482986e+07	
131	-6.55000e+00	7.493446e+07	
132	-6.60000e+00	7.503721e+07	
Reset re-loads circuit ***************************

Circuit: ***************************

Doing analysis at TEMP = 25.000000 and TNOM = 25.000000


No. of Data Rows : 133
                          ***************************
                          DC transfer characteristic  Mon Jan  9 13:57:54  2023
--------------------------------------------------------------------------------
Index   v-sweep         rds             
--------------------------------------------------------------------------------
0	0.000000e+00	1.117435e+05	
1	-5.00000e-02	1.155924e+05	
2	-1.00000e-01	1.197113e+05	
3	-1.50000e-01	1.241295e+05	
4	-2.00000e-01	1.288809e+05	
5	-2.50000e-01	1.340047e+05	
6	-3.00000e-01	1.395462e+05	
7	-3.50000e-01	1.455588e+05	
8	-4.00000e-01	1.521050e+05	
9	-4.50000e-01	1.592592e+05	
10	-5.00000e-01	1.671098e+05	
11	-5.50000e-01	1.757637e+05	
12	-6.00000e-01	1.853503e+05	
13	-6.50000e-01	1.960284e+05	
14	-7.00000e-01	2.079951e+05	
15	-7.50000e-01	2.214972e+05	
16	-8.00000e-01	2.368485e+05	
17	-8.50000e-01	2.544536e+05	
18	-9.00000e-01	2.748427e+05	
19	-9.50000e-01	2.987233e+05	
20	-1.00000e+00	3.270593e+05	
21	-1.05000e+00	3.611934e+05	
22	-1.10000e+00	4.030451e+05	
23	-1.15000e+00	4.554344e+05	
24	-1.20000e+00	5.226287e+05	
25	-1.25000e+00	6.112765e+05	
26	-1.30000e+00	7.319941e+05	
27	-1.35000e+00	9.019208e+05	
28	-1.40000e+00	1.148186e+06	
29	-1.45000e+00	1.510348e+06	
30	-1.50000e+00	2.035363e+06	
31	-1.55000e+00	2.756119e+06	
32	-1.60000e+00	3.659221e+06	
33	-1.65000e+00	4.675005e+06	
34	-1.70000e+00	5.710089e+06	
35	-1.75000e+00	6.690943e+06	
36	-1.80000e+00	7.581155e+06	
37	-1.85000e+00	8.373660e+06	
38	-1.90000e+00	9.076583e+06	
39	-1.95000e+00	9.703086e+06	
40	-2.00000e+00	1.026632e+07	
41	-2.05000e+00	1.077756e+07	
42	-2.10000e+00	1.124591e+07	
43	-2.15000e+00	1.167851e+07	
44	-2.20000e+00	1.208093e+07	
45	-2.25000e+00	1.245753e+07	
46	-2.30000e+00	1.281173e+07	
47	-2.35000e+00	1.314628e+07	
48	-2.40000e+00	1.346339e+07	
49	-2.45000e+00	1.376488e+07	
50	-2.50000e+00	1.405224e+07	
51	-2.55000e+00	1.432675e+07	
52	-2.60000e+00	1.458948e+07	
53	-2.65000e+00	1.484136e+07	
54	-2.70000e+00	1.508320e+07	

Index   v-sweep         rds             
--------------------------------------------------------------------------------
55	-2.75000e+00	1.531569e+07	
56	-2.80000e+00	1.553948e+07	
57	-2.85000e+00	1.575510e+07	
58	-2.90000e+00	1.596307e+07	
59	-2.95000e+00	1.616384e+07	
60	-3.00000e+00	1.635781e+07	
61	-3.05000e+00	1.654536e+07	
62	-3.10000e+00	1.672683e+07	
63	-3.15000e+00	1.690253e+07	
64	-3.20000e+00	1.707276e+07	
65	-3.25000e+00	1.723778e+07	
66	-3.30000e+00	1.739785e+07	
67	-3.35000e+00	1.755318e+07	
68	-3.40000e+00	1.770401e+07	
69	-3.45000e+00	1.785053e+07	
70	-3.50000e+00	1.799292e+07	
71	-3.55000e+00	1.813138e+07	
72	-3.60000e+00	1.826605e+07	
73	-3.65000e+00	1.839711e+07	
74	-3.70000e+00	1.852470e+07	
75	-3.75000e+00	1.864895e+07	
76	-3.80000e+00	1.877000e+07	
77	-3.85000e+00	1.888797e+07	
78	-3.90000e+00	1.900299e+07	
79	-3.95000e+00	1.911515e+07	
80	-4.00000e+00	1.922457e+07	
81	-4.05000e+00	1.933135e+07	
82	-4.10000e+00	1.943558e+07	
83	-4.15000e+00	1.953736e+07	
84	-4.20000e+00	1.963676e+07	
85	-4.25000e+00	1.973388e+07	
86	-4.30000e+00	1.982878e+07	
87	-4.35000e+00	1.992155e+07	
88	-4.40000e+00	2.001226e+07	
89	-4.45000e+00	2.010097e+07	
90	-4.50000e+00	2.018775e+07	
91	-4.55000e+00	2.027265e+07	
92	-4.60000e+00	2.035575e+07	
93	-4.65000e+00	2.043709e+07	
94	-4.70000e+00	2.051674e+07	
95	-4.75000e+00	2.059473e+07	
96	-4.80000e+00	2.067112e+07	
97	-4.85000e+00	2.074597e+07	
98	-4.90000e+00	2.081930e+07	
99	-4.95000e+00	2.089118e+07	
100	-5.00000e+00	2.096163e+07	
101	-5.05000e+00	2.103071e+07	
102	-5.10000e+00	2.109844e+07	
103	-5.15000e+00	2.116486e+07	
104	-5.20000e+00	2.123001e+07	
105	-5.25000e+00	2.129393e+07	
106	-5.30000e+00	2.135664e+07	
107	-5.35000e+00	2.141818e+07	
108	-5.40000e+00	2.147858e+07	
109	-5.45000e+00	2.153786e+07	
110	-5.50000e+00	2.159605e+07	
111	-5.55000e+00	2.165318e+07	
112	-5.60000e+00	2.170928e+07	

Index   v-sweep         rds             
--------------------------------------------------------------------------------
113	-5.65000e+00	2.176436e+07	
114	-5.70000e+00	2.181846e+07	
115	-5.75000e+00	2.187159e+07	
116	-5.80000e+00	2.192378e+07	
117	-5.85000e+00	2.197505e+07	
118	-5.90000e+00	2.202541e+07	
119	-5.95000e+00	2.207489e+07	
120	-6.00000e+00	2.212350e+07	
121	-6.05000e+00	2.217127e+07	
122	-6.10000e+00	2.221820e+07	
123	-6.15000e+00	2.226433e+07	
124	-6.20000e+00	2.230965e+07	
125	-6.25000e+00	2.235419e+07	
126	-6.30000e+00	2.239796e+07	
127	-6.35000e+00	2.244098e+07	
128	-6.40000e+00	2.248325e+07	
129	-6.45000e+00	2.252480e+07	
130	-6.50000e+00	2.256564e+07	
131	-6.55000e+00	2.260577e+07	
132	-6.60000e+00	2.264521e+07	
Reset re-loads circuit ***************************

Circuit: ***************************

Doing analysis at TEMP = 25.000000 and TNOM = 25.000000


No. of Data Rows : 133
                          ***************************
                          DC transfer characteristic  Mon Jan  9 13:57:54  2023
--------------------------------------------------------------------------------
Index   v-sweep         rds             
--------------------------------------------------------------------------------
0	0.000000e+00	8.180698e+04	
1	-5.00000e-02	8.370190e+04	
2	-1.00000e-01	8.568465e+04	
3	-1.50000e-01	8.776147e+04	
4	-2.00000e-01	8.993921e+04	
5	-2.50000e-01	9.222542e+04	
6	-3.00000e-01	9.462838e+04	
7	-3.50000e-01	9.715729e+04	
8	-4.00000e-01	9.982229e+04	
9	-4.50000e-01	1.026347e+05	
10	-5.00000e-01	1.056070e+05	
11	-5.50000e-01	1.087533e+05	
12	-6.00000e-01	1.120894e+05	
13	-6.50000e-01	1.156328e+05	
14	-7.00000e-01	1.194035e+05	
15	-7.50000e-01	1.234241e+05	
16	-8.00000e-01	1.277203e+05	
17	-8.50000e-01	1.323213e+05	
18	-9.00000e-01	1.372606e+05	
19	-9.50000e-01	1.425771e+05	
20	-1.00000e+00	1.483155e+05	
21	-1.05000e+00	1.545280e+05	
22	-1.10000e+00	1.612756e+05	
23	-1.15000e+00	1.686304e+05	
24	-1.20000e+00	1.766778e+05	
25	-1.25000e+00	1.855200e+05	
26	-1.30000e+00	1.952803e+05	
27	-1.35000e+00	2.061083e+05	
28	-1.40000e+00	2.181880e+05	
29	-1.45000e+00	2.317474e+05	
30	-1.50000e+00	2.470727e+05	
31	-1.55000e+00	2.645272e+05	
32	-1.60000e+00	2.845790e+05	
33	-1.65000e+00	3.078392e+05	
34	-1.70000e+00	3.351195e+05	
35	-1.75000e+00	3.675149e+05	
36	-1.80000e+00	4.065298e+05	
37	-1.85000e+00	4.542659e+05	
38	-1.90000e+00	5.137049e+05	
39	-1.95000e+00	5.891204e+05	
40	-2.00000e+00	6.866370e+05	
41	-2.05000e+00	8.148572e+05	
42	-2.10000e+00	9.851860e+05	
43	-2.15000e+00	1.210916e+06	
44	-2.20000e+00	1.503629e+06	
45	-2.25000e+00	1.866515e+06	
46	-2.30000e+00	2.288105e+06	
47	-2.35000e+00	2.742943e+06	
48	-2.40000e+00	3.200876e+06	
49	-2.45000e+00	3.637788e+06	
50	-2.50000e+00	4.040392e+06	
51	-2.55000e+00	4.404809e+06	
52	-2.60000e+00	4.732817e+06	
53	-2.65000e+00	5.028621e+06	
54	-2.70000e+00	5.296937e+06	

Index   v-sweep         rds             
--------------------------------------------------------------------------------
55	-2.75000e+00	5.542107e+06	
56	-2.80000e+00	5.767808e+06	
57	-2.85000e+00	5.977036e+06	
58	-2.90000e+00	6.172194e+06	
59	-2.95000e+00	6.355203e+06	
60	-3.00000e+00	6.527602e+06	
61	-3.05000e+00	6.690638e+06	
62	-3.10000e+00	6.845329e+06	
63	-3.15000e+00	6.992515e+06	
64	-3.20000e+00	7.132900e+06	
65	-3.25000e+00	7.267079e+06	
66	-3.30000e+00	7.395560e+06	
67	-3.35000e+00	7.518784e+06	
68	-3.40000e+00	7.637132e+06	
69	-3.45000e+00	7.750944e+06	
70	-3.50000e+00	7.860517e+06	
71	-3.55000e+00	7.966120e+06	
72	-3.60000e+00	8.067993e+06	
73	-3.65000e+00	8.166353e+06	
74	-3.70000e+00	8.261397e+06	
75	-3.75000e+00	8.353307e+06	
76	-3.80000e+00	8.442247e+06	
77	-3.85000e+00	8.528369e+06	
78	-3.90000e+00	8.611816e+06	
79	-3.95000e+00	8.692716e+06	
80	-4.00000e+00	8.771190e+06	
81	-4.05000e+00	8.847352e+06	
82	-4.10000e+00	8.921305e+06	
83	-4.15000e+00	8.993150e+06	
84	-4.20000e+00	9.062976e+06	
85	-4.25000e+00	9.130872e+06	
86	-4.30000e+00	9.196917e+06	
87	-4.35000e+00	9.261189e+06	
88	-4.40000e+00	9.323759e+06	
89	-4.45000e+00	9.384696e+06	
90	-4.50000e+00	9.444063e+06	
91	-4.55000e+00	9.501921e+06	
92	-4.60000e+00	9.558328e+06	
93	-4.65000e+00	9.613339e+06	
94	-4.70000e+00	9.667004e+06	
95	-4.75000e+00	9.719373e+06	
96	-4.80000e+00	9.770493e+06	
97	-4.85000e+00	9.820409e+06	
98	-4.90000e+00	9.869161e+06	
99	-4.95000e+00	9.916791e+06	
100	-5.00000e+00	9.963337e+06	
101	-5.05000e+00	1.000883e+07	
102	-5.10000e+00	1.005332e+07	
103	-5.15000e+00	1.009683e+07	
104	-5.20000e+00	1.013938e+07	
105	-5.25000e+00	1.018102e+07	
106	-5.30000e+00	1.022178e+07	
107	-5.35000e+00	1.026167e+07	
108	-5.40000e+00	1.030072e+07	
109	-5.45000e+00	1.033897e+07	
110	-5.50000e+00	1.037644e+07	
111	-5.55000e+00	1.041314e+07	
112	-5.60000e+00	1.044910e+07	

Index   v-sweep         rds             
--------------------------------------------------------------------------------
113	-5.65000e+00	1.048435e+07	
114	-5.70000e+00	1.051890e+07	
115	-5.75000e+00	1.055277e+07	
116	-5.80000e+00	1.058598e+07	
117	-5.85000e+00	1.061855e+07	
118	-5.90000e+00	1.065050e+07	
119	-5.95000e+00	1.068184e+07	
120	-6.00000e+00	1.071259e+07	
121	-6.05000e+00	1.074276e+07	
122	-6.10000e+00	1.077237e+07	
123	-6.15000e+00	1.080144e+07	
124	-6.20000e+00	1.082997e+07	
125	-6.25000e+00	1.085798e+07	
126	-6.30000e+00	1.088548e+07	
127	-6.35000e+00	1.091249e+07	
128	-6.40000e+00	1.093901e+07	
129	-6.45000e+00	1.096506e+07	
130	-6.50000e+00	1.099064e+07	
131	-6.55000e+00	1.101578e+07	
132	-6.60000e+00	1.104046e+07	
Reset re-loads circuit ***************************

Circuit: ***************************

Doing analysis at TEMP = 25.000000 and TNOM = 25.000000


No. of Data Rows : 133
                          ***************************
                          DC transfer characteristic  Mon Jan  9 13:57:54  2023
--------------------------------------------------------------------------------
Index   v-sweep         rds             
--------------------------------------------------------------------------------
0	0.000000e+00	6.648864e+04	
1	-5.00000e-02	6.764543e+04	
2	-1.00000e-01	6.884202e+04	
3	-1.50000e-01	7.008052e+04	
4	-2.00000e-01	7.136317e+04	
5	-2.50000e-01	7.269237e+04	
6	-3.00000e-01	7.407069e+04	
7	-3.50000e-01	7.550092e+04	
8	-4.00000e-01	7.698603e+04	
9	-4.50000e-01	7.852926e+04	
10	-5.00000e-01	8.013406e+04	
11	-5.50000e-01	8.180422e+04	
12	-6.00000e-01	8.354379e+04	
13	-6.50000e-01	8.535720e+04	
14	-7.00000e-01	8.724924e+04	
15	-7.50000e-01	8.922514e+04	
16	-8.00000e-01	9.129059e+04	
17	-8.50000e-01	9.345183e+04	
18	-9.00000e-01	9.571567e+04	
19	-9.50000e-01	9.808959e+04	
20	-1.00000e+00	1.005818e+05	
21	-1.05000e+00	1.032014e+05	
22	-1.10000e+00	1.059583e+05	
23	-1.15000e+00	1.088637e+05	
24	-1.20000e+00	1.119298e+05	
25	-1.25000e+00	1.151704e+05	
26	-1.30000e+00	1.186008e+05	
27	-1.35000e+00	1.222380e+05	
28	-1.40000e+00	1.261015e+05	
29	-1.45000e+00	1.302128e+05	
30	-1.50000e+00	1.345966e+05	
31	-1.55000e+00	1.392808e+05	
32	-1.60000e+00	1.442973e+05	
33	-1.65000e+00	1.496828e+05	
34	-1.70000e+00	1.554791e+05	
35	-1.75000e+00	1.617351e+05	
36	-1.80000e+00	1.685073e+05	
37	-1.85000e+00	1.758621e+05	
38	-1.90000e+00	1.838775e+05	
39	-1.95000e+00	1.926459e+05	
40	-2.00000e+00	2.022777e+05	
41	-2.05000e+00	2.129056e+05	
42	-2.10000e+00	2.246905e+05	
43	-2.15000e+00	2.378290e+05	
44	-2.20000e+00	2.525641e+05	
45	-2.25000e+00	2.691985e+05	
46	-2.30000e+00	2.881140e+05	
47	-2.35000e+00	3.097967e+05	
48	-2.40000e+00	3.348735e+05	
49	-2.45000e+00	3.641614e+05	
50	-2.50000e+00	3.987367e+05	
51	-2.55000e+00	4.400298e+05	
52	-2.60000e+00	4.899510e+05	
53	-2.65000e+00	5.510453e+05	
54	-2.70000e+00	6.266545e+05	

Index   v-sweep         rds             
--------------------------------------------------------------------------------
55	-2.75000e+00	7.210073e+05	
56	-2.80000e+00	8.390618e+05	
57	-2.85000e+00	9.857984e+05	
58	-2.90000e+00	1.164670e+06	
59	-2.95000e+00	1.375379e+06	
60	-3.00000e+00	1.612139e+06	
61	-3.05000e+00	1.864110e+06	
62	-3.10000e+00	2.118430e+06	
63	-3.15000e+00	2.364018e+06	
64	-3.20000e+00	2.593820e+06	
65	-3.25000e+00	2.804872e+06	
66	-3.30000e+00	2.997116e+06	
67	-3.35000e+00	3.172050e+06	
68	-3.40000e+00	3.331755e+06	
69	-3.45000e+00	3.478343e+06	
70	-3.50000e+00	3.613716e+06	
71	-3.55000e+00	3.739485e+06	
72	-3.60000e+00	3.856981e+06	
73	-3.65000e+00	3.967291e+06	
74	-3.70000e+00	4.071297e+06	
75	-3.75000e+00	4.169723e+06	
76	-3.80000e+00	4.263164e+06	
77	-3.85000e+00	4.352113e+06	
78	-3.90000e+00	4.436985e+06	
79	-3.95000e+00	4.518134e+06	
80	-4.00000e+00	4.595859e+06	
81	-4.05000e+00	4.670424e+06	
82	-4.10000e+00	4.742056e+06	
83	-4.15000e+00	4.810955e+06	
84	-4.20000e+00	4.877302e+06	
85	-4.25000e+00	4.941254e+06	
86	-4.30000e+00	5.002957e+06	
87	-4.35000e+00	5.062540e+06	
88	-4.40000e+00	5.120121e+06	
89	-4.45000e+00	5.175809e+06	
90	-4.50000e+00	5.229703e+06	
91	-4.55000e+00	5.281894e+06	
92	-4.60000e+00	5.332466e+06	
93	-4.65000e+00	5.381499e+06	
94	-4.70000e+00	5.429064e+06	
95	-4.75000e+00	5.475229e+06	
96	-4.80000e+00	5.520058e+06	
97	-4.85000e+00	5.563610e+06	
98	-4.90000e+00	5.605940e+06	
99	-4.95000e+00	5.647101e+06	
100	-5.00000e+00	5.687140e+06	
101	-5.05000e+00	5.726106e+06	
102	-5.10000e+00	5.764040e+06	
103	-5.15000e+00	5.800984e+06	
104	-5.20000e+00	5.836976e+06	
105	-5.25000e+00	5.872055e+06	
106	-5.30000e+00	5.906253e+06	
107	-5.35000e+00	5.939605e+06	
108	-5.40000e+00	5.972141e+06	
109	-5.45000e+00	6.003891e+06	
110	-5.50000e+00	6.034884e+06	
111	-5.55000e+00	6.065146e+06	
112	-5.60000e+00	6.094702e+06	

Index   v-sweep         rds             
--------------------------------------------------------------------------------
113	-5.65000e+00	6.123578e+06	
114	-5.70000e+00	6.151797e+06	
115	-5.75000e+00	6.179380e+06	
116	-5.80000e+00	6.206348e+06	
117	-5.85000e+00	6.232723e+06	
118	-5.90000e+00	6.258522e+06	
119	-5.95000e+00	6.283765e+06	
120	-6.00000e+00	6.308469e+06	
121	-6.05000e+00	6.332651e+06	
122	-6.10000e+00	6.356326e+06	
123	-6.15000e+00	6.379511e+06	
124	-6.20000e+00	6.402220e+06	
125	-6.25000e+00	6.424468e+06	
126	-6.30000e+00	6.446267e+06	
127	-6.35000e+00	6.467630e+06	
128	-6.40000e+00	6.488571e+06	
129	-6.45000e+00	6.509101e+06	
130	-6.50000e+00	6.529231e+06	
131	-6.55000e+00	6.548972e+06	
132	-6.60000e+00	6.568335e+06	
Reset re-loads circuit ***************************

Circuit: ***************************

Doing analysis at TEMP = 25.000000 and TNOM = 25.000000


No. of Data Rows : 133
                          ***************************
                          DC transfer characteristic  Mon Jan  9 13:57:54  2023
--------------------------------------------------------------------------------
Index   v-sweep         rds             
--------------------------------------------------------------------------------
0	0.000000e+00	5.718734e+04	
1	-5.00000e-02	5.798179e+04	
2	-1.00000e-01	5.879790e+04	
3	-1.50000e-01	5.963655e+04	
4	-2.00000e-01	6.049869e+04	
5	-2.50000e-01	6.138533e+04	
6	-3.00000e-01	6.229752e+04	
7	-3.50000e-01	6.323638e+04	
8	-4.00000e-01	6.420309e+04	
9	-4.50000e-01	6.519893e+04	
10	-5.00000e-01	6.622521e+04	
11	-5.50000e-01	6.728336e+04	
12	-6.00000e-01	6.837489e+04	
13	-6.50000e-01	6.950140e+04	
14	-7.00000e-01	7.066460e+04	
15	-7.50000e-01	7.186631e+04	
16	-8.00000e-01	7.310847e+04	
17	-8.50000e-01	7.439317e+04	
18	-9.00000e-01	7.572261e+04	
19	-9.50000e-01	7.709918e+04	
20	-1.00000e+00	7.852543e+04	
21	-1.05000e+00	8.000410e+04	
22	-1.10000e+00	8.153813e+04	
23	-1.15000e+00	8.313068e+04	
24	-1.20000e+00	8.478517e+04	
25	-1.25000e+00	8.650528e+04	
26	-1.30000e+00	8.829498e+04	
27	-1.35000e+00	9.015860e+04	
28	-1.40000e+00	9.210078e+04	
29	-1.45000e+00	9.412662e+04	
30	-1.50000e+00	9.624162e+04	
31	-1.55000e+00	9.845180e+04	
32	-1.60000e+00	1.007637e+05	
33	-1.65000e+00	1.031846e+05	
34	-1.70000e+00	1.057222e+05	
35	-1.75000e+00	1.083853e+05	
36	-1.80000e+00	1.111834e+05	
37	-1.85000e+00	1.141269e+05	
38	-1.90000e+00	1.172275e+05	
39	-1.95000e+00	1.204982e+05	
40	-2.00000e+00	1.239531e+05	
41	-2.05000e+00	1.276084e+05	
42	-2.10000e+00	1.314820e+05	
43	-2.15000e+00	1.355938e+05	
44	-2.20000e+00	1.399666e+05	
45	-2.25000e+00	1.446258e+05	
46	-2.30000e+00	1.496005e+05	
47	-2.35000e+00	1.549236e+05	
48	-2.40000e+00	1.606328e+05	
49	-2.45000e+00	1.667716e+05	
50	-2.50000e+00	1.733899e+05	
51	-2.55000e+00	1.805456e+05	
52	-2.60000e+00	1.883064e+05	
53	-2.65000e+00	1.967515e+05	
54	-2.70000e+00	2.059744e+05	

Index   v-sweep         rds             
--------------------------------------------------------------------------------
55	-2.75000e+00	2.160861e+05	
56	-2.80000e+00	2.272192e+05	
57	-2.85000e+00	2.395332e+05	
58	-2.90000e+00	2.532218e+05	
59	-2.95000e+00	2.685214e+05	
60	-3.00000e+00	2.857234e+05	
61	-3.05000e+00	3.051894e+05	
62	-3.10000e+00	3.273720e+05	
63	-3.15000e+00	3.528416e+05	
64	-3.20000e+00	3.823207e+05	
65	-3.25000e+00	4.167279e+05	
66	-3.30000e+00	4.572285e+05	
67	-3.35000e+00	5.052883e+05	
68	-3.40000e+00	5.627116e+05	
69	-3.45000e+00	6.316274e+05	
70	-3.50000e+00	7.143553e+05	
71	-3.55000e+00	8.130562e+05	
72	-3.60000e+00	9.290955e+05	
73	-3.65000e+00	1.062194e+06	
74	-3.70000e+00	1.209726e+06	
75	-3.75000e+00	1.366718e+06	
76	-3.80000e+00	1.526845e+06	
77	-3.85000e+00	1.684002e+06	
78	-3.90000e+00	1.833612e+06	
79	-3.95000e+00	1.973104e+06	
80	-4.00000e+00	2.101651e+06	
81	-4.05000e+00	2.219581e+06	
82	-4.10000e+00	2.327816e+06	
83	-4.15000e+00	2.427485e+06	
84	-4.20000e+00	2.519702e+06	
85	-4.25000e+00	2.605466e+06	
86	-4.30000e+00	2.685635e+06	
87	-4.35000e+00	2.760923e+06	
88	-4.40000e+00	2.831921e+06	
89	-4.45000e+00	2.899116e+06	
90	-4.50000e+00	2.962914e+06	
91	-4.55000e+00	3.023649e+06	
92	-4.60000e+00	3.081607e+06	
93	-4.65000e+00	3.137026e+06	
94	-4.70000e+00	3.190113e+06	
95	-4.75000e+00	3.241046e+06	
96	-4.80000e+00	3.289980e+06	
97	-4.85000e+00	3.337053e+06	
98	-4.90000e+00	3.382385e+06	
99	-4.95000e+00	3.426086e+06	
100	-5.00000e+00	3.468252e+06	
101	-5.05000e+00	3.508973e+06	
102	-5.10000e+00	3.548329e+06	
103	-5.15000e+00	3.586392e+06	
104	-5.20000e+00	3.623232e+06	
105	-5.25000e+00	3.658909e+06	
106	-5.30000e+00	3.693481e+06	
107	-5.35000e+00	3.727001e+06	
108	-5.40000e+00	3.759519e+06	
109	-5.45000e+00	3.791081e+06	
110	-5.50000e+00	3.821729e+06	
111	-5.55000e+00	3.851505e+06	
112	-5.60000e+00	3.880445e+06	

Index   v-sweep         rds             
--------------------------------------------------------------------------------
113	-5.65000e+00	3.908586e+06	
114	-5.70000e+00	3.935961e+06	
115	-5.75000e+00	3.962601e+06	
116	-5.80000e+00	3.988536e+06	
117	-5.85000e+00	4.013793e+06	
118	-5.90000e+00	4.038400e+06	
119	-5.95000e+00	4.062381e+06	
120	-6.00000e+00	4.085760e+06	
121	-6.05000e+00	4.108560e+06	
122	-6.10000e+00	4.130802e+06	
123	-6.15000e+00	4.152506e+06	
124	-6.20000e+00	4.173692e+06	
125	-6.25000e+00	4.194377e+06	
126	-6.30000e+00	4.214580e+06	
127	-6.35000e+00	4.234317e+06	
128	-6.40000e+00	4.253604e+06	
129	-6.45000e+00	4.272456e+06	
130	-6.50000e+00	4.290888e+06	
131	-6.55000e+00	4.308913e+06	
132	-6.60000e+00	4.326544e+06	
Reset re-loads circuit ***************************

Circuit: ***************************

Note: No ".plot", ".print", or ".fourier" lines; no simulations run
