
Note: Compatibility modes selected: hs

Warning: m=xx on .subckt line will override multiplier m hierarchy!


Circuit: ***************************

Doing analysis at TEMP = 25.000000 and TNOM = 25.000000


No. of Data Rows : 133
                          ***************************
                          DC transfer characteristic  Mon Jan  9 13:57:54  2023
--------------------------------------------------------------------------------
Index   v-sweep         rds             
--------------------------------------------------------------------------------
0	0.000000e+00	5.537218e+04	
1	-5.00000e-02	8.961891e+04	
2	-1.00000e-01	1.986006e+05	
3	-1.50000e-01	6.910790e+05	
4	-2.00000e-01	2.239118e+06	
5	-2.50000e-01	4.500756e+06	
6	-3.00000e-01	6.515410e+06	
7	-3.50000e-01	8.073038e+06	
8	-4.00000e-01	9.309707e+06	
9	-4.50000e-01	1.035348e+07	
10	-5.00000e-01	1.128044e+07	
11	-5.50000e-01	1.213269e+07	
12	-6.00000e-01	1.293392e+07	
13	-6.50000e-01	1.369795e+07	
14	-7.00000e-01	1.443325e+07	
15	-7.50000e-01	1.514522e+07	
16	-8.00000e-01	1.583745e+07	
17	-8.50000e-01	1.651243e+07	
18	-9.00000e-01	1.717197e+07	
19	-9.50000e-01	1.781738e+07	
20	-1.00000e+00	1.844969e+07	
21	-1.05000e+00	1.906973e+07	
22	-1.10000e+00	1.967813e+07	
23	-1.15000e+00	2.027546e+07	
24	-1.20000e+00	2.086218e+07	
25	-1.25000e+00	2.143869e+07	
26	-1.30000e+00	2.200537e+07	
27	-1.35000e+00	2.256252e+07	
28	-1.40000e+00	2.311046e+07	
29	-1.45000e+00	2.364943e+07	
30	-1.50000e+00	2.417969e+07	
31	-1.55000e+00	2.470149e+07	
32	-1.60000e+00	2.521502e+07	
33	-1.65000e+00	2.572051e+07	
34	-1.70000e+00	2.621814e+07	
35	-1.75000e+00	2.670810e+07	
36	-1.80000e+00	2.719058e+07	
37	-1.85000e+00	2.766574e+07	
38	-1.90000e+00	2.813374e+07	
39	-1.95000e+00	2.859475e+07	
40	-2.00000e+00	2.904892e+07	
41	-2.05000e+00	2.949639e+07	
42	-2.10000e+00	2.993730e+07	
43	-2.15000e+00	3.037180e+07	
44	-2.20000e+00	3.080002e+07	
45	-2.25000e+00	3.122208e+07	
46	-2.30000e+00	3.163811e+07	
47	-2.35000e+00	3.204824e+07	
48	-2.40000e+00	3.245257e+07	
49	-2.45000e+00	3.285123e+07	
50	-2.50000e+00	3.324433e+07	
51	-2.55000e+00	3.363197e+07	
52	-2.60000e+00	3.401427e+07	
53	-2.65000e+00	3.439132e+07	
54	-2.70000e+00	3.476322e+07	

Index   v-sweep         rds             
--------------------------------------------------------------------------------
55	-2.75000e+00	3.513007e+07	
56	-2.80000e+00	3.549197e+07	
57	-2.85000e+00	3.584900e+07	
58	-2.90000e+00	3.620127e+07	
59	-2.95000e+00	3.654884e+07	
60	-3.00000e+00	3.689182e+07	
61	-3.05000e+00	3.723027e+07	
62	-3.10000e+00	3.756429e+07	
63	-3.15000e+00	3.789395e+07	
64	-3.20000e+00	3.821933e+07	
65	-3.25000e+00	3.854050e+07	
66	-3.30000e+00	3.885753e+07	
67	-3.35000e+00	3.917049e+07	
68	-3.40000e+00	3.947945e+07	
69	-3.45000e+00	3.978448e+07	
70	-3.50000e+00	4.008563e+07	
71	-3.55000e+00	4.038298e+07	
72	-3.60000e+00	4.067658e+07	
73	-3.65000e+00	4.096648e+07	
74	-3.70000e+00	4.125276e+07	
75	-3.75000e+00	4.153545e+07	
76	-3.80000e+00	4.181462e+07	
77	-3.85000e+00	4.209031e+07	
78	-3.90000e+00	4.236257e+07	
79	-3.95000e+00	4.263145e+07	
80	-4.00000e+00	4.289700e+07	
81	-4.05000e+00	4.315926e+07	
82	-4.10000e+00	4.341827e+07	
83	-4.15000e+00	4.367408e+07	
84	-4.20000e+00	4.392671e+07	
85	-4.25000e+00	4.417622e+07	
86	-4.30000e+00	4.442263e+07	
87	-4.35000e+00	4.466599e+07	
88	-4.40000e+00	4.490632e+07	
89	-4.45000e+00	4.514365e+07	
90	-4.50000e+00	4.537802e+07	
91	-4.55000e+00	4.560946e+07	
92	-4.60000e+00	4.583800e+07	
93	-4.65000e+00	4.606365e+07	
94	-4.70000e+00	4.628645e+07	
95	-4.75000e+00	4.650643e+07	
96	-4.80000e+00	4.672360e+07	
97	-4.85000e+00	4.693798e+07	
98	-4.90000e+00	4.714960e+07	
99	-4.95000e+00	4.735848e+07	
100	-5.00000e+00	4.756464e+07	
101	-5.05000e+00	4.776809e+07	
102	-5.10000e+00	4.796886e+07	
103	-5.15000e+00	4.816696e+07	
104	-5.20000e+00	4.836240e+07	
105	-5.25000e+00	4.855520e+07	
106	-5.30000e+00	4.874538e+07	
107	-5.35000e+00	4.893295e+07	
108	-5.40000e+00	4.911792e+07	
109	-5.45000e+00	4.930030e+07	
110	-5.50000e+00	4.948011e+07	
111	-5.55000e+00	4.965736e+07	
112	-5.60000e+00	4.983205e+07	

Index   v-sweep         rds             
--------------------------------------------------------------------------------
113	-5.65000e+00	5.000421e+07	
114	-5.70000e+00	5.017383e+07	
115	-5.75000e+00	5.034094e+07	
116	-5.80000e+00	5.050553e+07	
117	-5.85000e+00	5.066762e+07	
118	-5.90000e+00	5.082722e+07	
119	-5.95000e+00	5.098433e+07	
120	-6.00000e+00	5.113896e+07	
121	-6.05000e+00	5.129113e+07	
122	-6.10000e+00	5.144084e+07	
123	-6.15000e+00	5.158810e+07	
124	-6.20000e+00	5.173291e+07	
125	-6.25000e+00	5.187528e+07	
126	-6.30000e+00	5.201523e+07	
127	-6.35000e+00	5.215275e+07	
128	-6.40000e+00	5.228787e+07	
129	-6.45000e+00	5.242057e+07	
130	-6.50000e+00	5.255088e+07	
131	-6.55000e+00	5.267880e+07	
132	-6.60000e+00	5.280434e+07	
Reset re-loads circuit ***************************

Circuit: ***************************

Doing analysis at TEMP = 25.000000 and TNOM = 25.000000


No. of Data Rows : 133
                          ***************************
                          DC transfer characteristic  Mon Jan  9 13:57:54  2023
--------------------------------------------------------------------------------
Index   v-sweep         rds             
--------------------------------------------------------------------------------
0	0.000000e+00	6.925230e+03	
1	-5.00000e-02	7.374843e+03	
2	-1.00000e-01	7.882994e+03	
3	-1.50000e-01	8.461876e+03	
4	-2.00000e-01	9.127306e+03	
5	-2.50000e-01	9.900168e+03	
6	-3.00000e-01	1.080860e+04	
7	-3.50000e-01	1.189139e+04	
8	-4.00000e-01	1.320345e+04	
9	-4.50000e-01	1.482492e+04	
10	-5.00000e-01	1.687688e+04	
11	-5.50000e-01	1.954966e+04	
12	-6.00000e-01	2.315525e+04	
13	-6.50000e-01	2.822580e+04	
14	-7.00000e-01	3.568862e+04	
15	-7.50000e-01	4.710183e+04	
16	-8.00000e-01	6.462655e+04	
17	-8.50000e-01	8.977657e+04	
18	-9.00000e-01	1.210075e+05	
19	-9.50000e-01	1.539489e+05	
20	-1.00000e+00	1.850372e+05	
21	-1.05000e+00	2.131595e+05	
22	-1.10000e+00	2.386196e+05	
23	-1.15000e+00	2.620503e+05	
24	-1.20000e+00	2.839951e+05	
25	-1.25000e+00	3.048407e+05	
26	-1.30000e+00	3.248470e+05	
27	-1.35000e+00	3.441875e+05	
28	-1.40000e+00	3.629792e+05	
29	-1.45000e+00	3.813030e+05	
30	-1.50000e+00	3.992161e+05	
31	-1.55000e+00	4.167601e+05	
32	-1.60000e+00	4.339663e+05	
33	-1.65000e+00	4.508586e+05	
34	-1.70000e+00	4.674561e+05	
35	-1.75000e+00	4.837742e+05	
36	-1.80000e+00	4.998257e+05	
37	-1.85000e+00	5.156215e+05	
38	-1.90000e+00	5.311708e+05	
39	-1.95000e+00	5.464821e+05	
40	-2.00000e+00	5.615628e+05	
41	-2.05000e+00	5.764194e+05	
42	-2.10000e+00	5.910582e+05	
43	-2.15000e+00	6.054849e+05	
44	-2.20000e+00	6.197048e+05	
45	-2.25000e+00	6.337228e+05	
46	-2.30000e+00	6.475436e+05	
47	-2.35000e+00	6.611718e+05	
48	-2.40000e+00	6.746115e+05	
49	-2.45000e+00	6.878668e+05	
50	-2.50000e+00	7.009416e+05	
51	-2.55000e+00	7.138398e+05	
52	-2.60000e+00	7.265648e+05	
53	-2.65000e+00	7.391203e+05	
54	-2.70000e+00	7.515095e+05	

Index   v-sweep         rds             
--------------------------------------------------------------------------------
55	-2.75000e+00	7.637357e+05	
56	-2.80000e+00	7.758021e+05	
57	-2.85000e+00	7.877119e+05	
58	-2.90000e+00	7.994678e+05	
59	-2.95000e+00	8.110730e+05	
60	-3.00000e+00	8.225301e+05	
61	-3.05000e+00	8.338419e+05	
62	-3.10000e+00	8.450112e+05	
63	-3.15000e+00	8.560404e+05	
64	-3.20000e+00	8.669322e+05	
65	-3.25000e+00	8.776890e+05	
66	-3.30000e+00	8.883131e+05	
67	-3.35000e+00	8.988071e+05	
68	-3.40000e+00	9.091730e+05	
69	-3.45000e+00	9.194132e+05	
70	-3.50000e+00	9.295299e+05	
71	-3.55000e+00	9.395251e+05	
72	-3.60000e+00	9.494009e+05	
73	-3.65000e+00	9.591593e+05	
74	-3.70000e+00	9.688023e+05	
75	-3.75000e+00	9.783318e+05	
76	-3.80000e+00	9.877497e+05	
77	-3.85000e+00	9.970576e+05	
78	-3.90000e+00	1.006258e+06	
79	-3.95000e+00	1.015351e+06	
80	-4.00000e+00	1.024340e+06	
81	-4.05000e+00	1.033225e+06	
82	-4.10000e+00	1.042009e+06	
83	-4.15000e+00	1.050693e+06	
84	-4.20000e+00	1.059279e+06	
85	-4.25000e+00	1.067767e+06	
86	-4.30000e+00	1.076160e+06	
87	-4.35000e+00	1.084458e+06	
88	-4.40000e+00	1.092663e+06	
89	-4.45000e+00	1.100776e+06	
90	-4.50000e+00	1.108798e+06	
91	-4.55000e+00	1.116730e+06	
92	-4.60000e+00	1.124574e+06	
93	-4.65000e+00	1.132331e+06	
94	-4.70000e+00	1.140001e+06	
95	-4.75000e+00	1.147586e+06	
96	-4.80000e+00	1.155086e+06	
97	-4.85000e+00	1.162503e+06	
98	-4.90000e+00	1.169837e+06	
99	-4.95000e+00	1.177088e+06	
100	-5.00000e+00	1.184259e+06	
101	-5.05000e+00	1.191349e+06	
102	-5.10000e+00	1.198359e+06	
103	-5.15000e+00	1.205290e+06	
104	-5.20000e+00	1.212143e+06	
105	-5.25000e+00	1.218917e+06	
106	-5.30000e+00	1.225614e+06	
107	-5.35000e+00	1.232235e+06	
108	-5.40000e+00	1.238778e+06	
109	-5.45000e+00	1.245246e+06	
110	-5.50000e+00	1.251638e+06	
111	-5.55000e+00	1.257955e+06	
112	-5.60000e+00	1.264197e+06	

Index   v-sweep         rds             
--------------------------------------------------------------------------------
113	-5.65000e+00	1.270365e+06	
114	-5.70000e+00	1.276458e+06	
115	-5.75000e+00	1.282478e+06	
116	-5.80000e+00	1.288423e+06	
117	-5.85000e+00	1.294296e+06	
118	-5.90000e+00	1.300095e+06	
119	-5.95000e+00	1.305821e+06	
120	-6.00000e+00	1.311475e+06	
121	-6.05000e+00	1.317055e+06	
122	-6.10000e+00	1.322564e+06	
123	-6.15000e+00	1.327999e+06	
124	-6.20000e+00	1.333363e+06	
125	-6.25000e+00	1.338654e+06	
126	-6.30000e+00	1.343874e+06	
127	-6.35000e+00	1.349021e+06	
128	-6.40000e+00	1.354096e+06	
129	-6.45000e+00	1.359100e+06	
130	-6.50000e+00	1.364032e+06	
131	-6.55000e+00	1.368892e+06	
132	-6.60000e+00	1.373680e+06	
Reset re-loads circuit ***************************

Circuit: ***************************

Doing analysis at TEMP = 25.000000 and TNOM = 25.000000


No. of Data Rows : 133
                          ***************************
                          DC transfer characteristic  Mon Jan  9 13:57:54  2023
--------------------------------------------------------------------------------
Index   v-sweep         rds             
--------------------------------------------------------------------------------
0	0.000000e+00	4.107188e+03	
1	-5.00000e-02	4.253390e+03	
2	-1.00000e-01	4.409358e+03	
3	-1.50000e-01	4.576102e+03	
4	-2.00000e-01	4.754777e+03	
5	-2.50000e-01	4.946708e+03	
6	-3.00000e-01	5.153424e+03	
7	-3.50000e-01	5.376699e+03	
8	-4.00000e-01	5.618600e+03	
9	-4.50000e-01	5.881555e+03	
10	-5.00000e-01	6.168428e+03	
11	-5.50000e-01	6.482628e+03	
12	-6.00000e-01	6.828242e+03	
13	-6.50000e-01	7.210209e+03	
14	-7.00000e-01	7.634553e+03	
15	-7.50000e-01	8.108696e+03	
16	-8.00000e-01	8.641886e+03	
17	-8.50000e-01	9.245777e+03	
18	-9.00000e-01	9.935254e+03	
19	-9.50000e-01	1.072960e+04	
20	-1.00000e+00	1.165419e+04	
21	-1.05000e+00	1.274294e+04	
22	-1.10000e+00	1.404198e+04	
23	-1.15000e+00	1.561504e+04	
24	-1.20000e+00	1.755122e+04	
25	-1.25000e+00	1.997560e+04	
26	-1.30000e+00	2.306087e+04	
27	-1.35000e+00	2.703192e+04	
28	-1.40000e+00	3.214017e+04	
29	-1.45000e+00	3.857041e+04	
30	-1.50000e+00	4.628088e+04	
31	-1.55000e+00	5.490942e+04	
32	-1.60000e+00	6.391334e+04	
33	-1.65000e+00	7.283826e+04	
34	-1.70000e+00	8.144949e+04	
35	-1.75000e+00	8.968723e+04	
36	-1.80000e+00	9.757580e+04	
37	-1.85000e+00	1.051638e+05	
38	-1.90000e+00	1.124982e+05	
39	-1.95000e+00	1.196173e+05	
40	-2.00000e+00	1.265502e+05	
41	-2.05000e+00	1.333186e+05	
42	-2.10000e+00	1.399391e+05	
43	-2.15000e+00	1.464239e+05	
44	-2.20000e+00	1.527828e+05	
45	-2.25000e+00	1.590233e+05	
46	-2.30000e+00	1.651517e+05	
47	-2.35000e+00	1.711733e+05	
48	-2.40000e+00	1.770923e+05	
49	-2.45000e+00	1.829126e+05	
50	-2.50000e+00	1.886376e+05	
51	-2.55000e+00	1.942702e+05	
52	-2.60000e+00	1.998133e+05	
53	-2.65000e+00	2.052693e+05	
54	-2.70000e+00	2.106406e+05	

Index   v-sweep         rds             
--------------------------------------------------------------------------------
55	-2.75000e+00	2.159293e+05	
56	-2.80000e+00	2.211376e+05	
57	-2.85000e+00	2.262674e+05	
58	-2.90000e+00	2.313206e+05	
59	-2.95000e+00	2.362989e+05	
60	-3.00000e+00	2.412040e+05	
61	-3.05000e+00	2.460376e+05	
62	-3.10000e+00	2.508012e+05	
63	-3.15000e+00	2.554963e+05	
64	-3.20000e+00	2.601245e+05	
65	-3.25000e+00	2.646870e+05	
66	-3.30000e+00	2.691854e+05	
67	-3.35000e+00	2.736209e+05	
68	-3.40000e+00	2.779948e+05	
69	-3.45000e+00	2.823083e+05	
70	-3.50000e+00	2.865627e+05	
71	-3.55000e+00	2.907592e+05	
72	-3.60000e+00	2.948988e+05	
73	-3.65000e+00	2.989827e+05	
74	-3.70000e+00	3.030121e+05	
75	-3.75000e+00	3.069878e+05	
76	-3.80000e+00	3.109111e+05	
77	-3.85000e+00	3.147828e+05	
78	-3.90000e+00	3.186040e+05	
79	-3.95000e+00	3.223756e+05	
80	-4.00000e+00	3.260985e+05	
81	-4.05000e+00	3.297736e+05	
82	-4.10000e+00	3.334018e+05	
83	-4.15000e+00	3.369839e+05	
84	-4.20000e+00	3.405209e+05	
85	-4.25000e+00	3.440134e+05	
86	-4.30000e+00	3.474624e+05	
87	-4.35000e+00	3.508684e+05	
88	-4.40000e+00	3.542324e+05	
89	-4.45000e+00	3.575550e+05	
90	-4.50000e+00	3.608369e+05	
91	-4.55000e+00	3.640789e+05	
92	-4.60000e+00	3.672815e+05	
93	-4.65000e+00	3.704454e+05	
94	-4.70000e+00	3.735713e+05	
95	-4.75000e+00	3.766598e+05	
96	-4.80000e+00	3.797114e+05	
97	-4.85000e+00	3.827267e+05	
98	-4.90000e+00	3.857063e+05	
99	-4.95000e+00	3.886507e+05	
100	-5.00000e+00	3.915605e+05	
101	-5.05000e+00	3.944360e+05	
102	-5.10000e+00	3.972778e+05	
103	-5.15000e+00	4.000864e+05	
104	-5.20000e+00	4.028622e+05	
105	-5.25000e+00	4.056056e+05	
106	-5.30000e+00	4.083170e+05	
107	-5.35000e+00	4.109968e+05	
108	-5.40000e+00	4.136454e+05	
109	-5.45000e+00	4.162631e+05	
110	-5.50000e+00	4.188504e+05	
111	-5.55000e+00	4.214074e+05	
112	-5.60000e+00	4.239345e+05	

Index   v-sweep         rds             
--------------------------------------------------------------------------------
113	-5.65000e+00	4.264321e+05	
114	-5.70000e+00	4.289003e+05	
115	-5.75000e+00	4.313394e+05	
116	-5.80000e+00	4.337498e+05	
117	-5.85000e+00	4.361316e+05	
118	-5.90000e+00	4.384850e+05	
119	-5.95000e+00	4.408102e+05	
120	-6.00000e+00	4.431076e+05	
121	-6.05000e+00	4.453771e+05	
122	-6.10000e+00	4.476190e+05	
123	-6.15000e+00	4.498335e+05	
124	-6.20000e+00	4.520206e+05	
125	-6.25000e+00	4.541806e+05	
126	-6.30000e+00	4.563136e+05	
127	-6.35000e+00	4.584196e+05	
128	-6.40000e+00	4.604988e+05	
129	-6.45000e+00	4.625513e+05	
130	-6.50000e+00	4.645771e+05	
131	-6.55000e+00	4.665764e+05	
132	-6.60000e+00	4.685492e+05	
Reset re-loads circuit ***************************

Circuit: ***************************

Doing analysis at TEMP = 25.000000 and TNOM = 25.000000


No. of Data Rows : 133
                          ***************************
                          DC transfer characteristic  Mon Jan  9 13:57:54  2023
--------------------------------------------------------------------------------
Index   v-sweep         rds             
--------------------------------------------------------------------------------
0	0.000000e+00	3.097798e+03	
1	-5.00000e-02	3.175238e+03	
2	-1.00000e-01	3.256167e+03	
3	-1.50000e-01	3.340826e+03	
4	-2.00000e-01	3.429480e+03	
5	-2.50000e-01	3.522416e+03	
6	-3.00000e-01	3.619952e+03	
7	-3.50000e-01	3.722437e+03	
8	-4.00000e-01	3.830257e+03	
9	-4.50000e-01	3.943839e+03	
10	-5.00000e-01	4.063657e+03	
11	-5.50000e-01	4.190236e+03	
12	-6.00000e-01	4.324165e+03	
13	-6.50000e-01	4.466102e+03	
14	-7.00000e-01	4.616786e+03	
15	-7.50000e-01	4.777047e+03	
16	-8.00000e-01	4.947829e+03	
17	-8.50000e-01	5.130198e+03	
18	-9.00000e-01	5.325371e+03	
19	-9.50000e-01	5.534743e+03	
20	-1.00000e+00	5.759916e+03	
21	-1.05000e+00	6.002740e+03	
22	-1.10000e+00	6.265368e+03	
23	-1.15000e+00	6.550313e+03	
24	-1.20000e+00	6.860529e+03	
25	-1.25000e+00	7.199510e+03	
26	-1.30000e+00	7.571418e+03	
27	-1.35000e+00	7.981249e+03	
28	-1.40000e+00	8.435041e+03	
29	-1.45000e+00	8.940162e+03	
30	-1.50000e+00	9.505673e+03	
31	-1.55000e+00	1.014282e+04	
32	-1.60000e+00	1.086570e+04	
33	-1.65000e+00	1.169210e+04	
34	-1.70000e+00	1.264468e+04	
35	-1.75000e+00	1.375238e+04	
36	-1.80000e+00	1.505215e+04	
37	-1.85000e+00	1.659054e+04	
38	-1.90000e+00	1.842441e+04	
39	-1.95000e+00	2.061841e+04	
40	-2.00000e+00	2.323574e+04	
41	-2.05000e+00	2.631860e+04	
42	-2.10000e+00	2.986118e+04	
43	-2.15000e+00	3.379190e+04	
44	-2.20000e+00	3.798663e+04	
45	-2.25000e+00	4.231034e+04	
46	-2.30000e+00	4.665616e+04	
47	-2.35000e+00	5.095858e+04	
48	-2.40000e+00	5.518577e+04	
49	-2.45000e+00	5.932629e+04	
50	-2.50000e+00	6.337874e+04	
51	-2.55000e+00	6.734586e+04	
52	-2.60000e+00	7.123171e+04	
53	-2.65000e+00	7.504038e+04	
54	-2.70000e+00	7.877563e+04	

Index   v-sweep         rds             
--------------------------------------------------------------------------------
55	-2.75000e+00	8.244078e+04	
56	-2.80000e+00	8.603873e+04	
57	-2.85000e+00	8.957200e+04	
58	-2.90000e+00	9.304288e+04	
59	-2.95000e+00	9.645337e+04	
60	-3.00000e+00	9.980534e+04	
61	-3.05000e+00	1.031005e+05	
62	-3.10000e+00	1.063404e+05	
63	-3.15000e+00	1.095265e+05	
64	-3.20000e+00	1.126602e+05	
65	-3.25000e+00	1.157429e+05	
66	-3.30000e+00	1.187758e+05	
67	-3.35000e+00	1.217602e+05	
68	-3.40000e+00	1.246971e+05	
69	-3.45000e+00	1.275877e+05	
70	-3.50000e+00	1.304331e+05	
71	-3.55000e+00	1.332342e+05	
72	-3.60000e+00	1.359922e+05	
73	-3.65000e+00	1.387080e+05	
74	-3.70000e+00	1.413824e+05	
75	-3.75000e+00	1.440165e+05	
76	-3.80000e+00	1.466111e+05	
77	-3.85000e+00	1.491671e+05	
78	-3.90000e+00	1.516852e+05	
79	-3.95000e+00	1.541663e+05	
80	-4.00000e+00	1.566112e+05	
81	-4.05000e+00	1.590207e+05	
82	-4.10000e+00	1.613954e+05	
83	-4.15000e+00	1.637361e+05	
84	-4.20000e+00	1.660435e+05	
85	-4.25000e+00	1.683183e+05	
86	-4.30000e+00	1.705612e+05	
87	-4.35000e+00	1.727727e+05	
88	-4.40000e+00	1.749535e+05	
89	-4.45000e+00	1.771043e+05	
90	-4.50000e+00	1.792256e+05	
91	-4.55000e+00	1.813180e+05	
92	-4.60000e+00	1.833821e+05	
93	-4.65000e+00	1.854183e+05	
94	-4.70000e+00	1.874274e+05	
95	-4.75000e+00	1.894096e+05	
96	-4.80000e+00	1.913657e+05	
97	-4.85000e+00	1.932961e+05	
98	-4.90000e+00	1.952011e+05	
99	-4.95000e+00	1.970814e+05	
100	-5.00000e+00	1.989374e+05	
101	-5.05000e+00	2.007695e+05	
102	-5.10000e+00	2.025781e+05	
103	-5.15000e+00	2.043637e+05	
104	-5.20000e+00	2.061266e+05	
105	-5.25000e+00	2.078673e+05	
106	-5.30000e+00	2.095861e+05	
107	-5.35000e+00	2.112834e+05	
108	-5.40000e+00	2.129595e+05	
109	-5.45000e+00	2.146149e+05	
110	-5.50000e+00	2.162498e+05	
111	-5.55000e+00	2.178645e+05	
112	-5.60000e+00	2.194594e+05	

Index   v-sweep         rds             
--------------------------------------------------------------------------------
113	-5.65000e+00	2.210348e+05	
114	-5.70000e+00	2.225909e+05	
115	-5.75000e+00	2.241280e+05	
116	-5.80000e+00	2.256464e+05	
117	-5.85000e+00	2.271464e+05	
118	-5.90000e+00	2.286282e+05	
119	-5.95000e+00	2.300920e+05	
120	-6.00000e+00	2.315380e+05	
121	-6.05000e+00	2.329665e+05	
122	-6.10000e+00	2.343777e+05	
123	-6.15000e+00	2.357718e+05	
124	-6.20000e+00	2.371489e+05	
125	-6.25000e+00	2.385093e+05	
126	-6.30000e+00	2.398530e+05	
127	-6.35000e+00	2.411803e+05	
128	-6.40000e+00	2.424914e+05	
129	-6.45000e+00	2.437862e+05	
130	-6.50000e+00	2.450651e+05	
131	-6.55000e+00	2.463280e+05	
132	-6.60000e+00	2.475752e+05	
Reset re-loads circuit ***************************

Circuit: ***************************

Doing analysis at TEMP = 25.000000 and TNOM = 25.000000


No. of Data Rows : 133
                          ***************************
                          DC transfer characteristic  Mon Jan  9 13:57:54  2023
--------------------------------------------------------------------------------
Index   v-sweep         rds             
--------------------------------------------------------------------------------
0	0.000000e+00	2.579072e+03	
1	-5.00000e-02	2.629266e+03	
2	-1.00000e-01	2.681170e+03	
3	-1.50000e-01	2.734871e+03	
4	-2.00000e-01	2.790464e+03	
5	-2.50000e-01	2.848051e+03	
6	-3.00000e-01	2.907741e+03	
7	-3.50000e-01	2.969650e+03	
8	-4.00000e-01	3.033905e+03	
9	-4.50000e-01	3.100640e+03	
10	-5.00000e-01	3.170003e+03	
11	-5.50000e-01	3.242150e+03	
12	-6.00000e-01	3.317253e+03	
13	-6.50000e-01	3.395496e+03	
14	-7.00000e-01	3.477080e+03	
15	-7.50000e-01	3.562224e+03	
16	-8.00000e-01	3.651164e+03	
17	-8.50000e-01	3.744161e+03	
18	-9.00000e-01	3.841496e+03	
19	-9.50000e-01	3.943481e+03	
20	-1.00000e+00	4.050455e+03	
21	-1.05000e+00	4.162794e+03	
22	-1.10000e+00	4.280910e+03	
23	-1.15000e+00	4.405259e+03	
24	-1.20000e+00	4.536346e+03	
25	-1.25000e+00	4.674734e+03	
26	-1.30000e+00	4.821046e+03	
27	-1.35000e+00	4.975983e+03	
28	-1.40000e+00	5.140326e+03	
29	-1.45000e+00	5.314957e+03	
30	-1.50000e+00	5.500868e+03	
31	-1.55000e+00	5.699184e+03	
32	-1.60000e+00	5.911182e+03	
33	-1.65000e+00	6.138322e+03	
34	-1.70000e+00	6.382275e+03	
35	-1.75000e+00	6.644964e+03	
36	-1.80000e+00	6.928618e+03	
37	-1.85000e+00	7.235823e+03	
38	-1.90000e+00	7.569603e+03	
39	-1.95000e+00	7.933514e+03	
40	-2.00000e+00	8.331754e+03	
41	-2.05000e+00	8.769316e+03	
42	-2.10000e+00	9.252167e+03	
43	-2.15000e+00	9.787478e+03	
44	-2.20000e+00	1.038391e+04	
45	-2.25000e+00	1.105197e+04	
46	-2.30000e+00	1.180439e+04	
47	-2.35000e+00	1.265659e+04	
48	-2.40000e+00	1.362707e+04	
49	-2.45000e+00	1.473754e+04	
50	-2.50000e+00	1.601248e+04	
51	-2.55000e+00	1.747740e+04	
52	-2.60000e+00	1.915516e+04	
53	-2.65000e+00	2.105985e+04	
54	-2.70000e+00	2.318956e+04	

Index   v-sweep         rds             
--------------------------------------------------------------------------------
55	-2.75000e+00	2.552186e+04	
56	-2.80000e+00	2.801607e+04	
57	-2.85000e+00	3.062255e+04	
58	-2.90000e+00	3.329390e+04	
59	-2.95000e+00	3.599212e+04	
60	-3.00000e+00	3.869031e+04	
61	-3.05000e+00	4.137103e+04	
62	-3.10000e+00	4.402351e+04	
63	-3.15000e+00	4.664142e+04	
64	-3.20000e+00	4.922116e+04	
65	-3.25000e+00	5.176078e+04	
66	-3.30000e+00	5.425939e+04	
67	-3.35000e+00	5.671672e+04	
68	-3.40000e+00	5.913291e+04	
69	-3.45000e+00	6.150832e+04	
70	-3.50000e+00	6.384351e+04	
71	-3.55000e+00	6.613911e+04	
72	-3.60000e+00	6.839583e+04	
73	-3.65000e+00	7.061441e+04	
74	-3.70000e+00	7.279562e+04	
75	-3.75000e+00	7.494023e+04	
76	-3.80000e+00	7.704903e+04	
77	-3.85000e+00	7.912278e+04	
78	-3.90000e+00	8.116224e+04	
79	-3.95000e+00	8.316819e+04	
80	-4.00000e+00	8.514134e+04	
81	-4.05000e+00	8.708244e+04	
82	-4.10000e+00	8.899220e+04	
83	-4.15000e+00	9.087131e+04	
84	-4.20000e+00	9.272045e+04	
85	-4.25000e+00	9.454028e+04	
86	-4.30000e+00	9.633146e+04	
87	-4.35000e+00	9.809462e+04	
88	-4.40000e+00	9.983036e+04	
89	-4.45000e+00	1.015393e+05	
90	-4.50000e+00	1.032220e+05	
91	-4.55000e+00	1.048790e+05	
92	-4.60000e+00	1.065110e+05	
93	-4.65000e+00	1.081184e+05	
94	-4.70000e+00	1.097017e+05	
95	-4.75000e+00	1.112615e+05	
96	-4.80000e+00	1.127983e+05	
97	-4.85000e+00	1.143125e+05	
98	-4.90000e+00	1.158047e+05	
99	-4.95000e+00	1.172752e+05	
100	-5.00000e+00	1.187246e+05	
101	-5.05000e+00	1.201532e+05	
102	-5.10000e+00	1.215616e+05	
103	-5.15000e+00	1.229500e+05	
104	-5.20000e+00	1.243189e+05	
105	-5.25000e+00	1.256687e+05	
106	-5.30000e+00	1.269998e+05	
107	-5.35000e+00	1.283126e+05	
108	-5.40000e+00	1.296073e+05	
109	-5.45000e+00	1.308844e+05	
110	-5.50000e+00	1.321442e+05	
111	-5.55000e+00	1.333870e+05	
112	-5.60000e+00	1.346131e+05	

Index   v-sweep         rds             
--------------------------------------------------------------------------------
113	-5.65000e+00	1.358230e+05	
114	-5.70000e+00	1.370167e+05	
115	-5.75000e+00	1.381948e+05	
116	-5.80000e+00	1.393573e+05	
117	-5.85000e+00	1.405047e+05	
118	-5.90000e+00	1.416372e+05	
119	-5.95000e+00	1.427550e+05	
120	-6.00000e+00	1.438585e+05	
121	-6.05000e+00	1.449477e+05	
122	-6.10000e+00	1.460231e+05	
123	-6.15000e+00	1.470847e+05	
124	-6.20000e+00	1.481329e+05	
125	-6.25000e+00	1.491678e+05	
126	-6.30000e+00	1.501896e+05	
127	-6.35000e+00	1.511986e+05	
128	-6.40000e+00	1.521949e+05	
129	-6.45000e+00	1.531787e+05	
130	-6.50000e+00	1.541502e+05	
131	-6.55000e+00	1.551095e+05	
132	-6.60000e+00	1.560568e+05	
Reset re-loads circuit ***************************

Circuit: ***************************

Doing analysis at TEMP = 25.000000 and TNOM = 25.000000


No. of Data Rows : 133
                          ***************************
                          DC transfer characteristic  Mon Jan  9 13:57:54  2023
--------------------------------------------------------------------------------
Index   v-sweep         rds             
--------------------------------------------------------------------------------
0	0.000000e+00	2.263515e+03	
1	-5.00000e-02	2.299798e+03	
2	-1.00000e-01	2.337075e+03	
3	-1.50000e-01	2.375386e+03	
4	-2.00000e-01	2.414775e+03	
5	-2.50000e-01	2.455287e+03	
6	-3.00000e-01	2.496972e+03	
7	-3.50000e-01	2.539881e+03	
8	-4.00000e-01	2.584068e+03	
9	-4.50000e-01	2.629592e+03	
10	-5.00000e-01	2.676513e+03	
11	-5.50000e-01	2.724896e+03	
12	-6.00000e-01	2.774812e+03	
13	-6.50000e-01	2.826333e+03	
14	-7.00000e-01	2.879538e+03	
15	-7.50000e-01	2.934511e+03	
16	-8.00000e-01	2.991341e+03	
17	-8.50000e-01	3.050123e+03	
18	-9.00000e-01	3.110960e+03	
19	-9.50000e-01	3.173961e+03	
20	-1.00000e+00	3.239242e+03	
21	-1.05000e+00	3.306931e+03	
22	-1.10000e+00	3.377162e+03	
23	-1.15000e+00	3.450081e+03	
24	-1.20000e+00	3.525844e+03	
25	-1.25000e+00	3.604621e+03	
26	-1.30000e+00	3.686595e+03	
27	-1.35000e+00	3.771964e+03	
28	-1.40000e+00	3.860942e+03	
29	-1.45000e+00	3.953764e+03	
30	-1.50000e+00	4.050682e+03	
31	-1.55000e+00	4.151973e+03	
32	-1.60000e+00	4.257940e+03	
33	-1.65000e+00	4.368912e+03	
34	-1.70000e+00	4.485251e+03	
35	-1.75000e+00	4.607356e+03	
36	-1.80000e+00	4.735663e+03	
37	-1.85000e+00	4.870657e+03	
38	-1.90000e+00	5.012872e+03	
39	-1.95000e+00	5.162900e+03	
40	-2.00000e+00	5.321401e+03	
41	-2.05000e+00	5.489109e+03	
42	-2.10000e+00	5.666847e+03	
43	-2.15000e+00	5.855535e+03	
44	-2.20000e+00	6.056210e+03	
45	-2.25000e+00	6.270044e+03	
46	-2.30000e+00	6.498362e+03	
47	-2.35000e+00	6.742672e+03	
48	-2.40000e+00	7.004695e+03	
49	-2.45000e+00	7.286403e+03	
50	-2.50000e+00	7.590062e+03	
51	-2.55000e+00	7.918293e+03	
52	-2.60000e+00	8.274130e+03	
53	-2.65000e+00	8.661109e+03	
54	-2.70000e+00	9.083359e+03	

Index   v-sweep         rds             
--------------------------------------------------------------------------------
55	-2.75000e+00	9.545715e+03	
56	-2.80000e+00	1.005386e+04	
57	-2.85000e+00	1.061445e+04	
58	-2.90000e+00	1.123531e+04	
59	-2.95000e+00	1.192552e+04	
60	-3.00000e+00	1.269551e+04	
61	-3.05000e+00	1.355695e+04	
62	-3.10000e+00	1.452234e+04	
63	-3.15000e+00	1.560410e+04	
64	-3.20000e+00	1.681284e+04	
65	-3.25000e+00	1.815505e+04	
66	-3.30000e+00	1.963044e+04	
67	-3.35000e+00	2.123020e+04	
68	-3.40000e+00	2.293734e+04	
69	-3.45000e+00	2.472934e+04	
70	-3.50000e+00	2.658200e+04	
71	-3.55000e+00	2.847290e+04	
72	-3.60000e+00	3.038332e+04	
73	-3.65000e+00	3.229872e+04	
74	-3.70000e+00	3.420839e+04	
75	-3.75000e+00	3.610468e+04	
76	-3.80000e+00	3.798224e+04	
77	-3.85000e+00	3.983742e+04	
78	-3.90000e+00	4.166777e+04	
79	-3.95000e+00	4.347171e+04	
80	-4.00000e+00	4.524827e+04	
81	-4.05000e+00	4.699690e+04	
82	-4.10000e+00	4.871736e+04	
83	-4.15000e+00	5.040966e+04	
84	-4.20000e+00	5.207393e+04	
85	-4.25000e+00	5.371044e+04	
86	-4.30000e+00	5.531953e+04	
87	-4.35000e+00	5.690162e+04	
88	-4.40000e+00	5.845715e+04	
89	-4.45000e+00	5.998658e+04	
90	-4.50000e+00	6.149042e+04	
91	-4.55000e+00	6.296917e+04	
92	-4.60000e+00	6.442333e+04	
93	-4.65000e+00	6.585340e+04	
94	-4.70000e+00	6.725991e+04	
95	-4.75000e+00	6.864336e+04	
96	-4.80000e+00	7.000423e+04	
97	-4.85000e+00	7.134301e+04	
98	-4.90000e+00	7.266020e+04	
99	-4.95000e+00	7.395626e+04	
100	-5.00000e+00	7.523165e+04	
101	-5.05000e+00	7.648683e+04	
102	-5.10000e+00	7.772223e+04	
103	-5.15000e+00	7.893829e+04	
104	-5.20000e+00	8.013543e+04	
105	-5.25000e+00	8.131406e+04	
106	-5.30000e+00	8.247459e+04	
107	-5.35000e+00	8.361739e+04	
108	-5.40000e+00	8.474286e+04	
109	-5.45000e+00	8.585136e+04	
110	-5.50000e+00	8.694326e+04	
111	-5.55000e+00	8.801890e+04	
112	-5.60000e+00	8.907864e+04	

Index   v-sweep         rds             
--------------------------------------------------------------------------------
113	-5.65000e+00	9.012279e+04	
114	-5.70000e+00	9.115170e+04	
115	-5.75000e+00	9.216568e+04	
116	-5.80000e+00	9.316502e+04	
117	-5.85000e+00	9.415005e+04	
118	-5.90000e+00	9.512103e+04	
119	-5.95000e+00	9.607827e+04	
120	-6.00000e+00	9.702203e+04	
121	-6.05000e+00	9.795258e+04	
122	-6.10000e+00	9.887019e+04	
123	-6.15000e+00	9.977511e+04	
124	-6.20000e+00	1.006676e+05	
125	-6.25000e+00	1.015478e+05	
126	-6.30000e+00	1.024161e+05	
127	-6.35000e+00	1.032727e+05	
128	-6.40000e+00	1.041177e+05	
129	-6.45000e+00	1.049514e+05	
130	-6.50000e+00	1.057739e+05	
131	-6.55000e+00	1.065856e+05	
132	-6.60000e+00	1.073865e+05	
Reset re-loads circuit ***************************

Circuit: ***************************

Note: No ".plot", ".print", or ".fourier" lines; no simulations run
