
Note: Compatibility modes selected: hs

Warning: m=xx on .subckt line will override multiplier m hierarchy!


Circuit: ***************************

Doing analysis at TEMP = -40.000000 and TNOM = -40.000000


No. of Data Rows : 133
                          ***************************
                          DC transfer characteristic  Mon Jan  9 13:57:54  2023
--------------------------------------------------------------------------------
Index   v-sweep         rds             
--------------------------------------------------------------------------------
0	0.000000e+00	1.297251e+06	
1	-5.00000e-02	5.097803e+06	
2	-1.00000e-01	4.156709e+07	
3	-1.50000e-01	1.945873e+08	
4	-2.00000e-01	5.139048e+08	
5	-2.50000e-01	9.543869e+08	
6	-3.00000e-01	1.427069e+09	
7	-3.50000e-01	1.866829e+09	
8	-4.00000e-01	2.248078e+09	
9	-4.50000e-01	2.569737e+09	
10	-5.00000e-01	2.840091e+09	
11	-5.50000e-01	3.069018e+09	
12	-6.00000e-01	3.265193e+09	
13	-6.50000e-01	3.435505e+09	
14	-7.00000e-01	3.585221e+09	
15	-7.50000e-01	3.718325e+09	
16	-8.00000e-01	3.837840e+09	
17	-8.50000e-01	3.946082e+09	
18	-9.00000e-01	4.044841e+09	
19	-9.50000e-01	4.135526e+09	
20	-1.00000e+00	4.219256e+09	
21	-1.05000e+00	4.296935e+09	
22	-1.10000e+00	4.369302e+09	
23	-1.15000e+00	4.436966e+09	
24	-1.20000e+00	4.500437e+09	
25	-1.25000e+00	4.560146e+09	
26	-1.30000e+00	4.616460e+09	
27	-1.35000e+00	4.669694e+09	
28	-1.40000e+00	4.720121e+09	
29	-1.45000e+00	4.767981e+09	
30	-1.50000e+00	4.813482e+09	
31	-1.55000e+00	4.856810e+09	
32	-1.60000e+00	4.898129e+09	
33	-1.65000e+00	4.937586e+09	
34	-1.70000e+00	4.975312e+09	
35	-1.75000e+00	5.011425e+09	
36	-1.80000e+00	5.046032e+09	
37	-1.85000e+00	5.079232e+09	
38	-1.90000e+00	5.111111e+09	
39	-1.95000e+00	5.141750e+09	
40	-2.00000e+00	5.171224e+09	
41	-2.05000e+00	5.199600e+09	
42	-2.10000e+00	5.226940e+09	
43	-2.15000e+00	5.253302e+09	
44	-2.20000e+00	5.278738e+09	
45	-2.25000e+00	5.303298e+09	
46	-2.30000e+00	5.327028e+09	
47	-2.35000e+00	5.349968e+09	
48	-2.40000e+00	5.372160e+09	
49	-2.45000e+00	5.393639e+09	
50	-2.50000e+00	5.414440e+09	
51	-2.55000e+00	5.434595e+09	
52	-2.60000e+00	5.454134e+09	
53	-2.65000e+00	5.473084e+09	
54	-2.70000e+00	5.491473e+09	

Index   v-sweep         rds             
--------------------------------------------------------------------------------
55	-2.75000e+00	5.509325e+09	
56	-2.80000e+00	5.526663e+09	
57	-2.85000e+00	5.543509e+09	
58	-2.90000e+00	5.559884e+09	
59	-2.95000e+00	5.575807e+09	
60	-3.00000e+00	5.591297e+09	
61	-3.05000e+00	5.606371e+09	
62	-3.10000e+00	5.621045e+09	
63	-3.15000e+00	5.635335e+09	
64	-3.20000e+00	5.649256e+09	
65	-3.25000e+00	5.662822e+09	
66	-3.30000e+00	5.676045e+09	
67	-3.35000e+00	5.688939e+09	
68	-3.40000e+00	5.701515e+09	
69	-3.45000e+00	5.713785e+09	
70	-3.50000e+00	5.725759e+09	
71	-3.55000e+00	5.737448e+09	
72	-3.60000e+00	5.748861e+09	
73	-3.65000e+00	5.760008e+09	
74	-3.70000e+00	5.770898e+09	
75	-3.75000e+00	5.781538e+09	
76	-3.80000e+00	5.791937e+09	
77	-3.85000e+00	5.802103e+09	
78	-3.90000e+00	5.812043e+09	
79	-3.95000e+00	5.821764e+09	
80	-4.00000e+00	5.831272e+09	
81	-4.05000e+00	5.840574e+09	
82	-4.10000e+00	5.849676e+09	
83	-4.15000e+00	5.858583e+09	
84	-4.20000e+00	5.867302e+09	
85	-4.25000e+00	5.875838e+09	
86	-4.30000e+00	5.884195e+09	
87	-4.35000e+00	5.892379e+09	
88	-4.40000e+00	5.900394e+09	
89	-4.45000e+00	5.908245e+09	
90	-4.50000e+00	5.915936e+09	
91	-4.55000e+00	5.923471e+09	
92	-4.60000e+00	5.930854e+09	
93	-4.65000e+00	5.938088e+09	
94	-4.70000e+00	5.945178e+09	
95	-4.75000e+00	5.952127e+09	
96	-4.80000e+00	5.958938e+09	
97	-4.85000e+00	5.965615e+09	
98	-4.90000e+00	5.972160e+09	
99	-4.95000e+00	5.978576e+09	
100	-5.00000e+00	5.984866e+09	
101	-5.05000e+00	5.991034e+09	
102	-5.10000e+00	5.997081e+09	
103	-5.15000e+00	6.003011e+09	
104	-5.20000e+00	6.008825e+09	
105	-5.25000e+00	6.014526e+09	
106	-5.30000e+00	6.020117e+09	
107	-5.35000e+00	6.025598e+09	
108	-5.40000e+00	6.030974e+09	
109	-5.45000e+00	6.036245e+09	
110	-5.50000e+00	6.041413e+09	
111	-5.55000e+00	6.046481e+09	
112	-5.60000e+00	6.051451e+09	

Index   v-sweep         rds             
--------------------------------------------------------------------------------
113	-5.65000e+00	6.056323e+09	
114	-5.70000e+00	6.061100e+09	
115	-5.75000e+00	6.065784e+09	
116	-5.80000e+00	6.070376e+09	
117	-5.85000e+00	6.074878e+09	
118	-5.90000e+00	6.079290e+09	
119	-5.95000e+00	6.083616e+09	
120	-6.00000e+00	6.087855e+09	
121	-6.05000e+00	6.092010e+09	
122	-6.10000e+00	6.096082e+09	
123	-6.15000e+00	6.100072e+09	
124	-6.20000e+00	6.103981e+09	
125	-6.25000e+00	6.107811e+09	
126	-6.30000e+00	6.111563e+09	
127	-6.35000e+00	6.115238e+09	
128	-6.40000e+00	6.118837e+09	
129	-6.45000e+00	6.122361e+09	
130	-6.50000e+00	6.125812e+09	
131	-6.55000e+00	6.129190e+09	
132	-6.60000e+00	6.132497e+09	
Reset re-loads circuit ***************************

Circuit: ***************************

Doing analysis at TEMP = -40.000000 and TNOM = -40.000000


No. of Data Rows : 133
                          ***************************
                          DC transfer characteristic  Mon Jan  9 13:57:54  2023
--------------------------------------------------------------------------------
Index   v-sweep         rds             
--------------------------------------------------------------------------------
0	0.000000e+00	6.100609e+04	
1	-5.00000e-02	6.553551e+04	
2	-1.00000e-01	7.078469e+04	
3	-1.50000e-01	7.693937e+04	
4	-2.00000e-01	8.425486e+04	
5	-2.50000e-01	9.309151e+04	
6	-3.00000e-01	1.039742e+05	
7	-3.50000e-01	1.176965e+05	
8	-4.00000e-01	1.355118e+05	
9	-4.50000e-01	1.595073e+05	
10	-5.00000e-01	1.933821e+05	
11	-5.50000e-01	2.441766e+05	
12	-6.00000e-01	3.263215e+05	
13	-6.50000e-01	4.710937e+05	
14	-7.00000e-01	7.455539e+05	
15	-7.50000e-01	1.272753e+06	
16	-8.00000e-01	2.204397e+06	
17	-8.50000e-01	3.605715e+06	
18	-9.00000e-01	5.362505e+06	
19	-9.50000e-01	7.246953e+06	
20	-1.00000e+00	9.057702e+06	
21	-1.05000e+00	1.068686e+07	
22	-1.10000e+00	1.210563e+07	
23	-1.15000e+00	1.332726e+07	
24	-1.20000e+00	1.437993e+07	
25	-1.25000e+00	1.529322e+07	
26	-1.30000e+00	1.609303e+07	
27	-1.35000e+00	1.680044e+07	
28	-1.40000e+00	1.743213e+07	
29	-1.45000e+00	1.800115e+07	
30	-1.50000e+00	1.851772e+07	
31	-1.55000e+00	1.898989e+07	
32	-1.60000e+00	1.942407e+07	
33	-1.65000e+00	1.982542e+07	
34	-1.70000e+00	2.019812e+07	
35	-1.75000e+00	2.054560e+07	
36	-1.80000e+00	2.087072e+07	
37	-1.85000e+00	2.117589e+07	
38	-1.90000e+00	2.146312e+07	
39	-1.95000e+00	2.173416e+07	
40	-2.00000e+00	2.199050e+07	
41	-2.05000e+00	2.223343e+07	
42	-2.10000e+00	2.246408e+07	
43	-2.15000e+00	2.268345e+07	
44	-2.20000e+00	2.289242e+07	
45	-2.25000e+00	2.309177e+07	
46	-2.30000e+00	2.328220e+07	
47	-2.35000e+00	2.346434e+07	
48	-2.40000e+00	2.363875e+07	
49	-2.45000e+00	2.380594e+07	
50	-2.50000e+00	2.396638e+07	
51	-2.55000e+00	2.412048e+07	
52	-2.60000e+00	2.426864e+07	
53	-2.65000e+00	2.441121e+07	
54	-2.70000e+00	2.454850e+07	

Index   v-sweep         rds             
--------------------------------------------------------------------------------
55	-2.75000e+00	2.468082e+07	
56	-2.80000e+00	2.480844e+07	
57	-2.85000e+00	2.493162e+07	
58	-2.90000e+00	2.505058e+07	
59	-2.95000e+00	2.516556e+07	
60	-3.00000e+00	2.527675e+07	
61	-3.05000e+00	2.538433e+07	
62	-3.10000e+00	2.548849e+07	
63	-3.15000e+00	2.558939e+07	
64	-3.20000e+00	2.568718e+07	
65	-3.25000e+00	2.578201e+07	
66	-3.30000e+00	2.587401e+07	
67	-3.35000e+00	2.596331e+07	
68	-3.40000e+00	2.605003e+07	
69	-3.45000e+00	2.613427e+07	
70	-3.50000e+00	2.621615e+07	
71	-3.55000e+00	2.629576e+07	
72	-3.60000e+00	2.637319e+07	
73	-3.65000e+00	2.644854e+07	
74	-3.70000e+00	2.652188e+07	
75	-3.75000e+00	2.659331e+07	
76	-3.80000e+00	2.666288e+07	
77	-3.85000e+00	2.673068e+07	
78	-3.90000e+00	2.679676e+07	
79	-3.95000e+00	2.686120e+07	
80	-4.00000e+00	2.692405e+07	
81	-4.05000e+00	2.698537e+07	
82	-4.10000e+00	2.704521e+07	
83	-4.15000e+00	2.710363e+07	
84	-4.20000e+00	2.716068e+07	
85	-4.25000e+00	2.721639e+07	
86	-4.30000e+00	2.727083e+07	
87	-4.35000e+00	2.732402e+07	
88	-4.40000e+00	2.737602e+07	
89	-4.45000e+00	2.742685e+07	
90	-4.50000e+00	2.747656e+07	
91	-4.55000e+00	2.752518e+07	
92	-4.60000e+00	2.757274e+07	
93	-4.65000e+00	2.761928e+07	
94	-4.70000e+00	2.766482e+07	
95	-4.75000e+00	2.770940e+07	
96	-4.80000e+00	2.775305e+07	
97	-4.85000e+00	2.779578e+07	
98	-4.90000e+00	2.783763e+07	
99	-4.95000e+00	2.787862e+07	
100	-5.00000e+00	2.791878e+07	
101	-5.05000e+00	2.795812e+07	
102	-5.10000e+00	2.799667e+07	
103	-5.15000e+00	2.803444e+07	
104	-5.20000e+00	2.807147e+07	
105	-5.25000e+00	2.810776e+07	
106	-5.30000e+00	2.814334e+07	
107	-5.35000e+00	2.817822e+07	
108	-5.40000e+00	2.821241e+07	
109	-5.45000e+00	2.824595e+07	
110	-5.50000e+00	2.827883e+07	
111	-5.55000e+00	2.831108e+07	
112	-5.60000e+00	2.834271e+07	

Index   v-sweep         rds             
--------------------------------------------------------------------------------
113	-5.65000e+00	2.837373e+07	
114	-5.70000e+00	2.840416e+07	
115	-5.75000e+00	2.843401e+07	
116	-5.80000e+00	2.846329e+07	
117	-5.85000e+00	2.849201e+07	
118	-5.90000e+00	2.852018e+07	
119	-5.95000e+00	2.854782e+07	
120	-6.00000e+00	2.857494e+07	
121	-6.05000e+00	2.860154e+07	
122	-6.10000e+00	2.862764e+07	
123	-6.15000e+00	2.865324e+07	
124	-6.20000e+00	2.867836e+07	
125	-6.25000e+00	2.870300e+07	
126	-6.30000e+00	2.872717e+07	
127	-6.35000e+00	2.875088e+07	
128	-6.40000e+00	2.877414e+07	
129	-6.45000e+00	2.879696e+07	
130	-6.50000e+00	2.881934e+07	
131	-6.55000e+00	2.884128e+07	
132	-6.60000e+00	2.886281e+07	
Reset re-loads circuit ***************************

Circuit: ***************************

Doing analysis at TEMP = -40.000000 and TNOM = -40.000000


No. of Data Rows : 133
                          ***************************
                          DC transfer characteristic  Mon Jan  9 13:57:54  2023
--------------------------------------------------------------------------------
Index   v-sweep         rds             
--------------------------------------------------------------------------------
0	0.000000e+00	3.371804e+04	
1	-5.00000e-02	3.494495e+04	
2	-1.00000e-01	3.626324e+04	
3	-1.50000e-01	3.768351e+04	
4	-2.00000e-01	3.921806e+04	
5	-2.50000e-01	4.088124e+04	
6	-3.00000e-01	4.268992e+04	
7	-3.50000e-01	4.466404e+04	
8	-4.00000e-01	4.682735e+04	
9	-4.50000e-01	4.920834e+04	
10	-5.00000e-01	5.184156e+04	
11	-5.50000e-01	5.476919e+04	
12	-6.00000e-01	5.804337e+04	
13	-6.50000e-01	6.172924e+04	
14	-7.00000e-01	6.590922e+04	
15	-7.50000e-01	7.068915e+04	
16	-8.00000e-01	7.620705e+04	
17	-8.50000e-01	8.264616e+04	
18	-9.00000e-01	9.025477e+04	
19	-9.50000e-01	9.937690e+04	
20	-1.00000e+00	1.105016e+05	
21	-1.05000e+00	1.243444e+05	
22	-1.10000e+00	1.419854e+05	
23	-1.15000e+00	1.651116e+05	
24	-1.20000e+00	1.964480e+05	
25	-1.25000e+00	2.405242e+05	
26	-1.30000e+00	3.049678e+05	
27	-1.35000e+00	4.023378e+05	
28	-1.40000e+00	5.515169e+05	
29	-1.45000e+00	7.753572e+05	
30	-1.50000e+00	1.090370e+06	
31	-1.55000e+00	1.491859e+06	
32	-1.60000e+00	1.949433e+06	
33	-1.65000e+00	2.420787e+06	
34	-1.70000e+00	2.870544e+06	
35	-1.75000e+00	3.278965e+06	
36	-1.80000e+00	3.639997e+06	
37	-1.85000e+00	3.955649e+06	
38	-1.90000e+00	4.231329e+06	
39	-1.95000e+00	4.473178e+06	
40	-2.00000e+00	4.686861e+06	
41	-2.05000e+00	4.877186e+06	
42	-2.10000e+00	5.048080e+06	
43	-2.15000e+00	5.202691e+06	
44	-2.20000e+00	5.343542e+06	
45	-2.25000e+00	5.472650e+06	
46	-2.30000e+00	5.591644e+06	
47	-2.35000e+00	5.701849e+06	
48	-2.40000e+00	5.804349e+06	
49	-2.45000e+00	5.900044e+06	
50	-2.50000e+00	5.989686e+06	
51	-2.55000e+00	6.073909e+06	
52	-2.60000e+00	6.153253e+06	
53	-2.65000e+00	6.228181e+06	
54	-2.70000e+00	6.299092e+06	

Index   v-sweep         rds             
--------------------------------------------------------------------------------
55	-2.75000e+00	6.366335e+06	
56	-2.80000e+00	6.430215e+06	
57	-2.85000e+00	6.491000e+06	
58	-2.90000e+00	6.548930e+06	
59	-2.95000e+00	6.604216e+06	
60	-3.00000e+00	6.657049e+06	
61	-3.05000e+00	6.707598e+06	
62	-3.10000e+00	6.756018e+06	
63	-3.15000e+00	6.802447e+06	
64	-3.20000e+00	6.847014e+06	
65	-3.25000e+00	6.889832e+06	
66	-3.30000e+00	6.931008e+06	
67	-3.35000e+00	6.970638e+06	
68	-3.40000e+00	7.008810e+06	
69	-3.45000e+00	7.045607e+06	
70	-3.50000e+00	7.081104e+06	
71	-3.55000e+00	7.115371e+06	
72	-3.60000e+00	7.148473e+06	
73	-3.65000e+00	7.180468e+06	
74	-3.70000e+00	7.211414e+06	
75	-3.75000e+00	7.241362e+06	
76	-3.80000e+00	7.270360e+06	
77	-3.85000e+00	7.298455e+06	
78	-3.90000e+00	7.325687e+06	
79	-3.95000e+00	7.352097e+06	
80	-4.00000e+00	7.377723e+06	
81	-4.05000e+00	7.402598e+06	
82	-4.10000e+00	7.426756e+06	
83	-4.15000e+00	7.450228e+06	
84	-4.20000e+00	7.473043e+06	
85	-4.25000e+00	7.495228e+06	
86	-4.30000e+00	7.516808e+06	
87	-4.35000e+00	7.537810e+06	
88	-4.40000e+00	7.558254e+06	
89	-4.45000e+00	7.578164e+06	
90	-4.50000e+00	7.597561e+06	
91	-4.55000e+00	7.616463e+06	
92	-4.60000e+00	7.634889e+06	
93	-4.65000e+00	7.652857e+06	
94	-4.70000e+00	7.670383e+06	
95	-4.75000e+00	7.687484e+06	
96	-4.80000e+00	7.704175e+06	
97	-4.85000e+00	7.720469e+06	
98	-4.90000e+00	7.736381e+06	
99	-4.95000e+00	7.751924e+06	
100	-5.00000e+00	7.767109e+06	
101	-5.05000e+00	7.781949e+06	
102	-5.10000e+00	7.796455e+06	
103	-5.15000e+00	7.810638e+06	
104	-5.20000e+00	7.824508e+06	
105	-5.25000e+00	7.838074e+06	
106	-5.30000e+00	7.851346e+06	
107	-5.35000e+00	7.864333e+06	
108	-5.40000e+00	7.877043e+06	
109	-5.45000e+00	7.889484e+06	
110	-5.50000e+00	7.901665e+06	
111	-5.55000e+00	7.913592e+06	
112	-5.60000e+00	7.925273e+06	

Index   v-sweep         rds             
--------------------------------------------------------------------------------
113	-5.65000e+00	7.936715e+06	
114	-5.70000e+00	7.947923e+06	
115	-5.75000e+00	7.958905e+06	
116	-5.80000e+00	7.969666e+06	
117	-5.85000e+00	7.980211e+06	
118	-5.90000e+00	7.990547e+06	
119	-5.95000e+00	8.000678e+06	
120	-6.00000e+00	8.010610e+06	
121	-6.05000e+00	8.020348e+06	
122	-6.10000e+00	8.029895e+06	
123	-6.15000e+00	8.039258e+06	
124	-6.20000e+00	8.048438e+06	
125	-6.25000e+00	8.057442e+06	
126	-6.30000e+00	8.066273e+06	
127	-6.35000e+00	8.074934e+06	
128	-6.40000e+00	8.083430e+06	
129	-6.45000e+00	8.091763e+06	
130	-6.50000e+00	8.099938e+06	
131	-6.55000e+00	8.107957e+06	
132	-6.60000e+00	8.115823e+06	
Reset re-loads circuit ***************************

Circuit: ***************************

Doing analysis at TEMP = -40.000000 and TNOM = -40.000000


No. of Data Rows : 133
                          ***************************
                          DC transfer characteristic  Mon Jan  9 13:57:54  2023
--------------------------------------------------------------------------------
Index   v-sweep         rds             
--------------------------------------------------------------------------------
0	0.000000e+00	2.475021e+04	
1	-5.00000e-02	2.534364e+04	
2	-1.00000e-01	2.596569e+04	
3	-1.50000e-01	2.661848e+04	
4	-2.00000e-01	2.730434e+04	
5	-2.50000e-01	2.802585e+04	
6	-3.00000e-01	2.878586e+04	
7	-3.50000e-01	2.958753e+04	
8	-4.00000e-01	3.043439e+04	
9	-4.50000e-01	3.133037e+04	
10	-5.00000e-01	3.227985e+04	
11	-5.50000e-01	3.328778e+04	
12	-6.00000e-01	3.435973e+04	
13	-6.50000e-01	3.550198e+04	
14	-7.00000e-01	3.672167e+04	
15	-7.50000e-01	3.802695e+04	
16	-8.00000e-01	3.942714e+04	
17	-8.50000e-01	4.093297e+04	
18	-9.00000e-01	4.255683e+04	
19	-9.50000e-01	4.431314e+04	
20	-1.00000e+00	4.621876e+04	
21	-1.05000e+00	4.829350e+04	
22	-1.10000e+00	5.056084e+04	
23	-1.15000e+00	5.304882e+04	
24	-1.20000e+00	5.579111e+04	
25	-1.25000e+00	5.882859e+04	
26	-1.30000e+00	6.221129e+04	
27	-1.35000e+00	6.600112e+04	
28	-1.40000e+00	7.027552e+04	
29	-1.45000e+00	7.513257e+04	
30	-1.50000e+00	8.069819e+04	
31	-1.55000e+00	8.713649e+04	
32	-1.60000e+00	9.466479e+04	
33	-1.65000e+00	1.035761e+05	
34	-1.70000e+00	1.142731e+05	
35	-1.75000e+00	1.273203e+05	
36	-1.80000e+00	1.435253e+05	
37	-1.85000e+00	1.640657e+05	
38	-1.90000e+00	1.906835e+05	
39	-1.95000e+00	2.259676e+05	
40	-2.00000e+00	2.737083e+05	
41	-2.05000e+00	3.391815e+05	
42	-2.10000e+00	4.289307e+05	
43	-2.15000e+00	5.492978e+05	
44	-2.20000e+00	7.033081e+05	
45	-2.25000e+00	8.872949e+05	
46	-2.30000e+00	1.090388e+06	
47	-2.35000e+00	1.298237e+06	
48	-2.40000e+00	1.498208e+06	
49	-2.45000e+00	1.682382e+06	
50	-2.50000e+00	1.847572e+06	
51	-2.55000e+00	1.993818e+06	
52	-2.60000e+00	2.122810e+06	
53	-2.65000e+00	2.236809e+06	
54	-2.70000e+00	2.338076e+06	

Index   v-sweep         rds             
--------------------------------------------------------------------------------
55	-2.75000e+00	2.428625e+06	
56	-2.80000e+00	2.510161e+06	
57	-2.85000e+00	2.584082e+06	
58	-2.90000e+00	2.651528e+06	
59	-2.95000e+00	2.713427e+06	
60	-3.00000e+00	2.770531e+06	
61	-3.05000e+00	2.823458e+06	
62	-3.10000e+00	2.872716e+06	
63	-3.15000e+00	2.918730e+06	
64	-3.20000e+00	2.961853e+06	
65	-3.25000e+00	3.002388e+06	
66	-3.30000e+00	3.040588e+06	
67	-3.35000e+00	3.076675e+06	
68	-3.40000e+00	3.110838e+06	
69	-3.45000e+00	3.143244e+06	
70	-3.50000e+00	3.174037e+06	
71	-3.55000e+00	3.203346e+06	
72	-3.60000e+00	3.231285e+06	
73	-3.65000e+00	3.257955e+06	
74	-3.70000e+00	3.283446e+06	
75	-3.75000e+00	3.307840e+06	
76	-3.80000e+00	3.331211e+06	
77	-3.85000e+00	3.353625e+06	
78	-3.90000e+00	3.375142e+06	
79	-3.95000e+00	3.395819e+06	
80	-4.00000e+00	3.415706e+06	
81	-4.05000e+00	3.434848e+06	
82	-4.10000e+00	3.453289e+06	
83	-4.15000e+00	3.471068e+06	
84	-4.20000e+00	3.488220e+06	
85	-4.25000e+00	3.504779e+06	
86	-4.30000e+00	3.520777e+06	
87	-4.35000e+00	3.536242e+06	
88	-4.40000e+00	3.551201e+06	
89	-4.45000e+00	3.565679e+06	
90	-4.50000e+00	3.579699e+06	
91	-4.55000e+00	3.593282e+06	
92	-4.60000e+00	3.606451e+06	
93	-4.65000e+00	3.619222e+06	
94	-4.70000e+00	3.631614e+06	
95	-4.75000e+00	3.643645e+06	
96	-4.80000e+00	3.655330e+06	
97	-4.85000e+00	3.666683e+06	
98	-4.90000e+00	3.677719e+06	
99	-4.95000e+00	3.688450e+06	
100	-5.00000e+00	3.698890e+06	
101	-5.05000e+00	3.709050e+06	
102	-5.10000e+00	3.718942e+06	
103	-5.15000e+00	3.728575e+06	
104	-5.20000e+00	3.737960e+06	
105	-5.25000e+00	3.747106e+06	
106	-5.30000e+00	3.756022e+06	
107	-5.35000e+00	3.764717e+06	
108	-5.40000e+00	3.773199e+06	
109	-5.45000e+00	3.781475e+06	
110	-5.50000e+00	3.789552e+06	
111	-5.55000e+00	3.797438e+06	
112	-5.60000e+00	3.805140e+06	

Index   v-sweep         rds             
--------------------------------------------------------------------------------
113	-5.65000e+00	3.812662e+06	
114	-5.70000e+00	3.820013e+06	
115	-5.75000e+00	3.827196e+06	
116	-5.80000e+00	3.834217e+06	
117	-5.85000e+00	3.841083e+06	
118	-5.90000e+00	3.847797e+06	
119	-5.95000e+00	3.854364e+06	
120	-6.00000e+00	3.860789e+06	
121	-6.05000e+00	3.867076e+06	
122	-6.10000e+00	3.873229e+06	
123	-6.15000e+00	3.879253e+06	
124	-6.20000e+00	3.885150e+06	
125	-6.25000e+00	3.890925e+06	
126	-6.30000e+00	3.896581e+06	
127	-6.35000e+00	3.902120e+06	
128	-6.40000e+00	3.907547e+06	
129	-6.45000e+00	3.912865e+06	
130	-6.50000e+00	3.918075e+06	
131	-6.55000e+00	3.923182e+06	
132	-6.60000e+00	3.928187e+06	
Reset re-loads circuit ***************************

Circuit: ***************************

Doing analysis at TEMP = -40.000000 and TNOM = -40.000000


No. of Data Rows : 133
                          ***************************
                          DC transfer characteristic  Mon Jan  9 13:57:54  2023
--------------------------------------------------------------------------------
Index   v-sweep         rds             
--------------------------------------------------------------------------------
0	0.000000e+00	2.037412e+04	
1	-5.00000e-02	2.073674e+04	
2	-1.00000e-01	2.111220e+04	
3	-1.50000e-01	2.150119e+04	
4	-2.00000e-01	2.190447e+04	
5	-2.50000e-01	2.232283e+04	
6	-3.00000e-01	2.275714e+04	
7	-3.50000e-01	2.320831e+04	
8	-4.00000e-01	2.367737e+04	
9	-4.50000e-01	2.416538e+04	
10	-5.00000e-01	2.467353e+04	
11	-5.50000e-01	2.520307e+04	
12	-6.00000e-01	2.575541e+04	
13	-6.50000e-01	2.633203e+04	
14	-7.00000e-01	2.693457e+04	
15	-7.50000e-01	2.756482e+04	
16	-8.00000e-01	2.822474e+04	
17	-8.50000e-01	2.891646e+04	
18	-9.00000e-01	2.964236e+04	
19	-9.50000e-01	3.040500e+04	
20	-1.00000e+00	3.120727e+04	
21	-1.05000e+00	3.205232e+04	
22	-1.10000e+00	3.294367e+04	
23	-1.15000e+00	3.388522e+04	
24	-1.20000e+00	3.488134e+04	
25	-1.25000e+00	3.593689e+04	
26	-1.30000e+00	3.705737e+04	
27	-1.35000e+00	3.824893e+04	
28	-1.40000e+00	3.951855e+04	
29	-1.45000e+00	4.087413e+04	
30	-1.50000e+00	4.232471e+04	
31	-1.55000e+00	4.388058e+04	
32	-1.60000e+00	4.555362e+04	
33	-1.65000e+00	4.735753e+04	
34	-1.70000e+00	4.930822e+04	
35	-1.75000e+00	5.142428e+04	
36	-1.80000e+00	5.372754e+04	
37	-1.85000e+00	5.624385e+04	
38	-1.90000e+00	5.900396e+04	
39	-1.95000e+00	6.204478e+04	
40	-2.00000e+00	6.541099e+04	
41	-2.05000e+00	6.915707e+04	
42	-2.10000e+00	7.335019e+04	
43	-2.15000e+00	7.807394e+04	
44	-2.20000e+00	8.343352e+04	
45	-2.25000e+00	8.956291e+04	
46	-2.30000e+00	9.663492e+04	
47	-2.35000e+00	1.048753e+05	
48	-2.40000e+00	1.145832e+05	
49	-2.45000e+00	1.261601e+05	
50	-2.50000e+00	1.401514e+05	
51	-2.55000e+00	1.573053e+05	
52	-2.60000e+00	1.786517e+05	
53	-2.65000e+00	2.055997e+05	
54	-2.70000e+00	2.400298e+05	

Index   v-sweep         rds             
--------------------------------------------------------------------------------
55	-2.75000e+00	2.843160e+05	
56	-2.80000e+00	3.411375e+05	
57	-2.85000e+00	4.128867e+05	
58	-2.90000e+00	5.006082e+05	
59	-2.95000e+00	6.028427e+05	
60	-3.00000e+00	7.152434e+05	
61	-3.05000e+00	8.315794e+05	
62	-3.10000e+00	9.456381e+05	
63	-3.15000e+00	1.052806e+06	
64	-3.20000e+00	1.150596e+06	
65	-3.25000e+00	1.238309e+06	
66	-3.30000e+00	1.316369e+06	
67	-3.35000e+00	1.385747e+06	
68	-3.40000e+00	1.447578e+06	
69	-3.45000e+00	1.502957e+06	
70	-3.50000e+00	1.552854e+06	
71	-3.55000e+00	1.598095e+06	
72	-3.60000e+00	1.639362e+06	
73	-3.65000e+00	1.677220e+06	
74	-3.70000e+00	1.712129e+06	
75	-3.75000e+00	1.744471e+06	
76	-3.80000e+00	1.774560e+06	
77	-3.85000e+00	1.802658e+06	
78	-3.90000e+00	1.828983e+06	
79	-3.95000e+00	1.853722e+06	
80	-4.00000e+00	1.877033e+06	
81	-4.05000e+00	1.899050e+06	
82	-4.10000e+00	1.919892e+06	
83	-4.15000e+00	1.939660e+06	
84	-4.20000e+00	1.958443e+06	
85	-4.25000e+00	1.976320e+06	
86	-4.30000e+00	1.993361e+06	
87	-4.35000e+00	2.009627e+06	
88	-4.40000e+00	2.025174e+06	
89	-4.45000e+00	2.040053e+06	
90	-4.50000e+00	2.054307e+06	
91	-4.55000e+00	2.067978e+06	
92	-4.60000e+00	2.081103e+06	
93	-4.65000e+00	2.093715e+06	
94	-4.70000e+00	2.105844e+06	
95	-4.75000e+00	2.117521e+06	
96	-4.80000e+00	2.128769e+06	
97	-4.85000e+00	2.139614e+06	
98	-4.90000e+00	2.150076e+06	
99	-4.95000e+00	2.160178e+06	
100	-5.00000e+00	2.169936e+06	
101	-5.05000e+00	2.179370e+06	
102	-5.10000e+00	2.188495e+06	
103	-5.15000e+00	2.197327e+06	
104	-5.20000e+00	2.205880e+06	
105	-5.25000e+00	2.214166e+06	
106	-5.30000e+00	2.222199e+06	
107	-5.35000e+00	2.229990e+06	
108	-5.40000e+00	2.237550e+06	
109	-5.45000e+00	2.244890e+06	
110	-5.50000e+00	2.252018e+06	
111	-5.55000e+00	2.258944e+06	
112	-5.60000e+00	2.265676e+06	

Index   v-sweep         rds             
--------------------------------------------------------------------------------
113	-5.65000e+00	2.272223e+06	
114	-5.70000e+00	2.278592e+06	
115	-5.75000e+00	2.284790e+06	
116	-5.80000e+00	2.290824e+06	
117	-5.85000e+00	2.296701e+06	
118	-5.90000e+00	2.302426e+06	
119	-5.95000e+00	2.308006e+06	
120	-6.00000e+00	2.313445e+06	
121	-6.05000e+00	2.318749e+06	
122	-6.10000e+00	2.323923e+06	
123	-6.15000e+00	2.328972e+06	
124	-6.20000e+00	2.333899e+06	
125	-6.25000e+00	2.338710e+06	
126	-6.30000e+00	2.343408e+06	
127	-6.35000e+00	2.347997e+06	
128	-6.40000e+00	2.352481e+06	
129	-6.45000e+00	2.356863e+06	
130	-6.50000e+00	2.361147e+06	
131	-6.55000e+00	2.365335e+06	
132	-6.60000e+00	2.369431e+06	
Reset re-loads circuit ***************************

Circuit: ***************************

Doing analysis at TEMP = -40.000000 and TNOM = -40.000000


No. of Data Rows : 133
                          ***************************
                          DC transfer characteristic  Mon Jan  9 13:57:54  2023
--------------------------------------------------------------------------------
Index   v-sweep         rds             
--------------------------------------------------------------------------------
0	0.000000e+00	1.783508e+04	
1	-5.00000e-02	1.808641e+04	
2	-1.00000e-01	1.834473e+04	
3	-1.50000e-01	1.861034e+04	
4	-2.00000e-01	1.888356e+04	
5	-2.50000e-01	1.916471e+04	
6	-3.00000e-01	1.945414e+04	
7	-3.50000e-01	1.975224e+04	
8	-4.00000e-01	2.005938e+04	
9	-4.50000e-01	2.037599e+04	
10	-5.00000e-01	2.070251e+04	
11	-5.50000e-01	2.103942e+04	
12	-6.00000e-01	2.138722e+04	
13	-6.50000e-01	2.174644e+04	
14	-7.00000e-01	2.211766e+04	
15	-7.50000e-01	2.250150e+04	
16	-8.00000e-01	2.289859e+04	
17	-8.50000e-01	2.330964e+04	
18	-9.00000e-01	2.373541e+04	
19	-9.50000e-01	2.417669e+04	
20	-1.00000e+00	2.463435e+04	
21	-1.05000e+00	2.510931e+04	
22	-1.10000e+00	2.560258e+04	
23	-1.15000e+00	2.611523e+04	
24	-1.20000e+00	2.664843e+04	
25	-1.25000e+00	2.720344e+04	
26	-1.30000e+00	2.778163e+04	
27	-1.35000e+00	2.838447e+04	
28	-1.40000e+00	2.901357e+04	
29	-1.45000e+00	2.967069e+04	
30	-1.50000e+00	3.035774e+04	
31	-1.55000e+00	3.107682e+04	
32	-1.60000e+00	3.183020e+04	
33	-1.65000e+00	3.262040e+04	
34	-1.70000e+00	3.345019e+04	
35	-1.75000e+00	3.432261e+04	
36	-1.80000e+00	3.524103e+04	
37	-1.85000e+00	3.620918e+04	
38	-1.90000e+00	3.723120e+04	
39	-1.95000e+00	3.831171e+04	
40	-2.00000e+00	3.945585e+04	
41	-2.05000e+00	4.066942e+04	
42	-2.10000e+00	4.195891e+04	
43	-2.15000e+00	4.333164e+04	
44	-2.20000e+00	4.479592e+04	
45	-2.25000e+00	4.636119e+04	
46	-2.30000e+00	4.803820e+04	
47	-2.35000e+00	4.983932e+04	
48	-2.40000e+00	5.177877e+04	
49	-2.45000e+00	5.387300e+04	
50	-2.50000e+00	5.614117e+04	
51	-2.55000e+00	5.860569e+04	
52	-2.60000e+00	6.129296e+04	
53	-2.65000e+00	6.423422e+04	
54	-2.70000e+00	6.746676e+04	

Index   v-sweep         rds             
--------------------------------------------------------------------------------
55	-2.75000e+00	7.103540e+04	
56	-2.80000e+00	7.499437e+04	
57	-2.85000e+00	7.940992e+04	
58	-2.90000e+00	8.436364e+04	
59	-2.95000e+00	8.995691e+04	
60	-3.00000e+00	9.631697e+04	
61	-3.05000e+00	1.036050e+05	
62	-3.10000e+00	1.120271e+05	
63	-3.15000e+00	1.218491e+05	
64	-3.20000e+00	1.334165e+05	
65	-3.25000e+00	1.471803e+05	
66	-3.30000e+00	1.637283e+05	
67	-3.35000e+00	1.838202e+05	
68	-3.40000e+00	2.084148e+05	
69	-3.45000e+00	2.386663e+05	
70	-3.50000e+00	2.758451e+05	
71	-3.55000e+00	3.211223e+05	
72	-3.60000e+00	3.751818e+05	
73	-3.65000e+00	4.377296e+05	
74	-3.70000e+00	5.071475e+05	
75	-3.75000e+00	5.806029e+05	
76	-3.80000e+00	6.546929e+05	
77	-3.85000e+00	7.263059e+05	
78	-3.90000e+00	7.932368e+05	
79	-3.95000e+00	8.543456e+05	
80	-4.00000e+00	9.093657e+05	
81	-4.05000e+00	9.585881e+05	
82	-4.10000e+00	1.002581e+06	
83	-4.15000e+00	1.041998e+06	
84	-4.20000e+00	1.077477e+06	
85	-4.25000e+00	1.109585e+06	
86	-4.30000e+00	1.138810e+06	
87	-4.35000e+00	1.165562e+06	
88	-4.40000e+00	1.190180e+06	
89	-4.45000e+00	1.212945e+06	
90	-4.50000e+00	1.234089e+06	
91	-4.55000e+00	1.253806e+06	
92	-4.60000e+00	1.272256e+06	
93	-4.65000e+00	1.289576e+06	
94	-4.70000e+00	1.305882e+06	
95	-4.75000e+00	1.321271e+06	
96	-4.80000e+00	1.335829e+06	
97	-4.85000e+00	1.349629e+06	
98	-4.90000e+00	1.362736e+06	
99	-4.95000e+00	1.375206e+06	
100	-5.00000e+00	1.387088e+06	
101	-5.05000e+00	1.398426e+06	
102	-5.10000e+00	1.409261e+06	
103	-5.15000e+00	1.419627e+06	
104	-5.20000e+00	1.429556e+06	
105	-5.25000e+00	1.439077e+06	
106	-5.30000e+00	1.448216e+06	
107	-5.35000e+00	1.456996e+06	
108	-5.40000e+00	1.465440e+06	
109	-5.45000e+00	1.473567e+06	
110	-5.50000e+00	1.481395e+06	
111	-5.55000e+00	1.488941e+06	
112	-5.60000e+00	1.496221e+06	

Index   v-sweep         rds             
--------------------------------------------------------------------------------
113	-5.65000e+00	1.503249e+06	
114	-5.70000e+00	1.510038e+06	
115	-5.75000e+00	1.516600e+06	
116	-5.80000e+00	1.522946e+06	
117	-5.85000e+00	1.529089e+06	
118	-5.90000e+00	1.535036e+06	
119	-5.95000e+00	1.540798e+06	
120	-6.00000e+00	1.546384e+06	
121	-6.05000e+00	1.551800e+06	
122	-6.10000e+00	1.557056e+06	
123	-6.15000e+00	1.562158e+06	
124	-6.20000e+00	1.567113e+06	
125	-6.25000e+00	1.571926e+06	
126	-6.30000e+00	1.576605e+06	
127	-6.35000e+00	1.581155e+06	
128	-6.40000e+00	1.585581e+06	
129	-6.45000e+00	1.589888e+06	
130	-6.50000e+00	1.594081e+06	
131	-6.55000e+00	1.598164e+06	
132	-6.60000e+00	1.602141e+06	
Reset re-loads circuit ***************************

Circuit: ***************************

Note: No ".plot", ".print", or ".fourier" lines; no simulations run
