
Note: Compatibility modes selected: hs

Warning: m=xx on .subckt line will override multiplier m hierarchy!


Circuit: ***************************

Doing analysis at TEMP = 25.000000 and TNOM = 25.000000


No. of Data Rows : 133
                          ***************************
                          DC transfer characteristic  Mon Jan  9 13:57:54  2023
--------------------------------------------------------------------------------
Index   v-sweep         rds             
--------------------------------------------------------------------------------
0	0.000000e+00	1.117712e+05	
1	-5.00000e-02	1.581698e+05	
2	-1.00000e-01	2.606788e+05	
3	-1.50000e-01	5.637335e+05	
4	-2.00000e-01	1.492773e+06	
5	-2.50000e-01	2.981817e+06	
6	-3.00000e-01	4.137603e+06	
7	-3.50000e-01	4.844616e+06	
8	-4.00000e-01	5.311959e+06	
9	-4.50000e-01	5.662921e+06	
10	-5.00000e-01	5.951981e+06	
11	-5.50000e-01	6.203654e+06	
12	-6.00000e-01	6.429916e+06	
13	-6.50000e-01	6.637192e+06	
14	-7.00000e-01	6.829255e+06	
15	-7.50000e-01	7.008518e+06	
16	-8.00000e-01	7.176644e+06	
17	-8.50000e-01	7.334857e+06	
18	-9.00000e-01	7.484106e+06	
19	-9.50000e-01	7.625160e+06	
20	-1.00000e+00	7.758663e+06	
21	-1.05000e+00	7.885166e+06	
22	-1.10000e+00	8.005152e+06	
23	-1.15000e+00	8.119050e+06	
24	-1.20000e+00	8.227247e+06	
25	-1.25000e+00	8.330089e+06	
26	-1.30000e+00	8.427895e+06	
27	-1.35000e+00	8.520957e+06	
28	-1.40000e+00	8.609542e+06	
29	-1.45000e+00	8.693898e+06	
30	-1.50000e+00	8.774255e+06	
31	-1.55000e+00	8.850825e+06	
32	-1.60000e+00	8.923808e+06	
33	-1.65000e+00	8.993387e+06	
34	-1.70000e+00	9.059735e+06	
35	-1.75000e+00	9.123015e+06	
36	-1.80000e+00	9.183377e+06	
37	-1.85000e+00	9.240963e+06	
38	-1.90000e+00	9.295906e+06	
39	-1.95000e+00	9.348331e+06	
40	-2.00000e+00	9.398356e+06	
41	-2.05000e+00	9.446092e+06	
42	-2.10000e+00	9.491644e+06	
43	-2.15000e+00	9.535110e+06	
44	-2.20000e+00	9.576582e+06	
45	-2.25000e+00	9.616150e+06	
46	-2.30000e+00	9.653895e+06	
47	-2.35000e+00	9.689897e+06	
48	-2.40000e+00	9.724231e+06	
49	-2.45000e+00	9.756965e+06	
50	-2.50000e+00	9.788169e+06	
51	-2.55000e+00	9.817904e+06	
52	-2.60000e+00	9.846231e+06	
53	-2.65000e+00	9.873208e+06	
54	-2.70000e+00	9.898888e+06	

Index   v-sweep         rds             
--------------------------------------------------------------------------------
55	-2.75000e+00	9.923324e+06	
56	-2.80000e+00	9.946564e+06	
57	-2.85000e+00	9.968655e+06	
58	-2.90000e+00	9.989642e+06	
59	-2.95000e+00	1.000957e+07	
60	-3.00000e+00	1.002847e+07	
61	-3.05000e+00	1.004639e+07	
62	-3.10000e+00	1.006337e+07	
63	-3.15000e+00	1.007943e+07	
64	-3.20000e+00	1.009462e+07	
65	-3.25000e+00	1.010896e+07	
66	-3.30000e+00	1.012248e+07	
67	-3.35000e+00	1.013522e+07	
68	-3.40000e+00	1.014720e+07	
69	-3.45000e+00	1.015845e+07	
70	-3.50000e+00	1.016900e+07	
71	-3.55000e+00	1.017886e+07	
72	-3.60000e+00	1.018806e+07	
73	-3.65000e+00	1.019663e+07	
74	-3.70000e+00	1.020458e+07	
75	-3.75000e+00	1.021194e+07	
76	-3.80000e+00	1.021872e+07	
77	-3.85000e+00	1.022495e+07	
78	-3.90000e+00	1.023064e+07	
79	-3.95000e+00	1.023581e+07	
80	-4.00000e+00	1.024047e+07	
81	-4.05000e+00	1.024465e+07	
82	-4.10000e+00	1.024835e+07	
83	-4.15000e+00	1.025159e+07	
84	-4.20000e+00	1.025438e+07	
85	-4.25000e+00	1.025675e+07	
86	-4.30000e+00	1.025869e+07	
87	-4.35000e+00	1.026023e+07	
88	-4.40000e+00	1.026137e+07	
89	-4.45000e+00	1.026213e+07	
90	-4.50000e+00	1.026251e+07	
91	-4.55000e+00	1.026253e+07	
92	-4.60000e+00	1.026220e+07	
93	-4.65000e+00	1.026152e+07	
94	-4.70000e+00	1.026051e+07	
95	-4.75000e+00	1.025918e+07	
96	-4.80000e+00	1.025752e+07	
97	-4.85000e+00	1.025556e+07	
98	-4.90000e+00	1.025329e+07	
99	-4.95000e+00	1.025074e+07	
100	-5.00000e+00	1.024789e+07	
101	-5.05000e+00	1.024476e+07	
102	-5.10000e+00	1.024137e+07	
103	-5.15000e+00	1.023770e+07	
104	-5.20000e+00	1.023377e+07	
105	-5.25000e+00	1.022959e+07	
106	-5.30000e+00	1.022516e+07	
107	-5.35000e+00	1.022049e+07	
108	-5.40000e+00	1.021558e+07	
109	-5.45000e+00	1.021043e+07	
110	-5.50000e+00	1.020506e+07	
111	-5.55000e+00	1.019946e+07	
112	-5.60000e+00	1.019364e+07	

Index   v-sweep         rds             
--------------------------------------------------------------------------------
113	-5.65000e+00	1.018761e+07	
114	-5.70000e+00	1.018137e+07	
115	-5.75000e+00	1.017492e+07	
116	-5.80000e+00	1.016827e+07	
117	-5.85000e+00	1.016142e+07	
118	-5.90000e+00	1.015438e+07	
119	-5.95000e+00	1.014714e+07	
120	-6.00000e+00	1.013972e+07	
121	-6.05000e+00	1.013212e+07	
122	-6.10000e+00	1.012433e+07	
123	-6.15000e+00	1.011637e+07	
124	-6.20000e+00	1.010823e+07	
125	-6.25000e+00	1.009992e+07	
126	-6.30000e+00	1.009144e+07	
127	-6.35000e+00	1.008280e+07	
128	-6.40000e+00	1.007399e+07	
129	-6.45000e+00	1.006502e+07	
130	-6.50000e+00	1.005590e+07	
131	-6.55000e+00	1.004662e+07	
132	-6.60000e+00	1.003719e+07	
Reset re-loads circuit ***************************

Circuit: ***************************

Doing analysis at TEMP = 25.000000 and TNOM = 25.000000


No. of Data Rows : 133
                          ***************************
                          DC transfer characteristic  Mon Jan  9 13:57:54  2023
--------------------------------------------------------------------------------
Index   v-sweep         rds             
--------------------------------------------------------------------------------
0	0.000000e+00	1.844973e+04	
1	-5.00000e-02	1.961518e+04	
2	-1.00000e-01	2.091850e+04	
3	-1.50000e-01	2.238559e+04	
4	-2.00000e-01	2.404921e+04	
5	-2.50000e-01	2.595146e+04	
6	-3.00000e-01	2.814729e+04	
7	-3.50000e-01	3.070968e+04	
8	-4.00000e-01	3.373768e+04	
9	-4.50000e-01	3.736864e+04	
10	-5.00000e-01	4.179804e+04	
11	-5.50000e-01	4.731159e+04	
12	-6.00000e-01	5.433835e+04	
13	-6.50000e-01	6.353641e+04	
14	-7.00000e-01	7.591638e+04	
15	-7.50000e-01	9.294619e+04	
16	-8.00000e-01	1.163408e+05	
17	-8.50000e-01	1.468588e+05	
18	-9.00000e-01	1.823166e+05	
19	-9.50000e-01	2.180658e+05	
20	-1.00000e+00	2.507058e+05	
21	-1.05000e+00	2.796227e+05	
22	-1.10000e+00	3.055746e+05	
23	-1.15000e+00	3.294372e+05	
24	-1.20000e+00	3.518412e+05	
25	-1.25000e+00	3.731858e+05	
26	-1.30000e+00	3.937168e+05	
27	-1.35000e+00	4.135876e+05	
28	-1.40000e+00	4.328968e+05	
29	-1.45000e+00	4.517103e+05	
30	-1.50000e+00	4.700742e+05	
31	-1.55000e+00	4.880220e+05	
32	-1.60000e+00	5.055793e+05	
33	-1.65000e+00	5.227663e+05	
34	-1.70000e+00	5.395997e+05	
35	-1.75000e+00	5.560935e+05	
36	-1.80000e+00	5.722600e+05	
37	-1.85000e+00	5.881101e+05	
38	-1.90000e+00	6.036538e+05	
39	-1.95000e+00	6.189000e+05	
40	-2.00000e+00	6.338573e+05	
41	-2.05000e+00	6.485336e+05	
42	-2.10000e+00	6.629363e+05	
43	-2.15000e+00	6.770726e+05	
44	-2.20000e+00	6.909493e+05	
45	-2.25000e+00	7.045728e+05	
46	-2.30000e+00	7.179494e+05	
47	-2.35000e+00	7.310851e+05	
48	-2.40000e+00	7.439857e+05	
49	-2.45000e+00	7.566567e+05	
50	-2.50000e+00	7.691035e+05	
51	-2.55000e+00	7.813314e+05	
52	-2.60000e+00	7.933454e+05	
53	-2.65000e+00	8.051504e+05	
54	-2.70000e+00	8.167512e+05	

Index   v-sweep         rds             
--------------------------------------------------------------------------------
55	-2.75000e+00	8.281523e+05	
56	-2.80000e+00	8.393582e+05	
57	-2.85000e+00	8.503732e+05	
58	-2.90000e+00	8.612016e+05	
59	-2.95000e+00	8.718475e+05	
60	-3.00000e+00	8.823148e+05	
61	-3.05000e+00	8.926074e+05	
62	-3.10000e+00	9.027290e+05	
63	-3.15000e+00	9.126834e+05	
64	-3.20000e+00	9.224740e+05	
65	-3.25000e+00	9.321043e+05	
66	-3.30000e+00	9.415777e+05	
67	-3.35000e+00	9.508974e+05	
68	-3.40000e+00	9.600667e+05	
69	-3.45000e+00	9.690885e+05	
70	-3.50000e+00	9.779661e+05	
71	-3.55000e+00	9.867021e+05	
72	-3.60000e+00	9.952996e+05	
73	-3.65000e+00	1.003761e+06	
74	-3.70000e+00	1.012090e+06	
75	-3.75000e+00	1.020288e+06	
76	-3.80000e+00	1.028358e+06	
77	-3.85000e+00	1.036303e+06	
78	-3.90000e+00	1.044124e+06	
79	-3.95000e+00	1.051825e+06	
80	-4.00000e+00	1.059407e+06	
81	-4.05000e+00	1.066874e+06	
82	-4.10000e+00	1.074226e+06	
83	-4.15000e+00	1.081466e+06	
84	-4.20000e+00	1.088596e+06	
85	-4.25000e+00	1.095618e+06	
86	-4.30000e+00	1.102533e+06	
87	-4.35000e+00	1.109345e+06	
88	-4.40000e+00	1.116054e+06	
89	-4.45000e+00	1.122662e+06	
90	-4.50000e+00	1.129171e+06	
91	-4.55000e+00	1.135582e+06	
92	-4.60000e+00	1.141897e+06	
93	-4.65000e+00	1.148118e+06	
94	-4.70000e+00	1.154246e+06	
95	-4.75000e+00	1.160282e+06	
96	-4.80000e+00	1.166227e+06	
97	-4.85000e+00	1.172084e+06	
98	-4.90000e+00	1.177853e+06	
99	-4.95000e+00	1.183535e+06	
100	-5.00000e+00	1.189131e+06	
101	-5.05000e+00	1.194644e+06	
102	-5.10000e+00	1.200073e+06	
103	-5.15000e+00	1.205419e+06	
104	-5.20000e+00	1.210685e+06	
105	-5.25000e+00	1.215870e+06	
106	-5.30000e+00	1.220975e+06	
107	-5.35000e+00	1.226002e+06	
108	-5.40000e+00	1.230951e+06	
109	-5.45000e+00	1.235823e+06	
110	-5.50000e+00	1.240619e+06	
111	-5.55000e+00	1.245340e+06	
112	-5.60000e+00	1.249985e+06	

Index   v-sweep         rds             
--------------------------------------------------------------------------------
113	-5.65000e+00	1.254556e+06	
114	-5.70000e+00	1.259054e+06	
115	-5.75000e+00	1.263479e+06	
116	-5.80000e+00	1.267831e+06	
117	-5.85000e+00	1.272112e+06	
118	-5.90000e+00	1.276321e+06	
119	-5.95000e+00	1.280460e+06	
120	-6.00000e+00	1.284528e+06	
121	-6.05000e+00	1.288526e+06	
122	-6.10000e+00	1.292455e+06	
123	-6.15000e+00	1.296315e+06	
124	-6.20000e+00	1.300107e+06	
125	-6.25000e+00	1.303830e+06	
126	-6.30000e+00	1.307485e+06	
127	-6.35000e+00	1.311073e+06	
128	-6.40000e+00	1.314594e+06	
129	-6.45000e+00	1.318048e+06	
130	-6.50000e+00	1.321436e+06	
131	-6.55000e+00	1.324758e+06	
132	-6.60000e+00	1.328014e+06	
Reset re-loads circuit ***************************

Circuit: ***************************

Doing analysis at TEMP = 25.000000 and TNOM = 25.000000


No. of Data Rows : 133
                          ***************************
                          DC transfer characteristic  Mon Jan  9 13:57:54  2023
--------------------------------------------------------------------------------
Index   v-sweep         rds             
--------------------------------------------------------------------------------
0	0.000000e+00	1.132586e+04	
1	-5.00000e-02	1.174376e+04	
2	-1.00000e-01	1.218816e+04	
3	-1.50000e-01	1.266162e+04	
4	-2.00000e-01	1.316709e+04	
5	-2.50000e-01	1.370790e+04	
6	-3.00000e-01	1.428789e+04	
7	-3.50000e-01	1.491144e+04	
8	-4.00000e-01	1.558363e+04	
9	-4.50000e-01	1.631035e+04	
10	-5.00000e-01	1.709849e+04	
11	-5.50000e-01	1.795613e+04	
12	-6.00000e-01	1.889283e+04	
13	-6.50000e-01	1.991998e+04	
14	-7.00000e-01	2.105124e+04	
15	-7.50000e-01	2.230315e+04	
16	-8.00000e-01	2.369589e+04	
17	-8.50000e-01	2.525432e+04	
18	-9.00000e-01	2.700937e+04	
19	-9.50000e-01	2.899994e+04	
20	-1.00000e+00	3.127543e+04	
21	-1.05000e+00	3.389922e+04	
22	-1.10000e+00	3.695321e+04	
23	-1.15000e+00	4.054359e+04	
24	-1.20000e+00	4.480698e+04	
25	-1.25000e+00	4.991423e+04	
26	-1.30000e+00	5.606360e+04	
27	-1.35000e+00	6.344607e+04	
28	-1.40000e+00	7.216097e+04	
29	-1.45000e+00	8.209424e+04	
30	-1.50000e+00	9.286467e+04	
31	-1.55000e+00	1.039603e+05	
32	-1.60000e+00	1.149720e+05	
33	-1.65000e+00	1.256987e+05	
34	-1.70000e+00	1.360946e+05	
35	-1.75000e+00	1.461823e+05	
36	-1.80000e+00	1.560003e+05	
37	-1.85000e+00	1.655831e+05	
38	-1.90000e+00	1.749573e+05	
39	-1.95000e+00	1.841421e+05	
40	-2.00000e+00	1.931518e+05	
41	-2.05000e+00	2.019968e+05	
42	-2.10000e+00	2.106854e+05	
43	-2.15000e+00	2.192240e+05	
44	-2.20000e+00	2.276179e+05	
45	-2.25000e+00	2.358717e+05	
46	-2.30000e+00	2.439894e+05	
47	-2.35000e+00	2.519748e+05	
48	-2.40000e+00	2.598310e+05	
49	-2.45000e+00	2.675612e+05	
50	-2.50000e+00	2.751683e+05	
51	-2.55000e+00	2.826551e+05	
52	-2.60000e+00	2.900242e+05	
53	-2.65000e+00	2.972782e+05	
54	-2.70000e+00	3.044195e+05	

Index   v-sweep         rds             
--------------------------------------------------------------------------------
55	-2.75000e+00	3.114505e+05	
56	-2.80000e+00	3.183735e+05	
57	-2.85000e+00	3.251908e+05	
58	-2.90000e+00	3.319043e+05	
59	-2.95000e+00	3.385164e+05	
60	-3.00000e+00	3.450290e+05	
61	-3.05000e+00	3.514441e+05	
62	-3.10000e+00	3.577636e+05	
63	-3.15000e+00	3.639895e+05	
64	-3.20000e+00	3.701235e+05	
65	-3.25000e+00	3.761675e+05	
66	-3.30000e+00	3.821233e+05	
67	-3.35000e+00	3.879925e+05	
68	-3.40000e+00	3.937767e+05	
69	-3.45000e+00	3.994777e+05	
70	-3.50000e+00	4.050970e+05	
71	-3.55000e+00	4.106362e+05	
72	-3.60000e+00	4.160967e+05	
73	-3.65000e+00	4.214801e+05	
74	-3.70000e+00	4.267877e+05	
75	-3.75000e+00	4.320211e+05	
76	-3.80000e+00	4.371815e+05	
77	-3.85000e+00	4.422703e+05	
78	-3.90000e+00	4.472889e+05	
79	-3.95000e+00	4.522384e+05	
80	-4.00000e+00	4.571202e+05	
81	-4.05000e+00	4.619354e+05	
82	-4.10000e+00	4.666853e+05	
83	-4.15000e+00	4.713709e+05	
84	-4.20000e+00	4.759935e+05	
85	-4.25000e+00	4.805542e+05	
86	-4.30000e+00	4.850539e+05	
87	-4.35000e+00	4.894938e+05	
88	-4.40000e+00	4.938749e+05	
89	-4.45000e+00	4.981981e+05	
90	-4.50000e+00	5.024645e+05	
91	-4.55000e+00	5.066749e+05	
92	-4.60000e+00	5.108303e+05	
93	-4.65000e+00	5.149316e+05	
94	-4.70000e+00	5.189796e+05	
95	-4.75000e+00	5.229751e+05	
96	-4.80000e+00	5.269191e+05	
97	-4.85000e+00	5.308121e+05	
98	-4.90000e+00	5.346551e+05	
99	-4.95000e+00	5.384488e+05	
100	-5.00000e+00	5.421937e+05	
101	-5.05000e+00	5.458907e+05	
102	-5.10000e+00	5.495404e+05	
103	-5.15000e+00	5.531434e+05	
104	-5.20000e+00	5.567003e+05	
105	-5.25000e+00	5.602117e+05	
106	-5.30000e+00	5.636782e+05	
107	-5.35000e+00	5.671003e+05	
108	-5.40000e+00	5.704785e+05	
109	-5.45000e+00	5.738133e+05	
110	-5.50000e+00	5.771052e+05	
111	-5.55000e+00	5.803545e+05	
112	-5.60000e+00	5.835619e+05	

Index   v-sweep         rds             
--------------------------------------------------------------------------------
113	-5.65000e+00	5.867275e+05	
114	-5.70000e+00	5.898519e+05	
115	-5.75000e+00	5.929353e+05	
116	-5.80000e+00	5.959782e+05	
117	-5.85000e+00	5.989808e+05	
118	-5.90000e+00	6.019434e+05	
119	-5.95000e+00	6.048664e+05	
120	-6.00000e+00	6.077499e+05	
121	-6.05000e+00	6.105943e+05	
122	-6.10000e+00	6.133997e+05	
123	-6.15000e+00	6.161665e+05	
124	-6.20000e+00	6.188947e+05	
125	-6.25000e+00	6.215846e+05	
126	-6.30000e+00	6.242364e+05	
127	-6.35000e+00	6.268501e+05	
128	-6.40000e+00	6.294260e+05	
129	-6.45000e+00	6.319642e+05	
130	-6.50000e+00	6.344649e+05	
131	-6.55000e+00	6.369280e+05	
132	-6.60000e+00	6.393538e+05	
Reset re-loads circuit ***************************

Circuit: ***************************

Doing analysis at TEMP = 25.000000 and TNOM = 25.000000


No. of Data Rows : 133
                          ***************************
                          DC transfer characteristic  Mon Jan  9 13:57:54  2023
--------------------------------------------------------------------------------
Index   v-sweep         rds             
--------------------------------------------------------------------------------
0	0.000000e+00	8.673422e+03	
1	-5.00000e-02	8.906152e+03	
2	-1.00000e-01	9.149050e+03	
3	-1.50000e-01	9.402793e+03	
4	-2.00000e-01	9.668118e+03	
5	-2.50000e-01	9.945830e+03	
6	-3.00000e-01	1.023681e+04	
7	-3.50000e-01	1.054203e+04	
8	-4.00000e-01	1.086256e+04	
9	-4.50000e-01	1.119956e+04	
10	-5.00000e-01	1.155433e+04	
11	-5.50000e-01	1.192831e+04	
12	-6.00000e-01	1.232309e+04	
13	-6.50000e-01	1.274045e+04	
14	-7.00000e-01	1.318236e+04	
15	-7.50000e-01	1.365106e+04	
16	-8.00000e-01	1.414904e+04	
17	-8.50000e-01	1.467911e+04	
18	-9.00000e-01	1.524447e+04	
19	-9.50000e-01	1.584873e+04	
20	-1.00000e+00	1.649602e+04	
21	-1.05000e+00	1.719108e+04	
22	-1.10000e+00	1.793935e+04	
23	-1.15000e+00	1.874715e+04	
24	-1.20000e+00	1.962178e+04	
25	-1.25000e+00	2.057181e+04	
26	-1.30000e+00	2.160729e+04	
27	-1.35000e+00	2.274010e+04	
28	-1.40000e+00	2.398434e+04	
29	-1.45000e+00	2.535689e+04	
30	-1.50000e+00	2.687799e+04	
31	-1.55000e+00	2.857207e+04	
32	-1.60000e+00	3.046864e+04	
33	-1.65000e+00	3.260333e+04	
34	-1.70000e+00	3.501875e+04	
35	-1.75000e+00	3.776491e+04	
36	-1.80000e+00	4.089803e+04	
37	-1.85000e+00	4.447607e+04	
38	-1.90000e+00	4.854856e+04	
39	-1.95000e+00	5.313962e+04	
40	-2.00000e+00	5.822865e+04	
41	-2.05000e+00	6.374201e+04	
42	-2.10000e+00	6.956787e+04	
43	-2.15000e+00	7.558782e+04	
44	-2.20000e+00	8.170344e+04	
45	-2.25000e+00	8.784535e+04	
46	-2.30000e+00	9.396926e+04	
47	-2.35000e+00	1.000483e+05	
48	-2.40000e+00	1.060663e+05	
49	-2.45000e+00	1.120139e+05	
50	-2.50000e+00	1.178855e+05	
51	-2.55000e+00	1.236779e+05	
52	-2.60000e+00	1.293895e+05	
53	-2.65000e+00	1.350196e+05	
54	-2.70000e+00	1.405681e+05	

Index   v-sweep         rds             
--------------------------------------------------------------------------------
55	-2.75000e+00	1.460355e+05	
56	-2.80000e+00	1.514225e+05	
57	-2.85000e+00	1.567299e+05	
58	-2.90000e+00	1.619588e+05	
59	-2.95000e+00	1.671103e+05	
60	-3.00000e+00	1.721857e+05	
61	-3.05000e+00	1.771860e+05	
62	-3.10000e+00	1.821127e+05	
63	-3.15000e+00	1.869670e+05	
64	-3.20000e+00	1.917501e+05	
65	-3.25000e+00	1.964633e+05	
66	-3.30000e+00	2.011079e+05	
67	-3.35000e+00	2.056852e+05	
68	-3.40000e+00	2.101963e+05	
69	-3.45000e+00	2.146425e+05	
70	-3.50000e+00	2.190251e+05	
71	-3.55000e+00	2.233451e+05	
72	-3.60000e+00	2.276037e+05	
73	-3.65000e+00	2.318021e+05	
74	-3.70000e+00	2.359413e+05	
75	-3.75000e+00	2.400226e+05	
76	-3.80000e+00	2.440469e+05	
77	-3.85000e+00	2.480153e+05	
78	-3.90000e+00	2.519288e+05	
79	-3.95000e+00	2.557885e+05	
80	-4.00000e+00	2.595953e+05	
81	-4.05000e+00	2.633501e+05	
82	-4.10000e+00	2.670540e+05	
83	-4.15000e+00	2.707078e+05	
84	-4.20000e+00	2.743125e+05	
85	-4.25000e+00	2.778689e+05	
86	-4.30000e+00	2.813779e+05	
87	-4.35000e+00	2.848403e+05	
88	-4.40000e+00	2.882570e+05	
89	-4.45000e+00	2.916288e+05	
90	-4.50000e+00	2.949564e+05	
91	-4.55000e+00	2.982406e+05	
92	-4.60000e+00	3.014822e+05	
93	-4.65000e+00	3.046820e+05	
94	-4.70000e+00	3.078405e+05	
95	-4.75000e+00	3.109586e+05	
96	-4.80000e+00	3.140369e+05	
97	-4.85000e+00	3.170761e+05	
98	-4.90000e+00	3.200767e+05	
99	-4.95000e+00	3.230396e+05	
100	-5.00000e+00	3.259652e+05	
101	-5.05000e+00	3.288542e+05	
102	-5.10000e+00	3.317071e+05	
103	-5.15000e+00	3.345245e+05	
104	-5.20000e+00	3.373070e+05	
105	-5.25000e+00	3.400551e+05	
106	-5.30000e+00	3.427693e+05	
107	-5.35000e+00	3.454501e+05	
108	-5.40000e+00	3.480980e+05	
109	-5.45000e+00	3.507134e+05	
110	-5.50000e+00	3.532968e+05	
111	-5.55000e+00	3.558486e+05	
112	-5.60000e+00	3.583693e+05	

Index   v-sweep         rds             
--------------------------------------------------------------------------------
113	-5.65000e+00	3.608591e+05	
114	-5.70000e+00	3.633187e+05	
115	-5.75000e+00	3.657481e+05	
116	-5.80000e+00	3.681479e+05	
117	-5.85000e+00	3.705184e+05	
118	-5.90000e+00	3.728598e+05	
119	-5.95000e+00	3.751725e+05	
120	-6.00000e+00	3.774568e+05	
121	-6.05000e+00	3.797129e+05	
122	-6.10000e+00	3.819411e+05	
123	-6.15000e+00	3.841416e+05	
124	-6.20000e+00	3.863146e+05	
125	-6.25000e+00	3.884604e+05	
126	-6.30000e+00	3.905791e+05	
127	-6.35000e+00	3.926710e+05	
128	-6.40000e+00	3.947361e+05	
129	-6.45000e+00	3.967747e+05	
130	-6.50000e+00	3.987869e+05	
131	-6.55000e+00	4.007729e+05	
132	-6.60000e+00	4.027327e+05	
Reset re-loads circuit ***************************

Circuit: ***************************

Doing analysis at TEMP = 25.000000 and TNOM = 25.000000


No. of Data Rows : 133
                          ***************************
                          DC transfer characteristic  Mon Jan  9 13:57:54  2023
--------------------------------------------------------------------------------
Index   v-sweep         rds             
--------------------------------------------------------------------------------
0	0.000000e+00	7.276893e+03	
1	-5.00000e-02	7.432482e+03	
2	-1.00000e-01	7.593284e+03	
3	-1.50000e-01	7.759563e+03	
4	-2.00000e-01	7.931600e+03	
5	-2.50000e-01	8.109697e+03	
6	-3.00000e-01	8.294177e+03	
7	-3.50000e-01	8.485387e+03	
8	-4.00000e-01	8.683698e+03	
9	-4.50000e-01	8.889510e+03	
10	-5.00000e-01	9.103253e+03	
11	-5.50000e-01	9.325392e+03	
12	-6.00000e-01	9.556428e+03	
13	-6.50000e-01	9.796901e+03	
14	-7.00000e-01	1.004740e+04	
15	-7.50000e-01	1.030856e+04	
16	-8.00000e-01	1.058106e+04	
17	-8.50000e-01	1.086567e+04	
18	-9.00000e-01	1.116320e+04	
19	-9.50000e-01	1.147455e+04	
20	-1.00000e+00	1.180070e+04	
21	-1.05000e+00	1.214271e+04	
22	-1.10000e+00	1.250177e+04	
23	-1.15000e+00	1.287918e+04	
24	-1.20000e+00	1.327638e+04	
25	-1.25000e+00	1.369494e+04	
26	-1.30000e+00	1.413664e+04	
27	-1.35000e+00	1.460343e+04	
28	-1.40000e+00	1.509749e+04	
29	-1.45000e+00	1.562127e+04	
30	-1.50000e+00	1.617751e+04	
31	-1.55000e+00	1.676931e+04	
32	-1.60000e+00	1.740014e+04	
33	-1.65000e+00	1.807396e+04	
34	-1.70000e+00	1.879528e+04	
35	-1.75000e+00	1.956921e+04	
36	-1.80000e+00	2.040165e+04	
37	-1.85000e+00	2.129936e+04	
38	-1.90000e+00	2.227017e+04	
39	-1.95000e+00	2.332314e+04	
40	-2.00000e+00	2.446881e+04	
41	-2.05000e+00	2.571947e+04	
42	-2.10000e+00	2.708947e+04	
43	-2.15000e+00	2.859556e+04	
44	-2.20000e+00	3.025721e+04	
45	-2.25000e+00	3.209681e+04	
46	-2.30000e+00	3.413967e+04	
47	-2.35000e+00	3.641324e+04	
48	-2.40000e+00	3.894530e+04	
49	-2.45000e+00	4.176017e+04	
50	-2.50000e+00	4.487276e+04	
51	-2.55000e+00	4.828154e+04	
52	-2.60000e+00	5.196392e+04	
53	-2.65000e+00	5.587780e+04	
54	-2.70000e+00	5.996970e+04	

Index   v-sweep         rds             
--------------------------------------------------------------------------------
55	-2.75000e+00	6.418504e+04	
56	-2.80000e+00	6.847582e+04	
57	-2.85000e+00	7.280380e+04	
58	-2.90000e+00	7.714044e+04	
59	-2.95000e+00	8.146525e+04	
60	-3.00000e+00	8.576382e+04	
61	-3.05000e+00	9.002620e+04	
62	-3.10000e+00	9.424558e+04	
63	-3.15000e+00	9.841735e+04	
64	-3.20000e+00	1.025385e+05	
65	-3.25000e+00	1.066070e+05	
66	-3.30000e+00	1.106216e+05	
67	-3.35000e+00	1.145819e+05	
68	-3.40000e+00	1.184876e+05	
69	-3.45000e+00	1.223387e+05	
70	-3.50000e+00	1.261356e+05	
71	-3.55000e+00	1.298787e+05	
72	-3.60000e+00	1.335685e+05	
73	-3.65000e+00	1.372058e+05	
74	-3.70000e+00	1.407912e+05	
75	-3.75000e+00	1.443255e+05	
76	-3.80000e+00	1.478095e+05	
77	-3.85000e+00	1.512439e+05	
78	-3.90000e+00	1.546296e+05	
79	-3.95000e+00	1.579674e+05	
80	-4.00000e+00	1.612581e+05	
81	-4.05000e+00	1.645026e+05	
82	-4.10000e+00	1.677016e+05	
83	-4.15000e+00	1.708559e+05	
84	-4.20000e+00	1.739664e+05	
85	-4.25000e+00	1.770339e+05	
86	-4.30000e+00	1.800590e+05	
87	-4.35000e+00	1.830426e+05	
88	-4.40000e+00	1.859853e+05	
89	-4.45000e+00	1.888881e+05	
90	-4.50000e+00	1.917514e+05	
91	-4.55000e+00	1.945762e+05	
92	-4.60000e+00	1.973630e+05	
93	-4.65000e+00	2.001125e+05	
94	-4.70000e+00	2.028255e+05	
95	-4.75000e+00	2.055025e+05	
96	-4.80000e+00	2.081442e+05	
97	-4.85000e+00	2.107512e+05	
98	-4.90000e+00	2.133241e+05	
99	-4.95000e+00	2.158635e+05	
100	-5.00000e+00	2.183701e+05	
101	-5.05000e+00	2.208443e+05	
102	-5.10000e+00	2.232868e+05	
103	-5.15000e+00	2.256981e+05	
104	-5.20000e+00	2.280786e+05	
105	-5.25000e+00	2.304290e+05	
106	-5.30000e+00	2.327498e+05	
107	-5.35000e+00	2.350414e+05	
108	-5.40000e+00	2.373043e+05	
109	-5.45000e+00	2.395390e+05	
110	-5.50000e+00	2.417459e+05	
111	-5.55000e+00	2.439255e+05	
112	-5.60000e+00	2.460783e+05	

Index   v-sweep         rds             
--------------------------------------------------------------------------------
113	-5.65000e+00	2.482046e+05	
114	-5.70000e+00	2.503049e+05	
115	-5.75000e+00	2.523794e+05	
116	-5.80000e+00	2.544288e+05	
117	-5.85000e+00	2.564532e+05	
118	-5.90000e+00	2.584530e+05	
119	-5.95000e+00	2.604287e+05	
120	-6.00000e+00	2.623805e+05	
121	-6.05000e+00	2.643087e+05	
122	-6.10000e+00	2.662136e+05	
123	-6.15000e+00	2.680956e+05	
124	-6.20000e+00	2.699549e+05	
125	-6.25000e+00	2.717918e+05	
126	-6.30000e+00	2.736065e+05	
127	-6.35000e+00	2.753993e+05	
128	-6.40000e+00	2.771704e+05	
129	-6.45000e+00	2.789201e+05	
130	-6.50000e+00	2.806484e+05	
131	-6.55000e+00	2.823557e+05	
132	-6.60000e+00	2.840420e+05	
Reset re-loads circuit ***************************

Circuit: ***************************

Doing analysis at TEMP = 25.000000 and TNOM = 25.000000


No. of Data Rows : 133
                          ***************************
                          DC transfer characteristic  Mon Jan  9 13:57:54  2023
--------------------------------------------------------------------------------
Index   v-sweep         rds             
--------------------------------------------------------------------------------
0	0.000000e+00	6.408864e+03	
1	-5.00000e-02	6.523648e+03	
2	-1.00000e-01	6.641560e+03	
3	-1.50000e-01	6.762727e+03	
4	-2.00000e-01	6.887285e+03	
5	-2.50000e-01	7.015376e+03	
6	-3.00000e-01	7.147151e+03	
7	-3.50000e-01	7.282770e+03	
8	-4.00000e-01	7.422401e+03	
9	-4.50000e-01	7.566223e+03	
10	-5.00000e-01	7.714426e+03	
11	-5.50000e-01	7.867211e+03	
12	-6.00000e-01	8.024792e+03	
13	-6.50000e-01	8.187396e+03	
14	-7.00000e-01	8.355266e+03	
15	-7.50000e-01	8.528658e+03	
16	-8.00000e-01	8.707848e+03	
17	-8.50000e-01	8.893130e+03	
18	-9.00000e-01	9.084816e+03	
19	-9.50000e-01	9.283243e+03	
20	-1.00000e+00	9.488769e+03	
21	-1.05000e+00	9.701779e+03	
22	-1.10000e+00	9.922687e+03	
23	-1.15000e+00	1.015194e+04	
24	-1.20000e+00	1.039001e+04	
25	-1.25000e+00	1.063742e+04	
26	-1.30000e+00	1.089471e+04	
27	-1.35000e+00	1.116251e+04	
28	-1.40000e+00	1.144145e+04	
29	-1.45000e+00	1.173224e+04	
30	-1.50000e+00	1.203564e+04	
31	-1.55000e+00	1.235250e+04	
32	-1.60000e+00	1.268372e+04	
33	-1.65000e+00	1.303029e+04	
34	-1.70000e+00	1.339329e+04	
35	-1.75000e+00	1.377392e+04	
36	-1.80000e+00	1.417348e+04	
37	-1.85000e+00	1.459341e+04	
38	-1.90000e+00	1.503529e+04	
39	-1.95000e+00	1.550088e+04	
40	-2.00000e+00	1.599212e+04	
41	-2.05000e+00	1.651116e+04	
42	-2.10000e+00	1.706042e+04	
43	-2.15000e+00	1.764257e+04	
44	-2.20000e+00	1.826063e+04	
45	-2.25000e+00	1.891799e+04	
46	-2.30000e+00	1.961844e+04	
47	-2.35000e+00	2.036631e+04	
48	-2.40000e+00	2.116648e+04	
49	-2.45000e+00	2.202453e+04	
50	-2.50000e+00	2.294683e+04	
51	-2.55000e+00	2.394069e+04	
52	-2.60000e+00	2.501453e+04	
53	-2.65000e+00	2.617811e+04	
54	-2.70000e+00	2.744276e+04	

Index   v-sweep         rds             
--------------------------------------------------------------------------------
55	-2.75000e+00	2.882169e+04	
56	-2.80000e+00	3.033024e+04	
57	-2.85000e+00	3.198605e+04	
58	-2.90000e+00	3.380876e+04	
59	-2.95000e+00	3.581868e+04	
60	-3.00000e+00	3.803384e+04	
61	-3.05000e+00	4.046526e+04	
62	-3.10000e+00	4.311180e+04	
63	-3.15000e+00	4.595743e+04	
64	-3.20000e+00	4.897309e+04	
65	-3.25000e+00	5.212240e+04	
66	-3.30000e+00	5.536809e+04	
67	-3.35000e+00	5.867665e+04	
68	-3.40000e+00	6.202049e+04	
69	-3.45000e+00	6.537811e+04	
70	-3.50000e+00	6.873336e+04	
71	-3.55000e+00	7.207438e+04	
72	-3.60000e+00	7.539258e+04	
73	-3.65000e+00	7.868181e+04	
74	-3.70000e+00	8.193770e+04	
75	-3.75000e+00	8.515719e+04	
76	-3.80000e+00	8.833819e+04	
77	-3.85000e+00	9.147930e+04	
78	-3.90000e+00	9.457965e+04	
79	-3.95000e+00	9.763875e+04	
80	-4.00000e+00	1.006564e+05	
81	-4.05000e+00	1.036326e+05	
82	-4.10000e+00	1.065676e+05	
83	-4.15000e+00	1.094616e+05	
84	-4.20000e+00	1.123150e+05	
85	-4.25000e+00	1.151282e+05	
86	-4.30000e+00	1.179019e+05	
87	-4.35000e+00	1.206365e+05	
88	-4.40000e+00	1.233326e+05	
89	-4.45000e+00	1.259908e+05	
90	-4.50000e+00	1.286116e+05	
91	-4.55000e+00	1.311958e+05	
92	-4.60000e+00	1.337438e+05	
93	-4.65000e+00	1.362564e+05	
94	-4.70000e+00	1.387341e+05	
95	-4.75000e+00	1.411775e+05	
96	-4.80000e+00	1.435873e+05	
97	-4.85000e+00	1.459640e+05	
98	-4.90000e+00	1.483082e+05	
99	-4.95000e+00	1.506205e+05	
100	-5.00000e+00	1.529014e+05	
101	-5.05000e+00	1.551516e+05	
102	-5.10000e+00	1.573715e+05	
103	-5.15000e+00	1.595617e+05	
104	-5.20000e+00	1.617228e+05	
105	-5.25000e+00	1.638552e+05	
106	-5.30000e+00	1.659594e+05	
107	-5.35000e+00	1.680361e+05	
108	-5.40000e+00	1.700855e+05	
109	-5.45000e+00	1.721083e+05	
110	-5.50000e+00	1.741048e+05	
111	-5.55000e+00	1.760756e+05	
112	-5.60000e+00	1.780211e+05	

Index   v-sweep         rds             
--------------------------------------------------------------------------------
113	-5.65000e+00	1.799417e+05	
114	-5.70000e+00	1.818379e+05	
115	-5.75000e+00	1.837100e+05	
116	-5.80000e+00	1.855585e+05	
117	-5.85000e+00	1.873838e+05	
118	-5.90000e+00	1.891862e+05	
119	-5.95000e+00	1.909662e+05	
120	-6.00000e+00	1.927241e+05	
121	-6.05000e+00	1.944602e+05	
122	-6.10000e+00	1.961749e+05	
123	-6.15000e+00	1.978685e+05	
124	-6.20000e+00	1.995414e+05	
125	-6.25000e+00	2.011939e+05	
126	-6.30000e+00	2.028263e+05	
127	-6.35000e+00	2.044388e+05	
128	-6.40000e+00	2.060317e+05	
129	-6.45000e+00	2.076054e+05	
130	-6.50000e+00	2.091601e+05	
131	-6.55000e+00	2.106960e+05	
132	-6.60000e+00	2.122134e+05	
Reset re-loads circuit ***************************

Circuit: ***************************

Note: No ".plot", ".print", or ".fourier" lines; no simulations run
