
Note: Compatibility modes selected: hs

Warning: m=xx on .subckt line will override multiplier m hierarchy!


Circuit: ***************************

Doing analysis at TEMP = -40.000000 and TNOM = -40.000000


No. of Data Rows : 133
                          ***************************
                          DC transfer characteristic  Mon Jan  9 13:57:54  2023
--------------------------------------------------------------------------------
Index   v-sweep         rds             
--------------------------------------------------------------------------------
0	0.000000e+00	6.520279e+05	
1	-5.00000e-02	2.591097e+06	
2	-1.00000e-01	2.125286e+07	
3	-1.50000e-01	9.918863e+07	
4	-2.00000e-01	2.612969e+08	
5	-2.50000e-01	4.844904e+08	
6	-3.00000e-01	7.237269e+08	
7	-3.50000e-01	9.461456e+08	
8	-4.00000e-01	1.138883e+09	
9	-4.50000e-01	1.301440e+09	
10	-5.00000e-01	1.438032e+09	
11	-5.50000e-01	1.553667e+09	
12	-6.00000e-01	1.652738e+09	
13	-6.50000e-01	1.738731e+09	
14	-7.00000e-01	1.814314e+09	
15	-7.50000e-01	1.881500e+09	
16	-8.00000e-01	1.941820e+09	
17	-8.50000e-01	1.996444e+09	
18	-9.00000e-01	2.046279e+09	
19	-9.50000e-01	2.092035e+09	
20	-1.00000e+00	2.134279e+09	
21	-1.05000e+00	2.173468e+09	
22	-1.10000e+00	2.209975e+09	
23	-1.15000e+00	2.244108e+09	
24	-1.20000e+00	2.276124e+09	
25	-1.25000e+00	2.306242e+09	
26	-1.30000e+00	2.334646e+09	
27	-1.35000e+00	2.361496e+09	
28	-1.40000e+00	2.386930e+09	
29	-1.45000e+00	2.411068e+09	
30	-1.50000e+00	2.434016e+09	
31	-1.55000e+00	2.455868e+09	
32	-1.60000e+00	2.476706e+09	
33	-1.65000e+00	2.496605e+09	
34	-1.70000e+00	2.515630e+09	
35	-1.75000e+00	2.533842e+09	
36	-1.80000e+00	2.551295e+09	
37	-1.85000e+00	2.568037e+09	
38	-1.90000e+00	2.584113e+09	
39	-1.95000e+00	2.599564e+09	
40	-2.00000e+00	2.614427e+09	
41	-2.05000e+00	2.628737e+09	
42	-2.10000e+00	2.642524e+09	
43	-2.15000e+00	2.655817e+09	
44	-2.20000e+00	2.668644e+09	
45	-2.25000e+00	2.681028e+09	
46	-2.30000e+00	2.692994e+09	
47	-2.35000e+00	2.704562e+09	
48	-2.40000e+00	2.715752e+09	
49	-2.45000e+00	2.726583e+09	
50	-2.50000e+00	2.737072e+09	
51	-2.55000e+00	2.747235e+09	
52	-2.60000e+00	2.757087e+09	
53	-2.65000e+00	2.766643e+09	
54	-2.70000e+00	2.775916e+09	

Index   v-sweep         rds             
--------------------------------------------------------------------------------
55	-2.75000e+00	2.784917e+09	
56	-2.80000e+00	2.793659e+09	
57	-2.85000e+00	2.802154e+09	
58	-2.90000e+00	2.810411e+09	
59	-2.95000e+00	2.818440e+09	
60	-3.00000e+00	2.826250e+09	
61	-3.05000e+00	2.833851e+09	
62	-3.10000e+00	2.841250e+09	
63	-3.15000e+00	2.848455e+09	
64	-3.20000e+00	2.855474e+09	
65	-3.25000e+00	2.862315e+09	
66	-3.30000e+00	2.868982e+09	
67	-3.35000e+00	2.875483e+09	
68	-3.40000e+00	2.881824e+09	
69	-3.45000e+00	2.888011e+09	
70	-3.50000e+00	2.894049e+09	
71	-3.55000e+00	2.899942e+09	
72	-3.60000e+00	2.905697e+09	
73	-3.65000e+00	2.911317e+09	
74	-3.70000e+00	2.916808e+09	
75	-3.75000e+00	2.922173e+09	
76	-3.80000e+00	2.927416e+09	
77	-3.85000e+00	2.932542e+09	
78	-3.90000e+00	2.937553e+09	
79	-3.95000e+00	2.942454e+09	
80	-4.00000e+00	2.947248e+09	
81	-4.05000e+00	2.951938e+09	
82	-4.10000e+00	2.956527e+09	
83	-4.15000e+00	2.961019e+09	
84	-4.20000e+00	2.965415e+09	
85	-4.25000e+00	2.969718e+09	
86	-4.30000e+00	2.973932e+09	
87	-4.35000e+00	2.978058e+09	
88	-4.40000e+00	2.982099e+09	
89	-4.45000e+00	2.986057e+09	
90	-4.50000e+00	2.989934e+09	
91	-4.55000e+00	2.993733e+09	
92	-4.60000e+00	2.997455e+09	
93	-4.65000e+00	3.001103e+09	
94	-4.70000e+00	3.004677e+09	
95	-4.75000e+00	3.008180e+09	
96	-4.80000e+00	3.011614e+09	
97	-4.85000e+00	3.014980e+09	
98	-4.90000e+00	3.018280e+09	
99	-4.95000e+00	3.021514e+09	
100	-5.00000e+00	3.024686e+09	
101	-5.05000e+00	3.027795e+09	
102	-5.10000e+00	3.030844e+09	
103	-5.15000e+00	3.033833e+09	
104	-5.20000e+00	3.036764e+09	
105	-5.25000e+00	3.039638e+09	
106	-5.30000e+00	3.042456e+09	
107	-5.35000e+00	3.045219e+09	
108	-5.40000e+00	3.047929e+09	
109	-5.45000e+00	3.050586e+09	
110	-5.50000e+00	3.053191e+09	
111	-5.55000e+00	3.055746e+09	
112	-5.60000e+00	3.058251e+09	

Index   v-sweep         rds             
--------------------------------------------------------------------------------
113	-5.65000e+00	3.060707e+09	
114	-5.70000e+00	3.063115e+09	
115	-5.75000e+00	3.065476e+09	
116	-5.80000e+00	3.067791e+09	
117	-5.85000e+00	3.070059e+09	
118	-5.90000e+00	3.072284e+09	
119	-5.95000e+00	3.074464e+09	
120	-6.00000e+00	3.076600e+09	
121	-6.05000e+00	3.078695e+09	
122	-6.10000e+00	3.080747e+09	
123	-6.15000e+00	3.082758e+09	
124	-6.20000e+00	3.084728e+09	
125	-6.25000e+00	3.086658e+09	
126	-6.30000e+00	3.088549e+09	
127	-6.35000e+00	3.090401e+09	
128	-6.40000e+00	3.092214e+09	
129	-6.45000e+00	3.093990e+09	
130	-6.50000e+00	3.095729e+09	
131	-6.55000e+00	3.097431e+09	
132	-6.60000e+00	3.099098e+09	
Reset re-loads circuit ***************************

Circuit: ***************************

Doing analysis at TEMP = -40.000000 and TNOM = -40.000000


No. of Data Rows : 133
                          ***************************
                          DC transfer characteristic  Mon Jan  9 13:57:55  2023
--------------------------------------------------------------------------------
Index   v-sweep         rds             
--------------------------------------------------------------------------------
0	0.000000e+00	3.033805e+04	
1	-5.00000e-02	3.259254e+04	
2	-1.00000e-01	3.520563e+04	
3	-1.50000e-01	3.826994e+04	
4	-2.00000e-01	4.191282e+04	
5	-2.50000e-01	4.631412e+04	
6	-3.00000e-01	5.173590e+04	
7	-3.50000e-01	5.857445e+04	
8	-4.00000e-01	6.745625e+04	
9	-4.50000e-01	7.942520e+04	
10	-5.00000e-01	9.633291e+04	
11	-5.50000e-01	1.217072e+05	
12	-6.00000e-01	1.627865e+05	
13	-6.50000e-01	2.352720e+05	
14	-7.00000e-01	3.728230e+05	
15	-7.50000e-01	6.370796e+05	
16	-8.00000e-01	1.103659e+06	
17	-8.50000e-01	1.804431e+06	
18	-9.00000e-01	2.681647e+06	
19	-9.50000e-01	3.621434e+06	
20	-1.00000e+00	4.523631e+06	
21	-1.05000e+00	5.334815e+06	
22	-1.10000e+00	6.040907e+06	
23	-1.15000e+00	6.648669e+06	
24	-1.20000e+00	7.172229e+06	
25	-1.25000e+00	7.626364e+06	
26	-1.30000e+00	8.023995e+06	
27	-1.35000e+00	8.375638e+06	
28	-1.40000e+00	8.689601e+06	
29	-1.45000e+00	8.972384e+06	
30	-1.50000e+00	9.229078e+06	
31	-1.55000e+00	9.463693e+06	
32	-1.60000e+00	9.679419e+06	
33	-1.65000e+00	9.878818e+06	
34	-1.70000e+00	1.006397e+07	
35	-1.75000e+00	1.023660e+07	
36	-1.80000e+00	1.039811e+07	
37	-1.85000e+00	1.054971e+07	
38	-1.90000e+00	1.069239e+07	
39	-1.95000e+00	1.082703e+07	
40	-2.00000e+00	1.095436e+07	
41	-2.05000e+00	1.107502e+07	
42	-2.10000e+00	1.118959e+07	
43	-2.15000e+00	1.129856e+07	
44	-2.20000e+00	1.140236e+07	
45	-2.25000e+00	1.150138e+07	
46	-2.30000e+00	1.159597e+07	
47	-2.35000e+00	1.168644e+07	
48	-2.40000e+00	1.177307e+07	
49	-2.45000e+00	1.185611e+07	
50	-2.50000e+00	1.193581e+07	
51	-2.55000e+00	1.201235e+07	
52	-2.60000e+00	1.208594e+07	
53	-2.65000e+00	1.215676e+07	
54	-2.70000e+00	1.222495e+07	

Index   v-sweep         rds             
--------------------------------------------------------------------------------
55	-2.75000e+00	1.229068e+07	
56	-2.80000e+00	1.235407e+07	
57	-2.85000e+00	1.241525e+07	
58	-2.90000e+00	1.247435e+07	
59	-2.95000e+00	1.253146e+07	
60	-3.00000e+00	1.258668e+07	
61	-3.05000e+00	1.264012e+07	
62	-3.10000e+00	1.269186e+07	
63	-3.15000e+00	1.274198e+07	
64	-3.20000e+00	1.279056e+07	
65	-3.25000e+00	1.283766e+07	
66	-3.30000e+00	1.288336e+07	
67	-3.35000e+00	1.292772e+07	
68	-3.40000e+00	1.297079e+07	
69	-3.45000e+00	1.301264e+07	
70	-3.50000e+00	1.305331e+07	
71	-3.55000e+00	1.309285e+07	
72	-3.60000e+00	1.313132e+07	
73	-3.65000e+00	1.316875e+07	
74	-3.70000e+00	1.320518e+07	
75	-3.75000e+00	1.324066e+07	
76	-3.80000e+00	1.327522e+07	
77	-3.85000e+00	1.330890e+07	
78	-3.90000e+00	1.334172e+07	
79	-3.95000e+00	1.337373e+07	
80	-4.00000e+00	1.340495e+07	
81	-4.05000e+00	1.343541e+07	
82	-4.10000e+00	1.346514e+07	
83	-4.15000e+00	1.349416e+07	
84	-4.20000e+00	1.352250e+07	
85	-4.25000e+00	1.355017e+07	
86	-4.30000e+00	1.357722e+07	
87	-4.35000e+00	1.360364e+07	
88	-4.40000e+00	1.362947e+07	
89	-4.45000e+00	1.365472e+07	
90	-4.50000e+00	1.367941e+07	
91	-4.55000e+00	1.370356e+07	
92	-4.60000e+00	1.372719e+07	
93	-4.65000e+00	1.375031e+07	
94	-4.70000e+00	1.377293e+07	
95	-4.75000e+00	1.379508e+07	
96	-4.80000e+00	1.381676e+07	
97	-4.85000e+00	1.383799e+07	
98	-4.90000e+00	1.385878e+07	
99	-4.95000e+00	1.387914e+07	
100	-5.00000e+00	1.389909e+07	
101	-5.05000e+00	1.391863e+07	
102	-5.10000e+00	1.393778e+07	
103	-5.15000e+00	1.395655e+07	
104	-5.20000e+00	1.397494e+07	
105	-5.25000e+00	1.399297e+07	
106	-5.30000e+00	1.401064e+07	
107	-5.35000e+00	1.402797e+07	
108	-5.40000e+00	1.404496e+07	
109	-5.45000e+00	1.406161e+07	
110	-5.50000e+00	1.407795e+07	
111	-5.55000e+00	1.409397e+07	
112	-5.60000e+00	1.410968e+07	

Index   v-sweep         rds             
--------------------------------------------------------------------------------
113	-5.65000e+00	1.412509e+07	
114	-5.70000e+00	1.414021e+07	
115	-5.75000e+00	1.415503e+07	
116	-5.80000e+00	1.416958e+07	
117	-5.85000e+00	1.418384e+07	
118	-5.90000e+00	1.419784e+07	
119	-5.95000e+00	1.421157e+07	
120	-6.00000e+00	1.422504e+07	
121	-6.05000e+00	1.423825e+07	
122	-6.10000e+00	1.425122e+07	
123	-6.15000e+00	1.426394e+07	
124	-6.20000e+00	1.427641e+07	
125	-6.25000e+00	1.428865e+07	
126	-6.30000e+00	1.430066e+07	
127	-6.35000e+00	1.431244e+07	
128	-6.40000e+00	1.432399e+07	
129	-6.45000e+00	1.433532e+07	
130	-6.50000e+00	1.434644e+07	
131	-6.55000e+00	1.435734e+07	
132	-6.60000e+00	1.436803e+07	
Reset re-loads circuit ***************************

Circuit: ***************************

Doing analysis at TEMP = -40.000000 and TNOM = -40.000000


No. of Data Rows : 133
                          ***************************
                          DC transfer characteristic  Mon Jan  9 13:57:55  2023
--------------------------------------------------------------------------------
Index   v-sweep         rds             
--------------------------------------------------------------------------------
0	0.000000e+00	1.677911e+04	
1	-5.00000e-02	1.738990e+04	
2	-1.00000e-01	1.804618e+04	
3	-1.50000e-01	1.875326e+04	
4	-2.00000e-01	1.951725e+04	
5	-2.50000e-01	2.034530e+04	
6	-3.00000e-01	2.124582e+04	
7	-3.50000e-01	2.222873e+04	
8	-4.00000e-01	2.330589e+04	
9	-4.50000e-01	2.449148e+04	
10	-5.00000e-01	2.580272e+04	
11	-5.50000e-01	2.726064e+04	
12	-6.00000e-01	2.889122e+04	
13	-6.50000e-01	3.072693e+04	
14	-7.00000e-01	3.280888e+04	
15	-7.50000e-01	3.518982e+04	
16	-8.00000e-01	3.793860e+04	
17	-8.50000e-01	4.114660e+04	
18	-9.00000e-01	4.493770e+04	
19	-9.50000e-01	4.948355e+04	
20	-1.00000e+00	5.502826e+04	
21	-1.05000e+00	6.192902e+04	
22	-1.10000e+00	7.072528e+04	
23	-1.15000e+00	8.225981e+04	
24	-1.20000e+00	9.789452e+04	
25	-1.25000e+00	1.198941e+05	
26	-1.30000e+00	1.520730e+05	
27	-1.35000e+00	2.007123e+05	
28	-1.40000e+00	2.752521e+05	
29	-1.45000e+00	3.871018e+05	
30	-1.50000e+00	5.444731e+05	
31	-1.55000e+00	7.449564e+05	
32	-1.60000e+00	9.733212e+05	
33	-1.65000e+00	1.208430e+06	
34	-1.70000e+00	1.432648e+06	
35	-1.75000e+00	1.636160e+06	
36	-1.80000e+00	1.815980e+06	
37	-1.85000e+00	1.973137e+06	
38	-1.90000e+00	2.110348e+06	
39	-1.95000e+00	2.230684e+06	
40	-2.00000e+00	2.336979e+06	
41	-2.05000e+00	2.431635e+06	
42	-2.10000e+00	2.516611e+06	
43	-2.15000e+00	2.593479e+06	
44	-2.20000e+00	2.663497e+06	
45	-2.25000e+00	2.727670e+06	
46	-2.30000e+00	2.786811e+06	
47	-2.35000e+00	2.841579e+06	
48	-2.40000e+00	2.892515e+06	
49	-2.45000e+00	2.940068e+06	
50	-2.50000e+00	2.984610e+06	
51	-2.55000e+00	3.026458e+06	
52	-2.60000e+00	3.065881e+06	
53	-2.65000e+00	3.103109e+06	
54	-2.70000e+00	3.138340e+06	

Index   v-sweep         rds             
--------------------------------------------------------------------------------
55	-2.75000e+00	3.171748e+06	
56	-2.80000e+00	3.203486e+06	
57	-2.85000e+00	3.233685e+06	
58	-2.90000e+00	3.262465e+06	
59	-2.95000e+00	3.289932e+06	
60	-3.00000e+00	3.316180e+06	
61	-3.05000e+00	3.341293e+06	
62	-3.10000e+00	3.365348e+06	
63	-3.15000e+00	3.388415e+06	
64	-3.20000e+00	3.410556e+06	
65	-3.25000e+00	3.431828e+06	
66	-3.30000e+00	3.452285e+06	
67	-3.35000e+00	3.471973e+06	
68	-3.40000e+00	3.490937e+06	
69	-3.45000e+00	3.509219e+06	
70	-3.50000e+00	3.526854e+06	
71	-3.55000e+00	3.543878e+06	
72	-3.60000e+00	3.560323e+06	
73	-3.65000e+00	3.576219e+06	
74	-3.70000e+00	3.591593e+06	
75	-3.75000e+00	3.606472e+06	
76	-3.80000e+00	3.620879e+06	
77	-3.85000e+00	3.634837e+06	
78	-3.90000e+00	3.648367e+06	
79	-3.95000e+00	3.661488e+06	
80	-4.00000e+00	3.674219e+06	
81	-4.05000e+00	3.686578e+06	
82	-4.10000e+00	3.698580e+06	
83	-4.15000e+00	3.710242e+06	
84	-4.20000e+00	3.721577e+06	
85	-4.25000e+00	3.732599e+06	
86	-4.30000e+00	3.743321e+06	
87	-4.35000e+00	3.753755e+06	
88	-4.40000e+00	3.763913e+06	
89	-4.45000e+00	3.773805e+06	
90	-4.50000e+00	3.783442e+06	
91	-4.55000e+00	3.792834e+06	
92	-4.60000e+00	3.801989e+06	
93	-4.65000e+00	3.810916e+06	
94	-4.70000e+00	3.819624e+06	
95	-4.75000e+00	3.828121e+06	
96	-4.80000e+00	3.836413e+06	
97	-4.85000e+00	3.844509e+06	
98	-4.90000e+00	3.852415e+06	
99	-4.95000e+00	3.860137e+06	
100	-5.00000e+00	3.867682e+06	
101	-5.05000e+00	3.875056e+06	
102	-5.10000e+00	3.882263e+06	
103	-5.15000e+00	3.889310e+06	
104	-5.20000e+00	3.896201e+06	
105	-5.25000e+00	3.902942e+06	
106	-5.30000e+00	3.909536e+06	
107	-5.35000e+00	3.915989e+06	
108	-5.40000e+00	3.922304e+06	
109	-5.45000e+00	3.928486e+06	
110	-5.50000e+00	3.934538e+06	
111	-5.55000e+00	3.940465e+06	
112	-5.60000e+00	3.946268e+06	

Index   v-sweep         rds             
--------------------------------------------------------------------------------
113	-5.65000e+00	3.951953e+06	
114	-5.70000e+00	3.957522e+06	
115	-5.75000e+00	3.962979e+06	
116	-5.80000e+00	3.968325e+06	
117	-5.85000e+00	3.973565e+06	
118	-5.90000e+00	3.978701e+06	
119	-5.95000e+00	3.983735e+06	
120	-6.00000e+00	3.988670e+06	
121	-6.05000e+00	3.993508e+06	
122	-6.10000e+00	3.998252e+06	
123	-6.15000e+00	4.002904e+06	
124	-6.20000e+00	4.007465e+06	
125	-6.25000e+00	4.011939e+06	
126	-6.30000e+00	4.016326e+06	
127	-6.35000e+00	4.020630e+06	
128	-6.40000e+00	4.024851e+06	
129	-6.45000e+00	4.028991e+06	
130	-6.50000e+00	4.033053e+06	
131	-6.55000e+00	4.037037e+06	
132	-6.60000e+00	4.040946e+06	
Reset re-loads circuit ***************************

Circuit: ***************************

Doing analysis at TEMP = -40.000000 and TNOM = -40.000000


No. of Data Rows : 133
                          ***************************
                          DC transfer characteristic  Mon Jan  9 13:57:55  2023
--------------------------------------------------------------------------------
Index   v-sweep         rds             
--------------------------------------------------------------------------------
0	0.000000e+00	1.232910e+04	
1	-5.00000e-02	1.262478e+04	
2	-1.00000e-01	1.293472e+04	
3	-1.50000e-01	1.325997e+04	
4	-2.00000e-01	1.360171e+04	
5	-2.50000e-01	1.396120e+04	
6	-3.00000e-01	1.433988e+04	
7	-3.50000e-01	1.473933e+04	
8	-4.00000e-01	1.516129e+04	
9	-4.50000e-01	1.560773e+04	
10	-5.00000e-01	1.608083e+04	
11	-5.50000e-01	1.658306e+04	
12	-6.00000e-01	1.711718e+04	
13	-6.50000e-01	1.768635e+04	
14	-7.00000e-01	1.829411e+04	
15	-7.50000e-01	1.894452e+04	
16	-8.00000e-01	1.964223e+04	
17	-8.50000e-01	2.039259e+04	
18	-9.00000e-01	2.120178e+04	
19	-9.50000e-01	2.207697e+04	
20	-1.00000e+00	2.302658e+04	
21	-1.05000e+00	2.406048e+04	
22	-1.10000e+00	2.519039e+04	
23	-1.15000e+00	2.643026e+04	
24	-1.20000e+00	2.779690e+04	
25	-1.25000e+00	2.931067e+04	
26	-1.30000e+00	3.099654e+04	
27	-1.35000e+00	3.288535e+04	
28	-1.40000e+00	3.501573e+04	
29	-1.45000e+00	3.743659e+04	
30	-1.50000e+00	4.021072e+04	
31	-1.55000e+00	4.341996e+04	
32	-1.60000e+00	4.717270e+04	
33	-1.65000e+00	5.161512e+04	
34	-1.70000e+00	5.694806e+04	
35	-1.75000e+00	6.345318e+04	
36	-1.80000e+00	7.153348e+04	
37	-1.85000e+00	8.177665e+04	
38	-1.90000e+00	9.505224e+04	
39	-1.95000e+00	1.126527e+05	
40	-2.00000e+00	1.364711e+05	
41	-2.05000e+00	1.691427e+05	
42	-2.10000e+00	2.139376e+05	
43	-2.15000e+00	2.740263e+05	
44	-2.20000e+00	3.509229e+05	
45	-2.25000e+00	4.427961e+05	
46	-2.30000e+00	5.442103e+05	
47	-2.35000e+00	6.479882e+05	
48	-2.40000e+00	7.478105e+05	
49	-2.45000e+00	8.397193e+05	
50	-2.50000e+00	9.221250e+05	
51	-2.55000e+00	9.950526e+05	
52	-2.60000e+00	1.059352e+06	
53	-2.65000e+00	1.116157e+06	
54	-2.70000e+00	1.166602e+06	

Index   v-sweep         rds             
--------------------------------------------------------------------------------
55	-2.75000e+00	1.211695e+06	
56	-2.80000e+00	1.252290e+06	
57	-2.85000e+00	1.289085e+06	
58	-2.90000e+00	1.322652e+06	
59	-2.95000e+00	1.353453e+06	
60	-3.00000e+00	1.381865e+06	
61	-3.05000e+00	1.408195e+06	
62	-3.10000e+00	1.432698e+06	
63	-3.15000e+00	1.455586e+06	
64	-3.20000e+00	1.477035e+06	
65	-3.25000e+00	1.497195e+06	
66	-3.30000e+00	1.516193e+06	
67	-3.35000e+00	1.534140e+06	
68	-3.40000e+00	1.551129e+06	
69	-3.45000e+00	1.567244e+06	
70	-3.50000e+00	1.582557e+06	
71	-3.55000e+00	1.597132e+06	
72	-3.60000e+00	1.611025e+06	
73	-3.65000e+00	1.624286e+06	
74	-3.70000e+00	1.636962e+06	
75	-3.75000e+00	1.649092e+06	
76	-3.80000e+00	1.660713e+06	
77	-3.85000e+00	1.671858e+06	
78	-3.90000e+00	1.682558e+06	
79	-3.95000e+00	1.692840e+06	
80	-4.00000e+00	1.702728e+06	
81	-4.05000e+00	1.712247e+06	
82	-4.10000e+00	1.721416e+06	
83	-4.15000e+00	1.730256e+06	
84	-4.20000e+00	1.738785e+06	
85	-4.25000e+00	1.747020e+06	
86	-4.30000e+00	1.754975e+06	
87	-4.35000e+00	1.762665e+06	
88	-4.40000e+00	1.770103e+06	
89	-4.45000e+00	1.777302e+06	
90	-4.50000e+00	1.784273e+06	
91	-4.55000e+00	1.791028e+06	
92	-4.60000e+00	1.797576e+06	
93	-4.65000e+00	1.803927e+06	
94	-4.70000e+00	1.810089e+06	
95	-4.75000e+00	1.816071e+06	
96	-4.80000e+00	1.821882e+06	
97	-4.85000e+00	1.827527e+06	
98	-4.90000e+00	1.833015e+06	
99	-4.95000e+00	1.838352e+06	
100	-5.00000e+00	1.843543e+06	
101	-5.05000e+00	1.848595e+06	
102	-5.10000e+00	1.853514e+06	
103	-5.15000e+00	1.858305e+06	
104	-5.20000e+00	1.862972e+06	
105	-5.25000e+00	1.867520e+06	
106	-5.30000e+00	1.871954e+06	
107	-5.35000e+00	1.876277e+06	
108	-5.40000e+00	1.880495e+06	
109	-5.45000e+00	1.884611e+06	
110	-5.50000e+00	1.888628e+06	
111	-5.55000e+00	1.892549e+06	
112	-5.60000e+00	1.896379e+06	

Index   v-sweep         rds             
--------------------------------------------------------------------------------
113	-5.65000e+00	1.900120e+06	
114	-5.70000e+00	1.903775e+06	
115	-5.75000e+00	1.907347e+06	
116	-5.80000e+00	1.910839e+06	
117	-5.85000e+00	1.914253e+06	
118	-5.90000e+00	1.917592e+06	
119	-5.95000e+00	1.920858e+06	
120	-6.00000e+00	1.924053e+06	
121	-6.05000e+00	1.927180e+06	
122	-6.10000e+00	1.930240e+06	
123	-6.15000e+00	1.933235e+06	
124	-6.20000e+00	1.936168e+06	
125	-6.25000e+00	1.939040e+06	
126	-6.30000e+00	1.941852e+06	
127	-6.35000e+00	1.944607e+06	
128	-6.40000e+00	1.947306e+06	
129	-6.45000e+00	1.949951e+06	
130	-6.50000e+00	1.952542e+06	
131	-6.55000e+00	1.955081e+06	
132	-6.60000e+00	1.957570e+06	
Reset re-loads circuit ***************************

Circuit: ***************************

Doing analysis at TEMP = -40.000000 and TNOM = -40.000000


No. of Data Rows : 133
                          ***************************
                          DC transfer characteristic  Mon Jan  9 13:57:55  2023
--------------------------------------------------------------------------------
Index   v-sweep         rds             
--------------------------------------------------------------------------------
0	0.000000e+00	1.016061e+04	
1	-5.00000e-02	1.034147e+04	
2	-1.00000e-01	1.052874e+04	
3	-1.50000e-01	1.072275e+04	
4	-2.00000e-01	1.092389e+04	
5	-2.50000e-01	1.113255e+04	
6	-3.00000e-01	1.134917e+04	
7	-3.50000e-01	1.157419e+04	
8	-4.00000e-01	1.180814e+04	
9	-4.50000e-01	1.205154e+04	
10	-5.00000e-01	1.230498e+04	
11	-5.50000e-01	1.256909e+04	
12	-6.00000e-01	1.284457e+04	
13	-6.50000e-01	1.313216e+04	
14	-7.00000e-01	1.343268e+04	
15	-7.50000e-01	1.374702e+04	
16	-8.00000e-01	1.407615e+04	
17	-8.50000e-01	1.442115e+04	
18	-9.00000e-01	1.478319e+04	
19	-9.50000e-01	1.516355e+04	
20	-1.00000e+00	1.556368e+04	
21	-1.05000e+00	1.598514e+04	
22	-1.10000e+00	1.642970e+04	
23	-1.15000e+00	1.689929e+04	
24	-1.20000e+00	1.739609e+04	
25	-1.25000e+00	1.792254e+04	
26	-1.30000e+00	1.848136e+04	
27	-1.35000e+00	1.907564e+04	
28	-1.40000e+00	1.970884e+04	
29	-1.45000e+00	2.038491e+04	
30	-1.50000e+00	2.110835e+04	
31	-1.55000e+00	2.188431e+04	
32	-1.60000e+00	2.271870e+04	
33	-1.65000e+00	2.361835e+04	
34	-1.70000e+00	2.459119e+04	
35	-1.75000e+00	2.564650e+04	
36	-1.80000e+00	2.679517e+04	
37	-1.85000e+00	2.805008e+04	
38	-1.90000e+00	2.942656e+04	
39	-1.95000e+00	3.094303e+04	
40	-2.00000e+00	3.262174e+04	
41	-2.05000e+00	3.448988e+04	
42	-2.10000e+00	3.658093e+04	
43	-2.15000e+00	3.893657e+04	
44	-2.20000e+00	4.160926e+04	
45	-2.25000e+00	4.466579e+04	
46	-2.30000e+00	4.819231e+04	
47	-2.35000e+00	5.230141e+04	
48	-2.40000e+00	5.714219e+04	
49	-2.45000e+00	6.291482e+04	
50	-2.50000e+00	6.989130e+04	
51	-2.55000e+00	7.844470e+04	
52	-2.60000e+00	8.908875e+04	
53	-2.65000e+00	1.025263e+05	
54	-2.70000e+00	1.196961e+05	

Index   v-sweep         rds             
--------------------------------------------------------------------------------
55	-2.75000e+00	1.417840e+05	
56	-2.80000e+00	1.701303e+05	
57	-2.85000e+00	2.059351e+05	
58	-2.90000e+00	2.497288e+05	
59	-2.95000e+00	3.007912e+05	
60	-3.00000e+00	3.569552e+05	
61	-3.05000e+00	4.151036e+05	
62	-3.10000e+00	4.721214e+05	
63	-3.15000e+00	5.256921e+05	
64	-3.20000e+00	5.745654e+05	
65	-3.25000e+00	6.183882e+05	
66	-3.30000e+00	6.573738e+05	
67	-3.35000e+00	6.920098e+05	
68	-3.40000e+00	7.228658e+05	
69	-3.45000e+00	7.504919e+05	
70	-3.50000e+00	7.753756e+05	
71	-3.55000e+00	7.979303e+05	
72	-3.60000e+00	8.184993e+05	
73	-3.65000e+00	8.373647e+05	
74	-3.70000e+00	8.547581e+05	
75	-3.75000e+00	8.708697e+05	
76	-3.80000e+00	8.858569e+05	
77	-3.85000e+00	8.998508e+05	
78	-3.90000e+00	9.129609e+05	
79	-3.95000e+00	9.252801e+05	
80	-4.00000e+00	9.368872e+05	
81	-4.05000e+00	9.478499e+05	
82	-4.10000e+00	9.582267e+05	
83	-4.15000e+00	9.680684e+05	
84	-4.20000e+00	9.774197e+05	
85	-4.25000e+00	9.863197e+05	
86	-4.30000e+00	9.948031e+05	
87	-4.35000e+00	1.002901e+06	
88	-4.40000e+00	1.010641e+06	
89	-4.45000e+00	1.018047e+06	
90	-4.50000e+00	1.025143e+06	
91	-4.55000e+00	1.031949e+06	
92	-4.60000e+00	1.038482e+06	
93	-4.65000e+00	1.044760e+06	
94	-4.70000e+00	1.050798e+06	
95	-4.75000e+00	1.056611e+06	
96	-4.80000e+00	1.062210e+06	
97	-4.85000e+00	1.067608e+06	
98	-4.90000e+00	1.072817e+06	
99	-4.95000e+00	1.077845e+06	
100	-5.00000e+00	1.082703e+06	
101	-5.05000e+00	1.087399e+06	
102	-5.10000e+00	1.091942e+06	
103	-5.15000e+00	1.096338e+06	
104	-5.20000e+00	1.100595e+06	
105	-5.25000e+00	1.104720e+06	
106	-5.30000e+00	1.108719e+06	
107	-5.35000e+00	1.112598e+06	
108	-5.40000e+00	1.116361e+06	
109	-5.45000e+00	1.120014e+06	
110	-5.50000e+00	1.123563e+06	
111	-5.55000e+00	1.127011e+06	
112	-5.60000e+00	1.130362e+06	

Index   v-sweep         rds             
--------------------------------------------------------------------------------
113	-5.65000e+00	1.133621e+06	
114	-5.70000e+00	1.136792e+06	
115	-5.75000e+00	1.139877e+06	
116	-5.80000e+00	1.142881e+06	
117	-5.85000e+00	1.145807e+06	
118	-5.90000e+00	1.148657e+06	
119	-5.95000e+00	1.151434e+06	
120	-6.00000e+00	1.154142e+06	
121	-6.05000e+00	1.156783e+06	
122	-6.10000e+00	1.159358e+06	
123	-6.15000e+00	1.161872e+06	
124	-6.20000e+00	1.164325e+06	
125	-6.25000e+00	1.166720e+06	
126	-6.30000e+00	1.169058e+06	
127	-6.35000e+00	1.171343e+06	
128	-6.40000e+00	1.173575e+06	
129	-6.45000e+00	1.175757e+06	
130	-6.50000e+00	1.177889e+06	
131	-6.55000e+00	1.179974e+06	
132	-6.60000e+00	1.182013e+06	
Reset re-loads circuit ***************************

Circuit: ***************************

Doing analysis at TEMP = -40.000000 and TNOM = -40.000000


No. of Data Rows : 133
                          ***************************
                          DC transfer characteristic  Mon Jan  9 13:57:55  2023
--------------------------------------------------------------------------------
Index   v-sweep         rds             
--------------------------------------------------------------------------------
0	0.000000e+00	8.904772e+03	
1	-5.00000e-02	9.030263e+03	
2	-1.00000e-01	9.159246e+03	
3	-1.50000e-01	9.291868e+03	
4	-2.00000e-01	9.428286e+03	
5	-2.50000e-01	9.568665e+03	
6	-3.00000e-01	9.713180e+03	
7	-3.50000e-01	9.862017e+03	
8	-4.00000e-01	1.001537e+04	
9	-4.50000e-01	1.017345e+04	
10	-5.00000e-01	1.033648e+04	
11	-5.50000e-01	1.050470e+04	
12	-6.00000e-01	1.067835e+04	
13	-6.50000e-01	1.085771e+04	
14	-7.00000e-01	1.104305e+04	
15	-7.50000e-01	1.123469e+04	
16	-8.00000e-01	1.143295e+04	
17	-8.50000e-01	1.163818e+04	
18	-9.00000e-01	1.185075e+04	
19	-9.50000e-01	1.207107e+04	
20	-1.00000e+00	1.229956e+04	
21	-1.05000e+00	1.253669e+04	
22	-1.10000e+00	1.278296e+04	
23	-1.15000e+00	1.303890e+04	
24	-1.20000e+00	1.330511e+04	
25	-1.25000e+00	1.358219e+04	
26	-1.30000e+00	1.387085e+04	
27	-1.35000e+00	1.417181e+04	
28	-1.40000e+00	1.448588e+04	
29	-1.45000e+00	1.481394e+04	
30	-1.50000e+00	1.515693e+04	
31	-1.55000e+00	1.551591e+04	
32	-1.60000e+00	1.589201e+04	
33	-1.65000e+00	1.628649e+04	
34	-1.70000e+00	1.670072e+04	
35	-1.75000e+00	1.713624e+04	
36	-1.80000e+00	1.759471e+04	
37	-1.85000e+00	1.807799e+04	
38	-1.90000e+00	1.858816e+04	
39	-1.95000e+00	1.912752e+04	
40	-2.00000e+00	1.969864e+04	
41	-2.05000e+00	2.030440e+04	
42	-2.10000e+00	2.094805e+04	
43	-2.15000e+00	2.163323e+04	
44	-2.20000e+00	2.236410e+04	
45	-2.25000e+00	2.314535e+04	
46	-2.30000e+00	2.398237e+04	
47	-2.35000e+00	2.488130e+04	
48	-2.40000e+00	2.584925e+04	
49	-2.45000e+00	2.689442e+04	
50	-2.50000e+00	2.802636e+04	
51	-2.55000e+00	2.925625e+04	
52	-2.60000e+00	3.059726e+04	
53	-2.65000e+00	3.206496e+04	
54	-2.70000e+00	3.367795e+04	

Index   v-sweep         rds             
--------------------------------------------------------------------------------
55	-2.75000e+00	3.545857e+04	
56	-2.80000e+00	3.743385e+04	
57	-2.85000e+00	3.963683e+04	
58	-2.90000e+00	4.210816e+04	
59	-2.95000e+00	4.489838e+04	
60	-3.00000e+00	4.807091e+04	
61	-3.05000e+00	5.170605e+04	
62	-3.10000e+00	5.590652e+04	
63	-3.15000e+00	6.080481e+04	
64	-3.20000e+00	6.657309e+04	
65	-3.25000e+00	7.343604e+04	
66	-3.30000e+00	8.168676e+04	
67	-3.35000e+00	9.170405e+04	
68	-3.40000e+00	1.039664e+05	
69	-3.45000e+00	1.190505e+05	
70	-3.50000e+00	1.375923e+05	
71	-3.55000e+00	1.601810e+05	
72	-3.60000e+00	1.871649e+05	
73	-3.65000e+00	2.184063e+05	
74	-3.70000e+00	2.531046e+05	
75	-3.75000e+00	2.898468e+05	
76	-3.80000e+00	3.269276e+05	
77	-3.85000e+00	3.627813e+05	
78	-3.90000e+00	3.962947e+05	
79	-3.95000e+00	4.268898e+05	
80	-4.00000e+00	4.544291e+05	
81	-4.05000e+00	4.790573e+05	
82	-4.10000e+00	5.010596e+05	
83	-4.15000e+00	5.207651e+05	
84	-4.20000e+00	5.384940e+05	
85	-4.25000e+00	5.545325e+05	
86	-4.30000e+00	5.691262e+05	
87	-4.35000e+00	5.824808e+05	
88	-4.40000e+00	5.947671e+05	
89	-4.45000e+00	6.061259e+05	
90	-4.50000e+00	6.166741e+05	
91	-4.55000e+00	6.265084e+05	
92	-4.60000e+00	6.357100e+05	
93	-4.65000e+00	6.443470e+05	
94	-4.70000e+00	6.524773e+05	
95	-4.75000e+00	6.601502e+05	
96	-4.80000e+00	6.674082e+05	
97	-4.85000e+00	6.742880e+05	
98	-4.90000e+00	6.808217e+05	
99	-4.95000e+00	6.870376e+05	
100	-5.00000e+00	6.929603e+05	
101	-5.05000e+00	6.986121e+05	
102	-5.10000e+00	7.040125e+05	
103	-5.15000e+00	7.091793e+05	
104	-5.20000e+00	7.141282e+05	
105	-5.25000e+00	7.188736e+05	
106	-5.30000e+00	7.234285e+05	
107	-5.35000e+00	7.278047e+05	
108	-5.40000e+00	7.320132e+05	
109	-5.45000e+00	7.360636e+05	
110	-5.50000e+00	7.399652e+05	
111	-5.55000e+00	7.437262e+05	
112	-5.60000e+00	7.473545e+05	

Index   v-sweep         rds             
--------------------------------------------------------------------------------
113	-5.65000e+00	7.508570e+05	
114	-5.70000e+00	7.542405e+05	
115	-5.75000e+00	7.575109e+05	
116	-5.80000e+00	7.606742e+05	
117	-5.85000e+00	7.637354e+05	
118	-5.90000e+00	7.666996e+05	
119	-5.95000e+00	7.695714e+05	
120	-6.00000e+00	7.723551e+05	
121	-6.05000e+00	7.750547e+05	
122	-6.10000e+00	7.776741e+05	
123	-6.15000e+00	7.802169e+05	
124	-6.20000e+00	7.826863e+05	
125	-6.25000e+00	7.850855e+05	
126	-6.30000e+00	7.874175e+05	
127	-6.35000e+00	7.896851e+05	
128	-6.40000e+00	7.918909e+05	
129	-6.45000e+00	7.940375e+05	
130	-6.50000e+00	7.961272e+05	
131	-6.55000e+00	7.981622e+05	
132	-6.60000e+00	8.001446e+05	
Reset re-loads circuit ***************************

Circuit: ***************************

Note: No ".plot", ".print", or ".fourier" lines; no simulations run
