
Note: Compatibility modes selected: hs

Warning: m=xx on .subckt line will override multiplier m hierarchy!


Circuit: ***************************

Doing analysis at TEMP = -40.000000 and TNOM = -40.000000


No. of Data Rows : 133
                          ***************************
                          DC transfer characteristic  Mon Jan  9 13:57:54  2023
--------------------------------------------------------------------------------
Index   v-sweep         rds             
--------------------------------------------------------------------------------
0	0.000000e+00	3.167743e+05	
1	-5.00000e-02	1.223875e+06	
2	-1.00000e-01	9.775009e+06	
3	-1.50000e-01	4.407656e+07	
4	-2.00000e-01	1.090193e+08	
5	-2.50000e-01	1.884715e+08	
6	-3.00000e-01	2.656341e+08	
7	-3.50000e-01	3.333901e+08	
8	-4.00000e-01	3.911437e+08	
9	-4.50000e-01	4.405031e+08	
10	-5.00000e-01	4.833033e+08	
11	-5.50000e-01	5.210473e+08	
12	-6.00000e-01	5.548546e+08	
13	-6.50000e-01	5.855381e+08	
14	-7.00000e-01	6.136882e+08	
15	-7.50000e-01	6.397397e+08	
16	-8.00000e-01	6.640185e+08	
17	-8.50000e-01	6.867736e+08	
18	-9.00000e-01	7.081997e+08	
19	-9.50000e-01	7.284516e+08	
20	-1.00000e+00	7.476548e+08	
21	-1.05000e+00	7.659129e+08	
22	-1.10000e+00	7.833124e+08	
23	-1.15000e+00	7.999270e+08	
24	-1.20000e+00	8.158198e+08	
25	-1.25000e+00	8.310457e+08	
26	-1.30000e+00	8.456529e+08	
27	-1.35000e+00	8.596838e+08	
28	-1.40000e+00	8.731764e+08	
29	-1.45000e+00	8.861648e+08	
30	-1.50000e+00	8.986796e+08	
31	-1.55000e+00	9.107486e+08	
32	-1.60000e+00	9.223972e+08	
33	-1.65000e+00	9.336487e+08	
34	-1.70000e+00	9.445242e+08	
35	-1.75000e+00	9.550435e+08	
36	-1.80000e+00	9.652246e+08	
37	-1.85000e+00	9.750844e+08	
38	-1.90000e+00	9.846384e+08	
39	-1.95000e+00	9.939013e+08	
40	-2.00000e+00	1.002886e+09	
41	-2.05000e+00	1.011607e+09	
42	-2.10000e+00	1.020074e+09	
43	-2.15000e+00	1.028298e+09	
44	-2.20000e+00	1.036292e+09	
45	-2.25000e+00	1.044063e+09	
46	-2.30000e+00	1.051622e+09	
47	-2.35000e+00	1.058977e+09	
48	-2.40000e+00	1.066137e+09	
49	-2.45000e+00	1.073109e+09	
50	-2.50000e+00	1.079900e+09	
51	-2.55000e+00	1.086517e+09	
52	-2.60000e+00	1.092968e+09	
53	-2.65000e+00	1.099258e+09	
54	-2.70000e+00	1.105393e+09	

Index   v-sweep         rds             
--------------------------------------------------------------------------------
55	-2.75000e+00	1.111379e+09	
56	-2.80000e+00	1.117221e+09	
57	-2.85000e+00	1.122925e+09	
58	-2.90000e+00	1.128495e+09	
59	-2.95000e+00	1.133935e+09	
60	-3.00000e+00	1.139251e+09	
61	-3.05000e+00	1.144446e+09	
62	-3.10000e+00	1.149524e+09	
63	-3.15000e+00	1.154490e+09	
64	-3.20000e+00	1.159347e+09	
65	-3.25000e+00	1.164098e+09	
66	-3.30000e+00	1.168746e+09	
67	-3.35000e+00	1.173296e+09	
68	-3.40000e+00	1.177749e+09	
69	-3.45000e+00	1.182109e+09	
70	-3.50000e+00	1.186379e+09	
71	-3.55000e+00	1.190561e+09	
72	-3.60000e+00	1.194658e+09	
73	-3.65000e+00	1.198673e+09	
74	-3.70000e+00	1.202607e+09	
75	-3.75000e+00	1.206462e+09	
76	-3.80000e+00	1.210242e+09	
77	-3.85000e+00	1.213948e+09	
78	-3.90000e+00	1.217582e+09	
79	-3.95000e+00	1.221146e+09	
80	-4.00000e+00	1.224642e+09	
81	-4.05000e+00	1.228071e+09	
82	-4.10000e+00	1.231436e+09	
83	-4.15000e+00	1.234737e+09	
84	-4.20000e+00	1.237977e+09	
85	-4.25000e+00	1.241157e+09	
86	-4.30000e+00	1.244278e+09	
87	-4.35000e+00	1.247342e+09	
88	-4.40000e+00	1.250349e+09	
89	-4.45000e+00	1.253302e+09	
90	-4.50000e+00	1.256202e+09	
91	-4.55000e+00	1.259049e+09	
92	-4.60000e+00	1.261845e+09	
93	-4.65000e+00	1.264591e+09	
94	-4.70000e+00	1.267287e+09	
95	-4.75000e+00	1.269936e+09	
96	-4.80000e+00	1.272537e+09	
97	-4.85000e+00	1.275093e+09	
98	-4.90000e+00	1.277602e+09	
99	-4.95000e+00	1.280068e+09	
100	-5.00000e+00	1.282490e+09	
101	-5.05000e+00	1.284869e+09	
102	-5.10000e+00	1.287206e+09	
103	-5.15000e+00	1.289502e+09	
104	-5.20000e+00	1.291757e+09	
105	-5.25000e+00	1.293972e+09	
106	-5.30000e+00	1.296148e+09	
107	-5.35000e+00	1.298286e+09	
108	-5.40000e+00	1.300386e+09	
109	-5.45000e+00	1.302448e+09	
110	-5.50000e+00	1.304473e+09	
111	-5.55000e+00	1.306463e+09	
112	-5.60000e+00	1.308417e+09	

Index   v-sweep         rds             
--------------------------------------------------------------------------------
113	-5.65000e+00	1.310336e+09	
114	-5.70000e+00	1.312220e+09	
115	-5.75000e+00	1.314070e+09	
116	-5.80000e+00	1.315887e+09	
117	-5.85000e+00	1.317670e+09	
118	-5.90000e+00	1.319421e+09	
119	-5.95000e+00	1.321140e+09	
120	-6.00000e+00	1.322827e+09	
121	-6.05000e+00	1.324483e+09	
122	-6.10000e+00	1.326107e+09	
123	-6.15000e+00	1.327702e+09	
124	-6.20000e+00	1.329266e+09	
125	-6.25000e+00	1.330801e+09	
126	-6.30000e+00	1.332306e+09	
127	-6.35000e+00	1.333782e+09	
128	-6.40000e+00	1.335230e+09	
129	-6.45000e+00	1.336649e+09	
130	-6.50000e+00	1.338041e+09	
131	-6.55000e+00	1.339405e+09	
132	-6.60000e+00	1.340741e+09	
Reset re-loads circuit ***************************

Circuit: ***************************

Doing analysis at TEMP = -40.000000 and TNOM = -40.000000


No. of Data Rows : 133
                          ***************************
                          DC transfer characteristic  Mon Jan  9 13:57:54  2023
--------------------------------------------------------------------------------
Index   v-sweep         rds             
--------------------------------------------------------------------------------
0	0.000000e+00	1.498215e+04	
1	-5.00000e-02	1.609383e+04	
2	-1.00000e-01	1.738063e+04	
3	-1.50000e-01	1.888731e+04	
4	-2.00000e-01	2.067523e+04	
5	-2.50000e-01	2.283072e+04	
6	-3.00000e-01	2.547902e+04	
7	-3.50000e-01	2.880853e+04	
8	-4.00000e-01	3.311515e+04	
9	-4.50000e-01	3.888787e+04	
10	-5.00000e-01	4.698490e+04	
11	-5.50000e-01	5.901832e+04	
12	-6.00000e-01	7.823180e+04	
13	-6.50000e-01	1.114631e+05	
14	-7.00000e-01	1.727095e+05	
15	-7.50000e-01	2.854307e+05	
16	-8.00000e-01	4.726166e+05	
17	-8.50000e-01	7.327906e+05	
18	-9.00000e-01	1.033656e+06	
19	-9.50000e-01	1.336554e+06	
20	-1.00000e+00	1.617646e+06	
21	-1.05000e+00	1.869039e+06	
22	-1.10000e+00	2.091621e+06	
23	-1.15000e+00	2.289364e+06	
24	-1.20000e+00	2.466593e+06	
25	-1.25000e+00	2.627050e+06	
26	-1.30000e+00	2.773726e+06	
27	-1.35000e+00	2.908940e+06	
28	-1.40000e+00	3.034484e+06	
29	-1.45000e+00	3.151748e+06	
30	-1.50000e+00	3.261828e+06	
31	-1.55000e+00	3.365593e+06	
32	-1.60000e+00	3.463749e+06	
33	-1.65000e+00	3.556876e+06	
34	-1.70000e+00	3.645455e+06	
35	-1.75000e+00	3.729893e+06	
36	-1.80000e+00	3.810539e+06	
37	-1.85000e+00	3.887692e+06	
38	-1.90000e+00	3.961615e+06	
39	-1.95000e+00	4.032538e+06	
40	-2.00000e+00	4.100666e+06	
41	-2.05000e+00	4.166181e+06	
42	-2.10000e+00	4.229248e+06	
43	-2.15000e+00	4.290016e+06	
44	-2.20000e+00	4.348617e+06	
45	-2.25000e+00	4.405177e+06	
46	-2.30000e+00	4.459806e+06	
47	-2.35000e+00	4.512609e+06	
48	-2.40000e+00	4.563681e+06	
49	-2.45000e+00	4.613110e+06	
50	-2.50000e+00	4.660977e+06	
51	-2.55000e+00	4.707359e+06	
52	-2.60000e+00	4.752326e+06	
53	-2.65000e+00	4.795944e+06	
54	-2.70000e+00	4.838275e+06	

Index   v-sweep         rds             
--------------------------------------------------------------------------------
55	-2.75000e+00	4.879376e+06	
56	-2.80000e+00	4.919302e+06	
57	-2.85000e+00	4.958103e+06	
58	-2.90000e+00	4.995827e+06	
59	-2.95000e+00	5.032519e+06	
60	-3.00000e+00	5.068222e+06	
61	-3.05000e+00	5.102975e+06	
62	-3.10000e+00	5.136817e+06	
63	-3.15000e+00	5.169782e+06	
64	-3.20000e+00	5.201906e+06	
65	-3.25000e+00	5.233219e+06	
66	-3.30000e+00	5.263753e+06	
67	-3.35000e+00	5.293537e+06	
68	-3.40000e+00	5.322597e+06	
69	-3.45000e+00	5.350960e+06	
70	-3.50000e+00	5.378650e+06	
71	-3.55000e+00	5.405692e+06	
72	-3.60000e+00	5.432108e+06	
73	-3.65000e+00	5.457919e+06	
74	-3.70000e+00	5.483145e+06	
75	-3.75000e+00	5.507807e+06	
76	-3.80000e+00	5.531922e+06	
77	-3.85000e+00	5.555508e+06	
78	-3.90000e+00	5.578583e+06	
79	-3.95000e+00	5.601163e+06	
80	-4.00000e+00	5.623262e+06	
81	-4.05000e+00	5.644896e+06	
82	-4.10000e+00	5.666079e+06	
83	-4.15000e+00	5.686824e+06	
84	-4.20000e+00	5.707145e+06	
85	-4.25000e+00	5.727054e+06	
86	-4.30000e+00	5.746563e+06	
87	-4.35000e+00	5.765683e+06	
88	-4.40000e+00	5.784425e+06	
89	-4.45000e+00	5.802799e+06	
90	-4.50000e+00	5.820816e+06	
91	-4.55000e+00	5.838486e+06	
92	-4.60000e+00	5.855816e+06	
93	-4.65000e+00	5.872817e+06	
94	-4.70000e+00	5.889497e+06	
95	-4.75000e+00	5.905863e+06	
96	-4.80000e+00	5.921924e+06	
97	-4.85000e+00	5.937688e+06	
98	-4.90000e+00	5.953160e+06	
99	-4.95000e+00	5.968349e+06	
100	-5.00000e+00	5.983261e+06	
101	-5.05000e+00	5.997902e+06	
102	-5.10000e+00	6.012279e+06	
103	-5.15000e+00	6.026397e+06	
104	-5.20000e+00	6.040262e+06	
105	-5.25000e+00	6.053879e+06	
106	-5.30000e+00	6.067254e+06	
107	-5.35000e+00	6.080391e+06	
108	-5.40000e+00	6.093296e+06	
109	-5.45000e+00	6.105973e+06	
110	-5.50000e+00	6.118427e+06	
111	-5.55000e+00	6.130662e+06	
112	-5.60000e+00	6.142682e+06	

Index   v-sweep         rds             
--------------------------------------------------------------------------------
113	-5.65000e+00	6.154491e+06	
114	-5.70000e+00	6.166093e+06	
115	-5.75000e+00	6.177491e+06	
116	-5.80000e+00	6.188690e+06	
117	-5.85000e+00	6.199693e+06	
118	-5.90000e+00	6.210503e+06	
119	-5.95000e+00	6.221123e+06	
120	-6.00000e+00	6.231557e+06	
121	-6.05000e+00	6.241807e+06	
122	-6.10000e+00	6.251876e+06	
123	-6.15000e+00	6.261768e+06	
124	-6.20000e+00	6.271485e+06	
125	-6.25000e+00	6.281029e+06	
126	-6.30000e+00	6.290403e+06	
127	-6.35000e+00	6.299610e+06	
128	-6.40000e+00	6.308652e+06	
129	-6.45000e+00	6.317532e+06	
130	-6.50000e+00	6.326251e+06	
131	-6.55000e+00	6.334812e+06	
132	-6.60000e+00	6.343217e+06	
Reset re-loads circuit ***************************

Circuit: ***************************

Doing analysis at TEMP = -40.000000 and TNOM = -40.000000


No. of Data Rows : 133
                          ***************************
                          DC transfer characteristic  Mon Jan  9 13:57:54  2023
--------------------------------------------------------------------------------
Index   v-sweep         rds             
--------------------------------------------------------------------------------
0	0.000000e+00	8.323178e+03	
1	-5.00000e-02	8.628813e+03	
2	-1.00000e-01	8.957113e+03	
3	-1.50000e-01	9.310694e+03	
4	-2.00000e-01	9.692590e+03	
5	-2.50000e-01	1.010634e+04	
6	-3.00000e-01	1.055610e+04	
7	-3.50000e-01	1.104678e+04	
8	-4.00000e-01	1.158421e+04	
9	-4.50000e-01	1.217541e+04	
10	-5.00000e-01	1.282883e+04	
11	-5.50000e-01	1.355484e+04	
12	-6.00000e-01	1.436617e+04	
13	-6.50000e-01	1.527877e+04	
14	-7.00000e-01	1.631272e+04	
15	-7.50000e-01	1.749381e+04	
16	-8.00000e-01	1.885556e+04	
17	-8.50000e-01	2.044237e+04	
18	-9.00000e-01	2.231421e+04	
19	-9.50000e-01	2.455384e+04	
20	-1.00000e+00	2.727838e+04	
21	-1.05000e+00	3.065810e+04	
22	-1.10000e+00	3.494798e+04	
23	-1.15000e+00	4.054174e+04	
24	-1.20000e+00	4.806493e+04	
25	-1.25000e+00	5.853102e+04	
26	-1.30000e+00	7.357702e+04	
27	-1.35000e+00	9.571383e+04	
28	-1.40000e+00	1.282641e+05	
29	-1.45000e+00	1.743123e+05	
30	-1.50000e+00	2.344853e+05	
31	-1.55000e+00	3.053739e+05	
32	-1.60000e+00	3.808525e+05	
33	-1.65000e+00	4.551675e+05	
34	-1.70000e+00	5.248112e+05	
35	-1.75000e+00	5.884623e+05	
36	-1.80000e+00	6.461286e+05	
37	-1.85000e+00	6.983953e+05	
38	-1.90000e+00	7.459973e+05	
39	-1.95000e+00	7.896303e+05	
40	-2.00000e+00	8.298901e+05	
41	-2.05000e+00	8.672655e+05	
42	-2.10000e+00	9.021514e+05	
43	-2.15000e+00	9.348669e+05	
44	-2.20000e+00	9.656704e+05	
45	-2.25000e+00	9.947739e+05	
46	-2.30000e+00	1.022353e+06	
47	-2.35000e+00	1.048553e+06	
48	-2.40000e+00	1.073500e+06	
49	-2.45000e+00	1.097300e+06	
50	-2.50000e+00	1.120045e+06	
51	-2.55000e+00	1.141814e+06	
52	-2.60000e+00	1.162680e+06	
53	-2.65000e+00	1.182703e+06	
54	-2.70000e+00	1.201941e+06	

Index   v-sweep         rds             
--------------------------------------------------------------------------------
55	-2.75000e+00	1.220443e+06	
56	-2.80000e+00	1.238255e+06	
57	-2.85000e+00	1.255418e+06	
58	-2.90000e+00	1.271970e+06	
59	-2.95000e+00	1.287944e+06	
60	-3.00000e+00	1.303373e+06	
61	-3.05000e+00	1.318284e+06	
62	-3.10000e+00	1.332706e+06	
63	-3.15000e+00	1.346663e+06	
64	-3.20000e+00	1.360177e+06	
65	-3.25000e+00	1.373270e+06	
66	-3.30000e+00	1.385963e+06	
67	-3.35000e+00	1.398274e+06	
68	-3.40000e+00	1.410219e+06	
69	-3.45000e+00	1.421817e+06	
70	-3.50000e+00	1.433081e+06	
71	-3.55000e+00	1.444027e+06	
72	-3.60000e+00	1.454667e+06	
73	-3.65000e+00	1.465015e+06	
74	-3.70000e+00	1.475083e+06	
75	-3.75000e+00	1.484882e+06	
76	-3.80000e+00	1.494422e+06	
77	-3.85000e+00	1.503714e+06	
78	-3.90000e+00	1.512768e+06	
79	-3.95000e+00	1.521593e+06	
80	-4.00000e+00	1.530196e+06	
81	-4.05000e+00	1.538588e+06	
82	-4.10000e+00	1.546774e+06	
83	-4.15000e+00	1.554763e+06	
84	-4.20000e+00	1.562562e+06	
85	-4.25000e+00	1.570177e+06	
86	-4.30000e+00	1.577615e+06	
87	-4.35000e+00	1.584882e+06	
88	-4.40000e+00	1.591984e+06	
89	-4.45000e+00	1.598926e+06	
90	-4.50000e+00	1.605713e+06	
91	-4.55000e+00	1.612350e+06	
92	-4.60000e+00	1.618844e+06	
93	-4.65000e+00	1.625196e+06	
94	-4.70000e+00	1.631414e+06	
95	-4.75000e+00	1.637499e+06	
96	-4.80000e+00	1.643458e+06	
97	-4.85000e+00	1.649292e+06	
98	-4.90000e+00	1.655007e+06	
99	-4.95000e+00	1.660605e+06	
100	-5.00000e+00	1.666090e+06	
101	-5.05000e+00	1.671465e+06	
102	-5.10000e+00	1.676734e+06	
103	-5.15000e+00	1.681899e+06	
104	-5.20000e+00	1.686962e+06	
105	-5.25000e+00	1.691928e+06	
106	-5.30000e+00	1.696798e+06	
107	-5.35000e+00	1.701574e+06	
108	-5.40000e+00	1.706260e+06	
109	-5.45000e+00	1.710858e+06	
110	-5.50000e+00	1.715369e+06	
111	-5.55000e+00	1.719797e+06	
112	-5.60000e+00	1.724142e+06	

Index   v-sweep         rds             
--------------------------------------------------------------------------------
113	-5.65000e+00	1.728407e+06	
114	-5.70000e+00	1.732594e+06	
115	-5.75000e+00	1.736704e+06	
116	-5.80000e+00	1.740740e+06	
117	-5.85000e+00	1.744703e+06	
118	-5.90000e+00	1.748594e+06	
119	-5.95000e+00	1.752415e+06	
120	-6.00000e+00	1.756168e+06	
121	-6.05000e+00	1.759854e+06	
122	-6.10000e+00	1.763474e+06	
123	-6.15000e+00	1.767030e+06	
124	-6.20000e+00	1.770523e+06	
125	-6.25000e+00	1.773954e+06	
126	-6.30000e+00	1.777324e+06	
127	-6.35000e+00	1.780635e+06	
128	-6.40000e+00	1.783887e+06	
129	-6.45000e+00	1.787082e+06	
130	-6.50000e+00	1.790220e+06	
131	-6.55000e+00	1.793303e+06	
132	-6.60000e+00	1.796332e+06	
Reset re-loads circuit ***************************

Circuit: ***************************

Doing analysis at TEMP = -40.000000 and TNOM = -40.000000


No. of Data Rows : 133
                          ***************************
                          DC transfer characteristic  Mon Jan  9 13:57:54  2023
--------------------------------------------------------------------------------
Index   v-sweep         rds             
--------------------------------------------------------------------------------
0	0.000000e+00	6.133523e+03	
1	-5.00000e-02	6.283135e+03	
2	-1.00000e-01	6.439954e+03	
3	-1.50000e-01	6.604512e+03	
4	-2.00000e-01	6.777397e+03	
5	-2.50000e-01	6.959258e+03	
6	-3.00000e-01	7.150810e+03	
7	-3.50000e-01	7.352849e+03	
8	-4.00000e-01	7.566261e+03	
9	-4.50000e-01	7.792032e+03	
10	-5.00000e-01	8.031268e+03	
11	-5.50000e-01	8.285208e+03	
12	-6.00000e-01	8.555250e+03	
13	-6.50000e-01	8.842974e+03	
14	-7.00000e-01	9.150173e+03	
15	-7.50000e-01	9.478891e+03	
16	-8.00000e-01	9.831468e+03	
17	-8.50000e-01	1.021059e+04	
18	-9.00000e-01	1.061938e+04	
19	-9.50000e-01	1.106144e+04	
20	-1.00000e+00	1.154099e+04	
21	-1.05000e+00	1.206301e+04	
22	-1.10000e+00	1.263337e+04	
23	-1.15000e+00	1.325909e+04	
24	-1.20000e+00	1.394859e+04	
25	-1.25000e+00	1.471210e+04	
26	-1.30000e+00	1.556210e+04	
27	-1.35000e+00	1.651406e+04	
28	-1.40000e+00	1.758728e+04	
29	-1.45000e+00	1.880618e+04	
30	-1.50000e+00	2.020206e+04	
31	-1.55000e+00	2.181560e+04	
32	-1.60000e+00	2.370057e+04	
33	-1.65000e+00	2.592911e+04	
34	-1.70000e+00	2.859981e+04	
35	-1.75000e+00	3.184977e+04	
36	-1.80000e+00	3.587269e+04	
37	-1.85000e+00	4.094565e+04	
38	-1.90000e+00	4.746640e+04	
39	-1.95000e+00	5.599799e+04	
40	-2.00000e+00	6.730147e+04	
41	-2.05000e+00	8.230093e+04	
42	-2.10000e+00	1.018845e+05	
43	-2.15000e+00	1.264851e+05	
44	-2.20000e+00	1.556179e+05	
45	-2.25000e+00	1.878033e+05	
46	-2.30000e+00	2.210782e+05	
47	-2.35000e+00	2.537097e+05	
48	-2.40000e+00	2.845951e+05	
49	-2.45000e+00	3.132515e+05	
50	-2.50000e+00	3.396128e+05	
51	-2.55000e+00	3.638267e+05	
52	-2.60000e+00	3.861205e+05	
53	-2.65000e+00	4.067311e+05	
54	-2.70000e+00	4.258747e+05	

Index   v-sweep         rds             
--------------------------------------------------------------------------------
55	-2.75000e+00	4.437377e+05	
56	-2.80000e+00	4.604768e+05	
57	-2.85000e+00	4.762225e+05	
58	-2.90000e+00	4.910834e+05	
59	-2.95000e+00	5.051504e+05	
60	-3.00000e+00	5.185002e+05	
61	-3.05000e+00	5.311979e+05	
62	-3.10000e+00	5.432994e+05	
63	-3.15000e+00	5.548531e+05	
64	-3.20000e+00	5.659013e+05	
65	-3.25000e+00	5.764811e+05	
66	-3.30000e+00	5.866255e+05	
67	-3.35000e+00	5.963637e+05	
68	-3.40000e+00	6.057222e+05	
69	-3.45000e+00	6.147248e+05	
70	-3.50000e+00	6.233929e+05	
71	-3.55000e+00	6.317462e+05	
72	-3.60000e+00	6.398027e+05	
73	-3.65000e+00	6.475787e+05	
74	-3.70000e+00	6.550894e+05	
75	-3.75000e+00	6.623487e+05	
76	-3.80000e+00	6.693697e+05	
77	-3.85000e+00	6.761642e+05	
78	-3.90000e+00	6.827433e+05	
79	-3.95000e+00	6.891175e+05	
80	-4.00000e+00	6.952965e+05	
81	-4.05000e+00	7.012892e+05	
82	-4.10000e+00	7.071041e+05	
83	-4.15000e+00	7.127491e+05	
84	-4.20000e+00	7.182318e+05	
85	-4.25000e+00	7.235591e+05	
86	-4.30000e+00	7.287376e+05	
87	-4.35000e+00	7.337736e+05	
88	-4.40000e+00	7.386728e+05	
89	-4.45000e+00	7.434408e+05	
90	-4.50000e+00	7.480829e+05	
91	-4.55000e+00	7.526040e+05	
92	-4.60000e+00	7.570088e+05	
93	-4.65000e+00	7.613017e+05	
94	-4.70000e+00	7.654869e+05	
95	-4.75000e+00	7.695686e+05	
96	-4.80000e+00	7.735503e+05	
97	-4.85000e+00	7.774359e+05	
98	-4.90000e+00	7.812286e+05	
99	-4.95000e+00	7.849318e+05	
100	-5.00000e+00	7.885486e+05	
101	-5.05000e+00	7.920820e+05	
102	-5.10000e+00	7.955348e+05	
103	-5.15000e+00	7.989096e+05	
104	-5.20000e+00	8.022091e+05	
105	-5.25000e+00	8.054357e+05	
106	-5.30000e+00	8.085918e+05	
107	-5.35000e+00	8.116796e+05	
108	-5.40000e+00	8.147013e+05	
109	-5.45000e+00	8.176589e+05	
110	-5.50000e+00	8.205543e+05	
111	-5.55000e+00	8.233895e+05	
112	-5.60000e+00	8.261662e+05	

Index   v-sweep         rds             
--------------------------------------------------------------------------------
113	-5.65000e+00	8.288861e+05	
114	-5.70000e+00	8.315510e+05	
115	-5.75000e+00	8.341623e+05	
116	-5.80000e+00	8.367216e+05	
117	-5.85000e+00	8.392304e+05	
118	-5.90000e+00	8.416899e+05	
119	-5.95000e+00	8.441016e+05	
120	-6.00000e+00	8.464667e+05	
121	-6.05000e+00	8.487864e+05	
122	-6.10000e+00	8.510619e+05	
123	-6.15000e+00	8.532943e+05	
124	-6.20000e+00	8.554847e+05	
125	-6.25000e+00	8.576342e+05	
126	-6.30000e+00	8.597437e+05	
127	-6.35000e+00	8.618141e+05	
128	-6.40000e+00	8.638464e+05	
129	-6.45000e+00	8.658415e+05	
130	-6.50000e+00	8.678002e+05	
131	-6.55000e+00	8.697233e+05	
132	-6.60000e+00	8.716116e+05	
Reset re-loads circuit ***************************

Circuit: ***************************

Doing analysis at TEMP = -40.000000 and TNOM = -40.000000


No. of Data Rows : 133
                          ***************************
                          DC transfer characteristic  Mon Jan  9 13:57:54  2023
--------------------------------------------------------------------------------
Index   v-sweep         rds             
--------------------------------------------------------------------------------
0	0.000000e+00	5.064863e+03	
1	-5.00000e-02	5.157211e+03	
2	-1.00000e-01	5.252836e+03	
3	-1.50000e-01	5.351914e+03	
4	-2.00000e-01	5.454636e+03	
5	-2.50000e-01	5.561207e+03	
6	-3.00000e-01	5.671846e+03	
7	-3.50000e-01	5.786793e+03	
8	-4.00000e-01	5.906302e+03	
9	-4.50000e-01	6.030651e+03	
10	-5.00000e-01	6.160140e+03	
11	-5.50000e-01	6.295094e+03	
12	-6.00000e-01	6.435865e+03	
13	-6.50000e-01	6.582840e+03	
14	-7.00000e-01	6.736435e+03	
15	-7.50000e-01	6.897110e+03	
16	-8.00000e-01	7.065363e+03	
17	-8.50000e-01	7.241744e+03	
18	-9.00000e-01	7.426857e+03	
19	-9.50000e-01	7.621364e+03	
20	-1.00000e+00	7.826000e+03	
21	-1.05000e+00	8.041575e+03	
22	-1.10000e+00	8.268991e+03	
23	-1.15000e+00	8.509247e+03	
24	-1.20000e+00	8.763463e+03	
25	-1.25000e+00	9.032889e+03	
26	-1.30000e+00	9.318930e+03	
27	-1.35000e+00	9.623168e+03	
28	-1.40000e+00	9.947394e+03	
29	-1.45000e+00	1.029364e+04	
30	-1.50000e+00	1.066422e+04	
31	-1.55000e+00	1.106179e+04	
32	-1.60000e+00	1.148939e+04	
33	-1.65000e+00	1.195054e+04	
34	-1.70000e+00	1.244935e+04	
35	-1.75000e+00	1.299059e+04	
36	-1.80000e+00	1.357989e+04	
37	-1.85000e+00	1.422389e+04	
38	-1.90000e+00	1.493052e+04	
39	-1.95000e+00	1.570928e+04	
40	-2.00000e+00	1.657168e+04	
41	-2.05000e+00	1.753176e+04	
42	-2.10000e+00	1.860682e+04	
43	-2.15000e+00	1.981836e+04	
44	-2.20000e+00	2.119343e+04	
45	-2.25000e+00	2.276639e+04	
46	-2.30000e+00	2.458144e+04	
47	-2.35000e+00	2.669600e+04	
48	-2.40000e+00	2.918557e+04	
49	-2.45000e+00	3.215021e+04	
50	-2.50000e+00	3.572330e+04	
51	-2.55000e+00	4.008234e+04	
52	-2.60000e+00	4.546038e+04	
53	-2.65000e+00	5.215294e+04	
54	-2.70000e+00	6.050877e+04	

Index   v-sweep         rds             
--------------------------------------------------------------------------------
55	-2.75000e+00	7.088407e+04	
56	-2.80000e+00	8.354078e+04	
57	-2.85000e+00	9.849951e+04	
58	-2.90000e+00	1.154220e+05	
59	-2.95000e+00	1.336315e+05	
60	-3.00000e+00	1.522983e+05	
61	-3.05000e+00	1.706764e+05	
62	-3.10000e+00	1.882516e+05	
63	-3.15000e+00	2.047580e+05	
64	-3.20000e+00	2.201179e+05	
65	-3.25000e+00	2.343649e+05	
66	-3.30000e+00	2.475858e+05	
67	-3.35000e+00	2.598842e+05	
68	-3.40000e+00	2.713621e+05	
69	-3.45000e+00	2.821122e+05	
70	-3.50000e+00	2.922150e+05	
71	-3.55000e+00	3.017400e+05	
72	-3.60000e+00	3.107459e+05	
73	-3.65000e+00	3.192831e+05	
74	-3.70000e+00	3.273944e+05	
75	-3.75000e+00	3.351169e+05	
76	-3.80000e+00	3.424825e+05	
77	-3.85000e+00	3.495192e+05	
78	-3.90000e+00	3.562517e+05	
79	-3.95000e+00	3.627016e+05	
80	-4.00000e+00	3.688883e+05	
81	-4.05000e+00	3.748292e+05	
82	-4.10000e+00	3.805399e+05	
83	-4.15000e+00	3.860346e+05	
84	-4.20000e+00	3.913262e+05	
85	-4.25000e+00	3.964264e+05	
86	-4.30000e+00	4.013459e+05	
87	-4.35000e+00	4.060947e+05	
88	-4.40000e+00	4.106818e+05	
89	-4.45000e+00	4.151158e+05	
90	-4.50000e+00	4.194043e+05	
91	-4.55000e+00	4.235547e+05	
92	-4.60000e+00	4.275737e+05	
93	-4.65000e+00	4.314676e+05	
94	-4.70000e+00	4.352422e+05	
95	-4.75000e+00	4.389031e+05	
96	-4.80000e+00	4.424554e+05	
97	-4.85000e+00	4.459039e+05	
98	-4.90000e+00	4.492532e+05	
99	-4.95000e+00	4.525074e+05	
100	-5.00000e+00	4.556708e+05	
101	-5.05000e+00	4.587470e+05	
102	-5.10000e+00	4.617396e+05	
103	-5.15000e+00	4.646520e+05	
104	-5.20000e+00	4.674873e+05	
105	-5.25000e+00	4.702487e+05	
106	-5.30000e+00	4.729389e+05	
107	-5.35000e+00	4.755608e+05	
108	-5.40000e+00	4.781168e+05	
109	-5.45000e+00	4.806094e+05	
110	-5.50000e+00	4.830409e+05	
111	-5.55000e+00	4.854136e+05	
112	-5.60000e+00	4.877296e+05	

Index   v-sweep         rds             
--------------------------------------------------------------------------------
113	-5.65000e+00	4.899907e+05	
114	-5.70000e+00	4.921991e+05	
115	-5.75000e+00	4.943564e+05	
116	-5.80000e+00	4.964644e+05	
117	-5.85000e+00	4.985247e+05	
118	-5.90000e+00	5.005390e+05	
119	-5.95000e+00	5.025087e+05	
120	-6.00000e+00	5.044352e+05	
121	-6.05000e+00	5.063200e+05	
122	-6.10000e+00	5.081644e+05	
123	-6.15000e+00	5.099696e+05	
124	-6.20000e+00	5.117367e+05	
125	-6.25000e+00	5.134670e+05	
126	-6.30000e+00	5.151616e+05	
127	-6.35000e+00	5.168215e+05	
128	-6.40000e+00	5.184477e+05	
129	-6.45000e+00	5.200411e+05	
130	-6.50000e+00	5.216028e+05	
131	-6.55000e+00	5.231335e+05	
132	-6.60000e+00	5.246341e+05	
Reset re-loads circuit ***************************

Circuit: ***************************

Doing analysis at TEMP = -40.000000 and TNOM = -40.000000


No. of Data Rows : 133
                          ***************************
                          DC transfer characteristic  Mon Jan  9 13:57:54  2023
--------------------------------------------------------------------------------
Index   v-sweep         rds             
--------------------------------------------------------------------------------
0	0.000000e+00	4.444943e+03	
1	-5.00000e-02	4.509508e+03	
2	-1.00000e-01	4.575877e+03	
3	-1.50000e-01	4.644127e+03	
4	-2.00000e-01	4.714340e+03	
5	-2.50000e-01	4.786601e+03	
6	-3.00000e-01	4.861001e+03	
7	-3.50000e-01	4.937636e+03	
8	-4.00000e-01	5.016609e+03	
9	-4.50000e-01	5.098028e+03	
10	-5.00000e-01	5.182008e+03	
11	-5.50000e-01	5.268673e+03	
12	-6.00000e-01	5.358153e+03	
13	-6.50000e-01	5.450587e+03	
14	-7.00000e-01	5.546125e+03	
15	-7.50000e-01	5.644924e+03	
16	-8.00000e-01	5.747155e+03	
17	-8.50000e-01	5.852999e+03	
18	-9.00000e-01	5.962652e+03	
19	-9.50000e-01	6.076323e+03	
20	-1.00000e+00	6.194236e+03	
21	-1.05000e+00	6.316633e+03	
22	-1.10000e+00	6.443775e+03	
23	-1.15000e+00	6.575943e+03	
24	-1.20000e+00	6.713441e+03	
25	-1.25000e+00	6.856597e+03	
26	-1.30000e+00	7.005768e+03	
27	-1.35000e+00	7.161341e+03	
28	-1.40000e+00	7.323736e+03	
29	-1.45000e+00	7.493412e+03	
30	-1.50000e+00	7.670868e+03	
31	-1.55000e+00	7.856653e+03	
32	-1.60000e+00	8.051365e+03	
33	-1.65000e+00	8.255663e+03	
34	-1.70000e+00	8.470272e+03	
35	-1.75000e+00	8.695990e+03	
36	-1.80000e+00	8.933703e+03	
37	-1.85000e+00	9.184389e+03	
38	-1.90000e+00	9.449139e+03	
39	-1.95000e+00	9.729167e+03	
40	-2.00000e+00	1.002583e+04	
41	-2.05000e+00	1.034066e+04	
42	-2.10000e+00	1.067535e+04	
43	-2.15000e+00	1.103186e+04	
44	-2.20000e+00	1.141238e+04	
45	-2.25000e+00	1.181939e+04	
46	-2.30000e+00	1.225577e+04	
47	-2.35000e+00	1.272477e+04	
48	-2.40000e+00	1.323018e+04	
49	-2.45000e+00	1.377638e+04	
50	-2.50000e+00	1.436846e+04	
51	-2.55000e+00	1.501239e+04	
52	-2.60000e+00	1.571522e+04	
53	-2.65000e+00	1.648530e+04	
54	-2.70000e+00	1.733258e+04	

Index   v-sweep         rds             
--------------------------------------------------------------------------------
55	-2.75000e+00	1.826906e+04	
56	-2.80000e+00	1.930925e+04	
57	-2.85000e+00	2.047086e+04	
58	-2.90000e+00	2.177570e+04	
59	-2.95000e+00	2.325079e+04	
60	-3.00000e+00	2.492992e+04	
61	-3.05000e+00	2.685557e+04	
62	-3.10000e+00	2.908149e+04	
63	-3.15000e+00	3.167583e+04	
64	-3.20000e+00	3.472485e+04	
65	-3.25000e+00	3.833663e+04	
66	-3.30000e+00	4.264351e+04	
67	-3.35000e+00	4.780053e+04	
68	-3.40000e+00	5.397479e+04	
69	-3.45000e+00	6.131938e+04	
70	-3.50000e+00	6.992815e+04	
71	-3.55000e+00	7.977870e+04	
72	-3.60000e+00	9.069029e+04	
73	-3.65000e+00	1.023313e+05	
74	-3.70000e+00	1.142882e+05	
75	-3.75000e+00	1.261636e+05	
76	-3.80000e+00	1.376529e+05	
77	-3.85000e+00	1.485698e+05	
78	-3.90000e+00	1.588322e+05	
79	-3.95000e+00	1.684294e+05	
80	-4.00000e+00	1.773922e+05	
81	-4.05000e+00	1.857699e+05	
82	-4.10000e+00	1.936172e+05	
83	-4.15000e+00	2.009871e+05	
84	-4.20000e+00	2.079281e+05	
85	-4.25000e+00	2.144828e+05	
86	-4.30000e+00	2.206884e+05	
87	-4.35000e+00	2.265773e+05	
88	-4.40000e+00	2.321772e+05	
89	-4.45000e+00	2.375123e+05	
90	-4.50000e+00	2.426040e+05	
91	-4.55000e+00	2.474707e+05	
92	-4.60000e+00	2.521288e+05	
93	-4.65000e+00	2.565931e+05	
94	-4.70000e+00	2.608764e+05	
95	-4.75000e+00	2.649907e+05	
96	-4.80000e+00	2.689463e+05	
97	-4.85000e+00	2.727531e+05	
98	-4.90000e+00	2.764196e+05	
99	-4.95000e+00	2.799541e+05	
100	-5.00000e+00	2.833637e+05	
101	-5.05000e+00	2.866552e+05	
102	-5.10000e+00	2.898350e+05	
103	-5.15000e+00	2.929088e+05	
104	-5.20000e+00	2.958819e+05	
105	-5.25000e+00	2.987593e+05	
106	-5.30000e+00	3.015457e+05	
107	-5.35000e+00	3.042454e+05	
108	-5.40000e+00	3.068625e+05	
109	-5.45000e+00	3.094007e+05	
110	-5.50000e+00	3.118636e+05	
111	-5.55000e+00	3.142546e+05	
112	-5.60000e+00	3.165767e+05	

Index   v-sweep         rds             
--------------------------------------------------------------------------------
113	-5.65000e+00	3.188330e+05	
114	-5.70000e+00	3.210261e+05	
115	-5.75000e+00	3.231588e+05	
116	-5.80000e+00	3.252334e+05	
117	-5.85000e+00	3.272524e+05	
118	-5.90000e+00	3.292180e+05	
119	-5.95000e+00	3.311322e+05	
120	-6.00000e+00	3.329970e+05	
121	-6.05000e+00	3.348144e+05	
122	-6.10000e+00	3.365860e+05	
123	-6.15000e+00	3.383136e+05	
124	-6.20000e+00	3.399989e+05	
125	-6.25000e+00	3.416433e+05	
126	-6.30000e+00	3.432483e+05	
127	-6.35000e+00	3.448153e+05	
128	-6.40000e+00	3.463456e+05	
129	-6.45000e+00	3.478405e+05	
130	-6.50000e+00	3.493012e+05	
131	-6.55000e+00	3.507288e+05	
132	-6.60000e+00	3.521244e+05	
Reset re-loads circuit ***************************

Circuit: ***************************

Note: No ".plot", ".print", or ".fourier" lines; no simulations run
