
Note: Compatibility modes selected: hs

Warning: m=xx on .subckt line will override multiplier m hierarchy!


Circuit: ***************************

Doing analysis at TEMP = 25.000000 and TNOM = 25.000000


No. of Data Rows : 133
                          ***************************
                          DC transfer characteristic  Mon Jan  9 13:57:54  2023
--------------------------------------------------------------------------------
Index   v-sweep         rds             
--------------------------------------------------------------------------------
0	0.000000e+00	2.687044e+05	
1	-5.00000e-02	3.542470e+05	
2	-1.00000e-01	5.117009e+05	
3	-1.50000e-01	8.673866e+05	
4	-2.00000e-01	1.856653e+06	
5	-2.50000e-01	4.177224e+06	
6	-3.00000e-01	6.917771e+06	
7	-3.50000e-01	8.744323e+06	
8	-4.00000e-01	9.816202e+06	
9	-4.50000e-01	1.051743e+07	
10	-5.00000e-01	1.104354e+07	
11	-5.50000e-01	1.147941e+07	
12	-6.00000e-01	1.186312e+07	
13	-6.50000e-01	1.221305e+07	
14	-7.00000e-01	1.253883e+07	
15	-7.50000e-01	1.284590e+07	
16	-8.00000e-01	1.313754e+07	
17	-8.50000e-01	1.341588e+07	
18	-9.00000e-01	1.368240e+07	
19	-9.50000e-01	1.393818e+07	
20	-1.00000e+00	1.418403e+07	
21	-1.05000e+00	1.442063e+07	
22	-1.10000e+00	1.464851e+07	
23	-1.15000e+00	1.486817e+07	
24	-1.20000e+00	1.508000e+07	
25	-1.25000e+00	1.528439e+07	
26	-1.30000e+00	1.548166e+07	
27	-1.35000e+00	1.567213e+07	
28	-1.40000e+00	1.585608e+07	
29	-1.45000e+00	1.603379e+07	
30	-1.50000e+00	1.620549e+07	
31	-1.55000e+00	1.637142e+07	
32	-1.60000e+00	1.653181e+07	
33	-1.65000e+00	1.668687e+07	
34	-1.70000e+00	1.683679e+07	
35	-1.75000e+00	1.698176e+07	
36	-1.80000e+00	1.712196e+07	
37	-1.85000e+00	1.725757e+07	
38	-1.90000e+00	1.738875e+07	
39	-1.95000e+00	1.751564e+07	
40	-2.00000e+00	1.763841e+07	
41	-2.05000e+00	1.775720e+07	
42	-2.10000e+00	1.787213e+07	
43	-2.15000e+00	1.798335e+07	
44	-2.20000e+00	1.809097e+07	
45	-2.25000e+00	1.819513e+07	
46	-2.30000e+00	1.829592e+07	
47	-2.35000e+00	1.839346e+07	
48	-2.40000e+00	1.848787e+07	
49	-2.45000e+00	1.857923e+07	
50	-2.50000e+00	1.866765e+07	
51	-2.55000e+00	1.875322e+07	
52	-2.60000e+00	1.883604e+07	
53	-2.65000e+00	1.891618e+07	
54	-2.70000e+00	1.899373e+07	

Index   v-sweep         rds             
--------------------------------------------------------------------------------
55	-2.75000e+00	1.906878e+07	
56	-2.80000e+00	1.914139e+07	
57	-2.85000e+00	1.921165e+07	
58	-2.90000e+00	1.927962e+07	
59	-2.95000e+00	1.934537e+07	
60	-3.00000e+00	1.940898e+07	
61	-3.05000e+00	1.947050e+07	
62	-3.10000e+00	1.952999e+07	
63	-3.15000e+00	1.958752e+07	
64	-3.20000e+00	1.964314e+07	
65	-3.25000e+00	1.969691e+07	
66	-3.30000e+00	1.974888e+07	
67	-3.35000e+00	1.979909e+07	
68	-3.40000e+00	1.984761e+07	
69	-3.45000e+00	1.989448e+07	
70	-3.50000e+00	1.993974e+07	
71	-3.55000e+00	1.998344e+07	
72	-3.60000e+00	2.002562e+07	
73	-3.65000e+00	2.006633e+07	
74	-3.70000e+00	2.010559e+07	
75	-3.75000e+00	2.014346e+07	
76	-3.80000e+00	2.017996e+07	
77	-3.85000e+00	2.021514e+07	
78	-3.90000e+00	2.024903e+07	
79	-3.95000e+00	2.028165e+07	
80	-4.00000e+00	2.031305e+07	
81	-4.05000e+00	2.034326e+07	
82	-4.10000e+00	2.037229e+07	
83	-4.15000e+00	2.040019e+07	
84	-4.20000e+00	2.042698e+07	
85	-4.25000e+00	2.045269e+07	
86	-4.30000e+00	2.047734e+07	
87	-4.35000e+00	2.050096e+07	
88	-4.40000e+00	2.052357e+07	
89	-4.45000e+00	2.054520e+07	
90	-4.50000e+00	2.056587e+07	
91	-4.55000e+00	2.058559e+07	
92	-4.60000e+00	2.060440e+07	
93	-4.65000e+00	2.062231e+07	
94	-4.70000e+00	2.063934e+07	
95	-4.75000e+00	2.065550e+07	
96	-4.80000e+00	2.067083e+07	
97	-4.85000e+00	2.068533e+07	
98	-4.90000e+00	2.069902e+07	
99	-4.95000e+00	2.071193e+07	
100	-5.00000e+00	2.072405e+07	
101	-5.05000e+00	2.073542e+07	
102	-5.10000e+00	2.074604e+07	
103	-5.15000e+00	2.075593e+07	
104	-5.20000e+00	2.076511e+07	
105	-5.25000e+00	2.077358e+07	
106	-5.30000e+00	2.078136e+07	
107	-5.35000e+00	2.078846e+07	
108	-5.40000e+00	2.079490e+07	
109	-5.45000e+00	2.080068e+07	
110	-5.50000e+00	2.080582e+07	
111	-5.55000e+00	2.081033e+07	
112	-5.60000e+00	2.081422e+07	

Index   v-sweep         rds             
--------------------------------------------------------------------------------
113	-5.65000e+00	2.081750e+07	
114	-5.70000e+00	2.082018e+07	
115	-5.75000e+00	2.082226e+07	
116	-5.80000e+00	2.082377e+07	
117	-5.85000e+00	2.082471e+07	
118	-5.90000e+00	2.082508e+07	
119	-5.95000e+00	2.082491e+07	
120	-6.00000e+00	2.082418e+07	
121	-6.05000e+00	2.082292e+07	
122	-6.10000e+00	2.082113e+07	
123	-6.15000e+00	2.081882e+07	
124	-6.20000e+00	2.081600e+07	
125	-6.25000e+00	2.081267e+07	
126	-6.30000e+00	2.080885e+07	
127	-6.35000e+00	2.080453e+07	
128	-6.40000e+00	2.079973e+07	
129	-6.45000e+00	2.079445e+07	
130	-6.50000e+00	2.078870e+07	
131	-6.55000e+00	2.078249e+07	
132	-6.60000e+00	2.077582e+07	
Reset re-loads circuit ***************************

Circuit: ***************************

Doing analysis at TEMP = 25.000000 and TNOM = 25.000000


No. of Data Rows : 133
                          ***************************
                          DC transfer characteristic  Mon Jan  9 13:57:54  2023
--------------------------------------------------------------------------------
Index   v-sweep         rds             
--------------------------------------------------------------------------------
0	0.000000e+00	5.409145e+04	
1	-5.00000e-02	5.742801e+04	
2	-1.00000e-01	6.114682e+04	
3	-1.50000e-01	6.531727e+04	
4	-2.00000e-01	7.002653e+04	
5	-2.50000e-01	7.538560e+04	
6	-3.00000e-01	8.153797e+04	
7	-3.50000e-01	8.867229e+04	
8	-4.00000e-01	9.704124e+04	
9	-4.50000e-01	1.069904e+05	
10	-5.00000e-01	1.190037e+05	
11	-5.50000e-01	1.337751e+05	
12	-6.00000e-01	1.523261e+05	
13	-6.50000e-01	1.761906e+05	
14	-7.00000e-01	2.076851e+05	
15	-7.50000e-01	2.501769e+05	
16	-8.00000e-01	3.078247e+05	
17	-8.50000e-01	3.832785e+05	
18	-9.00000e-01	4.724369e+05	
19	-9.50000e-01	5.627009e+05	
20	-1.00000e+00	6.423183e+05	
21	-1.05000e+00	7.083983e+05	
22	-1.10000e+00	7.638237e+05	
23	-1.15000e+00	8.122175e+05	
24	-1.20000e+00	8.561717e+05	
25	-1.25000e+00	8.972654e+05	
26	-1.30000e+00	9.364209e+05	
27	-1.35000e+00	9.741794e+05	
28	-1.40000e+00	1.010866e+06	
29	-1.45000e+00	1.046682e+06	
30	-1.50000e+00	1.081758e+06	
31	-1.55000e+00	1.116181e+06	
32	-1.60000e+00	1.150009e+06	
33	-1.65000e+00	1.183287e+06	
34	-1.70000e+00	1.216046e+06	
35	-1.75000e+00	1.248311e+06	
36	-1.80000e+00	1.280101e+06	
37	-1.85000e+00	1.311434e+06	
38	-1.90000e+00	1.342322e+06	
39	-1.95000e+00	1.372778e+06	
40	-2.00000e+00	1.402811e+06	
41	-2.05000e+00	1.432433e+06	
42	-2.10000e+00	1.461650e+06	
43	-2.15000e+00	1.490473e+06	
44	-2.20000e+00	1.518907e+06	
45	-2.25000e+00	1.546961e+06	
46	-2.30000e+00	1.574642e+06	
47	-2.35000e+00	1.601955e+06	
48	-2.40000e+00	1.628907e+06	
49	-2.45000e+00	1.655506e+06	
50	-2.50000e+00	1.681755e+06	
51	-2.55000e+00	1.707662e+06	
52	-2.60000e+00	1.733232e+06	
53	-2.65000e+00	1.758470e+06	
54	-2.70000e+00	1.783382e+06	

Index   v-sweep         rds             
--------------------------------------------------------------------------------
55	-2.75000e+00	1.807973e+06	
56	-2.80000e+00	1.832249e+06	
57	-2.85000e+00	1.856213e+06	
58	-2.90000e+00	1.879872e+06	
59	-2.95000e+00	1.903229e+06	
60	-3.00000e+00	1.926290e+06	
61	-3.05000e+00	1.949059e+06	
62	-3.10000e+00	1.971542e+06	
63	-3.15000e+00	1.993741e+06	
64	-3.20000e+00	2.015662e+06	
65	-3.25000e+00	2.037308e+06	
66	-3.30000e+00	2.058685e+06	
67	-3.35000e+00	2.079796e+06	
68	-3.40000e+00	2.100644e+06	
69	-3.45000e+00	2.121235e+06	
70	-3.50000e+00	2.141572e+06	
71	-3.55000e+00	2.161659e+06	
72	-3.60000e+00	2.181498e+06	
73	-3.65000e+00	2.201095e+06	
74	-3.70000e+00	2.220453e+06	
75	-3.75000e+00	2.239575e+06	
76	-3.80000e+00	2.258464e+06	
77	-3.85000e+00	2.277124e+06	
78	-3.90000e+00	2.295558e+06	
79	-3.95000e+00	2.313769e+06	
80	-4.00000e+00	2.331761e+06	
81	-4.05000e+00	2.349537e+06	
82	-4.10000e+00	2.367099e+06	
83	-4.15000e+00	2.384450e+06	
84	-4.20000e+00	2.401593e+06	
85	-4.25000e+00	2.418532e+06	
86	-4.30000e+00	2.435268e+06	
87	-4.35000e+00	2.451804e+06	
88	-4.40000e+00	2.468144e+06	
89	-4.45000e+00	2.484288e+06	
90	-4.50000e+00	2.500241e+06	
91	-4.55000e+00	2.516003e+06	
92	-4.60000e+00	2.531577e+06	
93	-4.65000e+00	2.546966e+06	
94	-4.70000e+00	2.562172e+06	
95	-4.75000e+00	2.577196e+06	
96	-4.80000e+00	2.592041e+06	
97	-4.85000e+00	2.606708e+06	
98	-4.90000e+00	2.621200e+06	
99	-4.95000e+00	2.635518e+06	
100	-5.00000e+00	2.649663e+06	
101	-5.05000e+00	2.663638e+06	
102	-5.10000e+00	2.677444e+06	
103	-5.15000e+00	2.691083e+06	
104	-5.20000e+00	2.704556e+06	
105	-5.25000e+00	2.717864e+06	
106	-5.30000e+00	2.731008e+06	
107	-5.35000e+00	2.743991e+06	
108	-5.40000e+00	2.756813e+06	
109	-5.45000e+00	2.769476e+06	
110	-5.50000e+00	2.781979e+06	
111	-5.55000e+00	2.794326e+06	
112	-5.60000e+00	2.806516e+06	

Index   v-sweep         rds             
--------------------------------------------------------------------------------
113	-5.65000e+00	2.818551e+06	
114	-5.70000e+00	2.830431e+06	
115	-5.75000e+00	2.842157e+06	
116	-5.80000e+00	2.853731e+06	
117	-5.85000e+00	2.865152e+06	
118	-5.90000e+00	2.876422e+06	
119	-5.95000e+00	2.887542e+06	
120	-6.00000e+00	2.898512e+06	
121	-6.05000e+00	2.909332e+06	
122	-6.10000e+00	2.920004e+06	
123	-6.15000e+00	2.930528e+06	
124	-6.20000e+00	2.940904e+06	
125	-6.25000e+00	2.951134e+06	
126	-6.30000e+00	2.961216e+06	
127	-6.35000e+00	2.971153e+06	
128	-6.40000e+00	2.980945e+06	
129	-6.45000e+00	2.990591e+06	
130	-6.50000e+00	3.000093e+06	
131	-6.55000e+00	3.009450e+06	
132	-6.60000e+00	3.018664e+06	
Reset re-loads circuit ***************************

Circuit: ***************************

Doing analysis at TEMP = 25.000000 and TNOM = 25.000000


No. of Data Rows : 133
                          ***************************
                          DC transfer characteristic  Mon Jan  9 13:57:54  2023
--------------------------------------------------------------------------------
Index   v-sweep         rds             
--------------------------------------------------------------------------------
0	0.000000e+00	3.298104e+04	
1	-5.00000e-02	3.418944e+04	
2	-1.00000e-01	3.547354e+04	
3	-1.50000e-01	3.684066e+04	
4	-2.00000e-01	3.829906e+04	
5	-2.50000e-01	3.985816e+04	
6	-3.00000e-01	4.152871e+04	
7	-3.50000e-01	4.332304e+04	
8	-4.00000e-01	4.525535e+04	
9	-4.50000e-01	4.734212e+04	
10	-5.00000e-01	4.960253e+04	
11	-5.50000e-01	5.205908e+04	
12	-6.00000e-01	5.473826e+04	
13	-6.50000e-01	5.767159e+04	
14	-7.00000e-01	6.089670e+04	
15	-7.50000e-01	6.445899e+04	
16	-8.00000e-01	6.841364e+04	
17	-8.50000e-01	7.282829e+04	
18	-9.00000e-01	7.778667e+04	
19	-9.50000e-01	8.339337e+04	
20	-1.00000e+00	8.978027e+04	
21	-1.05000e+00	9.711502e+04	
22	-1.10000e+00	1.056119e+05	
23	-1.15000e+00	1.155447e+05	
24	-1.20000e+00	1.272592e+05	
25	-1.25000e+00	1.411752e+05	
26	-1.30000e+00	1.577564e+05	
27	-1.35000e+00	1.773976e+05	
28	-1.40000e+00	2.001726e+05	
29	-1.45000e+00	2.254848e+05	
30	-1.50000e+00	2.519531e+05	
31	-1.55000e+00	2.779287e+05	
32	-1.60000e+00	3.023128e+05	
33	-1.65000e+00	3.248431e+05	
34	-1.70000e+00	3.457751e+05	
35	-1.75000e+00	3.654961e+05	
36	-1.80000e+00	3.843372e+05	
37	-1.85000e+00	4.025340e+05	
38	-1.90000e+00	4.202423e+05	
39	-1.95000e+00	4.375634e+05	
40	-2.00000e+00	4.545630e+05	
41	-2.05000e+00	4.712844e+05	
42	-2.10000e+00	4.877569e+05	
43	-2.15000e+00	5.040011e+05	
44	-2.20000e+00	5.200315e+05	
45	-2.25000e+00	5.358590e+05	
46	-2.30000e+00	5.514919e+05	
47	-2.35000e+00	5.669370e+05	
48	-2.40000e+00	5.821995e+05	
49	-2.45000e+00	5.972841e+05	
50	-2.50000e+00	6.121947e+05	
51	-2.55000e+00	6.269350e+05	
52	-2.60000e+00	6.415079e+05	
53	-2.65000e+00	6.559166e+05	
54	-2.70000e+00	6.701638e+05	

Index   v-sweep         rds             
--------------------------------------------------------------------------------
55	-2.75000e+00	6.842519e+05	
56	-2.80000e+00	6.981836e+05	
57	-2.85000e+00	7.119612e+05	
58	-2.90000e+00	7.255869e+05	
59	-2.95000e+00	7.390629e+05	
60	-3.00000e+00	7.523915e+05	
61	-3.05000e+00	7.655747e+05	
62	-3.10000e+00	7.786144e+05	
63	-3.15000e+00	7.915128e+05	
64	-3.20000e+00	8.042718e+05	
65	-3.25000e+00	8.168933e+05	
66	-3.30000e+00	8.293791e+05	
67	-3.35000e+00	8.417311e+05	
68	-3.40000e+00	8.539511e+05	
69	-3.45000e+00	8.660409e+05	
70	-3.50000e+00	8.780022e+05	
71	-3.55000e+00	8.898368e+05	
72	-3.60000e+00	9.015463e+05	
73	-3.65000e+00	9.131323e+05	
74	-3.70000e+00	9.245967e+05	
75	-3.75000e+00	9.359408e+05	
76	-3.80000e+00	9.471664e+05	
77	-3.85000e+00	9.582749e+05	
78	-3.90000e+00	9.692679e+05	
79	-3.95000e+00	9.801469e+05	
80	-4.00000e+00	9.909134e+05	
81	-4.05000e+00	1.001569e+06	
82	-4.10000e+00	1.012115e+06	
83	-4.15000e+00	1.022552e+06	
84	-4.20000e+00	1.032883e+06	
85	-4.25000e+00	1.043108e+06	
86	-4.30000e+00	1.053229e+06	
87	-4.35000e+00	1.063247e+06	
88	-4.40000e+00	1.073163e+06	
89	-4.45000e+00	1.082979e+06	
90	-4.50000e+00	1.092695e+06	
91	-4.55000e+00	1.102314e+06	
92	-4.60000e+00	1.111836e+06	
93	-4.65000e+00	1.121262e+06	
94	-4.70000e+00	1.130594e+06	
95	-4.75000e+00	1.139832e+06	
96	-4.80000e+00	1.148977e+06	
97	-4.85000e+00	1.158031e+06	
98	-4.90000e+00	1.166995e+06	
99	-4.95000e+00	1.175869e+06	
100	-5.00000e+00	1.184654e+06	
101	-5.05000e+00	1.193352e+06	
102	-5.10000e+00	1.201962e+06	
103	-5.15000e+00	1.210487e+06	
104	-5.20000e+00	1.218926e+06	
105	-5.25000e+00	1.227281e+06	
106	-5.30000e+00	1.235552e+06	
107	-5.35000e+00	1.243741e+06	
108	-5.40000e+00	1.251846e+06	
109	-5.45000e+00	1.259870e+06	
110	-5.50000e+00	1.267813e+06	
111	-5.55000e+00	1.275675e+06	
112	-5.60000e+00	1.283457e+06	

Index   v-sweep         rds             
--------------------------------------------------------------------------------
113	-5.65000e+00	1.291160e+06	
114	-5.70000e+00	1.298783e+06	
115	-5.75000e+00	1.306328e+06	
116	-5.80000e+00	1.313794e+06	
117	-5.85000e+00	1.321183e+06	
118	-5.90000e+00	1.328494e+06	
119	-5.95000e+00	1.335729e+06	
120	-6.00000e+00	1.342886e+06	
121	-6.05000e+00	1.349967e+06	
122	-6.10000e+00	1.356971e+06	
123	-6.15000e+00	1.363899e+06	
124	-6.20000e+00	1.370752e+06	
125	-6.25000e+00	1.377529e+06	
126	-6.30000e+00	1.384230e+06	
127	-6.35000e+00	1.390856e+06	
128	-6.40000e+00	1.397406e+06	
129	-6.45000e+00	1.403882e+06	
130	-6.50000e+00	1.410282e+06	
131	-6.55000e+00	1.416607e+06	
132	-6.60000e+00	1.422857e+06	
Reset re-loads circuit ***************************

Circuit: ***************************

Doing analysis at TEMP = 25.000000 and TNOM = 25.000000


No. of Data Rows : 133
                          ***************************
                          DC transfer characteristic  Mon Jan  9 13:57:54  2023
--------------------------------------------------------------------------------
Index   v-sweep         rds             
--------------------------------------------------------------------------------
0	0.000000e+00	2.487592e+04	
1	-5.00000e-02	2.554041e+04	
2	-1.00000e-01	2.623378e+04	
3	-1.50000e-01	2.695795e+04	
4	-2.00000e-01	2.771500e+04	
5	-2.50000e-01	2.850721e+04	
6	-3.00000e-01	2.933705e+04	
7	-3.50000e-01	3.020727e+04	
8	-4.00000e-01	3.112085e+04	
9	-4.50000e-01	3.208112e+04	
10	-5.00000e-01	3.309172e+04	
11	-5.50000e-01	3.415667e+04	
12	-6.00000e-01	3.528048e+04	
13	-6.50000e-01	3.646812e+04	
14	-7.00000e-01	3.772516e+04	
15	-7.50000e-01	3.905784e+04	
16	-8.00000e-01	4.047313e+04	
17	-8.50000e-01	4.197894e+04	
18	-9.00000e-01	4.358415e+04	
19	-9.50000e-01	4.529890e+04	
20	-1.00000e+00	4.713470e+04	
21	-1.05000e+00	4.910472e+04	
22	-1.10000e+00	5.122411e+04	
23	-1.15000e+00	5.351033e+04	
24	-1.20000e+00	5.598367e+04	
25	-1.25000e+00	5.866771e+04	
26	-1.30000e+00	6.159011e+04	
27	-1.35000e+00	6.478340e+04	
28	-1.40000e+00	6.828603e+04	
29	-1.45000e+00	7.214365e+04	
30	-1.50000e+00	7.641062e+04	
31	-1.55000e+00	8.115172e+04	
32	-1.60000e+00	8.644394e+04	
33	-1.65000e+00	9.237797e+04	
34	-1.70000e+00	9.905836e+04	
35	-1.75000e+00	1.066005e+05	
36	-1.80000e+00	1.151203e+05	
37	-1.85000e+00	1.247117e+05	
38	-1.90000e+00	1.354051e+05	
39	-1.95000e+00	1.471130e+05	
40	-2.00000e+00	1.595928e+05	
41	-2.05000e+00	1.724792e+05	
42	-2.10000e+00	1.853988e+05	
43	-2.15000e+00	1.980921e+05	
44	-2.20000e+00	2.104496e+05	
45	-2.25000e+00	2.224680e+05	
46	-2.30000e+00	2.341892e+05	
47	-2.35000e+00	2.456625e+05	
48	-2.40000e+00	2.569288e+05	
49	-2.45000e+00	2.680180e+05	
50	-2.50000e+00	2.789510e+05	
51	-2.55000e+00	2.897422e+05	
52	-2.60000e+00	3.004015e+05	
53	-2.65000e+00	3.109359e+05	
54	-2.70000e+00	3.213505e+05	

Index   v-sweep         rds             
--------------------------------------------------------------------------------
55	-2.75000e+00	3.316492e+05	
56	-2.80000e+00	3.418348e+05	
57	-2.85000e+00	3.519099e+05	
58	-2.90000e+00	3.618767e+05	
59	-2.95000e+00	3.717368e+05	
60	-3.00000e+00	3.814921e+05	
61	-3.05000e+00	3.911441e+05	
62	-3.10000e+00	4.006943e+05	
63	-3.15000e+00	4.101440e+05	
64	-3.20000e+00	4.194947e+05	
65	-3.25000e+00	4.287475e+05	
66	-3.30000e+00	4.379039e+05	
67	-3.35000e+00	4.469651e+05	
68	-3.40000e+00	4.559322e+05	
69	-3.45000e+00	4.648066e+05	
70	-3.50000e+00	4.735894e+05	
71	-3.55000e+00	4.822818e+05	
72	-3.60000e+00	4.908849e+05	
73	-3.65000e+00	4.994000e+05	
74	-3.70000e+00	5.078280e+05	
75	-3.75000e+00	5.161702e+05	
76	-3.80000e+00	5.244276e+05	
77	-3.85000e+00	5.326013e+05	
78	-3.90000e+00	5.406923e+05	
79	-3.95000e+00	5.487018e+05	
80	-4.00000e+00	5.566308e+05	
81	-4.05000e+00	5.644803e+05	
82	-4.10000e+00	5.722512e+05	
83	-4.15000e+00	5.799447e+05	
84	-4.20000e+00	5.875616e+05	
85	-4.25000e+00	5.951029e+05	
86	-4.30000e+00	6.025697e+05	
87	-4.35000e+00	6.099627e+05	
88	-4.40000e+00	6.172831e+05	
89	-4.45000e+00	6.245315e+05	
90	-4.50000e+00	6.317091e+05	
91	-4.55000e+00	6.388165e+05	
92	-4.60000e+00	6.458548e+05	
93	-4.65000e+00	6.528247e+05	
94	-4.70000e+00	6.597270e+05	
95	-4.75000e+00	6.665627e+05	
96	-4.80000e+00	6.733325e+05	
97	-4.85000e+00	6.800372e+05	
98	-4.90000e+00	6.866776e+05	
99	-4.95000e+00	6.932544e+05	
100	-5.00000e+00	6.997684e+05	
101	-5.05000e+00	7.062202e+05	
102	-5.10000e+00	7.126107e+05	
103	-5.15000e+00	7.189404e+05	
104	-5.20000e+00	7.252101e+05	
105	-5.25000e+00	7.314204e+05	
106	-5.30000e+00	7.375720e+05	
107	-5.35000e+00	7.436654e+05	
108	-5.40000e+00	7.497013e+05	
109	-5.45000e+00	7.556802e+05	
110	-5.50000e+00	7.616026e+05	
111	-5.55000e+00	7.674692e+05	
112	-5.60000e+00	7.732804e+05	

Index   v-sweep         rds             
--------------------------------------------------------------------------------
113	-5.65000e+00	7.790367e+05	
114	-5.70000e+00	7.847386e+05	
115	-5.75000e+00	7.903865e+05	
116	-5.80000e+00	7.959809e+05	
117	-5.85000e+00	8.015221e+05	
118	-5.90000e+00	8.070106e+05	
119	-5.95000e+00	8.124466e+05	
120	-6.00000e+00	8.178306e+05	
121	-6.05000e+00	8.231629e+05	
122	-6.10000e+00	8.284437e+05	
123	-6.15000e+00	8.336733e+05	
124	-6.20000e+00	8.388520e+05	
125	-6.25000e+00	8.439799e+05	
126	-6.30000e+00	8.490574e+05	
127	-6.35000e+00	8.540846e+05	
128	-6.40000e+00	8.590617e+05	
129	-6.45000e+00	8.639887e+05	
130	-6.50000e+00	8.688660e+05	
131	-6.55000e+00	8.736934e+05	
132	-6.60000e+00	8.784713e+05	
Reset re-loads circuit ***************************

Circuit: ***************************

Doing analysis at TEMP = 25.000000 and TNOM = 25.000000


No. of Data Rows : 133
                          ***************************
                          DC transfer characteristic  Mon Jan  9 13:57:54  2023
--------------------------------------------------------------------------------
Index   v-sweep         rds             
--------------------------------------------------------------------------------
0	0.000000e+00	2.054094e+04	
1	-5.00000e-02	2.097732e+04	
2	-1.00000e-01	2.142828e+04	
3	-1.50000e-01	2.189455e+04	
4	-2.00000e-01	2.237693e+04	
5	-2.50000e-01	2.287624e+04	
6	-3.00000e-01	2.339339e+04	
7	-3.50000e-01	2.392936e+04	
8	-4.00000e-01	2.448516e+04	
9	-4.50000e-01	2.506192e+04	
10	-5.00000e-01	2.566083e+04	
11	-5.50000e-01	2.628320e+04	
12	-6.00000e-01	2.693040e+04	
13	-6.50000e-01	2.760395e+04	
14	-7.00000e-01	2.830548e+04	
15	-7.50000e-01	2.903676e+04	
16	-8.00000e-01	2.979970e+04	
17	-8.50000e-01	3.059641e+04	
18	-9.00000e-01	3.142914e+04	
19	-9.50000e-01	3.230040e+04	
20	-1.00000e+00	3.321289e+04	
21	-1.05000e+00	3.416960e+04	
22	-1.10000e+00	3.517380e+04	
23	-1.15000e+00	3.622909e+04	
24	-1.20000e+00	3.733944e+04	
25	-1.25000e+00	3.850925e+04	
26	-1.30000e+00	3.974338e+04	
27	-1.35000e+00	4.104725e+04	
28	-1.40000e+00	4.242690e+04	
29	-1.45000e+00	4.388905e+04	
30	-1.50000e+00	4.544126e+04	
31	-1.55000e+00	4.709202e+04	
32	-1.60000e+00	4.885089e+04	
33	-1.65000e+00	5.072868e+04	
34	-1.70000e+00	5.273768e+04	
35	-1.75000e+00	5.489181e+04	
36	-1.80000e+00	5.720701e+04	
37	-1.85000e+00	5.970147e+04	
38	-1.90000e+00	6.239602e+04	
39	-1.95000e+00	6.531458e+04	
40	-2.00000e+00	6.848451e+04	
41	-2.05000e+00	7.193707e+04	
42	-2.10000e+00	7.570769e+04	
43	-2.15000e+00	7.983590e+04	
44	-2.20000e+00	8.436470e+04	
45	-2.25000e+00	8.933860e+04	
46	-2.30000e+00	9.479959e+04	
47	-2.35000e+00	1.007799e+05	
48	-2.40000e+00	1.072913e+05	
49	-2.45000e+00	1.143122e+05	
50	-2.50000e+00	1.217790e+05	
51	-2.55000e+00	1.295904e+05	
52	-2.60000e+00	1.376280e+05	
53	-2.65000e+00	1.457840e+05	
54	-2.70000e+00	1.539792e+05	

Index   v-sweep         rds             
--------------------------------------------------------------------------------
55	-2.75000e+00	1.621647e+05	
56	-2.80000e+00	1.703133e+05	
57	-2.85000e+00	1.784107e+05	
58	-2.90000e+00	1.864491e+05	
59	-2.95000e+00	1.944235e+05	
60	-3.00000e+00	2.023307e+05	
61	-3.05000e+00	2.101684e+05	
62	-3.10000e+00	2.179349e+05	
63	-3.15000e+00	2.256291e+05	
64	-3.20000e+00	2.332501e+05	
65	-3.25000e+00	2.407975e+05	
66	-3.30000e+00	2.482711e+05	
67	-3.35000e+00	2.556709e+05	
68	-3.40000e+00	2.629970e+05	
69	-3.45000e+00	2.702498e+05	
70	-3.50000e+00	2.774296e+05	
71	-3.55000e+00	2.845370e+05	
72	-3.60000e+00	2.915725e+05	
73	-3.65000e+00	2.985367e+05	
74	-3.70000e+00	3.054303e+05	
75	-3.75000e+00	3.122540e+05	
76	-3.80000e+00	3.190085e+05	
77	-3.85000e+00	3.256946e+05	
78	-3.90000e+00	3.323130e+05	
79	-3.95000e+00	3.388644e+05	
80	-4.00000e+00	3.453496e+05	
81	-4.05000e+00	3.517694e+05	
82	-4.10000e+00	3.581246e+05	
83	-4.15000e+00	3.644159e+05	
84	-4.20000e+00	3.706442e+05	
85	-4.25000e+00	3.768101e+05	
86	-4.30000e+00	3.829144e+05	
87	-4.35000e+00	3.889579e+05	
88	-4.40000e+00	3.949413e+05	
89	-4.45000e+00	4.008655e+05	
90	-4.50000e+00	4.067310e+05	
91	-4.55000e+00	4.125386e+05	
92	-4.60000e+00	4.182892e+05	
93	-4.65000e+00	4.239833e+05	
94	-4.70000e+00	4.296216e+05	
95	-4.75000e+00	4.352049e+05	
96	-4.80000e+00	4.407339e+05	
97	-4.85000e+00	4.462092e+05	
98	-4.90000e+00	4.516314e+05	
99	-4.95000e+00	4.570014e+05	
100	-5.00000e+00	4.623196e+05	
101	-5.05000e+00	4.675867e+05	
102	-5.10000e+00	4.728034e+05	
103	-5.15000e+00	4.779702e+05	
104	-5.20000e+00	4.830878e+05	
105	-5.25000e+00	4.881568e+05	
106	-5.30000e+00	4.931778e+05	
107	-5.35000e+00	4.981512e+05	
108	-5.40000e+00	5.030778e+05	
109	-5.45000e+00	5.079580e+05	
110	-5.50000e+00	5.127923e+05	
111	-5.55000e+00	5.175814e+05	
112	-5.60000e+00	5.223256e+05	

Index   v-sweep         rds             
--------------------------------------------------------------------------------
113	-5.65000e+00	5.270256e+05	
114	-5.70000e+00	5.316817e+05	
115	-5.75000e+00	5.362945e+05	
116	-5.80000e+00	5.408644e+05	
117	-5.85000e+00	5.453919e+05	
118	-5.90000e+00	5.498774e+05	
119	-5.95000e+00	5.543212e+05	
120	-6.00000e+00	5.587238e+05	
121	-6.05000e+00	5.630856e+05	
122	-6.10000e+00	5.674070e+05	
123	-6.15000e+00	5.716882e+05	
124	-6.20000e+00	5.759296e+05	
125	-6.25000e+00	5.801316e+05	
126	-6.30000e+00	5.842944e+05	
127	-6.35000e+00	5.884183e+05	
128	-6.40000e+00	5.925035e+05	
129	-6.45000e+00	5.965504e+05	
130	-6.50000e+00	6.005591e+05	
131	-6.55000e+00	6.045299e+05	
132	-6.60000e+00	6.084629e+05	
Reset re-loads circuit ***************************

Circuit: ***************************

Doing analysis at TEMP = 25.000000 and TNOM = 25.000000


No. of Data Rows : 133
                          ***************************
                          DC transfer characteristic  Mon Jan  9 13:57:54  2023
--------------------------------------------------------------------------------
Index   v-sweep         rds             
--------------------------------------------------------------------------------
0	0.000000e+00	1.781564e+04	
1	-5.00000e-02	1.813145e+04	
2	-1.00000e-01	1.845584e+04	
3	-1.50000e-01	1.878916e+04	
4	-2.00000e-01	1.913179e+04	
5	-2.50000e-01	1.948411e+04	
6	-3.00000e-01	1.984654e+04	
7	-3.50000e-01	2.021951e+04	
8	-4.00000e-01	2.060349e+04	
9	-4.50000e-01	2.099897e+04	
10	-5.00000e-01	2.140646e+04	
11	-5.50000e-01	2.182652e+04	
12	-6.00000e-01	2.225973e+04	
13	-6.50000e-01	2.270671e+04	
14	-7.00000e-01	2.316813e+04	
15	-7.50000e-01	2.364469e+04	
16	-8.00000e-01	2.413714e+04	
17	-8.50000e-01	2.464629e+04	
18	-9.00000e-01	2.517299e+04	
19	-9.50000e-01	2.571816e+04	
20	-1.00000e+00	2.628278e+04	
21	-1.05000e+00	2.686790e+04	
22	-1.10000e+00	2.747465e+04	
23	-1.15000e+00	2.810425e+04	
24	-1.20000e+00	2.875800e+04	
25	-1.25000e+00	2.943731e+04	
26	-1.30000e+00	3.014369e+04	
27	-1.35000e+00	3.087880e+04	
28	-1.40000e+00	3.164439e+04	
29	-1.45000e+00	3.244240e+04	
30	-1.50000e+00	3.327491e+04	
31	-1.55000e+00	3.414420e+04	
32	-1.60000e+00	3.505273e+04	
33	-1.65000e+00	3.600320e+04	
34	-1.70000e+00	3.699856e+04	
35	-1.75000e+00	3.804203e+04	
36	-1.80000e+00	3.913716e+04	
37	-1.85000e+00	4.028784e+04	
38	-1.90000e+00	4.149835e+04	
39	-1.95000e+00	4.277342e+04	
40	-2.00000e+00	4.411828e+04	
41	-2.05000e+00	4.553874e+04	
42	-2.10000e+00	4.704122e+04	
43	-2.15000e+00	4.863289e+04	
44	-2.20000e+00	5.032174e+04	
45	-2.25000e+00	5.211668e+04	
46	-2.30000e+00	5.402768e+04	
47	-2.35000e+00	5.606587e+04	
48	-2.40000e+00	5.824374e+04	
49	-2.45000e+00	6.057519e+04	
50	-2.50000e+00	6.307575e+04	
51	-2.55000e+00	6.576257e+04	
52	-2.60000e+00	6.865444e+04	
53	-2.65000e+00	7.177163e+04	
54	-2.70000e+00	7.513533e+04	

Index   v-sweep         rds             
--------------------------------------------------------------------------------
55	-2.75000e+00	7.876680e+04	
56	-2.80000e+00	8.268563e+04	
57	-2.85000e+00	8.690737e+04	
58	-2.90000e+00	9.144021e+04	
59	-2.95000e+00	9.628152e+04	
60	-3.00000e+00	1.014153e+05	
61	-3.05000e+00	1.068123e+05	
62	-3.10000e+00	1.124329e+05	
63	-3.15000e+00	1.182324e+05	
64	-3.20000e+00	1.241664e+05	
65	-3.25000e+00	1.301945e+05	
66	-3.30000e+00	1.362822e+05	
67	-3.35000e+00	1.424011e+05	
68	-3.40000e+00	1.485293e+05	
69	-3.45000e+00	1.546497e+05	
70	-3.50000e+00	1.607493e+05	
71	-3.55000e+00	1.668187e+05	
72	-3.60000e+00	1.728506e+05	
73	-3.65000e+00	1.788398e+05	
74	-3.70000e+00	1.847826e+05	
75	-3.75000e+00	1.906761e+05	
76	-3.80000e+00	1.965183e+05	
77	-3.85000e+00	2.023078e+05	
78	-3.90000e+00	2.080437e+05	
79	-3.95000e+00	2.137255e+05	
80	-4.00000e+00	2.193527e+05	
81	-4.05000e+00	2.249253e+05	
82	-4.10000e+00	2.304433e+05	
83	-4.15000e+00	2.359068e+05	
84	-4.20000e+00	2.413162e+05	
85	-4.25000e+00	2.466717e+05	
86	-4.30000e+00	2.519737e+05	
87	-4.35000e+00	2.572227e+05	
88	-4.40000e+00	2.624191e+05	
89	-4.45000e+00	2.675635e+05	
90	-4.50000e+00	2.726564e+05	
91	-4.55000e+00	2.776982e+05	
92	-4.60000e+00	2.826896e+05	
93	-4.65000e+00	2.876312e+05	
94	-4.70000e+00	2.925234e+05	
95	-4.75000e+00	2.973669e+05	
96	-4.80000e+00	3.021621e+05	
97	-4.85000e+00	3.069098e+05	
98	-4.90000e+00	3.116105e+05	
99	-4.95000e+00	3.162646e+05	
100	-5.00000e+00	3.208729e+05	
101	-5.05000e+00	3.254358e+05	
102	-5.10000e+00	3.299540e+05	
103	-5.15000e+00	3.344279e+05	
104	-5.20000e+00	3.388581e+05	
105	-5.25000e+00	3.432452e+05	
106	-5.30000e+00	3.475896e+05	
107	-5.35000e+00	3.518920e+05	
108	-5.40000e+00	3.561528e+05	
109	-5.45000e+00	3.603725e+05	
110	-5.50000e+00	3.645517e+05	
111	-5.55000e+00	3.686909e+05	
112	-5.60000e+00	3.727905e+05	

Index   v-sweep         rds             
--------------------------------------------------------------------------------
113	-5.65000e+00	3.768510e+05	
114	-5.70000e+00	3.808730e+05	
115	-5.75000e+00	3.848568e+05	
116	-5.80000e+00	3.888029e+05	
117	-5.85000e+00	3.927118e+05	
118	-5.90000e+00	3.965840e+05	
119	-5.95000e+00	4.004198e+05	
120	-6.00000e+00	4.042196e+05	
121	-6.05000e+00	4.079840e+05	
122	-6.10000e+00	4.117132e+05	
123	-6.15000e+00	4.154078e+05	
124	-6.20000e+00	4.190679e+05	
125	-6.25000e+00	4.226941e+05	
126	-6.30000e+00	4.262867e+05	
127	-6.35000e+00	4.298460e+05	
128	-6.40000e+00	4.333724e+05	
129	-6.45000e+00	4.368662e+05	
130	-6.50000e+00	4.403276e+05	
131	-6.55000e+00	4.437570e+05	
132	-6.60000e+00	4.471547e+05	
Reset re-loads circuit ***************************

Circuit: ***************************

Note: No ".plot", ".print", or ".fourier" lines; no simulations run
