
Note: Compatibility modes selected: hs

Warning: m=xx on .subckt line will override multiplier m hierarchy!


Circuit: ***************************

Doing analysis at TEMP = 25.000000 and TNOM = 25.000000


No. of Data Rows : 133
                          ***************************
                          DC transfer characteristic  Mon Jan  9 13:57:54  2023
--------------------------------------------------------------------------------
Index   v-sweep         rds             
--------------------------------------------------------------------------------
0	0.000000e+00	9.615488e+04	
1	-5.00000e-02	1.337225e+05	
2	-1.00000e-01	2.127678e+05	
3	-1.50000e-01	4.296327e+05	
4	-2.00000e-01	1.066473e+06	
5	-2.50000e-01	2.094583e+06	
6	-3.00000e-01	2.873918e+06	
7	-3.50000e-01	3.325765e+06	
8	-4.00000e-01	3.610467e+06	
9	-4.50000e-01	3.817211e+06	
10	-5.00000e-01	3.983546e+06	
11	-5.50000e-01	4.125792e+06	
12	-6.00000e-01	4.251747e+06	
13	-6.50000e-01	4.365553e+06	
14	-7.00000e-01	4.469637e+06	
15	-7.50000e-01	4.565564e+06	
16	-8.00000e-01	4.654421e+06	
17	-8.50000e-01	4.737018e+06	
18	-9.00000e-01	4.813990e+06	
19	-9.50000e-01	4.885855e+06	
20	-1.00000e+00	4.953048e+06	
21	-1.05000e+00	5.015944e+06	
22	-1.10000e+00	5.074872e+06	
23	-1.15000e+00	5.130120e+06	
24	-1.20000e+00	5.181950e+06	
25	-1.25000e+00	5.230595e+06	
26	-1.30000e+00	5.276267e+06	
27	-1.35000e+00	5.319161e+06	
28	-1.40000e+00	5.359453e+06	
29	-1.45000e+00	5.397306e+06	
30	-1.50000e+00	5.432868e+06	
31	-1.55000e+00	5.466278e+06	
32	-1.60000e+00	5.497663e+06	
33	-1.65000e+00	5.527141e+06	
34	-1.70000e+00	5.554821e+06	
35	-1.75000e+00	5.580805e+06	
36	-1.80000e+00	5.605187e+06	
37	-1.85000e+00	5.628056e+06	
38	-1.90000e+00	5.649492e+06	
39	-1.95000e+00	5.669574e+06	
40	-2.00000e+00	5.688373e+06	
41	-2.05000e+00	5.705956e+06	
42	-2.10000e+00	5.722385e+06	
43	-2.15000e+00	5.737720e+06	
44	-2.20000e+00	5.752015e+06	
45	-2.25000e+00	5.765324e+06	
46	-2.30000e+00	5.777694e+06	
47	-2.35000e+00	5.789171e+06	
48	-2.40000e+00	5.799799e+06	
49	-2.45000e+00	5.809619e+06	
50	-2.50000e+00	5.818668e+06	
51	-2.55000e+00	5.826984e+06	
52	-2.60000e+00	5.834600e+06	
53	-2.65000e+00	5.841549e+06	
54	-2.70000e+00	5.847862e+06	

Index   v-sweep         rds             
--------------------------------------------------------------------------------
55	-2.75000e+00	5.853566e+06	
56	-2.80000e+00	5.858690e+06	
57	-2.85000e+00	5.863260e+06	
58	-2.90000e+00	5.867301e+06	
59	-2.95000e+00	5.870835e+06	
60	-3.00000e+00	5.873884e+06	
61	-3.05000e+00	5.876470e+06	
62	-3.10000e+00	5.878613e+06	
63	-3.15000e+00	5.880332e+06	
64	-3.20000e+00	5.881644e+06	
65	-3.25000e+00	5.882567e+06	
66	-3.30000e+00	5.883117e+06	
67	-3.35000e+00	5.883309e+06	
68	-3.40000e+00	5.883158e+06	
69	-3.45000e+00	5.882679e+06	
70	-3.50000e+00	5.881884e+06	
71	-3.55000e+00	5.880787e+06	
72	-3.60000e+00	5.879399e+06	
73	-3.65000e+00	5.877732e+06	
74	-3.70000e+00	5.875797e+06	
75	-3.75000e+00	5.873605e+06	
76	-3.80000e+00	5.871165e+06	
77	-3.85000e+00	5.868487e+06	
78	-3.90000e+00	5.865581e+06	
79	-3.95000e+00	5.862454e+06	
80	-4.00000e+00	5.859116e+06	
81	-4.05000e+00	5.855574e+06	
82	-4.10000e+00	5.851835e+06	
83	-4.15000e+00	5.847907e+06	
84	-4.20000e+00	5.843798e+06	
85	-4.25000e+00	5.839512e+06	
86	-4.30000e+00	5.835058e+06	
87	-4.35000e+00	5.830440e+06	
88	-4.40000e+00	5.825664e+06	
89	-4.45000e+00	5.820737e+06	
90	-4.50000e+00	5.815663e+06	
91	-4.55000e+00	5.810446e+06	
92	-4.60000e+00	5.805093e+06	
93	-4.65000e+00	5.799608e+06	
94	-4.70000e+00	5.793994e+06	
95	-4.75000e+00	5.788257e+06	
96	-4.80000e+00	5.782399e+06	
97	-4.85000e+00	5.776426e+06	
98	-4.90000e+00	5.770340e+06	
99	-4.95000e+00	5.764146e+06	
100	-5.00000e+00	5.757846e+06	
101	-5.05000e+00	5.751444e+06	
102	-5.10000e+00	5.744942e+06	
103	-5.15000e+00	5.738345e+06	
104	-5.20000e+00	5.731653e+06	
105	-5.25000e+00	5.724872e+06	
106	-5.30000e+00	5.718002e+06	
107	-5.35000e+00	5.711046e+06	
108	-5.40000e+00	5.704007e+06	
109	-5.45000e+00	5.696888e+06	
110	-5.50000e+00	5.689689e+06	
111	-5.55000e+00	5.682414e+06	
112	-5.60000e+00	5.675064e+06	

Index   v-sweep         rds             
--------------------------------------------------------------------------------
113	-5.65000e+00	5.667642e+06	
114	-5.70000e+00	5.660149e+06	
115	-5.75000e+00	5.652586e+06	
116	-5.80000e+00	5.644957e+06	
117	-5.85000e+00	5.637262e+06	
118	-5.90000e+00	5.629503e+06	
119	-5.95000e+00	5.621681e+06	
120	-6.00000e+00	5.613799e+06	
121	-6.05000e+00	5.605857e+06	
122	-6.10000e+00	5.597856e+06	
123	-6.15000e+00	5.589799e+06	
124	-6.20000e+00	5.581687e+06	
125	-6.25000e+00	5.573520e+06	
126	-6.30000e+00	5.565301e+06	
127	-6.35000e+00	5.557029e+06	
128	-6.40000e+00	5.548707e+06	
129	-6.45000e+00	5.540335e+06	
130	-6.50000e+00	5.531914e+06	
131	-6.55000e+00	5.523446e+06	
132	-6.60000e+00	5.514932e+06	
Reset re-loads circuit ***************************

Circuit: ***************************

Doing analysis at TEMP = 25.000000 and TNOM = 25.000000


No. of Data Rows : 133
                          ***************************
                          DC transfer characteristic  Mon Jan  9 13:57:54  2023
--------------------------------------------------------------------------------
Index   v-sweep         rds             
--------------------------------------------------------------------------------
0	0.000000e+00	1.655748e+04	
1	-5.00000e-02	1.760270e+04	
2	-1.00000e-01	1.876939e+04	
3	-1.50000e-01	2.007994e+04	
4	-2.00000e-01	2.156254e+04	
5	-2.50000e-01	2.325323e+04	
6	-3.00000e-01	2.519879e+04	
7	-3.50000e-01	2.746098e+04	
8	-4.00000e-01	3.012293e+04	
9	-4.50000e-01	3.329896e+04	
10	-5.00000e-01	3.715006e+04	
11	-5.50000e-01	4.190856e+04	
12	-6.00000e-01	4.791799e+04	
13	-6.50000e-01	5.569511e+04	
14	-7.00000e-01	6.601418e+04	
15	-7.50000e-01	7.996333e+04	
16	-8.00000e-01	9.874827e+04	
17	-8.50000e-01	1.227730e+05	
18	-9.00000e-01	1.502372e+05	
19	-9.50000e-01	1.776231e+05	
20	-1.00000e+00	2.024704e+05	
21	-1.05000e+00	2.244213e+05	
22	-1.10000e+00	2.441020e+05	
23	-1.15000e+00	2.621886e+05	
24	-1.20000e+00	2.791554e+05	
25	-1.25000e+00	2.952982e+05	
26	-1.30000e+00	3.107975e+05	
27	-1.35000e+00	3.257656e+05	
28	-1.40000e+00	3.402750e+05	
29	-1.45000e+00	3.543746e+05	
30	-1.50000e+00	3.680991e+05	
31	-1.55000e+00	3.814744e+05	
32	-1.60000e+00	3.945207e+05	
33	-1.65000e+00	4.072544e+05	
34	-1.70000e+00	4.196894e+05	
35	-1.75000e+00	4.318375e+05	
36	-1.80000e+00	4.437095e+05	
37	-1.85000e+00	4.553150e+05	
38	-1.90000e+00	4.666627e+05	
39	-1.95000e+00	4.777611e+05	
40	-2.00000e+00	4.886176e+05	
41	-2.05000e+00	4.992397e+05	
42	-2.10000e+00	5.096342e+05	
43	-2.15000e+00	5.198077e+05	
44	-2.20000e+00	5.297664e+05	
45	-2.25000e+00	5.395163e+05	
46	-2.30000e+00	5.490633e+05	
47	-2.35000e+00	5.584127e+05	
48	-2.40000e+00	5.675701e+05	
49	-2.45000e+00	5.765404e+05	
50	-2.50000e+00	5.853286e+05	
51	-2.55000e+00	5.939396e+05	
52	-2.60000e+00	6.023779e+05	
53	-2.65000e+00	6.106479e+05	
54	-2.70000e+00	6.187541e+05	

Index   v-sweep         rds             
--------------------------------------------------------------------------------
55	-2.75000e+00	6.267004e+05	
56	-2.80000e+00	6.344911e+05	
57	-2.85000e+00	6.421299e+05	
58	-2.90000e+00	6.496207e+05	
59	-2.95000e+00	6.569670e+05	
60	-3.00000e+00	6.641725e+05	
61	-3.05000e+00	6.712405e+05	
62	-3.10000e+00	6.781745e+05	
63	-3.15000e+00	6.849775e+05	
64	-3.20000e+00	6.916528e+05	
65	-3.25000e+00	6.982033e+05	
66	-3.30000e+00	7.046320e+05	
67	-3.35000e+00	7.109417e+05	
68	-3.40000e+00	7.171353e+05	
69	-3.45000e+00	7.232153e+05	
70	-3.50000e+00	7.291844e+05	
71	-3.55000e+00	7.350450e+05	
72	-3.60000e+00	7.407997e+05	
73	-3.65000e+00	7.464509e+05	
74	-3.70000e+00	7.520007e+05	
75	-3.75000e+00	7.574515e+05	
76	-3.80000e+00	7.628054e+05	
77	-3.85000e+00	7.680645e+05	
78	-3.90000e+00	7.732308e+05	
79	-3.95000e+00	7.783063e+05	
80	-4.00000e+00	7.832930e+05	
81	-4.05000e+00	7.881927e+05	
82	-4.10000e+00	7.930071e+05	
83	-4.15000e+00	7.977380e+05	
84	-4.20000e+00	8.023872e+05	
85	-4.25000e+00	8.069561e+05	
86	-4.30000e+00	8.114465e+05	
87	-4.35000e+00	8.158598e+05	
88	-4.40000e+00	8.201976e+05	
89	-4.45000e+00	8.244611e+05	
90	-4.50000e+00	8.286519e+05	
91	-4.55000e+00	8.327712e+05	
92	-4.60000e+00	8.368204e+05	
93	-4.65000e+00	8.408006e+05	
94	-4.70000e+00	8.447131e+05	
95	-4.75000e+00	8.485591e+05	
96	-4.80000e+00	8.523395e+05	
97	-4.85000e+00	8.560556e+05	
98	-4.90000e+00	8.597083e+05	
99	-4.95000e+00	8.632987e+05	
100	-5.00000e+00	8.668276e+05	
101	-5.05000e+00	8.702961e+05	
102	-5.10000e+00	8.737050e+05	
103	-5.15000e+00	8.770551e+05	
104	-5.20000e+00	8.803473e+05	
105	-5.25000e+00	8.835824e+05	
106	-5.30000e+00	8.867611e+05	
107	-5.35000e+00	8.898841e+05	
108	-5.40000e+00	8.929521e+05	
109	-5.45000e+00	8.959659e+05	
110	-5.50000e+00	8.989259e+05	
111	-5.55000e+00	9.018330e+05	
112	-5.60000e+00	9.046876e+05	

Index   v-sweep         rds             
--------------------------------------------------------------------------------
113	-5.65000e+00	9.074903e+05	
114	-5.70000e+00	9.102416e+05	
115	-5.75000e+00	9.129421e+05	
116	-5.80000e+00	9.155923e+05	
117	-5.85000e+00	9.181927e+05	
118	-5.90000e+00	9.207437e+05	
119	-5.95000e+00	9.232457e+05	
120	-6.00000e+00	9.256993e+05	
121	-6.05000e+00	9.281047e+05	
122	-6.10000e+00	9.304624e+05	
123	-6.15000e+00	9.327728e+05	
124	-6.20000e+00	9.350362e+05	
125	-6.25000e+00	9.372530e+05	
126	-6.30000e+00	9.394236e+05	
127	-6.35000e+00	9.415482e+05	
128	-6.40000e+00	9.436272e+05	
129	-6.45000e+00	9.456608e+05	
130	-6.50000e+00	9.476495e+05	
131	-6.55000e+00	9.495934e+05	
132	-6.60000e+00	9.514929e+05	
Reset re-loads circuit ***************************

Circuit: ***************************

Doing analysis at TEMP = 25.000000 and TNOM = 25.000000


No. of Data Rows : 133
                          ***************************
                          DC transfer characteristic  Mon Jan  9 13:57:54  2023
--------------------------------------------------------------------------------
Index   v-sweep         rds             
--------------------------------------------------------------------------------
0	0.000000e+00	1.024247e+04	
1	-5.00000e-02	1.062490e+04	
2	-1.00000e-01	1.103134e+04	
3	-1.50000e-01	1.146409e+04	
4	-2.00000e-01	1.192580e+04	
5	-2.50000e-01	1.241945e+04	
6	-3.00000e-01	1.294844e+04	
7	-3.50000e-01	1.351669e+04	
8	-4.00000e-01	1.412873e+04	
9	-4.50000e-01	1.478977e+04	
10	-5.00000e-01	1.550591e+04	
11	-5.50000e-01	1.628430e+04	
12	-6.00000e-01	1.713337e+04	
13	-6.50000e-01	1.806312e+04	
14	-7.00000e-01	1.908553e+04	
15	-7.50000e-01	2.021505e+04	
16	-8.00000e-01	2.146922e+04	
17	-8.50000e-01	2.286958e+04	
18	-9.00000e-01	2.444281e+04	
19	-9.50000e-01	2.622223e+04	
20	-1.00000e+00	2.824989e+04	
21	-1.05000e+00	3.057927e+04	
22	-1.10000e+00	3.327876e+04	
23	-1.15000e+00	3.643578e+04	
24	-1.20000e+00	4.016059e+04	
25	-1.25000e+00	4.458695e+04	
26	-1.30000e+00	4.986227e+04	
27	-1.35000e+00	5.611332e+04	
28	-1.40000e+00	6.337537e+04	
29	-1.45000e+00	7.150776e+04	
30	-1.50000e+00	8.018589e+04	
31	-1.55000e+00	8.903192e+04	
32	-1.60000e+00	9.777481e+04	
33	-1.65000e+00	1.062942e+05	
34	-1.70000e+00	1.145677e+05	
35	-1.75000e+00	1.226121e+05	
36	-1.80000e+00	1.304514e+05	
37	-1.85000e+00	1.381068e+05	
38	-1.90000e+00	1.455945e+05	
39	-1.95000e+00	1.529265e+05	
40	-2.00000e+00	1.601118e+05	
41	-2.05000e+00	1.671572e+05	
42	-2.10000e+00	1.740686e+05	
43	-2.15000e+00	1.808506e+05	
44	-2.20000e+00	1.875072e+05	
45	-2.25000e+00	1.940421e+05	
46	-2.30000e+00	2.004587e+05	
47	-2.35000e+00	2.067600e+05	
48	-2.40000e+00	2.129490e+05	
49	-2.45000e+00	2.190283e+05	
50	-2.50000e+00	2.250006e+05	
51	-2.55000e+00	2.308685e+05	
52	-2.60000e+00	2.366344e+05	
53	-2.65000e+00	2.423006e+05	
54	-2.70000e+00	2.478695e+05	

Index   v-sweep         rds             
--------------------------------------------------------------------------------
55	-2.75000e+00	2.533431e+05	
56	-2.80000e+00	2.587237e+05	
57	-2.85000e+00	2.640134e+05	
58	-2.90000e+00	2.692141e+05	
59	-2.95000e+00	2.743279e+05	
60	-3.00000e+00	2.793565e+05	
61	-3.05000e+00	2.843020e+05	
62	-3.10000e+00	2.891660e+05	
63	-3.15000e+00	2.939504e+05	
64	-3.20000e+00	2.986569e+05	
65	-3.25000e+00	3.032871e+05	
66	-3.30000e+00	3.078426e+05	
67	-3.35000e+00	3.123250e+05	
68	-3.40000e+00	3.167359e+05	
69	-3.45000e+00	3.210767e+05	
70	-3.50000e+00	3.253489e+05	
71	-3.55000e+00	3.295540e+05	
72	-3.60000e+00	3.336932e+05	
73	-3.65000e+00	3.377680e+05	
74	-3.70000e+00	3.417797e+05	
75	-3.75000e+00	3.457295e+05	
76	-3.80000e+00	3.496187e+05	
77	-3.85000e+00	3.534485e+05	
78	-3.90000e+00	3.572201e+05	
79	-3.95000e+00	3.609346e+05	
80	-4.00000e+00	3.645931e+05	
81	-4.05000e+00	3.681968e+05	
82	-4.10000e+00	3.717468e+05	
83	-4.15000e+00	3.752439e+05	
84	-4.20000e+00	3.786893e+05	
85	-4.25000e+00	3.820840e+05	
86	-4.30000e+00	3.854288e+05	
87	-4.35000e+00	3.887248e+05	
88	-4.40000e+00	3.919728e+05	
89	-4.45000e+00	3.951737e+05	
90	-4.50000e+00	3.983284e+05	
91	-4.55000e+00	4.014376e+05	
92	-4.60000e+00	4.045023e+05	
93	-4.65000e+00	4.075231e+05	
94	-4.70000e+00	4.105009e+05	
95	-4.75000e+00	4.134363e+05	
96	-4.80000e+00	4.163301e+05	
97	-4.85000e+00	4.191830e+05	
98	-4.90000e+00	4.219957e+05	
99	-4.95000e+00	4.247687e+05	
100	-5.00000e+00	4.275027e+05	
101	-5.05000e+00	4.301983e+05	
102	-5.10000e+00	4.328561e+05	
103	-5.15000e+00	4.354767e+05	
104	-5.20000e+00	4.380605e+05	
105	-5.25000e+00	4.406081e+05	
106	-5.30000e+00	4.431200e+05	
107	-5.35000e+00	4.455966e+05	
108	-5.40000e+00	4.480385e+05	
109	-5.45000e+00	4.504460e+05	
110	-5.50000e+00	4.528195e+05	
111	-5.55000e+00	4.551595e+05	
112	-5.60000e+00	4.574664e+05	

Index   v-sweep         rds             
--------------------------------------------------------------------------------
113	-5.65000e+00	4.597404e+05	
114	-5.70000e+00	4.619820e+05	
115	-5.75000e+00	4.641915e+05	
116	-5.80000e+00	4.663691e+05	
117	-5.85000e+00	4.685152e+05	
118	-5.90000e+00	4.706301e+05	
119	-5.95000e+00	4.727140e+05	
120	-6.00000e+00	4.747671e+05	
121	-6.05000e+00	4.767898e+05	
122	-6.10000e+00	4.787821e+05	
123	-6.15000e+00	4.807444e+05	
124	-6.20000e+00	4.826769e+05	
125	-6.25000e+00	4.845796e+05	
126	-6.30000e+00	4.864528e+05	
127	-6.35000e+00	4.882967e+05	
128	-6.40000e+00	4.901114e+05	
129	-6.45000e+00	4.918970e+05	
130	-6.50000e+00	4.936538e+05	
131	-6.55000e+00	4.953817e+05	
132	-6.60000e+00	4.970809e+05	
Reset re-loads circuit ***************************

Circuit: ***************************

Doing analysis at TEMP = 25.000000 and TNOM = 25.000000


No. of Data Rows : 133
                          ***************************
                          DC transfer characteristic  Mon Jan  9 13:57:54  2023
--------------------------------------------------------------------------------
Index   v-sweep         rds             
--------------------------------------------------------------------------------
0	0.000000e+00	7.877221e+03	
1	-5.00000e-02	8.092553e+03	
2	-1.00000e-01	8.317242e+03	
3	-1.50000e-01	8.551906e+03	
4	-2.00000e-01	8.797218e+03	
5	-2.50000e-01	9.053913e+03	
6	-3.00000e-01	9.322795e+03	
7	-3.50000e-01	9.604746e+03	
8	-4.00000e-01	9.900735e+03	
9	-4.50000e-01	1.021183e+04	
10	-5.00000e-01	1.053921e+04	
11	-5.50000e-01	1.088417e+04	
12	-6.00000e-01	1.124817e+04	
13	-6.50000e-01	1.163282e+04	
14	-7.00000e-01	1.203990e+04	
15	-7.50000e-01	1.247143e+04	
16	-8.00000e-01	1.292966e+04	
17	-8.50000e-01	1.341714e+04	
18	-9.00000e-01	1.393673e+04	
19	-9.50000e-01	1.449170e+04	
20	-1.00000e+00	1.508575e+04	
21	-1.05000e+00	1.572313e+04	
22	-1.10000e+00	1.640872e+04	
23	-1.15000e+00	1.714815e+04	
24	-1.20000e+00	1.794794e+04	
25	-1.25000e+00	1.881570e+04	
26	-1.30000e+00	1.976034e+04	
27	-1.35000e+00	2.079236e+04	
28	-1.40000e+00	2.192417e+04	
29	-1.45000e+00	2.317056e+04	
30	-1.50000e+00	2.454919e+04	
31	-1.55000e+00	2.608119e+04	
32	-1.60000e+00	2.779190e+04	
33	-1.65000e+00	2.971154e+04	
34	-1.70000e+00	3.187569e+04	
35	-1.75000e+00	3.432509e+04	
36	-1.80000e+00	3.710377e+04	
37	-1.85000e+00	4.025414e+04	
38	-1.90000e+00	4.380730e+04	
39	-1.95000e+00	4.776924e+04	
40	-2.00000e+00	5.210872e+04	
41	-2.05000e+00	5.675725e+04	
42	-2.10000e+00	6.162546e+04	
43	-2.15000e+00	6.662605e+04	
44	-2.20000e+00	7.168885e+04	
45	-2.25000e+00	7.676417e+04	
46	-2.30000e+00	8.181926e+04	
47	-2.35000e+00	8.683332e+04	
48	-2.40000e+00	9.179334e+04	
49	-2.45000e+00	9.669127e+04	
50	-2.50000e+00	1.015222e+05	
51	-2.55000e+00	1.062834e+05	
52	-2.60000e+00	1.109732e+05	
53	-2.65000e+00	1.155910e+05	
54	-2.70000e+00	1.201369e+05	

Index   v-sweep         rds             
--------------------------------------------------------------------------------
55	-2.75000e+00	1.246111e+05	
56	-2.80000e+00	1.290143e+05	
57	-2.85000e+00	1.333474e+05	
58	-2.90000e+00	1.376113e+05	
59	-2.95000e+00	1.418072e+05	
60	-3.00000e+00	1.459361e+05	
61	-3.05000e+00	1.499991e+05	
62	-3.10000e+00	1.539976e+05	
63	-3.15000e+00	1.579326e+05	
64	-3.20000e+00	1.618055e+05	
65	-3.25000e+00	1.656173e+05	
66	-3.30000e+00	1.693693e+05	
67	-3.35000e+00	1.730626e+05	
68	-3.40000e+00	1.766984e+05	
69	-3.45000e+00	1.802778e+05	
70	-3.50000e+00	1.838019e+05	
71	-3.55000e+00	1.872719e+05	
72	-3.60000e+00	1.906889e+05	
73	-3.65000e+00	1.940537e+05	
74	-3.70000e+00	1.973676e+05	
75	-3.75000e+00	2.006315e+05	
76	-3.80000e+00	2.038464e+05	
77	-3.85000e+00	2.070133e+05	
78	-3.90000e+00	2.101330e+05	
79	-3.95000e+00	2.132066e+05	
80	-4.00000e+00	2.162349e+05	
81	-4.05000e+00	2.192188e+05	
82	-4.10000e+00	2.221592e+05	
83	-4.15000e+00	2.250568e+05	
84	-4.20000e+00	2.279126e+05	
85	-4.25000e+00	2.307273e+05	
86	-4.30000e+00	2.335018e+05	
87	-4.35000e+00	2.362367e+05	
88	-4.40000e+00	2.389328e+05	
89	-4.45000e+00	2.415909e+05	
90	-4.50000e+00	2.442116e+05	
91	-4.55000e+00	2.467956e+05	
92	-4.60000e+00	2.493437e+05	
93	-4.65000e+00	2.518564e+05	
94	-4.70000e+00	2.543345e+05	
95	-4.75000e+00	2.567785e+05	
96	-4.80000e+00	2.591891e+05	
97	-4.85000e+00	2.615668e+05	
98	-4.90000e+00	2.639122e+05	
99	-4.95000e+00	2.662259e+05	
100	-5.00000e+00	2.685084e+05	
101	-5.05000e+00	2.707604e+05	
102	-5.10000e+00	2.729821e+05	
103	-5.15000e+00	2.751743e+05	
104	-5.20000e+00	2.773373e+05	
105	-5.25000e+00	2.794716e+05	
106	-5.30000e+00	2.815778e+05	
107	-5.35000e+00	2.836561e+05	
108	-5.40000e+00	2.857071e+05	
109	-5.45000e+00	2.877312e+05	
110	-5.50000e+00	2.897287e+05	
111	-5.55000e+00	2.917000e+05	
112	-5.60000e+00	2.936455e+05	

Index   v-sweep         rds             
--------------------------------------------------------------------------------
113	-5.65000e+00	2.955656e+05	
114	-5.70000e+00	2.974605e+05	
115	-5.75000e+00	2.993307e+05	
116	-5.80000e+00	3.011763e+05	
117	-5.85000e+00	3.029978e+05	
118	-5.90000e+00	3.047953e+05	
119	-5.95000e+00	3.065692e+05	
120	-6.00000e+00	3.083197e+05	
121	-6.05000e+00	3.100470e+05	
122	-6.10000e+00	3.117514e+05	
123	-6.15000e+00	3.134331e+05	
124	-6.20000e+00	3.150922e+05	
125	-6.25000e+00	3.167290e+05	
126	-6.30000e+00	3.183437e+05	
127	-6.35000e+00	3.199364e+05	
128	-6.40000e+00	3.215072e+05	
129	-6.45000e+00	3.230564e+05	
130	-6.50000e+00	3.245840e+05	
131	-6.55000e+00	3.260902e+05	
132	-6.60000e+00	3.275751e+05	
Reset re-loads circuit ***************************

Circuit: ***************************

Doing analysis at TEMP = 25.000000 and TNOM = 25.000000


No. of Data Rows : 133
                          ***************************
                          DC transfer characteristic  Mon Jan  9 13:57:54  2023
--------------------------------------------------------------------------------
Index   v-sweep         rds             
--------------------------------------------------------------------------------
0	0.000000e+00	6.627809e+03	
1	-5.00000e-02	6.772811e+03	
2	-1.00000e-01	6.922660e+03	
3	-1.50000e-01	7.077597e+03	
4	-2.00000e-01	7.237884e+03	
5	-2.50000e-01	7.403800e+03	
6	-3.00000e-01	7.575642e+03	
7	-3.50000e-01	7.753731e+03	
8	-4.00000e-01	7.938411e+03	
9	-4.50000e-01	8.130049e+03	
10	-5.00000e-01	8.329044e+03	
11	-5.50000e-01	8.535823e+03	
12	-6.00000e-01	8.750848e+03	
13	-6.50000e-01	8.974618e+03	
14	-7.00000e-01	9.207673e+03	
15	-7.50000e-01	9.450598e+03	
16	-8.00000e-01	9.704029e+03	
17	-8.50000e-01	9.968657e+03	
18	-9.00000e-01	1.024524e+04	
19	-9.50000e-01	1.053459e+04	
20	-1.00000e+00	1.083761e+04	
21	-1.05000e+00	1.115529e+04	
22	-1.10000e+00	1.148870e+04	
23	-1.15000e+00	1.183905e+04	
24	-1.20000e+00	1.220764e+04	
25	-1.25000e+00	1.259592e+04	
26	-1.30000e+00	1.300551e+04	
27	-1.35000e+00	1.343818e+04	
28	-1.40000e+00	1.389595e+04	
29	-1.45000e+00	1.438102e+04	
30	-1.50000e+00	1.489591e+04	
31	-1.55000e+00	1.544341e+04	
32	-1.60000e+00	1.602669e+04	
33	-1.65000e+00	1.664934e+04	
34	-1.70000e+00	1.731542e+04	
35	-1.75000e+00	1.802957e+04	
36	-1.80000e+00	1.879710e+04	
37	-1.85000e+00	1.962410e+04	
38	-1.90000e+00	2.051759e+04	
39	-1.95000e+00	2.148569e+04	
40	-2.00000e+00	2.253779e+04	
41	-2.05000e+00	2.368484e+04	
42	-2.10000e+00	2.493956e+04	
43	-2.15000e+00	2.631674e+04	
44	-2.20000e+00	2.783349e+04	
45	-2.25000e+00	2.950937e+04	
46	-2.30000e+00	3.136622e+04	
47	-2.35000e+00	3.342735e+04	
48	-2.40000e+00	3.571532e+04	
49	-2.45000e+00	3.824781e+04	
50	-2.50000e+00	4.103161e+04	
51	-2.55000e+00	4.405675e+04	
52	-2.60000e+00	4.729477e+04	
53	-2.65000e+00	5.070341e+04	
54	-2.70000e+00	5.423542e+04	

Index   v-sweep         rds             
--------------------------------------------------------------------------------
55	-2.75000e+00	5.784666e+04	
56	-2.80000e+00	6.150060e+04	
57	-2.85000e+00	6.516927e+04	
58	-2.90000e+00	6.883229e+04	
59	-2.95000e+00	7.247520e+04	
60	-3.00000e+00	7.608798e+04	
61	-3.05000e+00	7.966374e+04	
62	-3.10000e+00	8.319781e+04	
63	-3.15000e+00	8.668711e+04	
64	-3.20000e+00	9.012964e+04	
65	-3.25000e+00	9.352419e+04	
66	-3.30000e+00	9.687012e+04	
67	-3.35000e+00	1.001672e+05	
68	-3.40000e+00	1.034155e+05	
69	-3.45000e+00	1.066152e+05	
70	-3.50000e+00	1.097667e+05	
71	-3.55000e+00	1.128707e+05	
72	-3.60000e+00	1.159277e+05	
73	-3.65000e+00	1.189384e+05	
74	-3.70000e+00	1.219034e+05	
75	-3.75000e+00	1.248236e+05	
76	-3.80000e+00	1.276997e+05	
77	-3.85000e+00	1.305324e+05	
78	-3.90000e+00	1.333225e+05	
79	-3.95000e+00	1.360708e+05	
80	-4.00000e+00	1.387781e+05	
81	-4.05000e+00	1.414451e+05	
82	-4.10000e+00	1.440725e+05	
83	-4.15000e+00	1.466612e+05	
84	-4.20000e+00	1.492118e+05	
85	-4.25000e+00	1.517250e+05	
86	-4.30000e+00	1.542016e+05	
87	-4.35000e+00	1.566423e+05	
88	-4.40000e+00	1.590478e+05	
89	-4.45000e+00	1.614186e+05	
90	-4.50000e+00	1.637555e+05	
91	-4.55000e+00	1.660591e+05	
92	-4.60000e+00	1.683301e+05	
93	-4.65000e+00	1.705690e+05	
94	-4.70000e+00	1.727764e+05	
95	-4.75000e+00	1.749530e+05	
96	-4.80000e+00	1.770993e+05	
97	-4.85000e+00	1.792159e+05	
98	-4.90000e+00	1.813032e+05	
99	-4.95000e+00	1.833620e+05	
100	-5.00000e+00	1.853926e+05	
101	-5.05000e+00	1.873956e+05	
102	-5.10000e+00	1.893715e+05	
103	-5.15000e+00	1.913207e+05	
104	-5.20000e+00	1.932439e+05	
105	-5.25000e+00	1.951413e+05	
106	-5.30000e+00	1.970135e+05	
107	-5.35000e+00	1.988608e+05	
108	-5.40000e+00	2.006838e+05	
109	-5.45000e+00	2.024829e+05	
110	-5.50000e+00	2.042584e+05	
111	-5.55000e+00	2.060107e+05	
112	-5.60000e+00	2.077403e+05	

Index   v-sweep         rds             
--------------------------------------------------------------------------------
113	-5.65000e+00	2.094474e+05	
114	-5.70000e+00	2.111325e+05	
115	-5.75000e+00	2.127959e+05	
116	-5.80000e+00	2.144379e+05	
117	-5.85000e+00	2.160589e+05	
118	-5.90000e+00	2.176591e+05	
119	-5.95000e+00	2.192388e+05	
120	-6.00000e+00	2.207985e+05	
121	-6.05000e+00	2.223382e+05	
122	-6.10000e+00	2.238583e+05	
123	-6.15000e+00	2.253591e+05	
124	-6.20000e+00	2.268408e+05	
125	-6.25000e+00	2.283036e+05	
126	-6.30000e+00	2.297477e+05	
127	-6.35000e+00	2.311734e+05	
128	-6.40000e+00	2.325808e+05	
129	-6.45000e+00	2.339702e+05	
130	-6.50000e+00	2.353416e+05	
131	-6.55000e+00	2.366954e+05	
132	-6.60000e+00	2.380316e+05	
Reset re-loads circuit ***************************

Circuit: ***************************

Doing analysis at TEMP = 25.000000 and TNOM = 25.000000


No. of Data Rows : 133
                          ***************************
                          DC transfer characteristic  Mon Jan  9 13:57:54  2023
--------------------------------------------------------------------------------
Index   v-sweep         rds             
--------------------------------------------------------------------------------
0	0.000000e+00	5.849247e+03	
1	-5.00000e-02	5.956776e+03	
2	-1.00000e-01	6.067233e+03	
3	-1.50000e-01	6.180737e+03	
4	-2.00000e-01	6.297415e+03	
5	-2.50000e-01	6.417400e+03	
6	-3.00000e-01	6.540832e+03	
7	-3.50000e-01	6.667861e+03	
8	-4.00000e-01	6.798643e+03	
9	-4.50000e-01	6.933345e+03	
10	-5.00000e-01	7.072144e+03	
11	-5.50000e-01	7.215228e+03	
12	-6.00000e-01	7.362796e+03	
13	-6.50000e-01	7.515060e+03	
14	-7.00000e-01	7.672244e+03	
15	-7.50000e-01	7.834590e+03	
16	-8.00000e-01	8.002353e+03	
17	-8.50000e-01	8.175806e+03	
18	-9.00000e-01	8.355241e+03	
19	-9.50000e-01	8.540970e+03	
20	-1.00000e+00	8.733327e+03	
21	-1.05000e+00	8.932670e+03	
22	-1.10000e+00	9.139384e+03	
23	-1.15000e+00	9.353882e+03	
24	-1.20000e+00	9.576607e+03	
25	-1.25000e+00	9.808039e+03	
26	-1.30000e+00	1.004869e+04	
27	-1.35000e+00	1.029913e+04	
28	-1.40000e+00	1.055995e+04	
29	-1.45000e+00	1.083182e+04	
30	-1.50000e+00	1.111543e+04	
31	-1.55000e+00	1.141156e+04	
32	-1.60000e+00	1.172106e+04	
33	-1.65000e+00	1.204484e+04	
34	-1.70000e+00	1.238391e+04	
35	-1.75000e+00	1.273936e+04	
36	-1.80000e+00	1.311240e+04	
37	-1.85000e+00	1.350436e+04	
38	-1.90000e+00	1.391671e+04	
39	-1.95000e+00	1.435105e+04	
40	-2.00000e+00	1.480917e+04	
41	-2.05000e+00	1.529308e+04	
42	-2.10000e+00	1.580497e+04	
43	-2.15000e+00	1.634732e+04	
44	-2.20000e+00	1.692289e+04	
45	-2.25000e+00	1.753480e+04	
46	-2.30000e+00	1.818655e+04	
47	-2.35000e+00	1.888209e+04	
48	-2.40000e+00	1.962593e+04	
49	-2.45000e+00	2.042321e+04	
50	-2.50000e+00	2.127982e+04	
51	-2.55000e+00	2.220255e+04	
52	-2.60000e+00	2.319934e+04	
53	-2.65000e+00	2.427945e+04	
54	-2.70000e+00	2.545386e+04	

Index   v-sweep         rds             
--------------------------------------------------------------------------------
55	-2.75000e+00	2.673560e+04	
56	-2.80000e+00	2.814004e+04	
57	-2.85000e+00	2.968488e+04	
58	-2.90000e+00	3.138913e+04	
59	-2.95000e+00	3.327043e+04	
60	-3.00000e+00	3.534048e+04	
61	-3.05000e+00	3.759988e+04	
62	-3.10000e+00	4.003532e+04	
63	-3.15000e+00	4.262122e+04	
64	-3.20000e+00	4.532510e+04	
65	-3.25000e+00	4.811358e+04	
66	-3.30000e+00	5.095676e+04	
67	-3.35000e+00	5.383003e+04	
68	-3.40000e+00	5.671430e+04	
69	-3.45000e+00	5.959530e+04	
70	-3.50000e+00	6.246256e+04	
71	-3.55000e+00	6.530854e+04	
72	-3.60000e+00	6.812785e+04	
73	-3.65000e+00	7.091670e+04	
74	-3.70000e+00	7.367245e+04	
75	-3.75000e+00	7.639332e+04	
76	-3.80000e+00	7.907813e+04	
77	-3.85000e+00	8.172618e+04	
78	-3.90000e+00	8.433708e+04	
79	-3.95000e+00	8.691073e+04	
80	-4.00000e+00	8.944717e+04	
81	-4.05000e+00	9.194663e+04	
82	-4.10000e+00	9.440940e+04	
83	-4.15000e+00	9.683589e+04	
84	-4.20000e+00	9.922653e+04	
85	-4.25000e+00	1.015818e+05	
86	-4.30000e+00	1.039023e+05	
87	-4.35000e+00	1.061884e+05	
88	-4.40000e+00	1.084408e+05	
89	-4.45000e+00	1.106601e+05	
90	-4.50000e+00	1.128468e+05	
91	-4.55000e+00	1.150014e+05	
92	-4.60000e+00	1.171246e+05	
93	-4.65000e+00	1.192169e+05	
94	-4.70000e+00	1.212788e+05	
95	-4.75000e+00	1.233110e+05	
96	-4.80000e+00	1.253140e+05	
97	-4.85000e+00	1.272883e+05	
98	-4.90000e+00	1.292344e+05	
99	-4.95000e+00	1.311529e+05	
100	-5.00000e+00	1.330443e+05	
101	-5.05000e+00	1.349091e+05	
102	-5.10000e+00	1.367478e+05	
103	-5.15000e+00	1.385609e+05	
104	-5.20000e+00	1.403488e+05	
105	-5.25000e+00	1.421120e+05	
106	-5.30000e+00	1.438509e+05	
107	-5.35000e+00	1.455661e+05	
108	-5.40000e+00	1.472579e+05	
109	-5.45000e+00	1.489268e+05	
110	-5.50000e+00	1.505731e+05	
111	-5.55000e+00	1.521974e+05	
112	-5.60000e+00	1.537999e+05	

Index   v-sweep         rds             
--------------------------------------------------------------------------------
113	-5.65000e+00	1.553811e+05	
114	-5.70000e+00	1.569413e+05	
115	-5.75000e+00	1.584809e+05	
116	-5.80000e+00	1.600004e+05	
117	-5.85000e+00	1.614999e+05	
118	-5.90000e+00	1.629799e+05	
119	-5.95000e+00	1.644407e+05	
120	-6.00000e+00	1.658826e+05	
121	-6.05000e+00	1.673059e+05	
122	-6.10000e+00	1.687110e+05	
123	-6.15000e+00	1.700980e+05	
124	-6.20000e+00	1.714674e+05	
125	-6.25000e+00	1.728193e+05	
126	-6.30000e+00	1.741540e+05	
127	-6.35000e+00	1.754719e+05	
128	-6.40000e+00	1.767730e+05	
129	-6.45000e+00	1.780578e+05	
130	-6.50000e+00	1.793263e+05	
131	-6.55000e+00	1.805788e+05	
132	-6.60000e+00	1.818156e+05	
Reset re-loads circuit ***************************

Circuit: ***************************

Note: No ".plot", ".print", or ".fourier" lines; no simulations run
