
Note: Compatibility modes selected: hs

Warning: m=xx on .subckt line will override multiplier m hierarchy!


Circuit: ***************************

Doing analysis at TEMP = 125.000000 and TNOM = 125.000000


No. of Data Rows : 133
                          ***************************
                          DC transfer characteristic  Mon Jan  9 13:57:55  2023
--------------------------------------------------------------------------------
Index   v-sweep         rds             
--------------------------------------------------------------------------------
0	0.000000e+00	1.254942e+06	
1	-5.00000e-02	1.652380e+06	
2	-1.00000e-01	2.398997e+06	
3	-1.50000e-01	4.165432e+06	
4	-2.00000e-01	9.811964e+06	
5	-2.50000e-01	2.988320e+07	
6	-3.00000e-01	8.339214e+07	
7	-3.50000e-01	1.776598e+08	
8	-4.00000e-01	2.957348e+08	
9	-4.50000e-01	4.134427e+08	
10	-5.00000e-01	5.168542e+08	
11	-5.50000e-01	6.029605e+08	
12	-6.00000e-01	6.738878e+08	
13	-6.50000e-01	7.329257e+08	
14	-7.00000e-01	7.829999e+08	
15	-7.50000e-01	8.263472e+08	
16	-8.00000e-01	8.645896e+08	
17	-8.50000e-01	8.988852e+08	
18	-9.00000e-01	9.300638e+08	
19	-9.50000e-01	9.587268e+08	
20	-1.00000e+00	9.853167e+08	
21	-1.05000e+00	1.010165e+09	
22	-1.10000e+00	1.033526e+09	
23	-1.15000e+00	1.055595e+09	
24	-1.20000e+00	1.076528e+09	
25	-1.25000e+00	1.096450e+09	
26	-1.30000e+00	1.115464e+09	
27	-1.35000e+00	1.133655e+09	
28	-1.40000e+00	1.151094e+09	
29	-1.45000e+00	1.167841e+09	
30	-1.50000e+00	1.183950e+09	
31	-1.55000e+00	1.199465e+09	
32	-1.60000e+00	1.214427e+09	
33	-1.65000e+00	1.228871e+09	
34	-1.70000e+00	1.242828e+09	
35	-1.75000e+00	1.256328e+09	
36	-1.80000e+00	1.269395e+09	
37	-1.85000e+00	1.282054e+09	
38	-1.90000e+00	1.294324e+09	
39	-1.95000e+00	1.306227e+09	
40	-2.00000e+00	1.317780e+09	
41	-2.05000e+00	1.328999e+09	
42	-2.10000e+00	1.339900e+09	
43	-2.15000e+00	1.350497e+09	
44	-2.20000e+00	1.360805e+09	
45	-2.25000e+00	1.370834e+09	
46	-2.30000e+00	1.380597e+09	
47	-2.35000e+00	1.390105e+09	
48	-2.40000e+00	1.399369e+09	
49	-2.45000e+00	1.408397e+09	
50	-2.50000e+00	1.417199e+09	
51	-2.55000e+00	1.425784e+09	
52	-2.60000e+00	1.434160e+09	
53	-2.65000e+00	1.442335e+09	
54	-2.70000e+00	1.450315e+09	

Index   v-sweep         rds             
--------------------------------------------------------------------------------
55	-2.75000e+00	1.458109e+09	
56	-2.80000e+00	1.465722e+09	
57	-2.85000e+00	1.473161e+09	
58	-2.90000e+00	1.480431e+09	
59	-2.95000e+00	1.487540e+09	
60	-3.00000e+00	1.494491e+09	
61	-3.05000e+00	1.501290e+09	
62	-3.10000e+00	1.507943e+09	
63	-3.15000e+00	1.514453e+09	
64	-3.20000e+00	1.520826e+09	
65	-3.25000e+00	1.527065e+09	
66	-3.30000e+00	1.533175e+09	
67	-3.35000e+00	1.539160e+09	
68	-3.40000e+00	1.545023e+09	
69	-3.45000e+00	1.550768e+09	
70	-3.50000e+00	1.556398e+09	
71	-3.55000e+00	1.561918e+09	
72	-3.60000e+00	1.567329e+09	
73	-3.65000e+00	1.572636e+09	
74	-3.70000e+00	1.577840e+09	
75	-3.75000e+00	1.582945e+09	
76	-3.80000e+00	1.587953e+09	
77	-3.85000e+00	1.592867e+09	
78	-3.90000e+00	1.597690e+09	
79	-3.95000e+00	1.602424e+09	
80	-4.00000e+00	1.607070e+09	
81	-4.05000e+00	1.611632e+09	
82	-4.10000e+00	1.616111e+09	
83	-4.15000e+00	1.620510e+09	
84	-4.20000e+00	1.624830e+09	
85	-4.25000e+00	1.629073e+09	
86	-4.30000e+00	1.633241e+09	
87	-4.35000e+00	1.637335e+09	
88	-4.40000e+00	1.641358e+09	
89	-4.45000e+00	1.645311e+09	
90	-4.50000e+00	1.649195e+09	
91	-4.55000e+00	1.653012e+09	
92	-4.60000e+00	1.656764e+09	
93	-4.65000e+00	1.660451e+09	
94	-4.70000e+00	1.664074e+09	
95	-4.75000e+00	1.667637e+09	
96	-4.80000e+00	1.671138e+09	
97	-4.85000e+00	1.674580e+09	
98	-4.90000e+00	1.677964e+09	
99	-4.95000e+00	1.681290e+09	
100	-5.00000e+00	1.684561e+09	
101	-5.05000e+00	1.687776e+09	
102	-5.10000e+00	1.690937e+09	
103	-5.15000e+00	1.694045e+09	
104	-5.20000e+00	1.697100e+09	
105	-5.25000e+00	1.700104e+09	
106	-5.30000e+00	1.703057e+09	
107	-5.35000e+00	1.705960e+09	
108	-5.40000e+00	1.708814e+09	
109	-5.45000e+00	1.711620e+09	
110	-5.50000e+00	1.714378e+09	
111	-5.55000e+00	1.717089e+09	
112	-5.60000e+00	1.719754e+09	

Index   v-sweep         rds             
--------------------------------------------------------------------------------
113	-5.65000e+00	1.722374e+09	
114	-5.70000e+00	1.724949e+09	
115	-5.75000e+00	1.727479e+09	
116	-5.80000e+00	1.729966e+09	
117	-5.85000e+00	1.732409e+09	
118	-5.90000e+00	1.734811e+09	
119	-5.95000e+00	1.737170e+09	
120	-6.00000e+00	1.739488e+09	
121	-6.05000e+00	1.741764e+09	
122	-6.10000e+00	1.744001e+09	
123	-6.15000e+00	1.746198e+09	
124	-6.20000e+00	1.748355e+09	
125	-6.25000e+00	1.750474e+09	
126	-6.30000e+00	1.752554e+09	
127	-6.35000e+00	1.754596e+09	
128	-6.40000e+00	1.756600e+09	
129	-6.45000e+00	1.758567e+09	
130	-6.50000e+00	1.760498e+09	
131	-6.55000e+00	1.762392e+09	
132	-6.60000e+00	1.764251e+09	
Reset re-loads circuit ***************************

Circuit: ***************************

Doing analysis at TEMP = 125.000000 and TNOM = 125.000000


No. of Data Rows : 133
                          ***************************
                          DC transfer characteristic  Mon Jan  9 13:57:55  2023
--------------------------------------------------------------------------------
Index   v-sweep         rds             
--------------------------------------------------------------------------------
0	0.000000e+00	2.555041e+05	
1	-5.00000e-02	2.703315e+05	
2	-1.00000e-01	2.869736e+05	
3	-1.50000e-01	3.057847e+05	
4	-2.00000e-01	3.272172e+05	
5	-2.50000e-01	3.518581e+05	
6	-3.00000e-01	3.804833e+05	
7	-3.50000e-01	4.141382e+05	
8	-4.00000e-01	4.542658e+05	
9	-4.50000e-01	5.029113e+05	
10	-5.00000e-01	5.630662e+05	
11	-5.50000e-01	6.392681e+05	
12	-6.00000e-01	7.387003e+05	
13	-6.50000e-01	8.733068e+05	
14	-7.00000e-01	1.064073e+06	
15	-7.50000e-01	1.350029e+06	
16	-8.00000e-01	1.807221e+06	
17	-8.50000e-01	2.584969e+06	
18	-9.00000e-01	3.952641e+06	
19	-9.50000e-01	6.283584e+06	
20	-1.00000e+00	9.840245e+06	
21	-1.05000e+00	1.445235e+07	
22	-1.10000e+00	1.952181e+07	
23	-1.15000e+00	2.441541e+07	
24	-1.20000e+00	2.876917e+07	
25	-1.25000e+00	3.249245e+07	
26	-1.30000e+00	3.564241e+07	
27	-1.35000e+00	3.832245e+07	
28	-1.40000e+00	4.063337e+07	
29	-1.45000e+00	4.265779e+07	
30	-1.50000e+00	4.445892e+07	
31	-1.55000e+00	4.608386e+07	
32	-1.60000e+00	4.756744e+07	
33	-1.65000e+00	4.893558e+07	
34	-1.70000e+00	5.020773e+07	
35	-1.75000e+00	5.139870e+07	
36	-1.80000e+00	5.251993e+07	
37	-1.85000e+00	5.358041e+07	
38	-1.90000e+00	5.458728e+07	
39	-1.95000e+00	5.554636e+07	
40	-2.00000e+00	5.646239e+07	
41	-2.05000e+00	5.733933e+07	
42	-2.10000e+00	5.818053e+07	
43	-2.15000e+00	5.898883e+07	
44	-2.20000e+00	5.976669e+07	
45	-2.25000e+00	6.051627e+07	
46	-2.30000e+00	6.123944e+07	
47	-2.35000e+00	6.193788e+07	
48	-2.40000e+00	6.261307e+07	
49	-2.45000e+00	6.326637e+07	
50	-2.50000e+00	6.389899e+07	
51	-2.55000e+00	6.451202e+07	
52	-2.60000e+00	6.510649e+07	
53	-2.65000e+00	6.568332e+07	
54	-2.70000e+00	6.624336e+07	

Index   v-sweep         rds             
--------------------------------------------------------------------------------
55	-2.75000e+00	6.678740e+07	
56	-2.80000e+00	6.731618e+07	
57	-2.85000e+00	6.783038e+07	
58	-2.90000e+00	6.833063e+07	
59	-2.95000e+00	6.881753e+07	
60	-3.00000e+00	6.929163e+07	
61	-3.05000e+00	6.975346e+07	
62	-3.10000e+00	7.020351e+07	
63	-3.15000e+00	7.064225e+07	
64	-3.20000e+00	7.107010e+07	
65	-3.25000e+00	7.148749e+07	
66	-3.30000e+00	7.189480e+07	
67	-3.35000e+00	7.229241e+07	
68	-3.40000e+00	7.268066e+07	
69	-3.45000e+00	7.305989e+07	
70	-3.50000e+00	7.343042e+07	
71	-3.55000e+00	7.379254e+07	
72	-3.60000e+00	7.414654e+07	
73	-3.65000e+00	7.449271e+07	
74	-3.70000e+00	7.483128e+07	
75	-3.75000e+00	7.516252e+07	
76	-3.80000e+00	7.548666e+07	
77	-3.85000e+00	7.580393e+07	
78	-3.90000e+00	7.611454e+07	
79	-3.95000e+00	7.641870e+07	
80	-4.00000e+00	7.671661e+07	
81	-4.05000e+00	7.700846e+07	
82	-4.10000e+00	7.729442e+07	
83	-4.15000e+00	7.757467e+07	
84	-4.20000e+00	7.784937e+07	
85	-4.25000e+00	7.811870e+07	
86	-4.30000e+00	7.838279e+07	
87	-4.35000e+00	7.864179e+07	
88	-4.40000e+00	7.889584e+07	
89	-4.45000e+00	7.914509e+07	
90	-4.50000e+00	7.938965e+07	
91	-4.55000e+00	7.962965e+07	
92	-4.60000e+00	7.986521e+07	
93	-4.65000e+00	8.009645e+07	
94	-4.70000e+00	8.032346e+07	
95	-4.75000e+00	8.054636e+07	
96	-4.80000e+00	8.076526e+07	
97	-4.85000e+00	8.098023e+07	
98	-4.90000e+00	8.119139e+07	
99	-4.95000e+00	8.139881e+07	
100	-5.00000e+00	8.160259e+07	
101	-5.05000e+00	8.180280e+07	
102	-5.10000e+00	8.199952e+07	
103	-5.15000e+00	8.219284e+07	
104	-5.20000e+00	8.238282e+07	
105	-5.25000e+00	8.256954e+07	
106	-5.30000e+00	8.275306e+07	
107	-5.35000e+00	8.293345e+07	
108	-5.40000e+00	8.311077e+07	
109	-5.45000e+00	8.328508e+07	
110	-5.50000e+00	8.345644e+07	
111	-5.55000e+00	8.362491e+07	
112	-5.60000e+00	8.379054e+07	

Index   v-sweep         rds             
--------------------------------------------------------------------------------
113	-5.65000e+00	8.395337e+07	
114	-5.70000e+00	8.411347e+07	
115	-5.75000e+00	8.427088e+07	
116	-5.80000e+00	8.442564e+07	
117	-5.85000e+00	8.457780e+07	
118	-5.90000e+00	8.472741e+07	
119	-5.95000e+00	8.487450e+07	
120	-6.00000e+00	8.501912e+07	
121	-6.05000e+00	8.516131e+07	
122	-6.10000e+00	8.530109e+07	
123	-6.15000e+00	8.543852e+07	
124	-6.20000e+00	8.557362e+07	
125	-6.25000e+00	8.570642e+07	
126	-6.30000e+00	8.583697e+07	
127	-6.35000e+00	8.596529e+07	
128	-6.40000e+00	8.609141e+07	
129	-6.45000e+00	8.621537e+07	
130	-6.50000e+00	8.633719e+07	
131	-6.55000e+00	8.645690e+07	
132	-6.60000e+00	8.657453e+07	
Reset re-loads circuit ***************************

Circuit: ***************************

Doing analysis at TEMP = 125.000000 and TNOM = 125.000000


No. of Data Rows : 133
                          ***************************
                          DC transfer characteristic  Mon Jan  9 13:57:55  2023
--------------------------------------------------------------------------------
Index   v-sweep         rds             
--------------------------------------------------------------------------------
0	0.000000e+00	1.516808e+05	
1	-5.00000e-02	1.564960e+05	
2	-1.00000e-01	1.616239e+05	
3	-1.50000e-01	1.670961e+05	
4	-2.00000e-01	1.729483e+05	
5	-2.50000e-01	1.792216e+05	
6	-3.00000e-01	1.859630e+05	
7	-3.50000e-01	1.932269e+05	
8	-4.00000e-01	2.010764e+05	
9	-4.50000e-01	2.095853e+05	
10	-5.00000e-01	2.188402e+05	
11	-5.50000e-01	2.289433e+05	
12	-6.00000e-01	2.400168e+05	
13	-6.50000e-01	2.522070e+05	
14	-7.00000e-01	2.656914e+05	
15	-7.50000e-01	2.806868e+05	
16	-8.00000e-01	2.974611e+05	
17	-8.50000e-01	3.163489e+05	
18	-9.00000e-01	3.377737e+05	
19	-9.50000e-01	3.622788e+05	
20	-1.00000e+00	3.905725e+05	
21	-1.05000e+00	4.235937e+05	
22	-1.10000e+00	4.626124e+05	
23	-1.15000e+00	5.093829e+05	
24	-1.20000e+00	5.663887e+05	
25	-1.25000e+00	6.372376e+05	
26	-1.30000e+00	7.273209e+05	
27	-1.35000e+00	8.449248e+05	
28	-1.40000e+00	1.003108e+06	
29	-1.45000e+00	1.222763e+06	
30	-1.50000e+00	1.537045e+06	
31	-1.55000e+00	1.995749e+06	
32	-1.60000e+00	2.663511e+06	
33	-1.65000e+00	3.599689e+06	
34	-1.70000e+00	4.815595e+06	
35	-1.75000e+00	6.239542e+06	
36	-1.80000e+00	7.736891e+06	
37	-1.85000e+00	9.175460e+06	
38	-1.90000e+00	1.047445e+07	
39	-1.95000e+00	1.160827e+07	
40	-2.00000e+00	1.258588e+07	
41	-2.05000e+00	1.343027e+07	
42	-2.10000e+00	1.416645e+07	
43	-2.15000e+00	1.481635e+07	
44	-2.20000e+00	1.539763e+07	
45	-2.25000e+00	1.592394e+07	
46	-2.30000e+00	1.640566e+07	
47	-2.35000e+00	1.685067e+07	
48	-2.40000e+00	1.726499e+07	
49	-2.45000e+00	1.765324e+07	
50	-2.50000e+00	1.801905e+07	
51	-2.55000e+00	1.836525e+07	
52	-2.60000e+00	1.869414e+07	
53	-2.65000e+00	1.900756e+07	
54	-2.70000e+00	1.930705e+07	

Index   v-sweep         rds             
--------------------------------------------------------------------------------
55	-2.75000e+00	1.959387e+07	
56	-2.80000e+00	1.986911e+07	
57	-2.85000e+00	2.013367e+07	
58	-2.90000e+00	2.038836e+07	
59	-2.95000e+00	2.063387e+07	
60	-3.00000e+00	2.087079e+07	
61	-3.05000e+00	2.109968e+07	
62	-3.10000e+00	2.132101e+07	
63	-3.15000e+00	2.153522e+07	
64	-3.20000e+00	2.174270e+07	
65	-3.25000e+00	2.194380e+07	
66	-3.30000e+00	2.213886e+07	
67	-3.35000e+00	2.232817e+07	
68	-3.40000e+00	2.251200e+07	
69	-3.45000e+00	2.269062e+07	
70	-3.50000e+00	2.286427e+07	
71	-3.55000e+00	2.303315e+07	
72	-3.60000e+00	2.319748e+07	
73	-3.65000e+00	2.335745e+07	
74	-3.70000e+00	2.351324e+07	
75	-3.75000e+00	2.366502e+07	
76	-3.80000e+00	2.381296e+07	
77	-3.85000e+00	2.395719e+07	
78	-3.90000e+00	2.409786e+07	
79	-3.95000e+00	2.423511e+07	
80	-4.00000e+00	2.436907e+07	
81	-4.05000e+00	2.449985e+07	
82	-4.10000e+00	2.462756e+07	
83	-4.15000e+00	2.475233e+07	
84	-4.20000e+00	2.487424e+07	
85	-4.25000e+00	2.499340e+07	
86	-4.30000e+00	2.510990e+07	
87	-4.35000e+00	2.522383e+07	
88	-4.40000e+00	2.533528e+07	
89	-4.45000e+00	2.544432e+07	
90	-4.50000e+00	2.555103e+07	
91	-4.55000e+00	2.565549e+07	
92	-4.60000e+00	2.575777e+07	
93	-4.65000e+00	2.585793e+07	
94	-4.70000e+00	2.595604e+07	
95	-4.75000e+00	2.605216e+07	
96	-4.80000e+00	2.614635e+07	
97	-4.85000e+00	2.623866e+07	
98	-4.90000e+00	2.632916e+07	
99	-4.95000e+00	2.641789e+07	
100	-5.00000e+00	2.650490e+07	
101	-5.05000e+00	2.659024e+07	
102	-5.10000e+00	2.667395e+07	
103	-5.15000e+00	2.675609e+07	
104	-5.20000e+00	2.683668e+07	
105	-5.25000e+00	2.691578e+07	
106	-5.30000e+00	2.699342e+07	
107	-5.35000e+00	2.706964e+07	
108	-5.40000e+00	2.714447e+07	
109	-5.45000e+00	2.721795e+07	
110	-5.50000e+00	2.729011e+07	
111	-5.55000e+00	2.736098e+07	
112	-5.60000e+00	2.743060e+07	

Index   v-sweep         rds             
--------------------------------------------------------------------------------
113	-5.65000e+00	2.749899e+07	
114	-5.70000e+00	2.756618e+07	
115	-5.75000e+00	2.763220e+07	
116	-5.80000e+00	2.769707e+07	
117	-5.85000e+00	2.776082e+07	
118	-5.90000e+00	2.782347e+07	
119	-5.95000e+00	2.788504e+07	
120	-6.00000e+00	2.794557e+07	
121	-6.05000e+00	2.800506e+07	
122	-6.10000e+00	2.806354e+07	
123	-6.15000e+00	2.812104e+07	
124	-6.20000e+00	2.817756e+07	
125	-6.25000e+00	2.823312e+07	
126	-6.30000e+00	2.828775e+07	
127	-6.35000e+00	2.834147e+07	
128	-6.40000e+00	2.839428e+07	
129	-6.45000e+00	2.844620e+07	
130	-6.50000e+00	2.849725e+07	
131	-6.55000e+00	2.854744e+07	
132	-6.60000e+00	2.859679e+07	
Reset re-loads circuit ***************************

Circuit: ***************************

Doing analysis at TEMP = 125.000000 and TNOM = 125.000000


No. of Data Rows : 133
                          ***************************
                          DC transfer characteristic  Mon Jan  9 13:57:55  2023
--------------------------------------------------------------------------------
Index   v-sweep         rds             
--------------------------------------------------------------------------------
0	0.000000e+00	1.114376e+05	
1	-5.00000e-02	1.138605e+05	
2	-1.00000e-01	1.163898e+05	
3	-1.50000e-01	1.190325e+05	
4	-2.00000e-01	1.217965e+05	
5	-2.50000e-01	1.246904e+05	
6	-3.00000e-01	1.277235e+05	
7	-3.50000e-01	1.309060e+05	
8	-4.00000e-01	1.342494e+05	
9	-4.50000e-01	1.377661e+05	
10	-5.00000e-01	1.414700e+05	
11	-5.50000e-01	1.453763e+05	
12	-6.00000e-01	1.495022e+05	
13	-6.50000e-01	1.538666e+05	
14	-7.00000e-01	1.584909e+05	
15	-7.50000e-01	1.633989e+05	
16	-8.00000e-01	1.686176e+05	
17	-8.50000e-01	1.741773e+05	
18	-9.00000e-01	1.801127e+05	
19	-9.50000e-01	1.864630e+05	
20	-1.00000e+00	1.932732e+05	
21	-1.05000e+00	2.005951e+05	
22	-1.10000e+00	2.084885e+05	
23	-1.15000e+00	2.170227e+05	
24	-1.20000e+00	2.262790e+05	
25	-1.25000e+00	2.363525e+05	
26	-1.30000e+00	2.473562e+05	
27	-1.35000e+00	2.594245e+05	
28	-1.40000e+00	2.727186e+05	
29	-1.45000e+00	2.874342e+05	
30	-1.50000e+00	3.038100e+05	
31	-1.55000e+00	3.221410e+05	
32	-1.60000e+00	3.427951e+05	
33	-1.65000e+00	3.662367e+05	
34	-1.70000e+00	3.930602e+05	
35	-1.75000e+00	4.240363e+05	
36	-1.80000e+00	4.601797e+05	
37	-1.85000e+00	5.028490e+05	
38	-1.90000e+00	5.538932e+05	
39	-1.95000e+00	6.158733e+05	
40	-2.00000e+00	6.923944e+05	
41	-2.05000e+00	7.885995e+05	
42	-2.10000e+00	9.118725e+05	
43	-2.15000e+00	1.072739e+06	
44	-2.20000e+00	1.285725e+06	
45	-2.25000e+00	1.569341e+06	
46	-2.30000e+00	1.943434e+06	
47	-2.35000e+00	2.421859e+06	
48	-2.40000e+00	3.001391e+06	
49	-2.45000e+00	3.654436e+06	
50	-2.50000e+00	4.334934e+06	
51	-2.55000e+00	4.995725e+06	
52	-2.60000e+00	5.603995e+06	
53	-2.65000e+00	6.145514e+06	
54	-2.70000e+00	6.620074e+06	

Index   v-sweep         rds             
--------------------------------------------------------------------------------
55	-2.75000e+00	7.034794e+06	
56	-2.80000e+00	7.399144e+06	
57	-2.85000e+00	7.722294e+06	
58	-2.90000e+00	8.012079e+06	
59	-2.95000e+00	8.274811e+06	
60	-3.00000e+00	8.515432e+06	
61	-3.05000e+00	8.737768e+06	
62	-3.10000e+00	8.944778e+06	
63	-3.15000e+00	9.138765e+06	
64	-3.20000e+00	9.321530e+06	
65	-3.25000e+00	9.494503e+06	
66	-3.30000e+00	9.658831e+06	
67	-3.35000e+00	9.815445e+06	
68	-3.40000e+00	9.965112e+06	
69	-3.45000e+00	1.010847e+07	
70	-3.50000e+00	1.024605e+07	
71	-3.55000e+00	1.037833e+07	
72	-3.60000e+00	1.050569e+07	
73	-3.65000e+00	1.062847e+07	
74	-3.70000e+00	1.074699e+07	
75	-3.75000e+00	1.086150e+07	
76	-3.80000e+00	1.097226e+07	
77	-3.85000e+00	1.107947e+07	
78	-3.90000e+00	1.118332e+07	
79	-3.95000e+00	1.128401e+07	
80	-4.00000e+00	1.138168e+07	
81	-4.05000e+00	1.147649e+07	
82	-4.10000e+00	1.156856e+07	
83	-4.15000e+00	1.165804e+07	
84	-4.20000e+00	1.174504e+07	
85	-4.25000e+00	1.182966e+07	
86	-4.30000e+00	1.191202e+07	
87	-4.35000e+00	1.199219e+07	
88	-4.40000e+00	1.207028e+07	
89	-4.45000e+00	1.214637e+07	
90	-4.50000e+00	1.222054e+07	
91	-4.55000e+00	1.229285e+07	
92	-4.60000e+00	1.236339e+07	
93	-4.65000e+00	1.243222e+07	
94	-4.70000e+00	1.249941e+07	
95	-4.75000e+00	1.256500e+07	
96	-4.80000e+00	1.262906e+07	
97	-4.85000e+00	1.269165e+07	
98	-4.90000e+00	1.275281e+07	
99	-4.95000e+00	1.281260e+07	
100	-5.00000e+00	1.287105e+07	
101	-5.05000e+00	1.292822e+07	
102	-5.10000e+00	1.298414e+07	
103	-5.15000e+00	1.303886e+07	
104	-5.20000e+00	1.309241e+07	
105	-5.25000e+00	1.314484e+07	
106	-5.30000e+00	1.319617e+07	
107	-5.35000e+00	1.324645e+07	
108	-5.40000e+00	1.329569e+07	
109	-5.45000e+00	1.334394e+07	
110	-5.50000e+00	1.339123e+07	
111	-5.55000e+00	1.343757e+07	
112	-5.60000e+00	1.348300e+07	

Index   v-sweep         rds             
--------------------------------------------------------------------------------
113	-5.65000e+00	1.352755e+07	
114	-5.70000e+00	1.357124e+07	
115	-5.75000e+00	1.361409e+07	
116	-5.80000e+00	1.365612e+07	
117	-5.85000e+00	1.369736e+07	
118	-5.90000e+00	1.373784e+07	
119	-5.95000e+00	1.377756e+07	
120	-6.00000e+00	1.381655e+07	
121	-6.05000e+00	1.385482e+07	
122	-6.10000e+00	1.389240e+07	
123	-6.15000e+00	1.392931e+07	
124	-6.20000e+00	1.396555e+07	
125	-6.25000e+00	1.400115e+07	
126	-6.30000e+00	1.403611e+07	
127	-6.35000e+00	1.407047e+07	
128	-6.40000e+00	1.410422e+07	
129	-6.45000e+00	1.413738e+07	
130	-6.50000e+00	1.416996e+07	
131	-6.55000e+00	1.420199e+07	
132	-6.60000e+00	1.423346e+07	
Reset re-loads circuit ***************************

Circuit: ***************************

Doing analysis at TEMP = 125.000000 and TNOM = 125.000000


No. of Data Rows : 133
                          ***************************
                          DC transfer characteristic  Mon Jan  9 13:57:55  2023
--------------------------------------------------------------------------------
Index   v-sweep         rds             
--------------------------------------------------------------------------------
0	0.000000e+00	8.971822e+04	
1	-5.00000e-02	9.119574e+04	
2	-1.00000e-01	9.272195e+04	
3	-1.50000e-01	9.429929e+04	
4	-2.00000e-01	9.593039e+04	
5	-2.50000e-01	9.761803e+04	
6	-3.00000e-01	9.936521e+04	
7	-3.50000e-01	1.011751e+05	
8	-4.00000e-01	1.030512e+05	
9	-4.50000e-01	1.049972e+05	
10	-5.00000e-01	1.070170e+05	
11	-5.50000e-01	1.091150e+05	
12	-6.00000e-01	1.112957e+05	
13	-6.50000e-01	1.135642e+05	
14	-7.00000e-01	1.159259e+05	
15	-7.50000e-01	1.183865e+05	
16	-8.00000e-01	1.209526e+05	
17	-8.50000e-01	1.236309e+05	
18	-9.00000e-01	1.264290e+05	
19	-9.50000e-01	1.293551e+05	
20	-1.00000e+00	1.324183e+05	
21	-1.05000e+00	1.356283e+05	
22	-1.10000e+00	1.389960e+05	
23	-1.15000e+00	1.425333e+05	
24	-1.20000e+00	1.462532e+05	
25	-1.25000e+00	1.501704e+05	
26	-1.30000e+00	1.543008e+05	
27	-1.35000e+00	1.586624e+05	
28	-1.40000e+00	1.632752e+05	
29	-1.45000e+00	1.681613e+05	
30	-1.50000e+00	1.733459e+05	
31	-1.55000e+00	1.788570e+05	
32	-1.60000e+00	1.847264e+05	
33	-1.65000e+00	1.909902e+05	
34	-1.70000e+00	1.976893e+05	
35	-1.75000e+00	2.048707e+05	
36	-1.80000e+00	2.125881e+05	
37	-1.85000e+00	2.209036e+05	
38	-1.90000e+00	2.298892e+05	
39	-1.95000e+00	2.396289e+05	
40	-2.00000e+00	2.502210e+05	
41	-2.05000e+00	2.617817e+05	
42	-2.10000e+00	2.744491e+05	
43	-2.15000e+00	2.883883e+05	
44	-2.20000e+00	3.037985e+05	
45	-2.25000e+00	3.209221e+05	
46	-2.30000e+00	3.400564e+05	
47	-2.35000e+00	3.615698e+05	
48	-2.40000e+00	3.859234e+05	
49	-2.45000e+00	4.137009e+05	
50	-2.50000e+00	4.456488e+05	
51	-2.55000e+00	4.827337e+05	
52	-2.60000e+00	5.262211e+05	
53	-2.65000e+00	5.777851e+05	
54	-2.70000e+00	6.396590e+05	

Index   v-sweep         rds             
--------------------------------------------------------------------------------
55	-2.75000e+00	7.148341e+05	
56	-2.80000e+00	8.073027e+05	
57	-2.85000e+00	9.223021e+05	
58	-2.90000e+00	1.066428e+06	
59	-2.95000e+00	1.247320e+06	
60	-3.00000e+00	1.472427e+06	
61	-3.05000e+00	1.746412e+06	
62	-3.10000e+00	2.067555e+06	
63	-3.15000e+00	2.425106e+06	
64	-3.20000e+00	2.800356e+06	
65	-3.25000e+00	3.171968e+06	
66	-3.30000e+00	3.522372e+06	
67	-3.35000e+00	3.841325e+06	
68	-3.40000e+00	4.125668e+06	
69	-3.45000e+00	4.377012e+06	
70	-3.50000e+00	4.599280e+06	
71	-3.55000e+00	4.797007e+06	
72	-3.60000e+00	4.974450e+06	
73	-3.65000e+00	5.135244e+06	
74	-3.70000e+00	5.282339e+06	
75	-3.75000e+00	5.418079e+06	
76	-3.80000e+00	5.544302e+06	
77	-3.85000e+00	5.662453e+06	
78	-3.90000e+00	5.773666e+06	
79	-3.95000e+00	5.878844e+06	
80	-4.00000e+00	5.978708e+06	
81	-4.05000e+00	6.073845e+06	
82	-4.10000e+00	6.164735e+06	
83	-4.15000e+00	6.251776e+06	
84	-4.20000e+00	6.335303e+06	
85	-4.25000e+00	6.415599e+06	
86	-4.30000e+00	6.492909e+06	
87	-4.35000e+00	6.567446e+06	
88	-4.40000e+00	6.639393e+06	
89	-4.45000e+00	6.708915e+06	
90	-4.50000e+00	6.776159e+06	
91	-4.55000e+00	6.841254e+06	
92	-4.60000e+00	6.904320e+06	
93	-4.65000e+00	6.965462e+06	
94	-4.70000e+00	7.024780e+06	
95	-4.75000e+00	7.082363e+06	
96	-4.80000e+00	7.138295e+06	
97	-4.85000e+00	7.192650e+06	
98	-4.90000e+00	7.245501e+06	
99	-4.95000e+00	7.296914e+06	
100	-5.00000e+00	7.346950e+06	
101	-5.05000e+00	7.395667e+06	
102	-5.10000e+00	7.443120e+06	
103	-5.15000e+00	7.489358e+06	
104	-5.20000e+00	7.534430e+06	
105	-5.25000e+00	7.578381e+06	
106	-5.30000e+00	7.621253e+06	
107	-5.35000e+00	7.663087e+06	
108	-5.40000e+00	7.703922e+06	
109	-5.45000e+00	7.743792e+06	
110	-5.50000e+00	7.782733e+06	
111	-5.55000e+00	7.820778e+06	
112	-5.60000e+00	7.857956e+06	

Index   v-sweep         rds             
--------------------------------------------------------------------------------
113	-5.65000e+00	7.894299e+06	
114	-5.70000e+00	7.929833e+06	
115	-5.75000e+00	7.964586e+06	
116	-5.80000e+00	7.998584e+06	
117	-5.85000e+00	8.031850e+06	
118	-5.90000e+00	8.064408e+06	
119	-5.95000e+00	8.096281e+06	
120	-6.00000e+00	8.127490e+06	
121	-6.05000e+00	8.158054e+06	
122	-6.10000e+00	8.187995e+06	
123	-6.15000e+00	8.217329e+06	
124	-6.20000e+00	8.246077e+06	
125	-6.25000e+00	8.274253e+06	
126	-6.30000e+00	8.301875e+06	
127	-6.35000e+00	8.328960e+06	
128	-6.40000e+00	8.355520e+06	
129	-6.45000e+00	8.381572e+06	
130	-6.50000e+00	8.407130e+06	
131	-6.55000e+00	8.432206e+06	
132	-6.60000e+00	8.456813e+06	
Reset re-loads circuit ***************************

Circuit: ***************************

Doing analysis at TEMP = 125.000000 and TNOM = 125.000000


No. of Data Rows : 133
                          ***************************
                          DC transfer characteristic  Mon Jan  9 13:57:55  2023
--------------------------------------------------------------------------------
Index   v-sweep         rds             
--------------------------------------------------------------------------------
0	0.000000e+00	7.591819e+04	
1	-5.00000e-02	7.692109e+04	
2	-1.00000e-01	7.795032e+04	
3	-1.50000e-01	7.900694e+04	
4	-2.00000e-01	8.009205e+04	
5	-2.50000e-01	8.120683e+04	
6	-3.00000e-01	8.235251e+04	
7	-3.50000e-01	8.353039e+04	
8	-4.00000e-01	8.474183e+04	
9	-4.50000e-01	8.598832e+04	
10	-5.00000e-01	8.727137e+04	
11	-5.50000e-01	8.859263e+04	
12	-6.00000e-01	8.995382e+04	
13	-6.50000e-01	9.135679e+04	
14	-7.00000e-01	9.280349e+04	
15	-7.50000e-01	9.429599e+04	
16	-8.00000e-01	9.583650e+04	
17	-8.50000e-01	9.742738e+04	
18	-9.00000e-01	9.907113e+04	
19	-9.50000e-01	1.007704e+05	
20	-1.00000e+00	1.025282e+05	
21	-1.05000e+00	1.043474e+05	
22	-1.10000e+00	1.062314e+05	
23	-1.15000e+00	1.081836e+05	
24	-1.20000e+00	1.102079e+05	
25	-1.25000e+00	1.123084e+05	
26	-1.30000e+00	1.144893e+05	
27	-1.35000e+00	1.167555e+05	
28	-1.40000e+00	1.191120e+05	
29	-1.45000e+00	1.215642e+05	
30	-1.50000e+00	1.241183e+05	
31	-1.55000e+00	1.267805e+05	
32	-1.60000e+00	1.295580e+05	
33	-1.65000e+00	1.324584e+05	
34	-1.70000e+00	1.354900e+05	
35	-1.75000e+00	1.386619e+05	
36	-1.80000e+00	1.419841e+05	
37	-1.85000e+00	1.454675e+05	
38	-1.90000e+00	1.491241e+05	
39	-1.95000e+00	1.529672e+05	
40	-2.00000e+00	1.570112e+05	
41	-2.05000e+00	1.612725e+05	
42	-2.10000e+00	1.657689e+05	
43	-2.15000e+00	1.705204e+05	
44	-2.20000e+00	1.755493e+05	
45	-2.25000e+00	1.808804e+05	
46	-2.30000e+00	1.865420e+05	
47	-2.35000e+00	1.925654e+05	
48	-2.40000e+00	1.989864e+05	
49	-2.45000e+00	2.058455e+05	
50	-2.50000e+00	2.131888e+05	
51	-2.55000e+00	2.210693e+05	
52	-2.60000e+00	2.295477e+05	
53	-2.65000e+00	2.386941e+05	
54	-2.70000e+00	2.485900e+05	

Index   v-sweep         rds             
--------------------------------------------------------------------------------
55	-2.75000e+00	2.593305e+05	
56	-2.80000e+00	2.710273e+05	
57	-2.85000e+00	2.838121e+05	
58	-2.90000e+00	2.978416e+05	
59	-2.95000e+00	3.133035e+05	
60	-3.00000e+00	3.304237e+05	
61	-3.05000e+00	3.494768e+05	
62	-3.10000e+00	3.707990e+05	
63	-3.15000e+00	3.948050e+05	
64	-3.20000e+00	4.220109e+05	
65	-3.25000e+00	4.530639e+05	
66	-3.30000e+00	4.887815e+05	
67	-3.35000e+00	5.302026e+05	
68	-3.40000e+00	5.786520e+05	
69	-3.45000e+00	6.358179e+05	
70	-3.50000e+00	7.038347e+05	
71	-3.55000e+00	7.853497e+05	
72	-3.60000e+00	8.835197e+05	
73	-3.65000e+00	1.001841e+06	
74	-3.70000e+00	1.143663e+06	
75	-3.75000e+00	1.311249e+06	
76	-3.80000e+00	1.504436e+06	
77	-3.85000e+00	1.719374e+06	
78	-3.90000e+00	1.948257e+06	
79	-3.95000e+00	2.180713e+06	
80	-4.00000e+00	2.406421e+06	
81	-4.05000e+00	2.617566e+06	
82	-4.10000e+00	2.809908e+06	
83	-4.15000e+00	2.982428e+06	
84	-4.20000e+00	3.136245e+06	
85	-4.25000e+00	3.273530e+06	
86	-4.30000e+00	3.396735e+06	
87	-4.35000e+00	3.508174e+06	
88	-4.40000e+00	3.609845e+06	
89	-4.45000e+00	3.703394e+06	
90	-4.50000e+00	3.790145e+06	
91	-4.55000e+00	3.871150e+06	
92	-4.60000e+00	3.947243e+06	
93	-4.65000e+00	4.019086e+06	
94	-4.70000e+00	4.087209e+06	
95	-4.75000e+00	4.152040e+06	
96	-4.80000e+00	4.213926e+06	
97	-4.85000e+00	4.273155e+06	
98	-4.90000e+00	4.329966e+06	
99	-4.95000e+00	4.384562e+06	
100	-5.00000e+00	4.437114e+06	
101	-5.05000e+00	4.487771e+06	
102	-5.10000e+00	4.536662e+06	
103	-5.15000e+00	4.583902e+06	
104	-5.20000e+00	4.629590e+06	
105	-5.25000e+00	4.673817e+06	
106	-5.30000e+00	4.716664e+06	
107	-5.35000e+00	4.758205e+06	
108	-5.40000e+00	4.798506e+06	
109	-5.45000e+00	4.837628e+06	
110	-5.50000e+00	4.875628e+06	
111	-5.55000e+00	4.912558e+06	
112	-5.60000e+00	4.948466e+06	

Index   v-sweep         rds             
--------------------------------------------------------------------------------
113	-5.65000e+00	4.983397e+06	
114	-5.70000e+00	5.017393e+06	
115	-5.75000e+00	5.050493e+06	
116	-5.80000e+00	5.082733e+06	
117	-5.85000e+00	5.114148e+06	
118	-5.90000e+00	5.144770e+06	
119	-5.95000e+00	5.174631e+06	
120	-6.00000e+00	5.203758e+06	
121	-6.05000e+00	5.232180e+06	
122	-6.10000e+00	5.259922e+06	
123	-6.15000e+00	5.287009e+06	
124	-6.20000e+00	5.313463e+06	
125	-6.25000e+00	5.339308e+06	
126	-6.30000e+00	5.364564e+06	
127	-6.35000e+00	5.389251e+06	
128	-6.40000e+00	5.413389e+06	
129	-6.45000e+00	5.436995e+06	
130	-6.50000e+00	5.460088e+06	
131	-6.55000e+00	5.482683e+06	
132	-6.60000e+00	5.504796e+06	
Reset re-loads circuit ***************************

Circuit: ***************************

Note: No ".plot", ".print", or ".fourier" lines; no simulations run
