
Note: Compatibility modes selected: hs

Warning: m=xx on .subckt line will override multiplier m hierarchy!


Circuit: ***************************

Doing analysis at TEMP = -40.000000 and TNOM = -40.000000


No. of Data Rows : 133
                          ***************************
                          DC transfer characteristic  Mon Jan  9 13:57:55  2023
--------------------------------------------------------------------------------
Index   v-sweep         rds             
--------------------------------------------------------------------------------
0	0.000000e+00	9.928791e+05	
1	-5.00000e-02	2.123266e+06	
2	-1.00000e-01	8.401787e+06	
3	-1.50000e-01	3.515317e+07	
4	-2.00000e-01	7.693257e+07	
5	-2.50000e-01	1.116861e+08	
6	-3.00000e-01	1.371370e+08	
7	-3.50000e-01	1.571038e+08	
8	-4.00000e-01	1.741277e+08	
9	-4.50000e-01	1.894938e+08	
10	-5.00000e-01	2.038474e+08	
11	-5.50000e-01	2.175284e+08	
12	-6.00000e-01	2.307265e+08	
13	-6.50000e-01	2.435537e+08	
14	-7.00000e-01	2.560794e+08	
15	-7.50000e-01	2.683490e+08	
16	-8.00000e-01	2.803932e+08	
17	-8.50000e-01	2.922335e+08	
18	-9.00000e-01	3.038860e+08	
19	-9.50000e-01	3.153625e+08	
20	-1.00000e+00	3.266724e+08	
21	-1.05000e+00	3.378232e+08	
22	-1.10000e+00	3.488212e+08	
23	-1.15000e+00	3.596715e+08	
24	-1.20000e+00	3.703788e+08	
25	-1.25000e+00	3.809469e+08	
26	-1.30000e+00	3.913795e+08	
27	-1.35000e+00	4.016797e+08	
28	-1.40000e+00	4.118506e+08	
29	-1.45000e+00	4.218950e+08	
30	-1.50000e+00	4.318153e+08	
31	-1.55000e+00	4.416140e+08	
32	-1.60000e+00	4.512934e+08	
33	-1.65000e+00	4.608558e+08	
34	-1.70000e+00	4.703033e+08	
35	-1.75000e+00	4.796378e+08	
36	-1.80000e+00	4.888614e+08	
37	-1.85000e+00	4.979759e+08	
38	-1.90000e+00	5.069832e+08	
39	-1.95000e+00	5.158850e+08	
40	-2.00000e+00	5.246831e+08	
41	-2.05000e+00	5.333792e+08	
42	-2.10000e+00	5.419748e+08	
43	-2.15000e+00	5.504717e+08	
44	-2.20000e+00	5.588713e+08	
45	-2.25000e+00	5.671752e+08	
46	-2.30000e+00	5.753848e+08	
47	-2.35000e+00	5.835017e+08	
48	-2.40000e+00	5.915273e+08	
49	-2.45000e+00	5.994628e+08	
50	-2.50000e+00	6.073098e+08	
51	-2.55000e+00	6.150696e+08	
52	-2.60000e+00	6.227434e+08	
53	-2.65000e+00	6.303325e+08	
54	-2.70000e+00	6.378382e+08	

Index   v-sweep         rds             
--------------------------------------------------------------------------------
55	-2.75000e+00	6.452617e+08	
56	-2.80000e+00	6.526043e+08	
57	-2.85000e+00	6.598670e+08	
58	-2.90000e+00	6.670511e+08	
59	-2.95000e+00	6.741576e+08	
60	-3.00000e+00	6.811877e+08	
61	-3.05000e+00	6.881424e+08	
62	-3.10000e+00	6.950229e+08	
63	-3.15000e+00	7.018300e+08	
64	-3.20000e+00	7.085650e+08	
65	-3.25000e+00	7.152286e+08	
66	-3.30000e+00	7.218219e+08	
67	-3.35000e+00	7.283459e+08	
68	-3.40000e+00	7.348013e+08	
69	-3.45000e+00	7.411892e+08	
70	-3.50000e+00	7.475104e+08	
71	-3.55000e+00	7.537658e+08	
72	-3.60000e+00	7.599561e+08	
73	-3.65000e+00	7.660822e+08	
74	-3.70000e+00	7.721448e+08	
75	-3.75000e+00	7.781448e+08	
76	-3.80000e+00	7.840827e+08	
77	-3.85000e+00	7.899595e+08	
78	-3.90000e+00	7.957756e+08	
79	-3.95000e+00	8.015319e+08	
80	-4.00000e+00	8.072289e+08	
81	-4.05000e+00	8.128673e+08	
82	-4.10000e+00	8.184476e+08	
83	-4.15000e+00	8.239706e+08	
84	-4.20000e+00	8.294366e+08	
85	-4.25000e+00	8.348463e+08	
86	-4.30000e+00	8.402002e+08	
87	-4.35000e+00	8.454988e+08	
88	-4.40000e+00	8.507425e+08	
89	-4.45000e+00	8.559319e+08	
90	-4.50000e+00	8.610673e+08	
91	-4.55000e+00	8.661493e+08	
92	-4.60000e+00	8.711781e+08	
93	-4.65000e+00	8.761543e+08	
94	-4.70000e+00	8.810781e+08	
95	-4.75000e+00	8.859500e+08	
96	-4.80000e+00	8.907702e+08	
97	-4.85000e+00	8.955392e+08	
98	-4.90000e+00	9.002571e+08	
99	-4.95000e+00	9.049244e+08	
100	-5.00000e+00	9.095412e+08	
101	-5.05000e+00	9.141079e+08	
102	-5.10000e+00	9.186248e+08	
103	-5.15000e+00	9.230920e+08	
104	-5.20000e+00	9.275098e+08	
105	-5.25000e+00	9.318784e+08	
106	-5.30000e+00	9.361981e+08	
107	-5.35000e+00	9.404690e+08	
108	-5.40000e+00	9.446913e+08	
109	-5.45000e+00	9.488652e+08	
110	-5.50000e+00	9.529910e+08	
111	-5.55000e+00	9.570687e+08	
112	-5.60000e+00	9.610985e+08	

Index   v-sweep         rds             
--------------------------------------------------------------------------------
113	-5.65000e+00	9.650806e+08	
114	-5.70000e+00	9.690151e+08	
115	-5.75000e+00	9.729021e+08	
116	-5.80000e+00	9.767419e+08	
117	-5.85000e+00	9.805345e+08	
118	-5.90000e+00	9.842801e+08	
119	-5.95000e+00	9.879787e+08	
120	-6.00000e+00	9.916305e+08	
121	-6.05000e+00	9.952357e+08	
122	-6.10000e+00	9.987943e+08	
123	-6.15000e+00	1.002306e+09	
124	-6.20000e+00	1.005772e+09	
125	-6.25000e+00	1.009192e+09	
126	-6.30000e+00	1.012565e+09	
127	-6.35000e+00	1.015893e+09	
128	-6.40000e+00	1.019174e+09	
129	-6.45000e+00	1.022410e+09	
130	-6.50000e+00	1.025600e+09	
131	-6.55000e+00	1.028745e+09	
132	-6.60000e+00	1.031844e+09	
Reset re-loads circuit ***************************

Circuit: ***************************

Doing analysis at TEMP = -40.000000 and TNOM = -40.000000


No. of Data Rows : 133
                          ***************************
                          DC transfer characteristic  Mon Jan  9 13:57:55  2023
--------------------------------------------------------------------------------
Index   v-sweep         rds             
--------------------------------------------------------------------------------
0	0.000000e+00	8.663842e+04	
1	-5.00000e-02	9.289407e+04	
2	-1.00000e-01	1.000392e+05	
3	-1.50000e-01	1.082773e+05	
4	-2.00000e-01	1.178787e+05	
5	-2.50000e-01	1.292099e+05	
6	-3.00000e-01	1.427805e+05	
7	-3.50000e-01	1.593184e+05	
8	-4.00000e-01	1.798975e+05	
9	-4.50000e-01	2.061603e+05	
10	-5.00000e-01	2.407224e+05	
11	-5.50000e-01	2.879219e+05	
12	-6.00000e-01	3.551817e+05	
13	-6.50000e-01	4.551156e+05	
14	-7.00000e-01	6.067382e+05	
15	-7.50000e-01	8.281776e+05	
16	-8.00000e-01	1.113856e+06	
17	-8.50000e-01	1.425271e+06	
18	-9.00000e-01	1.724261e+06	
19	-9.50000e-01	1.997349e+06	
20	-1.00000e+00	2.247011e+06	
21	-1.05000e+00	2.479331e+06	
22	-1.10000e+00	2.699375e+06	
23	-1.15000e+00	2.910585e+06	
24	-1.20000e+00	3.115178e+06	
25	-1.25000e+00	3.314575e+06	
26	-1.30000e+00	3.509703e+06	
27	-1.35000e+00	3.701185e+06	
28	-1.40000e+00	3.889449e+06	
29	-1.45000e+00	4.074799e+06	
30	-1.50000e+00	4.257461e+06	
31	-1.55000e+00	4.437602e+06	
32	-1.60000e+00	4.615355e+06	
33	-1.65000e+00	4.790824e+06	
34	-1.70000e+00	4.964098e+06	
35	-1.75000e+00	5.135247e+06	
36	-1.80000e+00	5.304336e+06	
37	-1.85000e+00	5.471419e+06	
38	-1.90000e+00	5.636546e+06	
39	-1.95000e+00	5.799760e+06	
40	-2.00000e+00	5.961104e+06	
41	-2.05000e+00	6.120614e+06	
42	-2.10000e+00	6.278326e+06	
43	-2.15000e+00	6.434274e+06	
44	-2.20000e+00	6.588489e+06	
45	-2.25000e+00	6.741002e+06	
46	-2.30000e+00	6.891842e+06	
47	-2.35000e+00	7.041037e+06	
48	-2.40000e+00	7.188614e+06	
49	-2.45000e+00	7.334598e+06	
50	-2.50000e+00	7.479016e+06	
51	-2.55000e+00	7.621892e+06	
52	-2.60000e+00	7.763250e+06	
53	-2.65000e+00	7.903114e+06	
54	-2.70000e+00	8.041505e+06	

Index   v-sweep         rds             
--------------------------------------------------------------------------------
55	-2.75000e+00	8.178447e+06	
56	-2.80000e+00	8.313960e+06	
57	-2.85000e+00	8.448067e+06	
58	-2.90000e+00	8.580788e+06	
59	-2.95000e+00	8.712143e+06	
60	-3.00000e+00	8.842153e+06	
61	-3.05000e+00	8.970836e+06	
62	-3.10000e+00	9.098212e+06	
63	-3.15000e+00	9.224299e+06	
64	-3.20000e+00	9.349117e+06	
65	-3.25000e+00	9.472682e+06	
66	-3.30000e+00	9.595012e+06	
67	-3.35000e+00	9.716125e+06	
68	-3.40000e+00	9.836038e+06	
69	-3.45000e+00	9.954767e+06	
70	-3.50000e+00	1.007233e+07	
71	-3.55000e+00	1.018874e+07	
72	-3.60000e+00	1.030401e+07	
73	-3.65000e+00	1.041816e+07	
74	-3.70000e+00	1.053121e+07	
75	-3.75000e+00	1.064316e+07	
76	-3.80000e+00	1.075404e+07	
77	-3.85000e+00	1.086385e+07	
78	-3.90000e+00	1.097261e+07	
79	-3.95000e+00	1.108034e+07	
80	-4.00000e+00	1.118704e+07	
81	-4.05000e+00	1.129273e+07	
82	-4.10000e+00	1.139742e+07	
83	-4.15000e+00	1.150113e+07	
84	-4.20000e+00	1.160385e+07	
85	-4.25000e+00	1.170562e+07	
86	-4.30000e+00	1.180642e+07	
87	-4.35000e+00	1.190629e+07	
88	-4.40000e+00	1.200522e+07	
89	-4.45000e+00	1.210323e+07	
90	-4.50000e+00	1.220032e+07	
91	-4.55000e+00	1.229651e+07	
92	-4.60000e+00	1.239180e+07	
93	-4.65000e+00	1.248620e+07	
94	-4.70000e+00	1.257972e+07	
95	-4.75000e+00	1.267237e+07	
96	-4.80000e+00	1.276415e+07	
97	-4.85000e+00	1.285507e+07	
98	-4.90000e+00	1.294515e+07	
99	-4.95000e+00	1.303437e+07	
100	-5.00000e+00	1.312276e+07	
101	-5.05000e+00	1.321031e+07	
102	-5.10000e+00	1.329704e+07	
103	-5.15000e+00	1.338294e+07	
104	-5.20000e+00	1.346802e+07	
105	-5.25000e+00	1.355228e+07	
106	-5.30000e+00	1.363574e+07	
107	-5.35000e+00	1.371839e+07	
108	-5.40000e+00	1.380023e+07	
109	-5.45000e+00	1.388128e+07	
110	-5.50000e+00	1.396153e+07	
111	-5.55000e+00	1.404098e+07	
112	-5.60000e+00	1.411965e+07	

Index   v-sweep         rds             
--------------------------------------------------------------------------------
113	-5.65000e+00	1.419752e+07	
114	-5.70000e+00	1.427461e+07	
115	-5.75000e+00	1.435091e+07	
116	-5.80000e+00	1.442643e+07	
117	-5.85000e+00	1.450117e+07	
118	-5.90000e+00	1.457513e+07	
119	-5.95000e+00	1.464831e+07	
120	-6.00000e+00	1.472071e+07	
121	-6.05000e+00	1.479233e+07	
122	-6.10000e+00	1.486317e+07	
123	-6.15000e+00	1.493324e+07	
124	-6.20000e+00	1.500253e+07	
125	-6.25000e+00	1.507105e+07	
126	-6.30000e+00	1.513879e+07	
127	-6.35000e+00	1.520575e+07	
128	-6.40000e+00	1.527194e+07	
129	-6.45000e+00	1.533736e+07	
130	-6.50000e+00	1.540200e+07	
131	-6.55000e+00	1.546587e+07	
132	-6.60000e+00	1.552895e+07	
Reset re-loads circuit ***************************

Circuit: ***************************

Doing analysis at TEMP = -40.000000 and TNOM = -40.000000


No. of Data Rows : 133
                          ***************************
                          DC transfer characteristic  Mon Jan  9 13:57:55  2023
--------------------------------------------------------------------------------
Index   v-sweep         rds             
--------------------------------------------------------------------------------
0	0.000000e+00	4.977367e+04	
1	-5.00000e-02	5.172193e+04	
2	-1.00000e-01	5.380879e+04	
3	-1.50000e-01	5.604954e+04	
4	-2.00000e-01	5.846180e+04	
5	-2.50000e-01	6.106599e+04	
6	-3.00000e-01	6.388589e+04	
7	-3.50000e-01	6.694938e+04	
8	-4.00000e-01	7.028933e+04	
9	-4.50000e-01	7.394481e+04	
10	-5.00000e-01	7.796256e+04	
11	-5.50000e-01	8.239900e+04	
12	-6.00000e-01	8.732283e+04	
13	-6.50000e-01	9.281852e+04	
14	-7.00000e-01	9.899109e+04	
15	-7.50000e-01	1.059726e+05	
16	-8.00000e-01	1.139312e+05	
17	-8.50000e-01	1.230841e+05	
18	-9.00000e-01	1.337161e+05	
19	-9.50000e-01	1.462059e+05	
20	-1.00000e+00	1.610657e+05	
21	-1.05000e+00	1.789963e+05	
22	-1.10000e+00	2.009647e+05	
23	-1.15000e+00	2.282964e+05	
24	-1.20000e+00	2.627438e+05	
25	-1.25000e+00	3.063989e+05	
26	-1.30000e+00	3.611741e+05	
27	-1.35000e+00	4.276419e+05	
28	-1.40000e+00	5.038628e+05	
29	-1.45000e+00	5.857768e+05	
30	-1.50000e+00	6.692845e+05	
31	-1.55000e+00	7.518360e+05	
32	-1.60000e+00	8.324299e+05	
33	-1.65000e+00	9.109219e+05	
34	-1.70000e+00	9.874823e+05	
35	-1.75000e+00	1.062341e+06	
36	-1.80000e+00	1.135703e+06	
37	-1.85000e+00	1.207726e+06	
38	-1.90000e+00	1.278533e+06	
39	-1.95000e+00	1.348213e+06	
40	-2.00000e+00	1.416838e+06	
41	-2.05000e+00	1.484461e+06	
42	-2.10000e+00	1.551126e+06	
43	-2.15000e+00	1.616868e+06	
44	-2.20000e+00	1.681719e+06	
45	-2.25000e+00	1.745704e+06	
46	-2.30000e+00	1.808846e+06	
47	-2.35000e+00	1.871166e+06	
48	-2.40000e+00	1.932683e+06	
49	-2.45000e+00	1.993415e+06	
50	-2.50000e+00	2.053378e+06	
51	-2.55000e+00	2.112588e+06	
52	-2.60000e+00	2.171059e+06	
53	-2.65000e+00	2.228805e+06	
54	-2.70000e+00	2.285840e+06	

Index   v-sweep         rds             
--------------------------------------------------------------------------------
55	-2.75000e+00	2.342178e+06	
56	-2.80000e+00	2.397830e+06	
57	-2.85000e+00	2.452808e+06	
58	-2.90000e+00	2.507126e+06	
59	-2.95000e+00	2.560793e+06	
60	-3.00000e+00	2.613822e+06	
61	-3.05000e+00	2.666223e+06	
62	-3.10000e+00	2.718006e+06	
63	-3.15000e+00	2.769183e+06	
64	-3.20000e+00	2.819764e+06	
65	-3.25000e+00	2.869757e+06	
66	-3.30000e+00	2.919173e+06	
67	-3.35000e+00	2.968022e+06	
68	-3.40000e+00	3.016313e+06	
69	-3.45000e+00	3.064053e+06	
70	-3.50000e+00	3.111254e+06	
71	-3.55000e+00	3.157922e+06	
72	-3.60000e+00	3.204068e+06	
73	-3.65000e+00	3.249698e+06	
74	-3.70000e+00	3.294821e+06	
75	-3.75000e+00	3.339445e+06	
76	-3.80000e+00	3.383578e+06	
77	-3.85000e+00	3.427227e+06	
78	-3.90000e+00	3.470400e+06	
79	-3.95000e+00	3.513104e+06	
80	-4.00000e+00	3.555347e+06	
81	-4.05000e+00	3.597135e+06	
82	-4.10000e+00	3.638475e+06	
83	-4.15000e+00	3.679374e+06	
84	-4.20000e+00	3.719838e+06	
85	-4.25000e+00	3.759874e+06	
86	-4.30000e+00	3.799488e+06	
87	-4.35000e+00	3.838686e+06	
88	-4.40000e+00	3.877474e+06	
89	-4.45000e+00	3.915858e+06	
90	-4.50000e+00	3.953843e+06	
91	-4.55000e+00	3.991436e+06	
92	-4.60000e+00	4.028641e+06	
93	-4.65000e+00	4.065463e+06	
94	-4.70000e+00	4.101908e+06	
95	-4.75000e+00	4.137980e+06	
96	-4.80000e+00	4.173685e+06	
97	-4.85000e+00	4.209027e+06	
98	-4.90000e+00	4.244010e+06	
99	-4.95000e+00	4.278639e+06	
100	-5.00000e+00	4.312917e+06	
101	-5.05000e+00	4.346849e+06	
102	-5.10000e+00	4.380440e+06	
103	-5.15000e+00	4.413691e+06	
104	-5.20000e+00	4.446608e+06	
105	-5.25000e+00	4.479193e+06	
106	-5.30000e+00	4.511450e+06	
107	-5.35000e+00	4.543382e+06	
108	-5.40000e+00	4.574991e+06	
109	-5.45000e+00	4.606282e+06	
110	-5.50000e+00	4.637256e+06	
111	-5.55000e+00	4.667916e+06	
112	-5.60000e+00	4.698265e+06	

Index   v-sweep         rds             
--------------------------------------------------------------------------------
113	-5.65000e+00	4.728305e+06	
114	-5.70000e+00	4.758038e+06	
115	-5.75000e+00	4.787466e+06	
116	-5.80000e+00	4.816591e+06	
117	-5.85000e+00	4.845415e+06	
118	-5.90000e+00	4.873939e+06	
119	-5.95000e+00	4.902166e+06	
120	-6.00000e+00	4.930097e+06	
121	-6.05000e+00	4.957733e+06	
122	-6.10000e+00	4.985076e+06	
123	-6.15000e+00	5.012126e+06	
124	-6.20000e+00	5.038884e+06	
125	-6.25000e+00	5.065353e+06	
126	-6.30000e+00	5.091531e+06	
127	-6.35000e+00	5.117422e+06	
128	-6.40000e+00	5.143024e+06	
129	-6.45000e+00	5.168340e+06	
130	-6.50000e+00	5.193369e+06	
131	-6.55000e+00	5.218111e+06	
132	-6.60000e+00	5.242568e+06	
Reset re-loads circuit ***************************

Circuit: ***************************

Doing analysis at TEMP = -40.000000 and TNOM = -40.000000


No. of Data Rows : 133
                          ***************************
                          DC transfer characteristic  Mon Jan  9 13:57:55  2023
--------------------------------------------------------------------------------
Index   v-sweep         rds             
--------------------------------------------------------------------------------
0	0.000000e+00	3.680294e+04	
1	-5.00000e-02	3.781217e+04	
2	-1.00000e-01	3.886948e+04	
3	-1.50000e-01	3.997837e+04	
4	-2.00000e-01	4.114270e+04	
5	-2.50000e-01	4.236672e+04	
6	-3.00000e-01	4.365512e+04	
7	-3.50000e-01	4.501309e+04	
8	-4.00000e-01	4.644642e+04	
9	-4.50000e-01	4.796153e+04	
10	-5.00000e-01	4.956560e+04	
11	-5.50000e-01	5.126668e+04	
12	-6.00000e-01	5.307381e+04	
13	-6.50000e-01	5.499720e+04	
14	-7.00000e-01	5.704841e+04	
15	-7.50000e-01	5.924055e+04	
16	-8.00000e-01	6.158863e+04	
17	-8.50000e-01	6.410983e+04	
18	-9.00000e-01	6.682394e+04	
19	-9.50000e-01	6.975390e+04	
20	-1.00000e+00	7.292637e+04	
21	-1.05000e+00	7.637261e+04	
22	-1.10000e+00	8.012941e+04	
23	-1.15000e+00	8.424040e+04	
24	-1.20000e+00	8.875768e+04	
25	-1.25000e+00	9.374395e+04	
26	-1.30000e+00	9.927520e+04	
27	-1.35000e+00	1.054444e+05	
28	-1.40000e+00	1.123660e+05	
29	-1.45000e+00	1.201825e+05	
30	-1.50000e+00	1.290723e+05	
31	-1.55000e+00	1.392604e+05	
32	-1.60000e+00	1.510306e+05	
33	-1.65000e+00	1.647404e+05	
34	-1.70000e+00	1.808309e+05	
35	-1.75000e+00	1.998244e+05	
36	-1.80000e+00	2.222847e+05	
37	-1.85000e+00	2.487095e+05	
38	-1.90000e+00	2.793416e+05	
39	-1.95000e+00	3.139696e+05	
40	-2.00000e+00	3.518842e+05	
41	-2.05000e+00	3.920860e+05	
42	-2.10000e+00	4.336034e+05	
43	-2.15000e+00	4.756948e+05	
44	-2.20000e+00	5.178774e+05	
45	-2.25000e+00	5.598656e+05	
46	-2.30000e+00	6.014990e+05	
47	-2.35000e+00	6.426898e+05	
48	-2.40000e+00	6.833911e+05	
49	-2.45000e+00	7.235789e+05	
50	-2.50000e+00	7.632420e+05	
51	-2.55000e+00	8.023771e+05	
52	-2.60000e+00	8.409850e+05	
53	-2.65000e+00	8.790695e+05	
54	-2.70000e+00	9.166362e+05	

Index   v-sweep         rds             
--------------------------------------------------------------------------------
55	-2.75000e+00	9.536915e+05	
56	-2.80000e+00	9.902427e+05	
57	-2.85000e+00	1.026297e+06	
58	-2.90000e+00	1.061864e+06	
59	-2.95000e+00	1.096949e+06	
60	-3.00000e+00	1.131563e+06	
61	-3.05000e+00	1.165712e+06	
62	-3.10000e+00	1.199404e+06	
63	-3.15000e+00	1.232649e+06	
64	-3.20000e+00	1.265453e+06	
65	-3.25000e+00	1.297824e+06	
66	-3.30000e+00	1.329771e+06	
67	-3.35000e+00	1.361300e+06	
68	-3.40000e+00	1.392420e+06	
69	-3.45000e+00	1.423136e+06	
70	-3.50000e+00	1.453457e+06	
71	-3.55000e+00	1.483390e+06	
72	-3.60000e+00	1.512941e+06	
73	-3.65000e+00	1.542117e+06	
74	-3.70000e+00	1.570925e+06	
75	-3.75000e+00	1.599371e+06	
76	-3.80000e+00	1.627462e+06	
77	-3.85000e+00	1.655203e+06	
78	-3.90000e+00	1.682602e+06	
79	-3.95000e+00	1.709662e+06	
80	-4.00000e+00	1.736392e+06	
81	-4.05000e+00	1.762796e+06	
82	-4.10000e+00	1.788879e+06	
83	-4.15000e+00	1.814648e+06	
84	-4.20000e+00	1.840108e+06	
85	-4.25000e+00	1.865263e+06	
86	-4.30000e+00	1.890120e+06	
87	-4.35000e+00	1.914682e+06	
88	-4.40000e+00	1.938956e+06	
89	-4.45000e+00	1.962945e+06	
90	-4.50000e+00	1.986654e+06	
91	-4.55000e+00	2.010089e+06	
92	-4.60000e+00	2.033253e+06	
93	-4.65000e+00	2.056151e+06	
94	-4.70000e+00	2.078786e+06	
95	-4.75000e+00	2.101165e+06	
96	-4.80000e+00	2.123289e+06	
97	-4.85000e+00	2.145164e+06	
98	-4.90000e+00	2.166793e+06	
99	-4.95000e+00	2.188180e+06	
100	-5.00000e+00	2.209329e+06	
101	-5.05000e+00	2.230243e+06	
102	-5.10000e+00	2.250926e+06	
103	-5.15000e+00	2.271381e+06	
104	-5.20000e+00	2.291612e+06	
105	-5.25000e+00	2.311621e+06	
106	-5.30000e+00	2.331412e+06	
107	-5.35000e+00	2.350988e+06	
108	-5.40000e+00	2.370352e+06	
109	-5.45000e+00	2.389506e+06	
110	-5.50000e+00	2.408454e+06	
111	-5.55000e+00	2.427197e+06	
112	-5.60000e+00	2.445739e+06	

Index   v-sweep         rds             
--------------------------------------------------------------------------------
113	-5.65000e+00	2.464082e+06	
114	-5.70000e+00	2.482228e+06	
115	-5.75000e+00	2.500180e+06	
116	-5.80000e+00	2.517940e+06	
117	-5.85000e+00	2.535509e+06	
118	-5.90000e+00	2.552891e+06	
119	-5.95000e+00	2.570086e+06	
120	-6.00000e+00	2.587096e+06	
121	-6.05000e+00	2.603924e+06	
122	-6.10000e+00	2.620571e+06	
123	-6.15000e+00	2.637038e+06	
124	-6.20000e+00	2.653327e+06	
125	-6.25000e+00	2.669440e+06	
126	-6.30000e+00	2.685377e+06	
127	-6.35000e+00	2.701140e+06	
128	-6.40000e+00	2.716731e+06	
129	-6.45000e+00	2.732149e+06	
130	-6.50000e+00	2.747397e+06	
131	-6.55000e+00	2.762475e+06	
132	-6.60000e+00	2.777384e+06	
Reset re-loads circuit ***************************

Circuit: ***************************

Doing analysis at TEMP = -40.000000 and TNOM = -40.000000


No. of Data Rows : 133
                          ***************************
                          DC transfer characteristic  Mon Jan  9 13:57:55  2023
--------------------------------------------------------------------------------
Index   v-sweep         rds             
--------------------------------------------------------------------------------
0	0.000000e+00	3.011866e+04	
1	-5.00000e-02	3.076003e+04	
2	-1.00000e-01	3.142439e+04	
3	-1.50000e-01	3.211300e+04	
4	-2.00000e-01	3.282722e+04	
5	-2.50000e-01	3.356847e+04	
6	-3.00000e-01	3.433833e+04	
7	-3.50000e-01	3.513847e+04	
8	-4.00000e-01	3.597071e+04	
9	-4.50000e-01	3.683701e+04	
10	-5.00000e-01	3.773950e+04	
11	-5.50000e-01	3.868048e+04	
12	-6.00000e-01	3.966246e+04	
13	-6.50000e-01	4.068817e+04	
14	-7.00000e-01	4.176059e+04	
15	-7.50000e-01	4.288296e+04	
16	-8.00000e-01	4.405885e+04	
17	-8.50000e-01	4.529217e+04	
18	-9.00000e-01	4.658721e+04	
19	-9.50000e-01	4.794872e+04	
20	-1.00000e+00	4.938192e+04	
21	-1.05000e+00	5.089260e+04	
22	-1.10000e+00	5.248721e+04	
23	-1.15000e+00	5.417291e+04	
24	-1.20000e+00	5.595771e+04	
25	-1.25000e+00	5.785057e+04	
26	-1.30000e+00	5.986157e+04	
27	-1.35000e+00	6.200209e+04	
28	-1.40000e+00	6.428499e+04	
29	-1.45000e+00	6.672488e+04	
30	-1.50000e+00	6.933844e+04	
31	-1.55000e+00	7.214480e+04	
32	-1.60000e+00	7.516592e+04	
33	-1.65000e+00	7.842725e+04	
34	-1.70000e+00	8.195833e+04	
35	-1.75000e+00	8.579368e+04	
36	-1.80000e+00	8.997386e+04	
37	-1.85000e+00	9.454677e+04	
38	-1.90000e+00	9.956931e+04	
39	-1.95000e+00	1.051094e+05	
40	-2.00000e+00	1.112488e+05	
41	-2.05000e+00	1.180858e+05	
42	-2.10000e+00	1.257393e+05	
43	-2.15000e+00	1.343530e+05	
44	-2.20000e+00	1.440988e+05	
45	-2.25000e+00	1.551793e+05	
46	-2.30000e+00	1.678240e+05	
47	-2.35000e+00	1.822752e+05	
48	-2.40000e+00	1.987541e+05	
49	-2.45000e+00	2.174058e+05	
50	-2.50000e+00	2.382345e+05	
51	-2.55000e+00	2.610657e+05	
52	-2.60000e+00	2.855679e+05	
53	-2.65000e+00	3.113288e+05	
54	-2.70000e+00	3.379426e+05	

Index   v-sweep         rds             
--------------------------------------------------------------------------------
55	-2.75000e+00	3.650652e+05	
56	-2.80000e+00	3.924327e+05	
57	-2.85000e+00	4.198541e+05	
58	-2.90000e+00	4.471964e+05	
59	-2.95000e+00	4.743686e+05	
60	-3.00000e+00	5.013089e+05	
61	-3.05000e+00	5.279761e+05	
62	-3.10000e+00	5.543427e+05	
63	-3.15000e+00	5.803910e+05	
64	-3.20000e+00	6.061099e+05	
65	-3.25000e+00	6.314930e+05	
66	-3.30000e+00	6.565373e+05	
67	-3.35000e+00	6.812421e+05	
68	-3.40000e+00	7.056084e+05	
69	-3.45000e+00	7.296385e+05	
70	-3.50000e+00	7.533356e+05	
71	-3.55000e+00	7.767035e+05	
72	-3.60000e+00	7.997465e+05	
73	-3.65000e+00	8.224691e+05	
74	-3.70000e+00	8.448762e+05	
75	-3.75000e+00	8.669729e+05	
76	-3.80000e+00	8.887641e+05	
77	-3.85000e+00	9.102550e+05	
78	-3.90000e+00	9.314509e+05	
79	-3.95000e+00	9.523567e+05	
80	-4.00000e+00	9.729777e+05	
81	-4.05000e+00	9.933188e+05	
82	-4.10000e+00	1.013385e+06	
83	-4.15000e+00	1.033182e+06	
84	-4.20000e+00	1.052713e+06	
85	-4.25000e+00	1.071985e+06	
86	-4.30000e+00	1.091001e+06	
87	-4.35000e+00	1.109766e+06	
88	-4.40000e+00	1.128285e+06	
89	-4.45000e+00	1.146561e+06	
90	-4.50000e+00	1.164601e+06	
91	-4.55000e+00	1.182407e+06	
92	-4.60000e+00	1.199985e+06	
93	-4.65000e+00	1.217337e+06	
94	-4.70000e+00	1.234469e+06	
95	-4.75000e+00	1.251383e+06	
96	-4.80000e+00	1.268085e+06	
97	-4.85000e+00	1.284577e+06	
98	-4.90000e+00	1.300863e+06	
99	-4.95000e+00	1.316948e+06	
100	-5.00000e+00	1.332834e+06	
101	-5.05000e+00	1.348525e+06	
102	-5.10000e+00	1.364024e+06	
103	-5.15000e+00	1.379335e+06	
104	-5.20000e+00	1.394460e+06	
105	-5.25000e+00	1.409404e+06	
106	-5.30000e+00	1.424168e+06	
107	-5.35000e+00	1.438757e+06	
108	-5.40000e+00	1.453172e+06	
109	-5.45000e+00	1.467417e+06	
110	-5.50000e+00	1.481495e+06	
111	-5.55000e+00	1.495407e+06	
112	-5.60000e+00	1.509158e+06	

Index   v-sweep         rds             
--------------------------------------------------------------------------------
113	-5.65000e+00	1.522749e+06	
114	-5.70000e+00	1.536182e+06	
115	-5.75000e+00	1.549461e+06	
116	-5.80000e+00	1.562588e+06	
117	-5.85000e+00	1.575564e+06	
118	-5.90000e+00	1.588392e+06	
119	-5.95000e+00	1.601074e+06	
120	-6.00000e+00	1.613613e+06	
121	-6.05000e+00	1.626009e+06	
122	-6.10000e+00	1.638266e+06	
123	-6.15000e+00	1.650384e+06	
124	-6.20000e+00	1.662366e+06	
125	-6.25000e+00	1.674214e+06	
126	-6.30000e+00	1.685928e+06	
127	-6.35000e+00	1.697511e+06	
128	-6.40000e+00	1.708965e+06	
129	-6.45000e+00	1.720289e+06	
130	-6.50000e+00	1.731487e+06	
131	-6.55000e+00	1.742559e+06	
132	-6.60000e+00	1.753506e+06	
Reset re-loads circuit ***************************

Circuit: ***************************

Doing analysis at TEMP = -40.000000 and TNOM = -40.000000


No. of Data Rows : 133
                          ***************************
                          DC transfer characteristic  Mon Jan  9 13:57:55  2023
--------------------------------------------------------------------------------
Index   v-sweep         rds             
--------------------------------------------------------------------------------
0	0.000000e+00	2.600746e+04	
1	-5.00000e-02	2.646200e+04	
2	-1.00000e-01	2.692961e+04	
3	-1.50000e-01	2.741086e+04	
4	-2.00000e-01	2.790635e+04	
5	-2.50000e-01	2.841672e+04	
6	-3.00000e-01	2.894264e+04	
7	-3.50000e-01	2.948484e+04	
8	-4.00000e-01	3.004406e+04	
9	-4.50000e-01	3.062114e+04	
10	-5.00000e-01	3.121692e+04	
11	-5.50000e-01	3.183234e+04	
12	-6.00000e-01	3.246836e+04	
13	-6.50000e-01	3.312605e+04	
14	-7.00000e-01	3.380651e+04	
15	-7.50000e-01	3.451096e+04	
16	-8.00000e-01	3.524067e+04	
17	-8.50000e-01	3.599702e+04	
18	-9.00000e-01	3.678149e+04	
19	-9.50000e-01	3.759568e+04	
20	-1.00000e+00	3.844129e+04	
21	-1.05000e+00	3.932018e+04	
22	-1.10000e+00	4.023435e+04	
23	-1.15000e+00	4.118594e+04	
24	-1.20000e+00	4.217731e+04	
25	-1.25000e+00	4.321097e+04	
26	-1.30000e+00	4.428971e+04	
27	-1.35000e+00	4.541650e+04	
28	-1.40000e+00	4.659464e+04	
29	-1.45000e+00	4.782768e+04	
30	-1.50000e+00	4.911956e+04	
31	-1.55000e+00	5.047457e+04	
32	-1.60000e+00	5.189743e+04	
33	-1.65000e+00	5.339335e+04	
34	-1.70000e+00	5.496807e+04	
35	-1.75000e+00	5.662798e+04	
36	-1.80000e+00	5.838014e+04	
37	-1.85000e+00	6.023242e+04	
38	-1.90000e+00	6.219362e+04	
39	-1.95000e+00	6.427357e+04	
40	-2.00000e+00	6.648333e+04	
41	-2.05000e+00	6.883537e+04	
42	-2.10000e+00	7.134379e+04	
43	-2.15000e+00	7.402458e+04	
44	-2.20000e+00	7.689600e+04	
45	-2.25000e+00	7.997889e+04	
46	-2.30000e+00	8.329726e+04	
47	-2.35000e+00	8.687878e+04	
48	-2.40000e+00	9.075554e+04	
49	-2.45000e+00	9.496493e+04	
50	-2.50000e+00	9.955071e+04	
51	-2.55000e+00	1.045643e+05	
52	-2.60000e+00	1.100665e+05	
53	-2.65000e+00	1.161292e+05	
54	-2.70000e+00	1.228374e+05	

Index   v-sweep         rds             
--------------------------------------------------------------------------------
55	-2.75000e+00	1.302917e+05	
56	-2.80000e+00	1.386090e+05	
57	-2.85000e+00	1.479220e+05	
58	-2.90000e+00	1.583728e+05	
59	-2.95000e+00	1.700976e+05	
60	-3.00000e+00	1.832007e+05	
61	-3.05000e+00	1.977201e+05	
62	-3.10000e+00	2.136009e+05	
63	-3.15000e+00	2.306928e+05	
64	-3.20000e+00	2.487775e+05	
65	-3.25000e+00	2.676110e+05	
66	-3.30000e+00	2.869614e+05	
67	-3.35000e+00	3.066308e+05	
68	-3.40000e+00	3.264619e+05	
69	-3.45000e+00	3.463352e+05	
70	-3.50000e+00	3.661627e+05	
71	-3.55000e+00	3.858803e+05	
72	-3.60000e+00	4.054426e+05	
73	-3.65000e+00	4.248169e+05	
74	-3.70000e+00	4.439806e+05	
75	-3.75000e+00	4.629181e+05	
76	-3.80000e+00	4.816189e+05	
77	-3.85000e+00	5.000763e+05	
78	-3.90000e+00	5.182864e+05	
79	-3.95000e+00	5.362472e+05	
80	-4.00000e+00	5.539585e+05	
81	-4.05000e+00	5.714210e+05	
82	-4.10000e+00	5.886364e+05	
83	-4.15000e+00	6.056070e+05	
84	-4.20000e+00	6.223355e+05	
85	-4.25000e+00	6.388251e+05	
86	-4.30000e+00	6.550791e+05	
87	-4.35000e+00	6.711010e+05	
88	-4.40000e+00	6.868946e+05	
89	-4.45000e+00	7.024636e+05	
90	-4.50000e+00	7.178118e+05	
91	-4.55000e+00	7.329431e+05	
92	-4.60000e+00	7.478612e+05	
93	-4.65000e+00	7.625701e+05	
94	-4.70000e+00	7.770734e+05	
95	-4.75000e+00	7.913749e+05	
96	-4.80000e+00	8.054784e+05	
97	-4.85000e+00	8.193874e+05	
98	-4.90000e+00	8.331057e+05	
99	-4.95000e+00	8.466367e+05	
100	-5.00000e+00	8.599838e+05	
101	-5.05000e+00	8.731506e+05	
102	-5.10000e+00	8.861404e+05	
103	-5.15000e+00	8.989564e+05	
104	-5.20000e+00	9.116019e+05	
105	-5.25000e+00	9.240800e+05	
106	-5.30000e+00	9.363937e+05	
107	-5.35000e+00	9.485462e+05	
108	-5.40000e+00	9.605403e+05	
109	-5.45000e+00	9.723790e+05	
110	-5.50000e+00	9.840650e+05	
111	-5.55000e+00	9.956012e+05	
112	-5.60000e+00	1.006990e+06	

Index   v-sweep         rds             
--------------------------------------------------------------------------------
113	-5.65000e+00	1.018235e+06	
114	-5.70000e+00	1.029337e+06	
115	-5.75000e+00	1.040300e+06	
116	-5.80000e+00	1.051126e+06	
117	-5.85000e+00	1.061817e+06	
118	-5.90000e+00	1.072376e+06	
119	-5.95000e+00	1.082805e+06	
120	-6.00000e+00	1.093106e+06	
121	-6.05000e+00	1.103281e+06	
122	-6.10000e+00	1.113333e+06	
123	-6.15000e+00	1.123263e+06	
124	-6.20000e+00	1.133074e+06	
125	-6.25000e+00	1.142767e+06	
126	-6.30000e+00	1.152344e+06	
127	-6.35000e+00	1.161807e+06	
128	-6.40000e+00	1.171158e+06	
129	-6.45000e+00	1.180399e+06	
130	-6.50000e+00	1.189530e+06	
131	-6.55000e+00	1.198555e+06	
132	-6.60000e+00	1.207473e+06	
Reset re-loads circuit ***************************

Circuit: ***************************

Note: No ".plot", ".print", or ".fourier" lines; no simulations run
