
Note: Compatibility modes selected: hs

Warning: m=xx on .subckt line will override multiplier m hierarchy!


Circuit: ***************************

Doing analysis at TEMP = -40.000000 and TNOM = -40.000000


No. of Data Rows : 133
                          ***************************
                          DC transfer characteristic  Mon Jan  9 13:57:54  2023
--------------------------------------------------------------------------------
Index   v-sweep         rds             
--------------------------------------------------------------------------------
0	0.000000e+00	2.004670e+04	
1	-5.00000e-02	4.965323e+04	
2	-1.00000e-01	2.239841e+05	
3	-1.50000e-01	6.451027e+05	
4	-2.00000e-01	9.626798e+05	
5	-2.50000e-01	1.139566e+06	
6	-3.00000e-01	1.251668e+06	
7	-3.50000e-01	1.333331e+06	
8	-4.00000e-01	1.398017e+06	
9	-4.50000e-01	1.451682e+06	
10	-5.00000e-01	1.497384e+06	
11	-5.50000e-01	1.536917e+06	
12	-6.00000e-01	1.571454e+06	
13	-6.50000e-01	1.601824e+06	
14	-7.00000e-01	1.628650e+06	
15	-7.50000e-01	1.652418e+06	
16	-8.00000e-01	1.673519e+06	
17	-8.50000e-01	1.692277e+06	
18	-9.00000e-01	1.708962e+06	
19	-9.50000e-01	1.723803e+06	
20	-1.00000e+00	1.736996e+06	
21	-1.05000e+00	1.748712e+06	
22	-1.10000e+00	1.759098e+06	
23	-1.15000e+00	1.768282e+06	
24	-1.20000e+00	1.776379e+06	
25	-1.25000e+00	1.783489e+06	
26	-1.30000e+00	1.789700e+06	
27	-1.35000e+00	1.795092e+06	
28	-1.40000e+00	1.799735e+06	
29	-1.45000e+00	1.803693e+06	
30	-1.50000e+00	1.807023e+06	
31	-1.55000e+00	1.809776e+06	
32	-1.60000e+00	1.811997e+06	
33	-1.65000e+00	1.813731e+06	
34	-1.70000e+00	1.815013e+06	
35	-1.75000e+00	1.815879e+06	
36	-1.80000e+00	1.816360e+06	
37	-1.85000e+00	1.816485e+06	
38	-1.90000e+00	1.816280e+06	
39	-1.95000e+00	1.815769e+06	
40	-2.00000e+00	1.814975e+06	
41	-2.05000e+00	1.813917e+06	
42	-2.10000e+00	1.812615e+06	
43	-2.15000e+00	1.811084e+06	
44	-2.20000e+00	1.809342e+06	
45	-2.25000e+00	1.807402e+06	
46	-2.30000e+00	1.805279e+06	
47	-2.35000e+00	1.802985e+06	
48	-2.40000e+00	1.800531e+06	
49	-2.45000e+00	1.797929e+06	
50	-2.50000e+00	1.795188e+06	
51	-2.55000e+00	1.792317e+06	
52	-2.60000e+00	1.789326e+06	
53	-2.65000e+00	1.786222e+06	
54	-2.70000e+00	1.783013e+06	

Index   v-sweep         rds             
--------------------------------------------------------------------------------
55	-2.75000e+00	1.779705e+06	
56	-2.80000e+00	1.776307e+06	
57	-2.85000e+00	1.772823e+06	
58	-2.90000e+00	1.769259e+06	
59	-2.95000e+00	1.765621e+06	
60	-3.00000e+00	1.761914e+06	
61	-3.05000e+00	1.758142e+06	
62	-3.10000e+00	1.754310e+06	
63	-3.15000e+00	1.750422e+06	
64	-3.20000e+00	1.746482e+06	
65	-3.25000e+00	1.742494e+06	
66	-3.30000e+00	1.738461e+06	
67	-3.35000e+00	1.734386e+06	
68	-3.40000e+00	1.730273e+06	
69	-3.45000e+00	1.726123e+06	
70	-3.50000e+00	1.721941e+06	
71	-3.55000e+00	1.717728e+06	
72	-3.60000e+00	1.713487e+06	
73	-3.65000e+00	1.709220e+06	
74	-3.70000e+00	1.704929e+06	
75	-3.75000e+00	1.700616e+06	
76	-3.80000e+00	1.696283e+06	
77	-3.85000e+00	1.691932e+06	
78	-3.90000e+00	1.687565e+06	
79	-3.95000e+00	1.683183e+06	
80	-4.00000e+00	1.678787e+06	
81	-4.05000e+00	1.674379e+06	
82	-4.10000e+00	1.669961e+06	
83	-4.15000e+00	1.665533e+06	
84	-4.20000e+00	1.661096e+06	
85	-4.25000e+00	1.656653e+06	
86	-4.30000e+00	1.652203e+06	
87	-4.35000e+00	1.647749e+06	
88	-4.40000e+00	1.643290e+06	
89	-4.45000e+00	1.638827e+06	
90	-4.50000e+00	1.634362e+06	
91	-4.55000e+00	1.629895e+06	
92	-4.60000e+00	1.625428e+06	
93	-4.65000e+00	1.620959e+06	
94	-4.70000e+00	1.616492e+06	
95	-4.75000e+00	1.612025e+06	
96	-4.80000e+00	1.607559e+06	
97	-4.85000e+00	1.603096e+06	
98	-4.90000e+00	1.598635e+06	
99	-4.95000e+00	1.594177e+06	
100	-5.00000e+00	1.589722e+06	
101	-5.05000e+00	1.585272e+06	
102	-5.10000e+00	1.580825e+06	
103	-5.15000e+00	1.576384e+06	
104	-5.20000e+00	1.571947e+06	
105	-5.25000e+00	1.567516e+06	
106	-5.30000e+00	1.563090e+06	
107	-5.35000e+00	1.558670e+06	
108	-5.40000e+00	1.554256e+06	
109	-5.45000e+00	1.549849e+06	
110	-5.50000e+00	1.545449e+06	
111	-5.55000e+00	1.541055e+06	
112	-5.60000e+00	1.536669e+06	

Index   v-sweep         rds             
--------------------------------------------------------------------------------
113	-5.65000e+00	1.532290e+06	
114	-5.70000e+00	1.527918e+06	
115	-5.75000e+00	1.523554e+06	
116	-5.80000e+00	1.519198e+06	
117	-5.85000e+00	1.514850e+06	
118	-5.90000e+00	1.510509e+06	
119	-5.95000e+00	1.506178e+06	
120	-6.00000e+00	1.501854e+06	
121	-6.05000e+00	1.497539e+06	
122	-6.10000e+00	1.493233e+06	
123	-6.15000e+00	1.488935e+06	
124	-6.20000e+00	1.484646e+06	
125	-6.25000e+00	1.480366e+06	
126	-6.30000e+00	1.476095e+06	
127	-6.35000e+00	1.471833e+06	
128	-6.40000e+00	1.467579e+06	
129	-6.45000e+00	1.463335e+06	
130	-6.50000e+00	1.459101e+06	
131	-6.55000e+00	1.454875e+06	
132	-6.60000e+00	1.450659e+06	
Reset re-loads circuit ***************************

Circuit: ***************************

Doing analysis at TEMP = -40.000000 and TNOM = -40.000000


No. of Data Rows : 133
                          ***************************
                          DC transfer characteristic  Mon Jan  9 13:57:54  2023
--------------------------------------------------------------------------------
Index   v-sweep         rds             
--------------------------------------------------------------------------------
0	0.000000e+00	1.362450e+03	
1	-5.00000e-02	1.466457e+03	
2	-1.00000e-01	1.584723e+03	
3	-1.50000e-01	1.720375e+03	
4	-2.00000e-01	1.877521e+03	
5	-2.50000e-01	2.061659e+03	
6	-3.00000e-01	2.280317e+03	
7	-3.50000e-01	2.544052e+03	
8	-4.00000e-01	2.868095e+03	
9	-4.50000e-01	3.275088e+03	
10	-5.00000e-01	3.799760e+03	
11	-5.50000e-01	4.496763e+03	
12	-6.00000e-01	5.452390e+03	
13	-6.50000e-01	6.794545e+03	
14	-7.00000e-01	8.670570e+03	
15	-7.50000e-01	1.113712e+04	
16	-8.00000e-01	1.403087e+04	
17	-8.50000e-01	1.706544e+04	
18	-9.00000e-01	2.004665e+04	
19	-9.50000e-01	2.290874e+04	
20	-1.00000e+00	2.564700e+04	
21	-1.05000e+00	2.827265e+04	
22	-1.10000e+00	3.079778e+04	
23	-1.15000e+00	3.323216e+04	
24	-1.20000e+00	3.558337e+04	
25	-1.25000e+00	3.785734e+04	
26	-1.30000e+00	4.005888e+04	
27	-1.35000e+00	4.219202e+04	
28	-1.40000e+00	4.426024e+04	
29	-1.45000e+00	4.626663e+04	
30	-1.50000e+00	4.821398e+04	
31	-1.55000e+00	5.010484e+04	
32	-1.60000e+00	5.194156e+04	
33	-1.65000e+00	5.372633e+04	
34	-1.70000e+00	5.546122e+04	
35	-1.75000e+00	5.714816e+04	
36	-1.80000e+00	5.878897e+04	
37	-1.85000e+00	6.038538e+04	
38	-1.90000e+00	6.193904e+04	
39	-1.95000e+00	6.345149e+04	
40	-2.00000e+00	6.492423e+04	
41	-2.05000e+00	6.635867e+04	
42	-2.10000e+00	6.775614e+04	
43	-2.15000e+00	6.911793e+04	
44	-2.20000e+00	7.044527e+04	
45	-2.25000e+00	7.173933e+04	
46	-2.30000e+00	7.300123e+04	
47	-2.35000e+00	7.423203e+04	
48	-2.40000e+00	7.543277e+04	
49	-2.45000e+00	7.660442e+04	
50	-2.50000e+00	7.774793e+04	
51	-2.55000e+00	7.886419e+04	
52	-2.60000e+00	7.995408e+04	
53	-2.65000e+00	8.101841e+04	
54	-2.70000e+00	8.205798e+04	

Index   v-sweep         rds             
--------------------------------------------------------------------------------
55	-2.75000e+00	8.307356e+04	
56	-2.80000e+00	8.406589e+04	
57	-2.85000e+00	8.503566e+04	
58	-2.90000e+00	8.598355e+04	
59	-2.95000e+00	8.691022e+04	
60	-3.00000e+00	8.781628e+04	
61	-3.05000e+00	8.870235e+04	
62	-3.10000e+00	8.956900e+04	
63	-3.15000e+00	9.041679e+04	
64	-3.20000e+00	9.124625e+04	
65	-3.25000e+00	9.205791e+04	
66	-3.30000e+00	9.285226e+04	
67	-3.35000e+00	9.362979e+04	
68	-3.40000e+00	9.439095e+04	
69	-3.45000e+00	9.513618e+04	
70	-3.50000e+00	9.586593e+04	
71	-3.55000e+00	9.658060e+04	
72	-3.60000e+00	9.728059e+04	
73	-3.65000e+00	9.796629e+04	
74	-3.70000e+00	9.863807e+04	
75	-3.75000e+00	9.929629e+04	
76	-3.80000e+00	9.994128e+04	
77	-3.85000e+00	1.005734e+05	
78	-3.90000e+00	1.011929e+05	
79	-3.95000e+00	1.018002e+05	
80	-4.00000e+00	1.023955e+05	
81	-4.05000e+00	1.029792e+05	
82	-4.10000e+00	1.035514e+05	
83	-4.15000e+00	1.041125e+05	
84	-4.20000e+00	1.046628e+05	
85	-4.25000e+00	1.052024e+05	
86	-4.30000e+00	1.057316e+05	
87	-4.35000e+00	1.062506e+05	
88	-4.40000e+00	1.067597e+05	
89	-4.45000e+00	1.072591e+05	
90	-4.50000e+00	1.077489e+05	
91	-4.55000e+00	1.082294e+05	
92	-4.60000e+00	1.087007e+05	
93	-4.65000e+00	1.091631e+05	
94	-4.70000e+00	1.096166e+05	
95	-4.75000e+00	1.100616e+05	
96	-4.80000e+00	1.104980e+05	
97	-4.85000e+00	1.109261e+05	
98	-4.90000e+00	1.113460e+05	
99	-4.95000e+00	1.117579e+05	
100	-5.00000e+00	1.121619e+05	
101	-5.05000e+00	1.125581e+05	
102	-5.10000e+00	1.129467e+05	
103	-5.15000e+00	1.133277e+05	
104	-5.20000e+00	1.137013e+05	
105	-5.25000e+00	1.140675e+05	
106	-5.30000e+00	1.144266e+05	
107	-5.35000e+00	1.147785e+05	
108	-5.40000e+00	1.151234e+05	
109	-5.45000e+00	1.154613e+05	
110	-5.50000e+00	1.157924e+05	
111	-5.55000e+00	1.161167e+05	
112	-5.60000e+00	1.164344e+05	

Index   v-sweep         rds             
--------------------------------------------------------------------------------
113	-5.65000e+00	1.167454e+05	
114	-5.70000e+00	1.170499e+05	
115	-5.75000e+00	1.173479e+05	
116	-5.80000e+00	1.176395e+05	
117	-5.85000e+00	1.179247e+05	
118	-5.90000e+00	1.182036e+05	
119	-5.95000e+00	1.184764e+05	
120	-6.00000e+00	1.187429e+05	
121	-6.05000e+00	1.190033e+05	
122	-6.10000e+00	1.192577e+05	
123	-6.15000e+00	1.195060e+05	
124	-6.20000e+00	1.197484e+05	
125	-6.25000e+00	1.199848e+05	
126	-6.30000e+00	1.202154e+05	
127	-6.35000e+00	1.204401e+05	
128	-6.40000e+00	1.206590e+05	
129	-6.45000e+00	1.208722e+05	
130	-6.50000e+00	1.210797e+05	
131	-6.55000e+00	1.212814e+05	
132	-6.60000e+00	1.214776e+05	
Reset re-loads circuit ***************************

Circuit: ***************************

Doing analysis at TEMP = -40.000000 and TNOM = -40.000000


No. of Data Rows : 133
                          ***************************
                          DC transfer characteristic  Mon Jan  9 13:57:54  2023
--------------------------------------------------------------------------------
Index   v-sweep         rds             
--------------------------------------------------------------------------------
0	0.000000e+00	8.226097e+02	
1	-5.00000e-02	8.586335e+02	
2	-1.00000e-01	8.971736e+02	
3	-1.50000e-01	9.385003e+02	
4	-2.00000e-01	9.829242e+02	
5	-2.50000e-01	1.030804e+03	
6	-3.00000e-01	1.082555e+03	
7	-3.50000e-01	1.138662e+03	
8	-4.00000e-01	1.199697e+03	
9	-4.50000e-01	1.266332e+03	
10	-5.00000e-01	1.339369e+03	
11	-5.50000e-01	1.419771e+03	
12	-6.00000e-01	1.508700e+03	
13	-6.50000e-01	1.607580e+03	
14	-7.00000e-01	1.718164e+03	
15	-7.50000e-01	1.842638e+03	
16	-8.00000e-01	1.983765e+03	
17	-8.50000e-01	2.145075e+03	
18	-9.00000e-01	2.331148e+03	
19	-9.50000e-01	2.548006e+03	
20	-1.00000e+00	2.803678e+03	
21	-1.05000e+00	3.108971e+03	
22	-1.10000e+00	3.478428e+03	
23	-1.15000e+00	3.931149e+03	
24	-1.20000e+00	4.490319e+03	
25	-1.25000e+00	5.178939e+03	
26	-1.30000e+00	6.009774e+03	
27	-1.35000e+00	6.974456e+03	
28	-1.40000e+00	8.043590e+03	
29	-1.45000e+00	9.179646e+03	
30	-1.50000e+00	1.034983e+04	
31	-1.55000e+00	1.153083e+04	
32	-1.60000e+00	1.270780e+04	
33	-1.65000e+00	1.387177e+04	
34	-1.70000e+00	1.501749e+04	
35	-1.75000e+00	1.614199e+04	
36	-1.80000e+00	1.724364e+04	
37	-1.85000e+00	1.832168e+04	
38	-1.90000e+00	1.937583e+04	
39	-1.95000e+00	2.040618e+04	
40	-2.00000e+00	2.141299e+04	
41	-2.05000e+00	2.239666e+04	
42	-2.10000e+00	2.335769e+04	
43	-2.15000e+00	2.429659e+04	
44	-2.20000e+00	2.521393e+04	
45	-2.25000e+00	2.611028e+04	
46	-2.30000e+00	2.698621e+04	
47	-2.35000e+00	2.784230e+04	
48	-2.40000e+00	2.867911e+04	
49	-2.45000e+00	2.949719e+04	
50	-2.50000e+00	3.029710e+04	
51	-2.55000e+00	3.107934e+04	
52	-2.60000e+00	3.184443e+04	
53	-2.65000e+00	3.259288e+04	
54	-2.70000e+00	3.332516e+04	

Index   v-sweep         rds             
--------------------------------------------------------------------------------
55	-2.75000e+00	3.404174e+04	
56	-2.80000e+00	3.474307e+04	
57	-2.85000e+00	3.542959e+04	
58	-2.90000e+00	3.610170e+04	
59	-2.95000e+00	3.675984e+04	
60	-3.00000e+00	3.740438e+04	
61	-3.05000e+00	3.803570e+04	
62	-3.10000e+00	3.865418e+04	
63	-3.15000e+00	3.926016e+04	
64	-3.20000e+00	3.985400e+04	
65	-3.25000e+00	4.043601e+04	
66	-3.30000e+00	4.100652e+04	
67	-3.35000e+00	4.156584e+04	
68	-3.40000e+00	4.211426e+04	
69	-3.45000e+00	4.265208e+04	
70	-3.50000e+00	4.317957e+04	
71	-3.55000e+00	4.369700e+04	
72	-3.60000e+00	4.420463e+04	
73	-3.65000e+00	4.470271e+04	
74	-3.70000e+00	4.519149e+04	
75	-3.75000e+00	4.567120e+04	
76	-3.80000e+00	4.614206e+04	
77	-3.85000e+00	4.660431e+04	
78	-3.90000e+00	4.705814e+04	
79	-3.95000e+00	4.750377e+04	
80	-4.00000e+00	4.794139e+04	
81	-4.05000e+00	4.837121e+04	
82	-4.10000e+00	4.879339e+04	
83	-4.15000e+00	4.920813e+04	
84	-4.20000e+00	4.961559e+04	
85	-4.25000e+00	5.001595e+04	
86	-4.30000e+00	5.040936e+04	
87	-4.35000e+00	5.079599e+04	
88	-4.40000e+00	5.117598e+04	
89	-4.45000e+00	5.154949e+04	
90	-4.50000e+00	5.191664e+04	
91	-4.55000e+00	5.227758e+04	
92	-4.60000e+00	5.263244e+04	
93	-4.65000e+00	5.298134e+04	
94	-4.70000e+00	5.332440e+04	
95	-4.75000e+00	5.366175e+04	
96	-4.80000e+00	5.399349e+04	
97	-4.85000e+00	5.431974e+04	
98	-4.90000e+00	5.464059e+04	
99	-4.95000e+00	5.495614e+04	
100	-5.00000e+00	5.526649e+04	
101	-5.05000e+00	5.557174e+04	
102	-5.10000e+00	5.587196e+04	
103	-5.15000e+00	5.616725e+04	
104	-5.20000e+00	5.645767e+04	
105	-5.25000e+00	5.674332e+04	
106	-5.30000e+00	5.702425e+04	
107	-5.35000e+00	5.730054e+04	
108	-5.40000e+00	5.757226e+04	
109	-5.45000e+00	5.783947e+04	
110	-5.50000e+00	5.810222e+04	
111	-5.55000e+00	5.836058e+04	
112	-5.60000e+00	5.861459e+04	

Index   v-sweep         rds             
--------------------------------------------------------------------------------
113	-5.65000e+00	5.886431e+04	
114	-5.70000e+00	5.910979e+04	
115	-5.75000e+00	5.935107e+04	
116	-5.80000e+00	5.958819e+04	
117	-5.85000e+00	5.982119e+04	
118	-5.90000e+00	6.005012e+04	
119	-5.95000e+00	6.027500e+04	
120	-6.00000e+00	6.049588e+04	
121	-6.05000e+00	6.071277e+04	
122	-6.10000e+00	6.092572e+04	
123	-6.15000e+00	6.113475e+04	
124	-6.20000e+00	6.133989e+04	
125	-6.25000e+00	6.154115e+04	
126	-6.30000e+00	6.173857e+04	
127	-6.35000e+00	6.193216e+04	
128	-6.40000e+00	6.212195e+04	
129	-6.45000e+00	6.230796e+04	
130	-6.50000e+00	6.249019e+04	
131	-6.55000e+00	6.266867e+04	
132	-6.60000e+00	6.284342e+04	
Reset re-loads circuit ***************************

Circuit: ***************************

Doing analysis at TEMP = -40.000000 and TNOM = -40.000000


No. of Data Rows : 133
                          ***************************
                          DC transfer characteristic  Mon Jan  9 13:57:54  2023
--------------------------------------------------------------------------------
Index   v-sweep         rds             
--------------------------------------------------------------------------------
0	0.000000e+00	6.374529e+02	
1	-5.00000e-02	6.578142e+02	
2	-1.00000e-01	6.791439e+02	
3	-1.50000e-01	7.015117e+02	
4	-2.00000e-01	7.249941e+02	
5	-2.50000e-01	7.496753e+02	
6	-3.00000e-01	7.756483e+02	
7	-3.50000e-01	8.030160e+02	
8	-4.00000e-01	8.318925e+02	
9	-4.50000e-01	8.624046e+02	
10	-5.00000e-01	8.946939e+02	
11	-5.50000e-01	9.289188e+02	
12	-6.00000e-01	9.652570e+02	
13	-6.50000e-01	1.003909e+03	
14	-7.00000e-01	1.045101e+03	
15	-7.50000e-01	1.089089e+03	
16	-8.00000e-01	1.136168e+03	
17	-8.50000e-01	1.186671e+03	
18	-9.00000e-01	1.240985e+03	
19	-9.50000e-01	1.299555e+03	
20	-1.00000e+00	1.362900e+03	
21	-1.05000e+00	1.431627e+03	
22	-1.10000e+00	1.506450e+03	
23	-1.15000e+00	1.588218e+03	
24	-1.20000e+00	1.677949e+03	
25	-1.25000e+00	1.776872e+03	
26	-1.30000e+00	1.886491e+03	
27	-1.35000e+00	2.008673e+03	
28	-1.40000e+00	2.145768e+03	
29	-1.45000e+00	2.300796e+03	
30	-1.50000e+00	2.477711e+03	
31	-1.55000e+00	2.681796e+03	
32	-1.60000e+00	2.920190e+03	
33	-1.65000e+00	3.202401e+03	
34	-1.70000e+00	3.540313e+03	
35	-1.75000e+00	3.946586e+03	
36	-1.80000e+00	4.430621e+03	
37	-1.85000e+00	4.993601e+03	
38	-1.90000e+00	5.626632e+03	
39	-1.95000e+00	6.313909e+03	
40	-2.00000e+00	7.038031e+03	
41	-2.05000e+00	7.783794e+03	
42	-2.10000e+00	8.539532e+03	
43	-2.15000e+00	9.296925e+03	
44	-2.20000e+00	1.005028e+04	
45	-2.25000e+00	1.079579e+04	
46	-2.30000e+00	1.153095e+04	
47	-2.35000e+00	1.225416e+04	
48	-2.40000e+00	1.296441e+04	
49	-2.45000e+00	1.366113e+04	
50	-2.50000e+00	1.434401e+04	
51	-2.55000e+00	1.501294e+04	
52	-2.60000e+00	1.566795e+04	
53	-2.65000e+00	1.630918e+04	
54	-2.70000e+00	1.693680e+04	

Index   v-sweep         rds             
--------------------------------------------------------------------------------
55	-2.75000e+00	1.755106e+04	
56	-2.80000e+00	1.815222e+04	
57	-2.85000e+00	1.874057e+04	
58	-2.90000e+00	1.931639e+04	
59	-2.95000e+00	1.988001e+04	
60	-3.00000e+00	2.043171e+04	
61	-3.05000e+00	2.097181e+04	
62	-3.10000e+00	2.150061e+04	
63	-3.15000e+00	2.201841e+04	
64	-3.20000e+00	2.252550e+04	
65	-3.25000e+00	2.302216e+04	
66	-3.30000e+00	2.350869e+04	
67	-3.35000e+00	2.398534e+04	
68	-3.40000e+00	2.445239e+04	
69	-3.45000e+00	2.491009e+04	
70	-3.50000e+00	2.535870e+04	
71	-3.55000e+00	2.579845e+04	
72	-3.60000e+00	2.622959e+04	
73	-3.65000e+00	2.665234e+04	
74	-3.70000e+00	2.706692e+04	
75	-3.75000e+00	2.747355e+04	
76	-3.80000e+00	2.787243e+04	
77	-3.85000e+00	2.826377e+04	
78	-3.90000e+00	2.864776e+04	
79	-3.95000e+00	2.902459e+04	
80	-4.00000e+00	2.939444e+04	
81	-4.05000e+00	2.975749e+04	
82	-4.10000e+00	3.011392e+04	
83	-4.15000e+00	3.046388e+04	
84	-4.20000e+00	3.080753e+04	
85	-4.25000e+00	3.114504e+04	
86	-4.30000e+00	3.147655e+04	
87	-4.35000e+00	3.180220e+04	
88	-4.40000e+00	3.212215e+04	
89	-4.45000e+00	3.243652e+04	
90	-4.50000e+00	3.274545e+04	
91	-4.55000e+00	3.304906e+04	
92	-4.60000e+00	3.334748e+04	
93	-4.65000e+00	3.364083e+04	
94	-4.70000e+00	3.392922e+04	
95	-4.75000e+00	3.421277e+04	
96	-4.80000e+00	3.449158e+04	
97	-4.85000e+00	3.476575e+04	
98	-4.90000e+00	3.503539e+04	
99	-4.95000e+00	3.530059e+04	
100	-5.00000e+00	3.556145e+04	
101	-5.05000e+00	3.581805e+04	
102	-5.10000e+00	3.607049e+04	
103	-5.15000e+00	3.631884e+04	
104	-5.20000e+00	3.656318e+04	
105	-5.25000e+00	3.680360e+04	
106	-5.30000e+00	3.704017e+04	
107	-5.35000e+00	3.727295e+04	
108	-5.40000e+00	3.750201e+04	
109	-5.45000e+00	3.772742e+04	
110	-5.50000e+00	3.794924e+04	
111	-5.55000e+00	3.816753e+04	
112	-5.60000e+00	3.838234e+04	

Index   v-sweep         rds             
--------------------------------------------------------------------------------
113	-5.65000e+00	3.859374e+04	
114	-5.70000e+00	3.880176e+04	
115	-5.75000e+00	3.900645e+04	
116	-5.80000e+00	3.920787e+04	
117	-5.85000e+00	3.940606e+04	
118	-5.90000e+00	3.960105e+04	
119	-5.95000e+00	3.979288e+04	
120	-6.00000e+00	3.998160e+04	
121	-6.05000e+00	4.016723e+04	
122	-6.10000e+00	4.034981e+04	
123	-6.15000e+00	4.052936e+04	
124	-6.20000e+00	4.070592e+04	
125	-6.25000e+00	4.087951e+04	
126	-6.30000e+00	4.105016e+04	
127	-6.35000e+00	4.121788e+04	
128	-6.40000e+00	4.138271e+04	
129	-6.45000e+00	4.154465e+04	
130	-6.50000e+00	4.170372e+04	
131	-6.55000e+00	4.185995e+04	
132	-6.60000e+00	4.201335e+04	
Reset re-loads circuit ***************************

Circuit: ***************************

Doing analysis at TEMP = -40.000000 and TNOM = -40.000000


No. of Data Rows : 133
                          ***************************
                          DC transfer characteristic  Mon Jan  9 13:57:54  2023
--------------------------------------------------------------------------------
Index   v-sweep         rds             
--------------------------------------------------------------------------------
0	0.000000e+00	5.441481e+02	
1	-5.00000e-02	5.580611e+02	
2	-1.00000e-01	5.724795e+02	
3	-1.50000e-01	5.874305e+02	
4	-2.00000e-01	6.029438e+02	
5	-2.50000e-01	6.190509e+02	
6	-3.00000e-01	6.357861e+02	
7	-3.50000e-01	6.531862e+02	
8	-4.00000e-01	6.712909e+02	
9	-4.50000e-01	6.901432e+02	
10	-5.00000e-01	7.097898e+02	
11	-5.50000e-01	7.302812e+02	
12	-6.00000e-01	7.516723e+02	
13	-6.50000e-01	7.740230e+02	
14	-7.00000e-01	7.973986e+02	
15	-7.50000e-01	8.218704e+02	
16	-8.00000e-01	8.475165e+02	
17	-8.50000e-01	8.744228e+02	
18	-9.00000e-01	9.026834e+02	
19	-9.50000e-01	9.324024e+02	
20	-1.00000e+00	9.636948e+02	
21	-1.05000e+00	9.966880e+02	
22	-1.10000e+00	1.031524e+03	
23	-1.15000e+00	1.068359e+03	
24	-1.20000e+00	1.107372e+03	
25	-1.25000e+00	1.148760e+03	
26	-1.30000e+00	1.192746e+03	
27	-1.35000e+00	1.239583e+03	
28	-1.40000e+00	1.289558e+03	
29	-1.45000e+00	1.343000e+03	
30	-1.50000e+00	1.400287e+03	
31	-1.55000e+00	1.461856e+03	
32	-1.60000e+00	1.528218e+03	
33	-1.65000e+00	1.599975e+03	
34	-1.70000e+00	1.677847e+03	
35	-1.75000e+00	1.762708e+03	
36	-1.80000e+00	1.855634e+03	
37	-1.85000e+00	1.957988e+03	
38	-1.90000e+00	2.071532e+03	
39	-1.95000e+00	2.198616e+03	
40	-2.00000e+00	2.342439e+03	
41	-2.05000e+00	2.507409e+03	
42	-2.10000e+00	2.699516e+03	
43	-2.15000e+00	2.926439e+03	
44	-2.20000e+00	3.196870e+03	
45	-2.25000e+00	3.518553e+03	
46	-2.30000e+00	3.895446e+03	
47	-2.35000e+00	4.325700e+03	
48	-2.40000e+00	4.802025e+03	
49	-2.45000e+00	5.314071e+03	
50	-2.50000e+00	5.851093e+03	
51	-2.55000e+00	6.403662e+03	
52	-2.60000e+00	6.964280e+03	
53	-2.65000e+00	7.527329e+03	
54	-2.70000e+00	8.088745e+03	

Index   v-sweep         rds             
--------------------------------------------------------------------------------
55	-2.75000e+00	8.645653e+03	
56	-2.80000e+00	9.196057e+03	
57	-2.85000e+00	9.738586e+03	
58	-2.90000e+00	1.027233e+04	
59	-2.95000e+00	1.079669e+04	
60	-3.00000e+00	1.131131e+04	
61	-3.05000e+00	1.181600e+04	
62	-3.10000e+00	1.231068e+04	
63	-3.15000e+00	1.279537e+04	
64	-3.20000e+00	1.327014e+04	
65	-3.25000e+00	1.373512e+04	
66	-3.30000e+00	1.419045e+04	
67	-3.35000e+00	1.463633e+04	
68	-3.40000e+00	1.507292e+04	
69	-3.45000e+00	1.550045e+04	
70	-3.50000e+00	1.591911e+04	
71	-3.55000e+00	1.632912e+04	
72	-3.60000e+00	1.673069e+04	
73	-3.65000e+00	1.712403e+04	
74	-3.70000e+00	1.750934e+04	
75	-3.75000e+00	1.788685e+04	
76	-3.80000e+00	1.825674e+04	
77	-3.85000e+00	1.861922e+04	
78	-3.90000e+00	1.897449e+04	
79	-3.95000e+00	1.932272e+04	
80	-4.00000e+00	1.966411e+04	
81	-4.05000e+00	1.999884e+04	
82	-4.10000e+00	2.032707e+04	
83	-4.15000e+00	2.064899e+04	
84	-4.20000e+00	2.096475e+04	
85	-4.25000e+00	2.127451e+04	
86	-4.30000e+00	2.157844e+04	
87	-4.35000e+00	2.187667e+04	
88	-4.40000e+00	2.216936e+04	
89	-4.45000e+00	2.245664e+04	
90	-4.50000e+00	2.273866e+04	
91	-4.55000e+00	2.301554e+04	
92	-4.60000e+00	2.328742e+04	
93	-4.65000e+00	2.355442e+04	
94	-4.70000e+00	2.381665e+04	
95	-4.75000e+00	2.407424e+04	
96	-4.80000e+00	2.432730e+04	
97	-4.85000e+00	2.457593e+04	
98	-4.90000e+00	2.482026e+04	
99	-4.95000e+00	2.506036e+04	
100	-5.00000e+00	2.529635e+04	
101	-5.05000e+00	2.552833e+04	
102	-5.10000e+00	2.575637e+04	
103	-5.15000e+00	2.598058e+04	
104	-5.20000e+00	2.620104e+04	
105	-5.25000e+00	2.641784e+04	
106	-5.30000e+00	2.663104e+04	
107	-5.35000e+00	2.684074e+04	
108	-5.40000e+00	2.704701e+04	
109	-5.45000e+00	2.724991e+04	
110	-5.50000e+00	2.744952e+04	
111	-5.55000e+00	2.764591e+04	
112	-5.60000e+00	2.783914e+04	

Index   v-sweep         rds             
--------------------------------------------------------------------------------
113	-5.65000e+00	2.802926e+04	
114	-5.70000e+00	2.821635e+04	
115	-5.75000e+00	2.840045e+04	
116	-5.80000e+00	2.858162e+04	
117	-5.85000e+00	2.875992e+04	
118	-5.90000e+00	2.893538e+04	
119	-5.95000e+00	2.910807e+04	
120	-6.00000e+00	2.927801e+04	
121	-6.05000e+00	2.944527e+04	
122	-6.10000e+00	2.960986e+04	
123	-6.15000e+00	2.977185e+04	
124	-6.20000e+00	2.993125e+04	
125	-6.25000e+00	3.008811e+04	
126	-6.30000e+00	3.024245e+04	
127	-6.35000e+00	3.039431e+04	
128	-6.40000e+00	3.054371e+04	
129	-6.45000e+00	3.069069e+04	
130	-6.50000e+00	3.083526e+04	
131	-6.55000e+00	3.097746e+04	
132	-6.60000e+00	3.111729e+04	
Reset re-loads circuit ***************************

Circuit: ***************************

Doing analysis at TEMP = -40.000000 and TNOM = -40.000000


No. of Data Rows : 133
                          ***************************
                          DC transfer characteristic  Mon Jan  9 13:57:54  2023
--------------------------------------------------------------------------------
Index   v-sweep         rds             
--------------------------------------------------------------------------------
0	0.000000e+00	4.882133e+02	
1	-5.00000e-02	4.987092e+02	
2	-1.00000e-01	5.095146e+02	
3	-1.50000e-01	5.206430e+02	
4	-2.00000e-01	5.321088e+02	
5	-2.50000e-01	5.439271e+02	
6	-3.00000e-01	5.561142e+02	
7	-3.50000e-01	5.686871e+02	
8	-4.00000e-01	5.816641e+02	
9	-4.50000e-01	5.950646e+02	
10	-5.00000e-01	6.089093e+02	
11	-5.50000e-01	6.232203e+02	
12	-6.00000e-01	6.380210e+02	
13	-6.50000e-01	6.533366e+02	
14	-7.00000e-01	6.691941e+02	
15	-7.50000e-01	6.856223e+02	
16	-8.00000e-01	7.026521e+02	
17	-8.50000e-01	7.203167e+02	
18	-9.00000e-01	7.386519e+02	
19	-9.50000e-01	7.576960e+02	
20	-1.00000e+00	7.774904e+02	
21	-1.05000e+00	7.980800e+02	
22	-1.10000e+00	8.195131e+02	
23	-1.15000e+00	8.418420e+02	
24	-1.20000e+00	8.651236e+02	
25	-1.25000e+00	8.894196e+02	
26	-1.30000e+00	9.147974e+02	
27	-1.35000e+00	9.413302e+02	
28	-1.40000e+00	9.690982e+02	
29	-1.45000e+00	9.981894e+02	
30	-1.50000e+00	1.028700e+03	
31	-1.55000e+00	1.060737e+03	
32	-1.60000e+00	1.094417e+03	
33	-1.65000e+00	1.129871e+03	
34	-1.70000e+00	1.167243e+03	
35	-1.75000e+00	1.206695e+03	
36	-1.80000e+00	1.248407e+03	
37	-1.85000e+00	1.292585e+03	
38	-1.90000e+00	1.339459e+03	
39	-1.95000e+00	1.389295e+03	
40	-2.00000e+00	1.442399e+03	
41	-2.05000e+00	1.499127e+03	
42	-2.10000e+00	1.559901e+03	
43	-2.15000e+00	1.625229e+03	
44	-2.20000e+00	1.695734e+03	
45	-2.25000e+00	1.772198e+03	
46	-2.30000e+00	1.855633e+03	
47	-2.35000e+00	1.947380e+03	
48	-2.40000e+00	2.049258e+03	
49	-2.45000e+00	2.163777e+03	
50	-2.50000e+00	2.294389e+03	
51	-2.55000e+00	2.445702e+03	
52	-2.60000e+00	2.623469e+03	
53	-2.65000e+00	2.834016e+03	
54	-2.70000e+00	3.082927e+03	

Index   v-sweep         rds             
--------------------------------------------------------------------------------
55	-2.75000e+00	3.373293e+03	
56	-2.80000e+00	3.704447e+03	
57	-2.85000e+00	4.072024e+03	
58	-2.90000e+00	4.469242e+03	
59	-2.95000e+00	4.888547e+03	
60	-3.00000e+00	5.322859e+03	
61	-3.05000e+00	5.766203e+03	
62	-3.10000e+00	6.213850e+03	
63	-3.15000e+00	6.662212e+03	
64	-3.20000e+00	7.108632e+03	
65	-3.25000e+00	7.551185e+03	
66	-3.30000e+00	7.988493e+03	
67	-3.35000e+00	8.419587e+03	
68	-3.40000e+00	8.843801e+03	
69	-3.45000e+00	9.260693e+03	
70	-3.50000e+00	9.669983e+03	
71	-3.55000e+00	1.007151e+04	
72	-3.60000e+00	1.046522e+04	
73	-3.65000e+00	1.085109e+04	
74	-3.70000e+00	1.122919e+04	
75	-3.75000e+00	1.159959e+04	
76	-3.80000e+00	1.196240e+04	
77	-3.85000e+00	1.231775e+04	
78	-3.90000e+00	1.266579e+04	
79	-3.95000e+00	1.300666e+04	
80	-4.00000e+00	1.334053e+04	
81	-4.05000e+00	1.366755e+04	
82	-4.10000e+00	1.398789e+04	
83	-4.15000e+00	1.430171e+04	
84	-4.20000e+00	1.460917e+04	
85	-4.25000e+00	1.491043e+04	
86	-4.30000e+00	1.520566e+04	
87	-4.35000e+00	1.549500e+04	
88	-4.40000e+00	1.577861e+04	
89	-4.45000e+00	1.605664e+04	
90	-4.50000e+00	1.632923e+04	
91	-4.55000e+00	1.659653e+04	
92	-4.60000e+00	1.685866e+04	
93	-4.65000e+00	1.711578e+04	
94	-4.70000e+00	1.736799e+04	
95	-4.75000e+00	1.761544e+04	
96	-4.80000e+00	1.785824e+04	
97	-4.85000e+00	1.809652e+04	
98	-4.90000e+00	1.833038e+04	
99	-4.95000e+00	1.855995e+04	
100	-5.00000e+00	1.878532e+04	
101	-5.05000e+00	1.900661e+04	
102	-5.10000e+00	1.922392e+04	
103	-5.15000e+00	1.943733e+04	
104	-5.20000e+00	1.964696e+04	
105	-5.25000e+00	1.985290e+04	
106	-5.30000e+00	2.005522e+04	
107	-5.35000e+00	2.025403e+04	
108	-5.40000e+00	2.044940e+04	
109	-5.45000e+00	2.064141e+04	
110	-5.50000e+00	2.083015e+04	
111	-5.55000e+00	2.101568e+04	
112	-5.60000e+00	2.119809e+04	

Index   v-sweep         rds             
--------------------------------------------------------------------------------
113	-5.65000e+00	2.137744e+04	
114	-5.70000e+00	2.155380e+04	
115	-5.75000e+00	2.172724e+04	
116	-5.80000e+00	2.189782e+04	
117	-5.85000e+00	2.206561e+04	
118	-5.90000e+00	2.223065e+04	
119	-5.95000e+00	2.239301e+04	
120	-6.00000e+00	2.255275e+04	
121	-6.05000e+00	2.270990e+04	
122	-6.10000e+00	2.286454e+04	
123	-6.15000e+00	2.301669e+04	
124	-6.20000e+00	2.316642e+04	
125	-6.25000e+00	2.331375e+04	
126	-6.30000e+00	2.345874e+04	
127	-6.35000e+00	2.360142e+04	
128	-6.40000e+00	2.374184e+04	
129	-6.45000e+00	2.388002e+04	
130	-6.50000e+00	2.401600e+04	
131	-6.55000e+00	2.414982e+04	
132	-6.60000e+00	2.428150e+04	
Reset re-loads circuit ***************************

Circuit: ***************************

Note: No ".plot", ".print", or ".fourier" lines; no simulations run
