
Note: Compatibility modes selected: hs

Warning: m=xx on .subckt line will override multiplier m hierarchy!


Circuit: ***************************

Doing analysis at TEMP = 125.000000 and TNOM = 125.000000


No. of Data Rows : 133
                          ***************************
                          DC transfer characteristic  Mon Jan  9 13:57:55  2023
--------------------------------------------------------------------------------
Index   v-sweep         rds             
--------------------------------------------------------------------------------
0	0.000000e+00	7.899048e+04	
1	-5.00000e-02	9.430111e+04	
2	-1.00000e-01	1.166116e+05	
3	-1.50000e-01	1.518757e+05	
4	-2.00000e-01	2.144054e+05	
5	-2.50000e-01	3.429759e+05	
6	-3.00000e-01	6.345135e+05	
7	-3.50000e-01	1.181318e+06	
8	-4.00000e-01	1.793673e+06	
9	-4.50000e-01	2.230505e+06	
10	-5.00000e-01	2.500310e+06	
11	-5.50000e-01	2.677044e+06	
12	-6.00000e-01	2.806347e+06	
13	-6.50000e-01	2.910262e+06	
14	-7.00000e-01	2.999306e+06	
15	-7.50000e-01	3.078750e+06	
16	-8.00000e-01	3.151416e+06	
17	-8.50000e-01	3.218919e+06	
18	-9.00000e-01	3.282246e+06	
19	-9.50000e-01	3.342041e+06	
20	-1.00000e+00	3.398749e+06	
21	-1.05000e+00	3.452694e+06	
22	-1.10000e+00	3.504124e+06	
23	-1.15000e+00	3.553237e+06	
24	-1.20000e+00	3.600197e+06	
25	-1.25000e+00	3.645142e+06	
26	-1.30000e+00	3.688194e+06	
27	-1.35000e+00	3.729459e+06	
28	-1.40000e+00	3.769033e+06	
29	-1.45000e+00	3.807004e+06	
30	-1.50000e+00	3.843450e+06	
31	-1.55000e+00	3.878447e+06	
32	-1.60000e+00	3.912061e+06	
33	-1.65000e+00	3.944356e+06	
34	-1.70000e+00	3.975392e+06	
35	-1.75000e+00	4.005224e+06	
36	-1.80000e+00	4.033904e+06	
37	-1.85000e+00	4.061483e+06	
38	-1.90000e+00	4.088005e+06	
39	-1.95000e+00	4.113516e+06	
40	-2.00000e+00	4.138056e+06	
41	-2.05000e+00	4.161666e+06	
42	-2.10000e+00	4.184381e+06	
43	-2.15000e+00	4.206238e+06	
44	-2.20000e+00	4.227271e+06	
45	-2.25000e+00	4.247510e+06	
46	-2.30000e+00	4.266988e+06	
47	-2.35000e+00	4.285732e+06	
48	-2.40000e+00	4.303770e+06	
49	-2.45000e+00	4.321128e+06	
50	-2.50000e+00	4.337832e+06	
51	-2.55000e+00	4.353905e+06	
52	-2.60000e+00	4.369371e+06	
53	-2.65000e+00	4.384251e+06	
54	-2.70000e+00	4.398565e+06	

Index   v-sweep         rds             
--------------------------------------------------------------------------------
55	-2.75000e+00	4.412335e+06	
56	-2.80000e+00	4.425578e+06	
57	-2.85000e+00	4.438314e+06	
58	-2.90000e+00	4.450559e+06	
59	-2.95000e+00	4.462331e+06	
60	-3.00000e+00	4.473645e+06	
61	-3.05000e+00	4.484516e+06	
62	-3.10000e+00	4.494961e+06	
63	-3.15000e+00	4.504991e+06	
64	-3.20000e+00	4.514622e+06	
65	-3.25000e+00	4.523866e+06	
66	-3.30000e+00	4.532735e+06	
67	-3.35000e+00	4.541242e+06	
68	-3.40000e+00	4.549398e+06	
69	-3.45000e+00	4.557214e+06	
70	-3.50000e+00	4.564700e+06	
71	-3.55000e+00	4.571866e+06	
72	-3.60000e+00	4.578724e+06	
73	-3.65000e+00	4.585280e+06	
74	-3.70000e+00	4.591546e+06	
75	-3.75000e+00	4.597529e+06	
76	-3.80000e+00	4.603238e+06	
77	-3.85000e+00	4.608680e+06	
78	-3.90000e+00	4.613863e+06	
79	-3.95000e+00	4.618796e+06	
80	-4.00000e+00	4.623484e+06	
81	-4.05000e+00	4.627934e+06	
82	-4.10000e+00	4.632154e+06	
83	-4.15000e+00	4.636148e+06	
84	-4.20000e+00	4.639925e+06	
85	-4.25000e+00	4.643488e+06	
86	-4.30000e+00	4.646844e+06	
87	-4.35000e+00	4.649998e+06	
88	-4.40000e+00	4.652955e+06	
89	-4.45000e+00	4.655721e+06	
90	-4.50000e+00	4.658299e+06	
91	-4.55000e+00	4.660695e+06	
92	-4.60000e+00	4.662913e+06	
93	-4.65000e+00	4.664957e+06	
94	-4.70000e+00	4.666831e+06	
95	-4.75000e+00	4.668539e+06	
96	-4.80000e+00	4.670085e+06	
97	-4.85000e+00	4.671472e+06	
98	-4.90000e+00	4.672704e+06	
99	-4.95000e+00	4.673785e+06	
100	-5.00000e+00	4.674717e+06	
101	-5.05000e+00	4.675503e+06	
102	-5.10000e+00	4.676148e+06	
103	-5.15000e+00	4.676652e+06	
104	-5.20000e+00	4.677020e+06	
105	-5.25000e+00	4.677253e+06	
106	-5.30000e+00	4.677355e+06	
107	-5.35000e+00	4.677327e+06	
108	-5.40000e+00	4.677173e+06	
109	-5.45000e+00	4.676895e+06	
110	-5.50000e+00	4.676494e+06	
111	-5.55000e+00	4.675973e+06	
112	-5.60000e+00	4.675334e+06	

Index   v-sweep         rds             
--------------------------------------------------------------------------------
113	-5.65000e+00	4.674579e+06	
114	-5.70000e+00	4.673710e+06	
115	-5.75000e+00	4.672728e+06	
116	-5.80000e+00	4.671636e+06	
117	-5.85000e+00	4.670436e+06	
118	-5.90000e+00	4.669128e+06	
119	-5.95000e+00	4.667715e+06	
120	-6.00000e+00	4.666198e+06	
121	-6.05000e+00	4.664579e+06	
122	-6.10000e+00	4.662860e+06	
123	-6.15000e+00	4.661040e+06	
124	-6.20000e+00	4.659124e+06	
125	-6.25000e+00	4.657110e+06	
126	-6.30000e+00	4.655002e+06	
127	-6.35000e+00	4.652799e+06	
128	-6.40000e+00	4.650504e+06	
129	-6.45000e+00	4.648118e+06	
130	-6.50000e+00	4.645642e+06	
131	-6.55000e+00	4.643076e+06	
132	-6.60000e+00	4.640423e+06	
Reset re-loads circuit ***************************

Circuit: ***************************

Doing analysis at TEMP = 125.000000 and TNOM = 125.000000


No. of Data Rows : 133
                          ***************************
                          DC transfer characteristic  Mon Jan  9 13:57:55  2023
--------------------------------------------------------------------------------
Index   v-sweep         rds             
--------------------------------------------------------------------------------
0	0.000000e+00	2.138323e+04	
1	-5.00000e-02	2.247065e+04	
2	-1.00000e-01	2.366490e+04	
3	-1.50000e-01	2.498249e+04	
4	-2.00000e-01	2.644351e+04	
5	-2.50000e-01	2.807263e+04	
6	-3.00000e-01	2.990053e+04	
7	-3.50000e-01	3.196575e+04	
8	-4.00000e-01	3.431741e+04	
9	-4.50000e-01	3.701906e+04	
10	-5.00000e-01	4.015421e+04	
11	-5.50000e-01	4.383473e+04	
12	-6.00000e-01	4.821346e+04	
13	-6.50000e-01	5.350384e+04	
14	-7.00000e-01	6.001077e+04	
15	-7.50000e-01	6.817910e+04	
16	-8.00000e-01	7.866747e+04	
17	-8.50000e-01	9.244623e+04	
18	-9.00000e-01	1.108677e+05	
19	-9.50000e-01	1.354837e+05	
20	-1.00000e+00	1.670946e+05	
21	-1.05000e+00	2.039316e+05	
22	-1.10000e+00	2.412394e+05	
23	-1.15000e+00	2.744645e+05	
24	-1.20000e+00	3.021433e+05	
25	-1.25000e+00	3.251466e+05	
26	-1.30000e+00	3.448769e+05	
27	-1.35000e+00	3.624461e+05	
28	-1.40000e+00	3.785783e+05	
29	-1.45000e+00	3.937165e+05	
30	-1.50000e+00	4.081294e+05	
31	-1.55000e+00	4.219825e+05	
32	-1.60000e+00	4.353809e+05	
33	-1.65000e+00	4.483934e+05	
34	-1.70000e+00	4.610667e+05	
35	-1.75000e+00	4.734340e+05	
36	-1.80000e+00	4.855193e+05	
37	-1.85000e+00	4.973410e+05	
38	-1.90000e+00	5.089137e+05	
39	-1.95000e+00	5.202491e+05	
40	-2.00000e+00	5.313571e+05	
41	-2.05000e+00	5.422463e+05	
42	-2.10000e+00	5.529241e+05	
43	-2.15000e+00	5.633973e+05	
44	-2.20000e+00	5.736719e+05	
45	-2.25000e+00	5.837537e+05	
46	-2.30000e+00	5.936478e+05	
47	-2.35000e+00	6.033593e+05	
48	-2.40000e+00	6.128928e+05	
49	-2.45000e+00	6.222527e+05	
50	-2.50000e+00	6.314432e+05	
51	-2.55000e+00	6.404686e+05	
52	-2.60000e+00	6.493326e+05	
53	-2.65000e+00	6.580389e+05	
54	-2.70000e+00	6.665914e+05	

Index   v-sweep         rds             
--------------------------------------------------------------------------------
55	-2.75000e+00	6.749934e+05	
56	-2.80000e+00	6.832483e+05	
57	-2.85000e+00	6.913594e+05	
58	-2.90000e+00	6.993299e+05	
59	-2.95000e+00	7.071629e+05	
60	-3.00000e+00	7.148614e+05	
61	-3.05000e+00	7.224283e+05	
62	-3.10000e+00	7.298664e+05	
63	-3.15000e+00	7.371785e+05	
64	-3.20000e+00	7.443672e+05	
65	-3.25000e+00	7.514351e+05	
66	-3.30000e+00	7.583848e+05	
67	-3.35000e+00	7.652187e+05	
68	-3.40000e+00	7.719393e+05	
69	-3.45000e+00	7.785487e+05	
70	-3.50000e+00	7.850494e+05	
71	-3.55000e+00	7.914434e+05	
72	-3.60000e+00	7.977331e+05	
73	-3.65000e+00	8.039204e+05	
74	-3.70000e+00	8.100073e+05	
75	-3.75000e+00	8.159959e+05	
76	-3.80000e+00	8.218882e+05	
77	-3.85000e+00	8.276859e+05	
78	-3.90000e+00	8.333909e+05	
79	-3.95000e+00	8.390049e+05	
80	-4.00000e+00	8.445298e+05	
81	-4.05000e+00	8.499672e+05	
82	-4.10000e+00	8.553186e+05	
83	-4.15000e+00	8.605858e+05	
84	-4.20000e+00	8.657703e+05	
85	-4.25000e+00	8.708734e+05	
86	-4.30000e+00	8.758968e+05	
87	-4.35000e+00	8.808418e+05	
88	-4.40000e+00	8.857098e+05	
89	-4.45000e+00	8.905021e+05	
90	-4.50000e+00	8.952200e+05	
91	-4.55000e+00	8.998648e+05	
92	-4.60000e+00	9.044376e+05	
93	-4.65000e+00	9.089396e+05	
94	-4.70000e+00	9.133720e+05	
95	-4.75000e+00	9.177358e+05	
96	-4.80000e+00	9.220321e+05	
97	-4.85000e+00	9.262619e+05	
98	-4.90000e+00	9.304262e+05	
99	-4.95000e+00	9.345259e+05	
100	-5.00000e+00	9.385620e+05	
101	-5.05000e+00	9.425354e+05	
102	-5.10000e+00	9.464468e+05	
103	-5.15000e+00	9.502970e+05	
104	-5.20000e+00	9.540870e+05	
105	-5.25000e+00	9.578174e+05	
106	-5.30000e+00	9.614889e+05	
107	-5.35000e+00	9.651023e+05	
108	-5.40000e+00	9.686581e+05	
109	-5.45000e+00	9.721571e+05	
110	-5.50000e+00	9.755999e+05	
111	-5.55000e+00	9.789870e+05	
112	-5.60000e+00	9.823190e+05	

Index   v-sweep         rds             
--------------------------------------------------------------------------------
113	-5.65000e+00	9.855964e+05	
114	-5.70000e+00	9.888198e+05	
115	-5.75000e+00	9.919896e+05	
116	-5.80000e+00	9.951063e+05	
117	-5.85000e+00	9.981704e+05	
118	-5.90000e+00	1.001182e+06	
119	-5.95000e+00	1.004142e+06	
120	-6.00000e+00	1.007051e+06	
121	-6.05000e+00	1.009909e+06	
122	-6.10000e+00	1.012716e+06	
123	-6.15000e+00	1.015473e+06	
124	-6.20000e+00	1.018180e+06	
125	-6.25000e+00	1.020837e+06	
126	-6.30000e+00	1.023444e+06	
127	-6.35000e+00	1.026003e+06	
128	-6.40000e+00	1.028513e+06	
129	-6.45000e+00	1.030975e+06	
130	-6.50000e+00	1.033388e+06	
131	-6.55000e+00	1.035753e+06	
132	-6.60000e+00	1.038071e+06	
Reset re-loads circuit ***************************

Circuit: ***************************

Doing analysis at TEMP = 125.000000 and TNOM = 125.000000


No. of Data Rows : 133
                          ***************************
                          DC transfer characteristic  Mon Jan  9 13:57:55  2023
--------------------------------------------------------------------------------
Index   v-sweep         rds             
--------------------------------------------------------------------------------
0	0.000000e+00	1.351733e+04	
1	-5.00000e-02	1.393268e+04	
2	-1.00000e-01	1.437126e+04	
3	-1.50000e-01	1.483508e+04	
4	-2.00000e-01	1.532638e+04	
5	-2.50000e-01	1.584765e+04	
6	-3.00000e-01	1.640173e+04	
7	-3.50000e-01	1.699180e+04	
8	-4.00000e-01	1.762147e+04	
9	-4.50000e-01	1.829488e+04	
10	-5.00000e-01	1.901670e+04	
11	-5.50000e-01	1.979235e+04	
12	-6.00000e-01	2.062806e+04	
13	-6.50000e-01	2.153105e+04	
14	-7.00000e-01	2.250976e+04	
15	-7.50000e-01	2.357406e+04	
16	-8.00000e-01	2.473564e+04	
17	-8.50000e-01	2.600837e+04	
18	-9.00000e-01	2.740886e+04	
19	-9.50000e-01	2.895716e+04	
20	-1.00000e+00	3.067765e+04	
21	-1.05000e+00	3.260025e+04	
22	-1.10000e+00	3.476202e+04	
23	-1.15000e+00	3.720923e+04	
24	-1.20000e+00	4.000022e+04	
25	-1.25000e+00	4.320899e+04	
26	-1.30000e+00	4.692989e+04	
27	-1.35000e+00	5.128291e+04	
28	-1.40000e+00	5.641839e+04	
29	-1.45000e+00	6.251717e+04	
30	-1.50000e+00	6.977649e+04	
31	-1.55000e+00	7.836286e+04	
32	-1.60000e+00	8.831084e+04	
33	-1.65000e+00	9.938393e+04	
34	-1.70000e+00	1.110152e+05	
35	-1.75000e+00	1.224826e+05	
36	-1.80000e+00	1.332399e+05	
37	-1.85000e+00	1.430917e+05	
38	-1.90000e+00	1.521087e+05	
39	-1.95000e+00	1.604616e+05	
40	-2.00000e+00	1.683166e+05	
41	-2.05000e+00	1.758010e+05	
42	-2.10000e+00	1.830033e+05	
43	-2.15000e+00	1.899827e+05	
44	-2.20000e+00	1.967788e+05	
45	-2.25000e+00	2.034180e+05	
46	-2.30000e+00	2.099188e+05	
47	-2.35000e+00	2.162938e+05	
48	-2.40000e+00	2.225525e+05	
49	-2.45000e+00	2.287019e+05	
50	-2.50000e+00	2.347474e+05	
51	-2.55000e+00	2.406935e+05	
52	-2.60000e+00	2.465437e+05	
53	-2.65000e+00	2.523012e+05	
54	-2.70000e+00	2.579686e+05	

Index   v-sweep         rds             
--------------------------------------------------------------------------------
55	-2.75000e+00	2.635484e+05	
56	-2.80000e+00	2.690428e+05	
57	-2.85000e+00	2.744537e+05	
58	-2.90000e+00	2.797831e+05	
59	-2.95000e+00	2.850327e+05	
60	-3.00000e+00	2.902043e+05	
61	-3.05000e+00	2.952994e+05	
62	-3.10000e+00	3.003196e+05	
63	-3.15000e+00	3.052664e+05	
64	-3.20000e+00	3.101411e+05	
65	-3.25000e+00	3.149453e+05	
66	-3.30000e+00	3.196802e+05	
67	-3.35000e+00	3.243471e+05	
68	-3.40000e+00	3.289474e+05	
69	-3.45000e+00	3.334822e+05	
70	-3.50000e+00	3.379528e+05	
71	-3.55000e+00	3.423603e+05	
72	-3.60000e+00	3.467060e+05	
73	-3.65000e+00	3.509909e+05	
74	-3.70000e+00	3.552161e+05	
75	-3.75000e+00	3.593826e+05	
76	-3.80000e+00	3.634916e+05	
77	-3.85000e+00	3.675441e+05	
78	-3.90000e+00	3.715410e+05	
79	-3.95000e+00	3.754833e+05	
80	-4.00000e+00	3.793720e+05	
81	-4.05000e+00	3.832080e+05	
82	-4.10000e+00	3.869923e+05	
83	-4.15000e+00	3.907256e+05	
84	-4.20000e+00	3.944089e+05	
85	-4.25000e+00	3.980430e+05	
86	-4.30000e+00	4.016288e+05	
87	-4.35000e+00	4.051671e+05	
88	-4.40000e+00	4.086586e+05	
89	-4.45000e+00	4.121041e+05	
90	-4.50000e+00	4.155045e+05	
91	-4.55000e+00	4.188603e+05	
92	-4.60000e+00	4.221724e+05	
93	-4.65000e+00	4.254415e+05	
94	-4.70000e+00	4.286681e+05	
95	-4.75000e+00	4.318531e+05	
96	-4.80000e+00	4.349970e+05	
97	-4.85000e+00	4.381004e+05	
98	-4.90000e+00	4.411640e+05	
99	-4.95000e+00	4.441884e+05	
100	-5.00000e+00	4.471741e+05	
101	-5.05000e+00	4.501217e+05	
102	-5.10000e+00	4.530318e+05	
103	-5.15000e+00	4.559048e+05	
104	-5.20000e+00	4.587412e+05	
105	-5.25000e+00	4.615416e+05	
106	-5.30000e+00	4.643064e+05	
107	-5.35000e+00	4.670361e+05	
108	-5.40000e+00	4.697311e+05	
109	-5.45000e+00	4.723918e+05	
110	-5.50000e+00	4.750186e+05	
111	-5.55000e+00	4.776120e+05	
112	-5.60000e+00	4.801722e+05	

Index   v-sweep         rds             
--------------------------------------------------------------------------------
113	-5.65000e+00	4.826996e+05	
114	-5.70000e+00	4.851946e+05	
115	-5.75000e+00	4.876575e+05	
116	-5.80000e+00	4.900886e+05	
117	-5.85000e+00	4.924881e+05	
118	-5.90000e+00	4.948564e+05	
119	-5.95000e+00	4.971938e+05	
120	-6.00000e+00	4.995004e+05	
121	-6.05000e+00	5.017764e+05	
122	-6.10000e+00	5.040222e+05	
123	-6.15000e+00	5.062379e+05	
124	-6.20000e+00	5.084238e+05	
125	-6.25000e+00	5.105799e+05	
126	-6.30000e+00	5.127065e+05	
127	-6.35000e+00	5.148037e+05	
128	-6.40000e+00	5.168716e+05	
129	-6.45000e+00	5.189105e+05	
130	-6.50000e+00	5.209204e+05	
131	-6.55000e+00	5.229015e+05	
132	-6.60000e+00	5.248538e+05	
Reset re-loads circuit ***************************

Circuit: ***************************

Doing analysis at TEMP = 125.000000 and TNOM = 125.000000


No. of Data Rows : 133
                          ***************************
                          DC transfer characteristic  Mon Jan  9 13:57:55  2023
--------------------------------------------------------------------------------
Index   v-sweep         rds             
--------------------------------------------------------------------------------
0	0.000000e+00	1.032693e+04	
1	-5.00000e-02	1.055910e+04	
2	-1.00000e-01	1.080042e+04	
3	-1.50000e-01	1.105142e+04	
4	-2.00000e-01	1.131270e+04	
5	-2.50000e-01	1.158489e+04	
6	-3.00000e-01	1.186871e+04	
7	-3.50000e-01	1.216490e+04	
8	-4.00000e-01	1.247428e+04	
9	-4.50000e-01	1.279777e+04	
10	-5.00000e-01	1.313633e+04	
11	-5.50000e-01	1.349106e+04	
12	-6.00000e-01	1.386312e+04	
13	-6.50000e-01	1.425382e+04	
14	-7.00000e-01	1.466459e+04	
15	-7.50000e-01	1.509702e+04	
16	-8.00000e-01	1.555285e+04	
17	-8.50000e-01	1.603403e+04	
18	-9.00000e-01	1.654272e+04	
19	-9.50000e-01	1.708136e+04	
20	-1.00000e+00	1.765265e+04	
21	-1.05000e+00	1.825963e+04	
22	-1.10000e+00	1.890575e+04	
23	-1.15000e+00	1.959489e+04	
24	-1.20000e+00	2.033147e+04	
25	-1.25000e+00	2.112053e+04	
26	-1.30000e+00	2.196783e+04	
27	-1.35000e+00	2.288002e+04	
28	-1.40000e+00	2.386475e+04	
29	-1.45000e+00	2.493091e+04	
30	-1.50000e+00	2.608888e+04	
31	-1.55000e+00	2.735080e+04	
32	-1.60000e+00	2.873098e+04	
33	-1.65000e+00	3.024633e+04	
34	-1.70000e+00	3.191693e+04	
35	-1.75000e+00	3.376666e+04	
36	-1.80000e+00	3.582395e+04	
37	-1.85000e+00	3.812254e+04	
38	-1.90000e+00	4.070205e+04	
39	-1.95000e+00	4.360802e+04	
40	-2.00000e+00	4.689056e+04	
41	-2.05000e+00	5.060012e+04	
42	-2.10000e+00	5.477816e+04	
43	-2.15000e+00	5.944049e+04	
44	-2.20000e+00	6.455455e+04	
45	-2.25000e+00	7.002101e+04	
46	-2.30000e+00	7.567989e+04	
47	-2.35000e+00	8.135286e+04	
48	-2.40000e+00	8.690006e+04	
49	-2.45000e+00	9.225050e+04	
50	-2.50000e+00	9.739276e+04	
51	-2.55000e+00	1.023475e+05	
52	-2.60000e+00	1.071443e+05	
53	-2.65000e+00	1.118105e+05	
54	-2.70000e+00	1.163672e+05	

Index   v-sweep         rds             
--------------------------------------------------------------------------------
55	-2.75000e+00	1.208300e+05	
56	-2.80000e+00	1.252097e+05	
57	-2.85000e+00	1.295139e+05	
58	-2.90000e+00	1.337483e+05	
59	-2.95000e+00	1.379167e+05	
60	-3.00000e+00	1.420222e+05	
61	-3.05000e+00	1.460673e+05	
62	-3.10000e+00	1.500538e+05	
63	-3.15000e+00	1.539834e+05	
64	-3.20000e+00	1.578575e+05	
65	-3.25000e+00	1.616773e+05	
66	-3.30000e+00	1.654440e+05	
67	-3.35000e+00	1.691587e+05	
68	-3.40000e+00	1.728224e+05	
69	-3.45000e+00	1.764360e+05	
70	-3.50000e+00	1.800004e+05	
71	-3.55000e+00	1.835167e+05	
72	-3.60000e+00	1.869855e+05	
73	-3.65000e+00	1.904077e+05	
74	-3.70000e+00	1.937843e+05	
75	-3.75000e+00	1.971158e+05	
76	-3.80000e+00	2.004032e+05	
77	-3.85000e+00	2.036472e+05	
78	-3.90000e+00	2.068485e+05	
79	-3.95000e+00	2.100078e+05	
80	-4.00000e+00	2.131259e+05	
81	-4.05000e+00	2.162035e+05	
82	-4.10000e+00	2.192411e+05	
83	-4.15000e+00	2.222396e+05	
84	-4.20000e+00	2.251996e+05	
85	-4.25000e+00	2.281216e+05	
86	-4.30000e+00	2.310063e+05	
87	-4.35000e+00	2.338544e+05	
88	-4.40000e+00	2.366665e+05	
89	-4.45000e+00	2.394430e+05	
90	-4.50000e+00	2.421847e+05	
91	-4.55000e+00	2.448920e+05	
92	-4.60000e+00	2.475656e+05	
93	-4.65000e+00	2.502060e+05	
94	-4.70000e+00	2.528136e+05	
95	-4.75000e+00	2.553891e+05	
96	-4.80000e+00	2.579330e+05	
97	-4.85000e+00	2.604456e+05	
98	-4.90000e+00	2.629277e+05	
99	-4.95000e+00	2.653795e+05	
100	-5.00000e+00	2.678016e+05	
101	-5.05000e+00	2.701945e+05	
102	-5.10000e+00	2.725585e+05	
103	-5.15000e+00	2.748941e+05	
104	-5.20000e+00	2.772018e+05	
105	-5.25000e+00	2.794820e+05	
106	-5.30000e+00	2.817350e+05	
107	-5.35000e+00	2.839613e+05	
108	-5.40000e+00	2.861612e+05	
109	-5.45000e+00	2.883352e+05	
110	-5.50000e+00	2.904835e+05	
111	-5.55000e+00	2.926065e+05	
112	-5.60000e+00	2.947047e+05	

Index   v-sweep         rds             
--------------------------------------------------------------------------------
113	-5.65000e+00	2.967781e+05	
114	-5.70000e+00	2.988274e+05	
115	-5.75000e+00	3.008526e+05	
116	-5.80000e+00	3.028541e+05	
117	-5.85000e+00	3.048322e+05	
118	-5.90000e+00	3.067872e+05	
119	-5.95000e+00	3.087193e+05	
120	-6.00000e+00	3.106288e+05	
121	-6.05000e+00	3.125159e+05	
122	-6.10000e+00	3.143808e+05	
123	-6.15000e+00	3.162238e+05	
124	-6.20000e+00	3.180450e+05	
125	-6.25000e+00	3.198447e+05	
126	-6.30000e+00	3.216230e+05	
127	-6.35000e+00	3.233802e+05	
128	-6.40000e+00	3.251163e+05	
129	-6.45000e+00	3.268315e+05	
130	-6.50000e+00	3.285261e+05	
131	-6.55000e+00	3.302000e+05	
132	-6.60000e+00	3.318534e+05	
Reset re-loads circuit ***************************

Circuit: ***************************

Doing analysis at TEMP = 125.000000 and TNOM = 125.000000


No. of Data Rows : 133
                          ***************************
                          DC transfer characteristic  Mon Jan  9 13:57:55  2023
--------------------------------------------------------------------------------
Index   v-sweep         rds             
--------------------------------------------------------------------------------
0	0.000000e+00	8.576671e+03	
1	-5.00000e-02	8.730560e+03	
2	-1.00000e-01	8.889138e+03	
3	-1.50000e-01	9.052620e+03	
4	-2.00000e-01	9.221237e+03	
5	-2.50000e-01	9.395235e+03	
6	-3.00000e-01	9.574873e+03	
7	-3.50000e-01	9.760428e+03	
8	-4.00000e-01	9.952198e+03	
9	-4.50000e-01	1.015050e+04	
10	-5.00000e-01	1.035567e+04	
11	-5.50000e-01	1.056807e+04	
12	-6.00000e-01	1.078808e+04	
13	-6.50000e-01	1.101613e+04	
14	-7.00000e-01	1.125266e+04	
15	-7.50000e-01	1.149815e+04	
16	-8.00000e-01	1.175312e+04	
17	-8.50000e-01	1.201812e+04	
18	-9.00000e-01	1.229376e+04	
19	-9.50000e-01	1.258069e+04	
20	-1.00000e+00	1.287961e+04	
21	-1.05000e+00	1.319130e+04	
22	-1.10000e+00	1.351657e+04	
23	-1.15000e+00	1.385634e+04	
24	-1.20000e+00	1.421159e+04	
25	-1.25000e+00	1.458340e+04	
26	-1.30000e+00	1.497296e+04	
27	-1.35000e+00	1.538155e+04	
28	-1.40000e+00	1.581060e+04	
29	-1.45000e+00	1.626169e+04	
30	-1.50000e+00	1.673653e+04	
31	-1.55000e+00	1.723705e+04	
32	-1.60000e+00	1.776537e+04	
33	-1.65000e+00	1.832387e+04	
34	-1.70000e+00	1.891516e+04	
35	-1.75000e+00	1.954221e+04	
36	-1.80000e+00	2.020833e+04	
37	-1.85000e+00	2.091723e+04	
38	-1.90000e+00	2.167312e+04	
39	-1.95000e+00	2.248074e+04	
40	-2.00000e+00	2.334549e+04	
41	-2.05000e+00	2.427350e+04	
42	-2.10000e+00	2.527177e+04	
43	-2.15000e+00	2.634830e+04	
44	-2.20000e+00	2.751227e+04	
45	-2.25000e+00	2.877416e+04	
46	-2.30000e+00	3.014600e+04	
47	-2.35000e+00	3.164145e+04	
48	-2.40000e+00	3.327599e+04	
49	-2.45000e+00	3.506677e+04	
50	-2.50000e+00	3.703239e+04	
51	-2.55000e+00	3.919190e+04	
52	-2.60000e+00	4.156314e+04	
53	-2.65000e+00	4.415958e+04	
54	-2.70000e+00	4.698574e+04	

Index   v-sweep         rds             
--------------------------------------------------------------------------------
55	-2.75000e+00	5.003165e+04	
56	-2.80000e+00	5.326859e+04	
57	-2.85000e+00	5.664979e+04	
58	-2.90000e+00	6.011850e+04	
59	-2.95000e+00	6.362096e+04	
60	-3.00000e+00	6.711691e+04	
61	-3.05000e+00	7.058252e+04	
62	-3.10000e+00	7.400696e+04	
63	-3.15000e+00	7.738692e+04	
64	-3.20000e+00	8.072244e+04	
65	-3.25000e+00	8.401458e+04	
66	-3.30000e+00	8.726448e+04	
67	-3.35000e+00	9.047303e+04	
68	-3.40000e+00	9.364092e+04	
69	-3.45000e+00	9.676865e+04	
70	-3.50000e+00	9.985666e+04	
71	-3.55000e+00	1.029053e+05	
72	-3.60000e+00	1.059150e+05	
73	-3.65000e+00	1.088862e+05	
74	-3.70000e+00	1.118192e+05	
75	-3.75000e+00	1.147144e+05	
76	-3.80000e+00	1.175723e+05	
77	-3.85000e+00	1.203934e+05	
78	-3.90000e+00	1.231781e+05	
79	-3.95000e+00	1.259270e+05	
80	-4.00000e+00	1.286405e+05	
81	-4.05000e+00	1.313191e+05	
82	-4.10000e+00	1.339633e+05	
83	-4.15000e+00	1.365737e+05	
84	-4.20000e+00	1.391507e+05	
85	-4.25000e+00	1.416949e+05	
86	-4.30000e+00	1.442068e+05	
87	-4.35000e+00	1.466868e+05	
88	-4.40000e+00	1.491354e+05	
89	-4.45000e+00	1.515532e+05	
90	-4.50000e+00	1.539407e+05	
91	-4.55000e+00	1.562982e+05	
92	-4.60000e+00	1.586264e+05	
93	-4.65000e+00	1.609255e+05	
94	-4.70000e+00	1.631962e+05	
95	-4.75000e+00	1.654388e+05	
96	-4.80000e+00	1.676539e+05	
97	-4.85000e+00	1.698417e+05	
98	-4.90000e+00	1.720029e+05	
99	-4.95000e+00	1.741377e+05	
100	-5.00000e+00	1.762466e+05	
101	-5.05000e+00	1.783300e+05	
102	-5.10000e+00	1.803884e+05	
103	-5.15000e+00	1.824220e+05	
104	-5.20000e+00	1.844313e+05	
105	-5.25000e+00	1.864167e+05	
106	-5.30000e+00	1.883785e+05	
107	-5.35000e+00	1.903171e+05	
108	-5.40000e+00	1.922329e+05	
109	-5.45000e+00	1.941261e+05	
110	-5.50000e+00	1.959972e+05	
111	-5.55000e+00	1.978465e+05	
112	-5.60000e+00	1.996743e+05	

Index   v-sweep         rds             
--------------------------------------------------------------------------------
113	-5.65000e+00	2.014809e+05	
114	-5.70000e+00	2.032666e+05	
115	-5.75000e+00	2.050318e+05	
116	-5.80000e+00	2.067767e+05	
117	-5.85000e+00	2.085016e+05	
118	-5.90000e+00	2.102068e+05	
119	-5.95000e+00	2.118926e+05	
120	-6.00000e+00	2.135593e+05	
121	-6.05000e+00	2.152070e+05	
122	-6.10000e+00	2.168361e+05	
123	-6.15000e+00	2.184468e+05	
124	-6.20000e+00	2.200393e+05	
125	-6.25000e+00	2.216138e+05	
126	-6.30000e+00	2.231707e+05	
127	-6.35000e+00	2.247099e+05	
128	-6.40000e+00	2.262319e+05	
129	-6.45000e+00	2.277367e+05	
130	-6.50000e+00	2.292246e+05	
131	-6.55000e+00	2.306957e+05	
132	-6.60000e+00	2.321502e+05	
Reset re-loads circuit ***************************

Circuit: ***************************

Doing analysis at TEMP = 125.000000 and TNOM = 125.000000


No. of Data Rows : 133
                          ***************************
                          DC transfer characteristic  Mon Jan  9 13:57:55  2023
--------------------------------------------------------------------------------
Index   v-sweep         rds             
--------------------------------------------------------------------------------
0	0.000000e+00	7.458331e+03	
1	-5.00000e-02	7.570538e+03	
2	-1.00000e-01	7.685542e+03	
3	-1.50000e-01	7.803447e+03	
4	-2.00000e-01	7.924363e+03	
5	-2.50000e-01	8.048408e+03	
6	-3.00000e-01	8.175703e+03	
7	-3.50000e-01	8.306376e+03	
8	-4.00000e-01	8.440565e+03	
9	-4.50000e-01	8.578412e+03	
10	-5.00000e-01	8.720067e+03	
11	-5.50000e-01	8.865690e+03	
12	-6.00000e-01	9.015450e+03	
13	-6.50000e-01	9.169524e+03	
14	-7.00000e-01	9.328100e+03	
15	-7.50000e-01	9.491378e+03	
16	-8.00000e-01	9.659570e+03	
17	-8.50000e-01	9.832899e+03	
18	-9.00000e-01	1.001160e+04	
19	-9.50000e-01	1.019594e+04	
20	-1.00000e+00	1.038617e+04	
21	-1.05000e+00	1.058258e+04	
22	-1.10000e+00	1.078549e+04	
23	-1.15000e+00	1.099521e+04	
24	-1.20000e+00	1.121209e+04	
25	-1.25000e+00	1.143651e+04	
26	-1.30000e+00	1.166886e+04	
27	-1.35000e+00	1.190957e+04	
28	-1.40000e+00	1.215910e+04	
29	-1.45000e+00	1.241793e+04	
30	-1.50000e+00	1.268660e+04	
31	-1.55000e+00	1.296568e+04	
32	-1.60000e+00	1.325578e+04	
33	-1.65000e+00	1.355756e+04	
34	-1.70000e+00	1.387173e+04	
35	-1.75000e+00	1.419908e+04	
36	-1.80000e+00	1.454045e+04	
37	-1.85000e+00	1.489674e+04	
38	-1.90000e+00	1.526896e+04	
39	-1.95000e+00	1.565819e+04	
40	-2.00000e+00	1.606562e+04	
41	-2.05000e+00	1.649253e+04	
42	-2.10000e+00	1.694035e+04	
43	-2.15000e+00	1.741064e+04	
44	-2.20000e+00	1.790512e+04	
45	-2.25000e+00	1.842567e+04	
46	-2.30000e+00	1.897439e+04	
47	-2.35000e+00	1.955358e+04	
48	-2.40000e+00	2.016581e+04	
49	-2.45000e+00	2.081394e+04	
50	-2.50000e+00	2.150113e+04	
51	-2.55000e+00	2.223092e+04	
52	-2.60000e+00	2.300726e+04	
53	-2.65000e+00	2.383457e+04	
54	-2.70000e+00	2.471777e+04	

Index   v-sweep         rds             
--------------------------------------------------------------------------------
55	-2.75000e+00	2.566237e+04	
56	-2.80000e+00	2.667451e+04	
57	-2.85000e+00	2.776099e+04	
58	-2.90000e+00	2.892931e+04	
59	-2.95000e+00	3.018761e+04	
60	-3.00000e+00	3.154457e+04	
61	-3.05000e+00	3.300909e+04	
62	-3.10000e+00	3.458989e+04	
63	-3.15000e+00	3.629459e+04	
64	-3.20000e+00	3.812865e+04	
65	-3.25000e+00	4.009377e+04	
66	-3.30000e+00	4.218644e+04	
67	-3.35000e+00	4.439694e+04	
68	-3.40000e+00	4.670973e+04	
69	-3.45000e+00	4.910531e+04	
70	-3.50000e+00	5.156315e+04	
71	-3.55000e+00	5.406427e+04	
72	-3.60000e+00	5.659259e+04	
73	-3.65000e+00	5.913516e+04	
74	-3.70000e+00	6.168181e+04	
75	-3.75000e+00	6.422459e+04	
76	-3.80000e+00	6.675732e+04	
77	-3.85000e+00	6.927523e+04	
78	-3.90000e+00	7.177468e+04	
79	-3.95000e+00	7.425291e+04	
80	-4.00000e+00	7.670786e+04	
81	-4.05000e+00	7.913804e+04	
82	-4.10000e+00	8.154236e+04	
83	-4.15000e+00	8.392005e+04	
84	-4.20000e+00	8.627063e+04	
85	-4.25000e+00	8.859378e+04	
86	-4.30000e+00	9.088936e+04	
87	-4.35000e+00	9.315734e+04	
88	-4.40000e+00	9.539778e+04	
89	-4.45000e+00	9.761081e+04	
90	-4.50000e+00	9.979663e+04	
91	-4.55000e+00	1.019555e+05	
92	-4.60000e+00	1.040876e+05	
93	-4.65000e+00	1.061932e+05	
94	-4.70000e+00	1.082728e+05	
95	-4.75000e+00	1.103266e+05	
96	-4.80000e+00	1.123548e+05	
97	-4.85000e+00	1.143580e+05	
98	-4.90000e+00	1.163364e+05	
99	-4.95000e+00	1.182904e+05	
100	-5.00000e+00	1.202204e+05	
101	-5.05000e+00	1.221266e+05	
102	-5.10000e+00	1.240094e+05	
103	-5.15000e+00	1.258693e+05	
104	-5.20000e+00	1.277065e+05	
105	-5.25000e+00	1.295213e+05	
106	-5.30000e+00	1.313142e+05	
107	-5.35000e+00	1.330854e+05	
108	-5.40000e+00	1.348353e+05	
109	-5.45000e+00	1.365642e+05	
110	-5.50000e+00	1.382725e+05	
111	-5.55000e+00	1.399604e+05	
112	-5.60000e+00	1.416283e+05	

Index   v-sweep         rds             
--------------------------------------------------------------------------------
113	-5.65000e+00	1.432764e+05	
114	-5.70000e+00	1.449052e+05	
115	-5.75000e+00	1.465148e+05	
116	-5.80000e+00	1.481056e+05	
117	-5.85000e+00	1.496778e+05	
118	-5.90000e+00	1.512317e+05	
119	-5.95000e+00	1.527677e+05	
120	-6.00000e+00	1.542859e+05	
121	-6.05000e+00	1.557867e+05	
122	-6.10000e+00	1.572703e+05	
123	-6.15000e+00	1.587370e+05	
124	-6.20000e+00	1.601869e+05	
125	-6.25000e+00	1.616205e+05	
126	-6.30000e+00	1.630377e+05	
127	-6.35000e+00	1.644391e+05	
128	-6.40000e+00	1.658246e+05	
129	-6.45000e+00	1.671946e+05	
130	-6.50000e+00	1.685493e+05	
131	-6.55000e+00	1.698888e+05	
132	-6.60000e+00	1.712135e+05	
Reset re-loads circuit ***************************

Circuit: ***************************

Note: No ".plot", ".print", or ".fourier" lines; no simulations run
