
Note: Compatibility modes selected: hs

Warning: m=xx on .subckt line will override multiplier m hierarchy!


Circuit: ***************************

Doing analysis at TEMP = 125.000000 and TNOM = 125.000000


No. of Data Rows : 133
                          ***************************
                          DC transfer characteristic  Mon Jan  9 13:57:55  2023
--------------------------------------------------------------------------------
Index   v-sweep         rds             
--------------------------------------------------------------------------------
0	0.000000e+00	2.428456e+05	
1	-5.00000e-02	3.219815e+05	
2	-1.00000e-01	4.733186e+05	
3	-1.50000e-01	8.421052e+05	
4	-2.00000e-01	2.061757e+06	
5	-2.50000e-01	6.408861e+06	
6	-3.00000e-01	1.769299e+07	
7	-3.50000e-01	3.702192e+07	
8	-4.00000e-01	6.075800e+07	
9	-4.50000e-01	8.416112e+07	
10	-5.00000e-01	1.046277e+08	
11	-5.50000e-01	1.216534e+08	
12	-6.00000e-01	1.356869e+08	
13	-6.50000e-01	1.473807e+08	
14	-7.00000e-01	1.573086e+08	
15	-7.50000e-01	1.659086e+08	
16	-8.00000e-01	1.734983e+08	
17	-8.50000e-01	1.803051e+08	
18	-9.00000e-01	1.864923e+08	
19	-9.50000e-01	1.921786e+08	
20	-1.00000e+00	1.974514e+08	
21	-1.05000e+00	2.023765e+08	
22	-1.10000e+00	2.070042e+08	
23	-1.15000e+00	2.113737e+08	
24	-1.20000e+00	2.155160e+08	
25	-1.25000e+00	2.194562e+08	
26	-1.30000e+00	2.232147e+08	
27	-1.35000e+00	2.268085e+08	
28	-1.40000e+00	2.302520e+08	
29	-1.45000e+00	2.335573e+08	
30	-1.50000e+00	2.367349e+08	
31	-1.55000e+00	2.397941e+08	
32	-1.60000e+00	2.427428e+08	
33	-1.65000e+00	2.455881e+08	
34	-1.70000e+00	2.483364e+08	
35	-1.75000e+00	2.509935e+08	
36	-1.80000e+00	2.535645e+08	
37	-1.85000e+00	2.560540e+08	
38	-1.90000e+00	2.584664e+08	
39	-1.95000e+00	2.608056e+08	
40	-2.00000e+00	2.630752e+08	
41	-2.05000e+00	2.652785e+08	
42	-2.10000e+00	2.674187e+08	
43	-2.15000e+00	2.694985e+08	
44	-2.20000e+00	2.715208e+08	
45	-2.25000e+00	2.734879e+08	
46	-2.30000e+00	2.754023e+08	
47	-2.35000e+00	2.772662e+08	
48	-2.40000e+00	2.790815e+08	
49	-2.45000e+00	2.808503e+08	
50	-2.50000e+00	2.825744e+08	
51	-2.55000e+00	2.842555e+08	
52	-2.60000e+00	2.858952e+08	
53	-2.65000e+00	2.874951e+08	
54	-2.70000e+00	2.890567e+08	

Index   v-sweep         rds             
--------------------------------------------------------------------------------
55	-2.75000e+00	2.905813e+08	
56	-2.80000e+00	2.920703e+08	
57	-2.85000e+00	2.935249e+08	
58	-2.90000e+00	2.949463e+08	
59	-2.95000e+00	2.963357e+08	
60	-3.00000e+00	2.976941e+08	
61	-3.05000e+00	2.990225e+08	
62	-3.10000e+00	3.003220e+08	
63	-3.15000e+00	3.015935e+08	
64	-3.20000e+00	3.028379e+08	
65	-3.25000e+00	3.040559e+08	
66	-3.30000e+00	3.052486e+08	
67	-3.35000e+00	3.064165e+08	
68	-3.40000e+00	3.075605e+08	
69	-3.45000e+00	3.086813e+08	
70	-3.50000e+00	3.097796e+08	
71	-3.55000e+00	3.108560e+08	
72	-3.60000e+00	3.119112e+08	
73	-3.65000e+00	3.129457e+08	
74	-3.70000e+00	3.139602e+08	
75	-3.75000e+00	3.149552e+08	
76	-3.80000e+00	3.159311e+08	
77	-3.85000e+00	3.168886e+08	
78	-3.90000e+00	3.178282e+08	
79	-3.95000e+00	3.187502e+08	
80	-4.00000e+00	3.196551e+08	
81	-4.05000e+00	3.205434e+08	
82	-4.10000e+00	3.214155e+08	
83	-4.15000e+00	3.222718e+08	
84	-4.20000e+00	3.231126e+08	
85	-4.25000e+00	3.239383e+08	
86	-4.30000e+00	3.247494e+08	
87	-4.35000e+00	3.255460e+08	
88	-4.40000e+00	3.263286e+08	
89	-4.45000e+00	3.270974e+08	
90	-4.50000e+00	3.278528e+08	
91	-4.55000e+00	3.285950e+08	
92	-4.60000e+00	3.293244e+08	
93	-4.65000e+00	3.300411e+08	
94	-4.70000e+00	3.307455e+08	
95	-4.75000e+00	3.314377e+08	
96	-4.80000e+00	3.321181e+08	
97	-4.85000e+00	3.327869e+08	
98	-4.90000e+00	3.334442e+08	
99	-4.95000e+00	3.340903e+08	
100	-5.00000e+00	3.347254e+08	
101	-5.05000e+00	3.353497e+08	
102	-5.10000e+00	3.359633e+08	
103	-5.15000e+00	3.365666e+08	
104	-5.20000e+00	3.371595e+08	
105	-5.25000e+00	3.377424e+08	
106	-5.30000e+00	3.383154e+08	
107	-5.35000e+00	3.388785e+08	
108	-5.40000e+00	3.394321e+08	
109	-5.45000e+00	3.399762e+08	
110	-5.50000e+00	3.405110e+08	
111	-5.55000e+00	3.410366e+08	
112	-5.60000e+00	3.415532e+08	

Index   v-sweep         rds             
--------------------------------------------------------------------------------
113	-5.65000e+00	3.420608e+08	
114	-5.70000e+00	3.425596e+08	
115	-5.75000e+00	3.430498e+08	
116	-5.80000e+00	3.435314e+08	
117	-5.85000e+00	3.440046e+08	
118	-5.90000e+00	3.444695e+08	
119	-5.95000e+00	3.449262e+08	
120	-6.00000e+00	3.453747e+08	
121	-6.05000e+00	3.458152e+08	
122	-6.10000e+00	3.462479e+08	
123	-6.15000e+00	3.466727e+08	
124	-6.20000e+00	3.470898e+08	
125	-6.25000e+00	3.474993e+08	
126	-6.30000e+00	3.479013e+08	
127	-6.35000e+00	3.482958e+08	
128	-6.40000e+00	3.486830e+08	
129	-6.45000e+00	3.490629e+08	
130	-6.50000e+00	3.494356e+08	
131	-6.55000e+00	3.498012e+08	
132	-6.60000e+00	3.501598e+08	
Reset re-loads circuit ***************************

Circuit: ***************************

Doing analysis at TEMP = 125.000000 and TNOM = 125.000000


No. of Data Rows : 133
                          ***************************
                          DC transfer characteristic  Mon Jan  9 13:57:55  2023
--------------------------------------------------------------------------------
Index   v-sweep         rds             
--------------------------------------------------------------------------------
0	0.000000e+00	4.879715e+04	
1	-5.00000e-02	5.163992e+04	
2	-1.00000e-01	5.483179e+04	
3	-1.50000e-01	5.844115e+04	
4	-2.00000e-01	6.255542e+04	
5	-2.50000e-01	6.728816e+04	
6	-3.00000e-01	7.278953e+04	
7	-3.50000e-01	7.926223e+04	
8	-4.00000e-01	8.698636e+04	
9	-4.50000e-01	9.635960e+04	
10	-5.00000e-01	1.079648e+05	
11	-5.50000e-01	1.226880e+05	
12	-6.00000e-01	1.419357e+05	
13	-6.50000e-01	1.680543e+05	
14	-7.00000e-01	2.051812e+05	
15	-7.50000e-01	2.610413e+05	
16	-8.00000e-01	3.507361e+05	
17	-8.50000e-01	5.039460e+05	
18	-9.00000e-01	7.739824e+05	
19	-9.50000e-01	1.233721e+06	
20	-1.00000e+00	1.932312e+06	
21	-1.05000e+00	2.833502e+06	
22	-1.10000e+00	3.819781e+06	
23	-1.15000e+00	4.769298e+06	
24	-1.20000e+00	5.612995e+06	
25	-1.25000e+00	6.334177e+06	
26	-1.30000e+00	6.944198e+06	
27	-1.35000e+00	7.463110e+06	
28	-1.40000e+00	7.910396e+06	
29	-1.45000e+00	8.302030e+06	
30	-1.50000e+00	8.650243e+06	
31	-1.55000e+00	8.964158e+06	
32	-1.60000e+00	9.250540e+06	
33	-1.65000e+00	9.514421e+06	
34	-1.70000e+00	9.759588e+06	
35	-1.75000e+00	9.988928e+06	
36	-1.80000e+00	1.020467e+07	
37	-1.85000e+00	1.040858e+07	
38	-1.90000e+00	1.060204e+07	
39	-1.95000e+00	1.078619e+07	
40	-2.00000e+00	1.096197e+07	
41	-2.05000e+00	1.113014e+07	
42	-2.10000e+00	1.129136e+07	
43	-2.15000e+00	1.144619e+07	
44	-2.20000e+00	1.159511e+07	
45	-2.25000e+00	1.173855e+07	
46	-2.30000e+00	1.187686e+07	
47	-2.35000e+00	1.201039e+07	
48	-2.40000e+00	1.213941e+07	
49	-2.45000e+00	1.226419e+07	
50	-2.50000e+00	1.238498e+07	
51	-2.55000e+00	1.250198e+07	
52	-2.60000e+00	1.261539e+07	
53	-2.65000e+00	1.272540e+07	
54	-2.70000e+00	1.283217e+07	

Index   v-sweep         rds             
--------------------------------------------------------------------------------
55	-2.75000e+00	1.293585e+07	
56	-2.80000e+00	1.303659e+07	
57	-2.85000e+00	1.313452e+07	
58	-2.90000e+00	1.322977e+07	
59	-2.95000e+00	1.332245e+07	
60	-3.00000e+00	1.341266e+07	
61	-3.05000e+00	1.350051e+07	
62	-3.10000e+00	1.358610e+07	
63	-3.15000e+00	1.366952e+07	
64	-3.20000e+00	1.375085e+07	
65	-3.25000e+00	1.383016e+07	
66	-3.30000e+00	1.390755e+07	
67	-3.35000e+00	1.398307e+07	
68	-3.40000e+00	1.405680e+07	
69	-3.45000e+00	1.412879e+07	
70	-3.50000e+00	1.419912e+07	
71	-3.55000e+00	1.426784e+07	
72	-3.60000e+00	1.433501e+07	
73	-3.65000e+00	1.440067e+07	
74	-3.70000e+00	1.446489e+07	
75	-3.75000e+00	1.452770e+07	
76	-3.80000e+00	1.458915e+07	
77	-3.85000e+00	1.464928e+07	
78	-3.90000e+00	1.470815e+07	
79	-3.95000e+00	1.476578e+07	
80	-4.00000e+00	1.482222e+07	
81	-4.05000e+00	1.487749e+07	
82	-4.10000e+00	1.493165e+07	
83	-4.15000e+00	1.498471e+07	
84	-4.20000e+00	1.503672e+07	
85	-4.25000e+00	1.508770e+07	
86	-4.30000e+00	1.513768e+07	
87	-4.35000e+00	1.518669e+07	
88	-4.40000e+00	1.523476e+07	
89	-4.45000e+00	1.528191e+07	
90	-4.50000e+00	1.532817e+07	
91	-4.55000e+00	1.537355e+07	
92	-4.60000e+00	1.541810e+07	
93	-4.65000e+00	1.546181e+07	
94	-4.70000e+00	1.550473e+07	
95	-4.75000e+00	1.554686e+07	
96	-4.80000e+00	1.558822e+07	
97	-4.85000e+00	1.562885e+07	
98	-4.90000e+00	1.566874e+07	
99	-4.95000e+00	1.570792e+07	
100	-5.00000e+00	1.574641e+07	
101	-5.05000e+00	1.578422e+07	
102	-5.10000e+00	1.582137e+07	
103	-5.15000e+00	1.585787e+07	
104	-5.20000e+00	1.589373e+07	
105	-5.25000e+00	1.592898e+07	
106	-5.30000e+00	1.596361e+07	
107	-5.35000e+00	1.599765e+07	
108	-5.40000e+00	1.603111e+07	
109	-5.45000e+00	1.606399e+07	
110	-5.50000e+00	1.609632e+07	
111	-5.55000e+00	1.612809e+07	
112	-5.60000e+00	1.615932e+07	

Index   v-sweep         rds             
--------------------------------------------------------------------------------
113	-5.65000e+00	1.619003e+07	
114	-5.70000e+00	1.622021e+07	
115	-5.75000e+00	1.624988e+07	
116	-5.80000e+00	1.627905e+07	
117	-5.85000e+00	1.630772e+07	
118	-5.90000e+00	1.633591e+07	
119	-5.95000e+00	1.636362e+07	
120	-6.00000e+00	1.639086e+07	
121	-6.05000e+00	1.641763e+07	
122	-6.10000e+00	1.644395e+07	
123	-6.15000e+00	1.646983e+07	
124	-6.20000e+00	1.649526e+07	
125	-6.25000e+00	1.652025e+07	
126	-6.30000e+00	1.654482e+07	
127	-6.35000e+00	1.656896e+07	
128	-6.40000e+00	1.659268e+07	
129	-6.45000e+00	1.661599e+07	
130	-6.50000e+00	1.663890e+07	
131	-6.55000e+00	1.666141e+07	
132	-6.60000e+00	1.668352e+07	
Reset re-loads circuit ***************************

Circuit: ***************************

Doing analysis at TEMP = 125.000000 and TNOM = 125.000000


No. of Data Rows : 133
                          ***************************
                          DC transfer characteristic  Mon Jan  9 13:57:55  2023
--------------------------------------------------------------------------------
Index   v-sweep         rds             
--------------------------------------------------------------------------------
0	0.000000e+00	2.922526e+04	
1	-5.00000e-02	3.015452e+04	
2	-1.00000e-01	3.114416e+04	
3	-1.50000e-01	3.220026e+04	
4	-2.00000e-01	3.332974e+04	
5	-2.50000e-01	3.454051e+04	
6	-3.00000e-01	3.584167e+04	
7	-3.50000e-01	3.724374e+04	
8	-4.00000e-01	3.875889e+04	
9	-4.50000e-01	4.040138e+04	
10	-5.00000e-01	4.218793e+04	
11	-5.50000e-01	4.413834e+04	
12	-6.00000e-01	4.627616e+04	
13	-6.50000e-01	4.862972e+04	
14	-7.00000e-01	5.123330e+04	
15	-7.50000e-01	5.412882e+04	
16	-8.00000e-01	5.736806e+04	
17	-8.50000e-01	6.101576e+04	
18	-9.00000e-01	6.515381e+04	
19	-9.50000e-01	6.988732e+04	
20	-1.00000e+00	7.535330e+04	
21	-1.05000e+00	8.173351e+04	
22	-1.10000e+00	8.927377e+04	
23	-1.15000e+00	9.831386e+04	
24	-1.20000e+00	1.093349e+05	
25	-1.25000e+00	1.230361e+05	
26	-1.30000e+00	1.404632e+05	
27	-1.35000e+00	1.632244e+05	
28	-1.40000e+00	1.938562e+05	
29	-1.45000e+00	2.364220e+05	
30	-1.50000e+00	2.973803e+05	
31	-1.55000e+00	3.864539e+05	
32	-1.60000e+00	5.163131e+05	
33	-1.65000e+00	6.987011e+05	
34	-1.70000e+00	9.360893e+05	
35	-1.75000e+00	1.214724e+06	
36	-1.80000e+00	1.508332e+06	
37	-1.85000e+00	1.790858e+06	
38	-1.90000e+00	2.046186e+06	
39	-1.95000e+00	2.269068e+06	
40	-2.00000e+00	2.461136e+06	
41	-2.05000e+00	2.626857e+06	
42	-2.10000e+00	2.771144e+06	
43	-2.15000e+00	2.898329e+06	
44	-2.20000e+00	3.011910e+06	
45	-2.25000e+00	3.114593e+06	
46	-2.30000e+00	3.208440e+06	
47	-2.35000e+00	3.295018e+06	
48	-2.40000e+00	3.375523e+06	
49	-2.45000e+00	3.450878e+06	
50	-2.50000e+00	3.521799e+06	
51	-2.55000e+00	3.588854e+06	
52	-2.60000e+00	3.652499e+06	
53	-2.65000e+00	3.713100e+06	
54	-2.70000e+00	3.770963e+06	

Index   v-sweep         rds             
--------------------------------------------------------------------------------
55	-2.75000e+00	3.826340e+06	
56	-2.80000e+00	3.879444e+06	
57	-2.85000e+00	3.930458e+06	
58	-2.90000e+00	3.979538e+06	
59	-2.95000e+00	4.026822e+06	
60	-3.00000e+00	4.072431e+06	
61	-3.05000e+00	4.116470e+06	
62	-3.10000e+00	4.159035e+06	
63	-3.15000e+00	4.200212e+06	
64	-3.20000e+00	4.240078e+06	
65	-3.25000e+00	4.278704e+06	
66	-3.30000e+00	4.316153e+06	
67	-3.35000e+00	4.352485e+06	
68	-3.40000e+00	4.387755e+06	
69	-3.45000e+00	4.422011e+06	
70	-3.50000e+00	4.455302e+06	
71	-3.55000e+00	4.487670e+06	
72	-3.60000e+00	4.519155e+06	
73	-3.65000e+00	4.549796e+06	
74	-3.70000e+00	4.579628e+06	
75	-3.75000e+00	4.608684e+06	
76	-3.80000e+00	4.636995e+06	
77	-3.85000e+00	4.664591e+06	
78	-3.90000e+00	4.691499e+06	
79	-3.95000e+00	4.717745e+06	
80	-4.00000e+00	4.743356e+06	
81	-4.05000e+00	4.768352e+06	
82	-4.10000e+00	4.792759e+06	
83	-4.15000e+00	4.816595e+06	
84	-4.20000e+00	4.839882e+06	
85	-4.25000e+00	4.862638e+06	
86	-4.30000e+00	4.884881e+06	
87	-4.35000e+00	4.906630e+06	
88	-4.40000e+00	4.927899e+06	
89	-4.45000e+00	4.948706e+06	
90	-4.50000e+00	4.969065e+06	
91	-4.55000e+00	4.988990e+06	
92	-4.60000e+00	5.008496e+06	
93	-4.65000e+00	5.027594e+06	
94	-4.70000e+00	5.046298e+06	
95	-4.75000e+00	5.064620e+06	
96	-4.80000e+00	5.082570e+06	
97	-4.85000e+00	5.100161e+06	
98	-4.90000e+00	5.117402e+06	
99	-4.95000e+00	5.134304e+06	
100	-5.00000e+00	5.150876e+06	
101	-5.05000e+00	5.167127e+06	
102	-5.10000e+00	5.183067e+06	
103	-5.15000e+00	5.198703e+06	
104	-5.20000e+00	5.214044e+06	
105	-5.25000e+00	5.229098e+06	
106	-5.30000e+00	5.243872e+06	
107	-5.35000e+00	5.258374e+06	
108	-5.40000e+00	5.272610e+06	
109	-5.45000e+00	5.286587e+06	
110	-5.50000e+00	5.300311e+06	
111	-5.55000e+00	5.313788e+06	
112	-5.60000e+00	5.327025e+06	

Index   v-sweep         rds             
--------------------------------------------------------------------------------
113	-5.65000e+00	5.340027e+06	
114	-5.70000e+00	5.352799e+06	
115	-5.75000e+00	5.365346e+06	
116	-5.80000e+00	5.377674e+06	
117	-5.85000e+00	5.389787e+06	
118	-5.90000e+00	5.401690e+06	
119	-5.95000e+00	5.413388e+06	
120	-6.00000e+00	5.424884e+06	
121	-6.05000e+00	5.436183e+06	
122	-6.10000e+00	5.447288e+06	
123	-6.15000e+00	5.458204e+06	
124	-6.20000e+00	5.468934e+06	
125	-6.25000e+00	5.479481e+06	
126	-6.30000e+00	5.489849e+06	
127	-6.35000e+00	5.500042e+06	
128	-6.40000e+00	5.510062e+06	
129	-6.45000e+00	5.519912e+06	
130	-6.50000e+00	5.529595e+06	
131	-6.55000e+00	5.539115e+06	
132	-6.60000e+00	5.548473e+06	
Reset re-loads circuit ***************************

Circuit: ***************************

Doing analysis at TEMP = 125.000000 and TNOM = 125.000000


No. of Data Rows : 133
                          ***************************
                          DC transfer characteristic  Mon Jan  9 13:57:55  2023
--------------------------------------------------------------------------------
Index   v-sweep         rds             
--------------------------------------------------------------------------------
0	0.000000e+00	2.168484e+04	
1	-5.00000e-02	2.215677e+04	
2	-1.00000e-01	2.264939e+04	
3	-1.50000e-01	2.316409e+04	
4	-2.00000e-01	2.370240e+04	
5	-2.50000e-01	2.426598e+04	
6	-3.00000e-01	2.485663e+04	
7	-3.50000e-01	2.547638e+04	
8	-4.00000e-01	2.612741e+04	
9	-4.50000e-01	2.681215e+04	
10	-5.00000e-01	2.753330e+04	
11	-5.50000e-01	2.829383e+04	
12	-6.00000e-01	2.909706e+04	
13	-6.50000e-01	2.994668e+04	
14	-7.00000e-01	3.084683e+04	
15	-7.50000e-01	3.180215e+04	
16	-8.00000e-01	3.281786e+04	
17	-8.50000e-01	3.389988e+04	
18	-9.00000e-01	3.505490e+04	
19	-9.50000e-01	3.629056e+04	
20	-1.00000e+00	3.761560e+04	
21	-1.05000e+00	3.904005e+04	
22	-1.10000e+00	4.057551e+04	
23	-1.15000e+00	4.223545e+04	
24	-1.20000e+00	4.403560e+04	
25	-1.25000e+00	4.599444e+04	
26	-1.30000e+00	4.813384e+04	
27	-1.35000e+00	5.047984e+04	
28	-1.40000e+00	5.306370e+04	
29	-1.45000e+00	5.592327e+04	
30	-1.50000e+00	5.910482e+04	
31	-1.55000e+00	6.266538e+04	
32	-1.60000e+00	6.667613e+04	
33	-1.65000e+00	7.122690e+04	
34	-1.70000e+00	7.643251e+04	
35	-1.75000e+00	8.244184e+04	
36	-1.80000e+00	8.945081e+04	
37	-1.85000e+00	9.772154e+04	
38	-1.90000e+00	1.076106e+05	
39	-1.95000e+00	1.196118e+05	
40	-2.00000e+00	1.344200e+05	
41	-2.05000e+00	1.530265e+05	
42	-2.10000e+00	1.768562e+05	
43	-2.15000e+00	2.079448e+05	
44	-2.20000e+00	2.491143e+05	
45	-2.25000e+00	3.039940e+05	
46	-2.30000e+00	3.765489e+05	
47	-2.35000e+00	4.696985e+05	
48	-2.40000e+00	5.831340e+05	
49	-2.45000e+00	7.117400e+05	
50	-2.50000e+00	8.465397e+05	
51	-2.55000e+00	9.780483e+05	
52	-2.60000e+00	1.099461e+06	
53	-2.65000e+00	1.207676e+06	
54	-2.70000e+00	1.302479e+06	

Index   v-sweep         rds             
--------------------------------------------------------------------------------
55	-2.75000e+00	1.385215e+06	
56	-2.80000e+00	1.457755e+06	
57	-2.85000e+00	1.521943e+06	
58	-2.90000e+00	1.579367e+06	
59	-2.95000e+00	1.631310e+06	
60	-3.00000e+00	1.678779e+06	
61	-3.05000e+00	1.722555e+06	
62	-3.10000e+00	1.763242e+06	
63	-3.15000e+00	1.801309e+06	
64	-3.20000e+00	1.837122e+06	
65	-3.25000e+00	1.870975e+06	
66	-3.30000e+00	1.903099e+06	
67	-3.35000e+00	1.933683e+06	
68	-3.40000e+00	1.962884e+06	
69	-3.45000e+00	1.990830e+06	
70	-3.50000e+00	2.017631e+06	
71	-3.55000e+00	2.043378e+06	
72	-3.60000e+00	2.068152e+06	
73	-3.65000e+00	2.092022e+06	
74	-3.70000e+00	2.115050e+06	
75	-3.75000e+00	2.137287e+06	
76	-3.80000e+00	2.158784e+06	
77	-3.85000e+00	2.179582e+06	
78	-3.90000e+00	2.199722e+06	
79	-3.95000e+00	2.219237e+06	
80	-4.00000e+00	2.238161e+06	
81	-4.05000e+00	2.256522e+06	
82	-4.10000e+00	2.274349e+06	
83	-4.15000e+00	2.291666e+06	
84	-4.20000e+00	2.308497e+06	
85	-4.25000e+00	2.324863e+06	
86	-4.30000e+00	2.340785e+06	
87	-4.35000e+00	2.356282e+06	
88	-4.40000e+00	2.371371e+06	
89	-4.45000e+00	2.386069e+06	
90	-4.50000e+00	2.400391e+06	
91	-4.55000e+00	2.414353e+06	
92	-4.60000e+00	2.427969e+06	
93	-4.65000e+00	2.441250e+06	
94	-4.70000e+00	2.454211e+06	
95	-4.75000e+00	2.466862e+06	
96	-4.80000e+00	2.479215e+06	
97	-4.85000e+00	2.491281e+06	
98	-4.90000e+00	2.503069e+06	
99	-4.95000e+00	2.514590e+06	
100	-5.00000e+00	2.525851e+06	
101	-5.05000e+00	2.536863e+06	
102	-5.10000e+00	2.547633e+06	
103	-5.15000e+00	2.558169e+06	
104	-5.20000e+00	2.568479e+06	
105	-5.25000e+00	2.578570e+06	
106	-5.30000e+00	2.588448e+06	
107	-5.35000e+00	2.598121e+06	
108	-5.40000e+00	2.607595e+06	
109	-5.45000e+00	2.616875e+06	
110	-5.50000e+00	2.625968e+06	
111	-5.55000e+00	2.634879e+06	
112	-5.60000e+00	2.643613e+06	

Index   v-sweep         rds             
--------------------------------------------------------------------------------
113	-5.65000e+00	2.652176e+06	
114	-5.70000e+00	2.660572e+06	
115	-5.75000e+00	2.668806e+06	
116	-5.80000e+00	2.676882e+06	
117	-5.85000e+00	2.684805e+06	
118	-5.90000e+00	2.692578e+06	
119	-5.95000e+00	2.700206e+06	
120	-6.00000e+00	2.707693e+06	
121	-6.05000e+00	2.715042e+06	
122	-6.10000e+00	2.722257e+06	
123	-6.15000e+00	2.729340e+06	
124	-6.20000e+00	2.736296e+06	
125	-6.25000e+00	2.743126e+06	
126	-6.30000e+00	2.749835e+06	
127	-6.35000e+00	2.756425e+06	
128	-6.40000e+00	2.762899e+06	
129	-6.45000e+00	2.769260e+06	
130	-6.50000e+00	2.775509e+06	
131	-6.55000e+00	2.781649e+06	
132	-6.60000e+00	2.787683e+06	
Reset re-loads circuit ***************************

Circuit: ***************************

Doing analysis at TEMP = 125.000000 and TNOM = 125.000000


No. of Data Rows : 133
                          ***************************
                          DC transfer characteristic  Mon Jan  9 13:57:55  2023
--------------------------------------------------------------------------------
Index   v-sweep         rds             
--------------------------------------------------------------------------------
0	0.000000e+00	1.763164e+04	
1	-5.00000e-02	1.792222e+04	
2	-1.00000e-01	1.822237e+04	
3	-1.50000e-01	1.853255e+04	
4	-2.00000e-01	1.885329e+04	
5	-2.50000e-01	1.918513e+04	
6	-3.00000e-01	1.952866e+04	
7	-3.50000e-01	1.988450e+04	
8	-4.00000e-01	2.025333e+04	
9	-4.50000e-01	2.063587e+04	
10	-5.00000e-01	2.103291e+04	
11	-5.50000e-01	2.144528e+04	
12	-6.00000e-01	2.187388e+04	
13	-6.50000e-01	2.231970e+04	
14	-7.00000e-01	2.278379e+04	
15	-7.50000e-01	2.326730e+04	
16	-8.00000e-01	2.377148e+04	
17	-8.50000e-01	2.429767e+04	
18	-9.00000e-01	2.484734e+04	
19	-9.50000e-01	2.542212e+04	
20	-1.00000e+00	2.602375e+04	
21	-1.05000e+00	2.665415e+04	
22	-1.10000e+00	2.731545e+04	
23	-1.15000e+00	2.800997e+04	
24	-1.20000e+00	2.874027e+04	
25	-1.25000e+00	2.950919e+04	
26	-1.30000e+00	3.031988e+04	
27	-1.35000e+00	3.117581e+04	
28	-1.40000e+00	3.208089e+04	
29	-1.45000e+00	3.303947e+04	
30	-1.50000e+00	3.405642e+04	
31	-1.55000e+00	3.513724e+04	
32	-1.60000e+00	3.628811e+04	
33	-1.65000e+00	3.751607e+04	
34	-1.70000e+00	3.882909e+04	
35	-1.75000e+00	4.023631e+04	
36	-1.80000e+00	4.174821e+04	
37	-1.85000e+00	4.337686e+04	
38	-1.90000e+00	4.513625e+04	
39	-1.95000e+00	4.704272e+04	
40	-2.00000e+00	4.911536e+04	
41	-2.05000e+00	5.137675e+04	
42	-2.10000e+00	5.385365e+04	
43	-2.15000e+00	5.657810e+04	
44	-2.20000e+00	5.958868e+04	
45	-2.25000e+00	6.293231e+04	
46	-2.30000e+00	6.666651e+04	
47	-2.35000e+00	7.086245e+04	
48	-2.40000e+00	7.560918e+04	
49	-2.45000e+00	8.101924e+04	
50	-2.50000e+00	8.723651e+04	
51	-2.55000e+00	9.444706e+04	
52	-2.60000e+00	1.028943e+05	
53	-2.65000e+00	1.129001e+05	
54	-2.70000e+00	1.248937e+05	

Index   v-sweep         rds             
--------------------------------------------------------------------------------
55	-2.75000e+00	1.394506e+05	
56	-2.80000e+00	1.573402e+05	
57	-2.85000e+00	1.795768e+05	
58	-2.90000e+00	2.074486e+05	
59	-2.95000e+00	2.424724e+05	
60	-3.00000e+00	2.861783e+05	
61	-3.05000e+00	3.396275e+05	
62	-3.10000e+00	4.026998e+05	
63	-3.15000e+00	4.734988e+05	
64	-3.20000e+00	5.484370e+05	
65	-3.25000e+00	6.232103e+05	
66	-3.30000e+00	6.941107e+05	
67	-3.35000e+00	7.588526e+05	
68	-3.40000e+00	8.166212e+05	
69	-3.45000e+00	8.676388e+05	
70	-3.50000e+00	9.126577e+05	
71	-3.55000e+00	9.525924e+05	
72	-3.60000e+00	9.883188e+05	
73	-3.65000e+00	1.020592e+06	
74	-3.70000e+00	1.050029e+06	
75	-3.75000e+00	1.077121e+06	
76	-3.80000e+00	1.102252e+06	
77	-3.85000e+00	1.125727e+06	
78	-3.90000e+00	1.147781e+06	
79	-3.95000e+00	1.168604e+06	
80	-4.00000e+00	1.188347e+06	
81	-4.05000e+00	1.207131e+06	
82	-4.10000e+00	1.225056e+06	
83	-4.15000e+00	1.242205e+06	
84	-4.20000e+00	1.258646e+06	
85	-4.25000e+00	1.274438e+06	
86	-4.30000e+00	1.289631e+06	
87	-4.35000e+00	1.304269e+06	
88	-4.40000e+00	1.318389e+06	
89	-4.45000e+00	1.332026e+06	
90	-4.50000e+00	1.345208e+06	
91	-4.55000e+00	1.357962e+06	
92	-4.60000e+00	1.370313e+06	
93	-4.65000e+00	1.382282e+06	
94	-4.70000e+00	1.393888e+06	
95	-4.75000e+00	1.405151e+06	
96	-4.80000e+00	1.416086e+06	
97	-4.85000e+00	1.426709e+06	
98	-4.90000e+00	1.437034e+06	
99	-4.95000e+00	1.447075e+06	
100	-5.00000e+00	1.456844e+06	
101	-5.05000e+00	1.466353e+06	
102	-5.10000e+00	1.475611e+06	
103	-5.15000e+00	1.484630e+06	
104	-5.20000e+00	1.493420e+06	
105	-5.25000e+00	1.501988e+06	
106	-5.30000e+00	1.510343e+06	
107	-5.35000e+00	1.518495e+06	
108	-5.40000e+00	1.526449e+06	
109	-5.45000e+00	1.534214e+06	
110	-5.50000e+00	1.541796e+06	
111	-5.55000e+00	1.549202e+06	
112	-5.60000e+00	1.556438e+06	

Index   v-sweep         rds             
--------------------------------------------------------------------------------
113	-5.65000e+00	1.563509e+06	
114	-5.70000e+00	1.570422e+06	
115	-5.75000e+00	1.577181e+06	
116	-5.80000e+00	1.583792e+06	
117	-5.85000e+00	1.590260e+06	
118	-5.90000e+00	1.596588e+06	
119	-5.95000e+00	1.602783e+06	
120	-6.00000e+00	1.608847e+06	
121	-6.05000e+00	1.614785e+06	
122	-6.10000e+00	1.620601e+06	
123	-6.15000e+00	1.626298e+06	
124	-6.20000e+00	1.631880e+06	
125	-6.25000e+00	1.637350e+06	
126	-6.30000e+00	1.642712e+06	
127	-6.35000e+00	1.647968e+06	
128	-6.40000e+00	1.653123e+06	
129	-6.45000e+00	1.658177e+06	
130	-6.50000e+00	1.663135e+06	
131	-6.55000e+00	1.667999e+06	
132	-6.60000e+00	1.672772e+06	
Reset re-loads circuit ***************************

Circuit: ***************************

Doing analysis at TEMP = 125.000000 and TNOM = 125.000000


No. of Data Rows : 133
                          ***************************
                          DC transfer characteristic  Mon Jan  9 13:57:55  2023
--------------------------------------------------------------------------------
Index   v-sweep         rds             
--------------------------------------------------------------------------------
0	0.000000e+00	1.506411e+04	
1	-5.00000e-02	1.526326e+04	
2	-1.00000e-01	1.546763e+04	
3	-1.50000e-01	1.567742e+04	
4	-2.00000e-01	1.589286e+04	
5	-2.50000e-01	1.611418e+04	
6	-3.00000e-01	1.634161e+04	
7	-3.50000e-01	1.657543e+04	
8	-4.00000e-01	1.681589e+04	
9	-4.50000e-01	1.706329e+04	
10	-5.00000e-01	1.731794e+04	
11	-5.50000e-01	1.758014e+04	
12	-6.00000e-01	1.785026e+04	
13	-6.50000e-01	1.812864e+04	
14	-7.00000e-01	1.841568e+04	
15	-7.50000e-01	1.871179e+04	
16	-8.00000e-01	1.901739e+04	
17	-8.50000e-01	1.933296e+04	
18	-9.00000e-01	1.965900e+04	
19	-9.50000e-01	1.999602e+04	
20	-1.00000e+00	2.034459e+04	
21	-1.05000e+00	2.070533e+04	
22	-1.10000e+00	2.107887e+04	
23	-1.15000e+00	2.146591e+04	
24	-1.20000e+00	2.186720e+04	
25	-1.25000e+00	2.228353e+04	
26	-1.30000e+00	2.271577e+04	
27	-1.35000e+00	2.316484e+04	
28	-1.40000e+00	2.363176e+04	
29	-1.45000e+00	2.411759e+04	
30	-1.50000e+00	2.462352e+04	
31	-1.55000e+00	2.515082e+04	
32	-1.60000e+00	2.570086e+04	
33	-1.65000e+00	2.627516e+04	
34	-1.70000e+00	2.687534e+04	
35	-1.75000e+00	2.750320e+04	
36	-1.80000e+00	2.816070e+04	
37	-1.85000e+00	2.884998e+04	
38	-1.90000e+00	2.957339e+04	
39	-1.95000e+00	3.033354e+04	
40	-2.00000e+00	3.113329e+04	
41	-2.05000e+00	3.197581e+04	
42	-2.10000e+00	3.286462e+04	
43	-2.15000e+00	3.380362e+04	
44	-2.20000e+00	3.479719e+04	
45	-2.25000e+00	3.585021e+04	
46	-2.30000e+00	3.696816e+04	
47	-2.35000e+00	3.815720e+04	
48	-2.40000e+00	3.942433e+04	
49	-2.45000e+00	4.077745e+04	
50	-2.50000e+00	4.222558e+04	
51	-2.55000e+00	4.377903e+04	
52	-2.60000e+00	4.544964e+04	
53	-2.65000e+00	4.725107e+04	
54	-2.70000e+00	4.919919e+04	

Index   v-sweep         rds             
--------------------------------------------------------------------------------
55	-2.75000e+00	5.131249e+04	
56	-2.80000e+00	5.361266e+04	
57	-2.85000e+00	5.612527e+04	
58	-2.90000e+00	5.888072e+04	
59	-2.95000e+00	6.191534e+04	
60	-3.00000e+00	6.527284e+04	
61	-3.05000e+00	6.900630e+04	
62	-3.10000e+00	7.318059e+04	
63	-3.15000e+00	7.787566e+04	
64	-3.20000e+00	8.319089e+04	
65	-3.25000e+00	8.925078e+04	
66	-3.30000e+00	9.621248e+04	
67	-3.35000e+00	1.042756e+05	
68	-3.40000e+00	1.136947e+05	
69	-3.45000e+00	1.247949e+05	
70	-3.50000e+00	1.379883e+05	
71	-3.55000e+00	1.537895e+05	
72	-3.60000e+00	1.728194e+05	
73	-3.65000e+00	1.957800e+05	
74	-3.70000e+00	2.233728e+05	
75	-3.75000e+00	2.561283e+05	
76	-3.80000e+00	2.941457e+05	
77	-3.85000e+00	3.368181e+05	
78	-3.90000e+00	3.827177e+05	
79	-3.95000e+00	4.298024e+05	
80	-4.00000e+00	4.759172e+05	
81	-4.05000e+00	5.193276e+05	
82	-4.10000e+00	5.590102e+05	
83	-4.15000e+00	5.946334e+05	
84	-4.20000e+00	6.263548e+05	
85	-4.25000e+00	6.545906e+05	
86	-4.30000e+00	6.798418e+05	
87	-4.35000e+00	7.025942e+05	
88	-4.40000e+00	7.232735e+05	
89	-4.45000e+00	7.422330e+05	
90	-4.50000e+00	7.597580e+05	
91	-4.55000e+00	7.760753e+05	
92	-4.60000e+00	7.913646e+05	
93	-4.65000e+00	8.057683e+05	
94	-4.70000e+00	8.194002e+05	
95	-4.75000e+00	8.323516e+05	
96	-4.80000e+00	8.446970e+05	
97	-4.85000e+00	8.564974e+05	
98	-4.90000e+00	8.678033e+05	
99	-4.95000e+00	8.786574e+05	
100	-5.00000e+00	8.890959e+05	
101	-5.05000e+00	8.991498e+05	
102	-5.10000e+00	9.088462e+05	
103	-5.15000e+00	9.182088e+05	
104	-5.20000e+00	9.272583e+05	
105	-5.25000e+00	9.360134e+05	
106	-5.30000e+00	9.444908e+05	
107	-5.35000e+00	9.527057e+05	
108	-5.40000e+00	9.606716e+05	
109	-5.45000e+00	9.684012e+05	
110	-5.50000e+00	9.759060e+05	
111	-5.55000e+00	9.831966e+05	
112	-5.60000e+00	9.902827e+05	

Index   v-sweep         rds             
--------------------------------------------------------------------------------
113	-5.65000e+00	9.971736e+05	
114	-5.70000e+00	1.003878e+06	
115	-5.75000e+00	1.010403e+06	
116	-5.80000e+00	1.016757e+06	
117	-5.85000e+00	1.022946e+06	
118	-5.90000e+00	1.028977e+06	
119	-5.95000e+00	1.034857e+06	
120	-6.00000e+00	1.040591e+06	
121	-6.05000e+00	1.046184e+06	
122	-6.10000e+00	1.051642e+06	
123	-6.15000e+00	1.056970e+06	
124	-6.20000e+00	1.062172e+06	
125	-6.25000e+00	1.067254e+06	
126	-6.30000e+00	1.072218e+06	
127	-6.35000e+00	1.077069e+06	
128	-6.40000e+00	1.081812e+06	
129	-6.45000e+00	1.086449e+06	
130	-6.50000e+00	1.090984e+06	
131	-6.55000e+00	1.095420e+06	
132	-6.60000e+00	1.099762e+06	
Reset re-loads circuit ***************************

Circuit: ***************************

Note: No ".plot", ".print", or ".fourier" lines; no simulations run
