
Note: Compatibility modes selected: hs

Warning: m=xx on .subckt line will override multiplier m hierarchy!


Circuit: ***************************

Doing analysis at TEMP = 125.000000 and TNOM = 125.000000


No. of Data Rows : 133
                          ***************************
                          DC transfer characteristic  Mon Jan  9 13:57:55  2023
--------------------------------------------------------------------------------
Index   v-sweep         rds             
--------------------------------------------------------------------------------
0	0.000000e+00	2.025259e+05	
1	-5.00000e-02	2.538314e+05	
2	-1.00000e-01	3.384959e+05	
3	-1.50000e-01	5.003906e+05	
4	-2.00000e-01	8.841857e+05	
5	-2.50000e-01	2.000170e+06	
6	-3.00000e-01	4.947860e+06	
7	-3.50000e-01	9.840245e+06	
8	-4.00000e-01	1.486571e+07	
9	-4.50000e-01	1.886247e+07	
10	-5.00000e-01	2.187336e+07	
11	-5.50000e-01	2.423193e+07	
12	-6.00000e-01	2.619301e+07	
13	-6.50000e-01	2.790981e+07	
14	-7.00000e-01	2.947032e+07	
15	-7.50000e-01	3.092569e+07	
16	-8.00000e-01	3.230652e+07	
17	-8.50000e-01	3.363180e+07	
18	-9.00000e-01	3.491372e+07	
19	-9.50000e-01	3.616037e+07	
20	-1.00000e+00	3.737732e+07	
21	-1.05000e+00	3.856849e+07	
22	-1.10000e+00	3.973673e+07	
23	-1.15000e+00	4.088417e+07	
24	-1.20000e+00	4.201244e+07	
25	-1.25000e+00	4.312281e+07	
26	-1.30000e+00	4.421631e+07	
27	-1.35000e+00	4.529378e+07	
28	-1.40000e+00	4.635591e+07	
29	-1.45000e+00	4.740330e+07	
30	-1.50000e+00	4.843646e+07	
31	-1.55000e+00	4.945585e+07	
32	-1.60000e+00	5.046187e+07	
33	-1.65000e+00	5.145488e+07	
34	-1.70000e+00	5.243521e+07	
35	-1.75000e+00	5.340318e+07	
36	-1.80000e+00	5.435905e+07	
37	-1.85000e+00	5.530309e+07	
38	-1.90000e+00	5.623556e+07	
39	-1.95000e+00	5.715669e+07	
40	-2.00000e+00	5.806670e+07	
41	-2.05000e+00	5.896581e+07	
42	-2.10000e+00	5.985422e+07	
43	-2.15000e+00	6.073213e+07	
44	-2.20000e+00	6.159973e+07	
45	-2.25000e+00	6.245720e+07	
46	-2.30000e+00	6.330471e+07	
47	-2.35000e+00	6.414244e+07	
48	-2.40000e+00	6.497055e+07	
49	-2.45000e+00	6.578921e+07	
50	-2.50000e+00	6.659857e+07	
51	-2.55000e+00	6.739878e+07	
52	-2.60000e+00	6.819000e+07	
53	-2.65000e+00	6.897236e+07	
54	-2.70000e+00	6.974601e+07	

Index   v-sweep         rds             
--------------------------------------------------------------------------------
55	-2.75000e+00	7.051108e+07	
56	-2.80000e+00	7.126772e+07	
57	-2.85000e+00	7.201605e+07	
58	-2.90000e+00	7.275619e+07	
59	-2.95000e+00	7.348828e+07	
60	-3.00000e+00	7.421243e+07	
61	-3.05000e+00	7.492877e+07	
62	-3.10000e+00	7.563740e+07	
63	-3.15000e+00	7.633845e+07	
64	-3.20000e+00	7.703202e+07	
65	-3.25000e+00	7.771822e+07	
66	-3.30000e+00	7.839715e+07	
67	-3.35000e+00	7.906893e+07	
68	-3.40000e+00	7.973364e+07	
69	-3.45000e+00	8.039138e+07	
70	-3.50000e+00	8.104225e+07	
71	-3.55000e+00	8.168633e+07	
72	-3.60000e+00	8.232373e+07	
73	-3.65000e+00	8.295452e+07	
74	-3.70000e+00	8.357878e+07	
75	-3.75000e+00	8.419660e+07	
76	-3.80000e+00	8.480805e+07	
77	-3.85000e+00	8.541322e+07	
78	-3.90000e+00	8.601217e+07	
79	-3.95000e+00	8.660497e+07	
80	-4.00000e+00	8.719169e+07	
81	-4.05000e+00	8.777240e+07	
82	-4.10000e+00	8.834716e+07	
83	-4.15000e+00	8.891603e+07	
84	-4.20000e+00	8.947906e+07	
85	-4.25000e+00	9.003631e+07	
86	-4.30000e+00	9.058784e+07	
87	-4.35000e+00	9.113370e+07	
88	-4.40000e+00	9.167392e+07	
89	-4.45000e+00	9.220857e+07	
90	-4.50000e+00	9.273768e+07	
91	-4.55000e+00	9.326128e+07	
92	-4.60000e+00	9.377944e+07	
93	-4.65000e+00	9.429216e+07	
94	-4.70000e+00	9.479951e+07	
95	-4.75000e+00	9.530150e+07	
96	-4.80000e+00	9.579816e+07	
97	-4.85000e+00	9.628953e+07	
98	-4.90000e+00	9.677564e+07	
99	-4.95000e+00	9.725650e+07	
100	-5.00000e+00	9.773214e+07	
101	-5.05000e+00	9.820259e+07	
102	-5.10000e+00	9.866786e+07	
103	-5.15000e+00	9.912797e+07	
104	-5.20000e+00	9.958295e+07	
105	-5.25000e+00	1.000328e+08	
106	-5.30000e+00	1.004775e+08	
107	-5.35000e+00	1.009172e+08	
108	-5.40000e+00	1.013518e+08	
109	-5.45000e+00	1.017812e+08	
110	-5.50000e+00	1.022057e+08	
111	-5.55000e+00	1.026251e+08	
112	-5.60000e+00	1.030394e+08	

Index   v-sweep         rds             
--------------------------------------------------------------------------------
113	-5.65000e+00	1.034487e+08	
114	-5.70000e+00	1.038530e+08	
115	-5.75000e+00	1.042522e+08	
116	-5.80000e+00	1.046464e+08	
117	-5.85000e+00	1.050357e+08	
118	-5.90000e+00	1.054199e+08	
119	-5.95000e+00	1.057991e+08	
120	-6.00000e+00	1.061733e+08	
121	-6.05000e+00	1.065425e+08	
122	-6.10000e+00	1.069067e+08	
123	-6.15000e+00	1.072660e+08	
124	-6.20000e+00	1.076202e+08	
125	-6.25000e+00	1.079695e+08	
126	-6.30000e+00	1.083138e+08	
127	-6.35000e+00	1.086531e+08	
128	-6.40000e+00	1.089875e+08	
129	-6.45000e+00	1.093168e+08	
130	-6.50000e+00	1.096412e+08	
131	-6.55000e+00	1.099607e+08	
132	-6.60000e+00	1.102752e+08	
Reset re-loads circuit ***************************

Circuit: ***************************

Doing analysis at TEMP = 125.000000 and TNOM = 125.000000


No. of Data Rows : 133
                          ***************************
                          DC transfer characteristic  Mon Jan  9 13:57:55  2023
--------------------------------------------------------------------------------
Index   v-sweep         rds             
--------------------------------------------------------------------------------
0	0.000000e+00	4.671230e+04	
1	-5.00000e-02	4.924721e+04	
2	-1.00000e-01	5.206267e+04	
3	-1.50000e-01	5.520790e+04	
4	-2.00000e-01	5.874430e+04	
5	-2.50000e-01	6.274946e+04	
6	-3.00000e-01	6.732284e+04	
7	-3.50000e-01	7.259400e+04	
8	-4.00000e-01	7.873478e+04	
9	-4.50000e-01	8.597782e+04	
10	-5.00000e-01	9.464552e+04	
11	-5.50000e-01	1.051967e+05	
12	-6.00000e-01	1.183047e+05	
13	-6.50000e-01	1.349912e+05	
14	-7.00000e-01	1.568659e+05	
15	-7.50000e-01	1.865602e+05	
16	-8.00000e-01	2.285035e+05	
17	-8.50000e-01	2.901582e+05	
18	-9.00000e-01	3.831813e+05	
19	-9.50000e-01	5.214139e+05	
20	-1.00000e+00	7.099042e+05	
21	-1.05000e+00	9.306478e+05	
22	-1.10000e+00	1.150325e+06	
23	-1.15000e+00	1.345768e+06	
24	-1.20000e+00	1.512255e+06	
25	-1.25000e+00	1.654749e+06	
26	-1.30000e+00	1.779854e+06	
27	-1.35000e+00	1.892862e+06	
28	-1.40000e+00	1.997431e+06	
29	-1.45000e+00	2.095967e+06	
30	-1.50000e+00	2.190046e+06	
31	-1.55000e+00	2.280703e+06	
32	-1.60000e+00	2.368635e+06	
33	-1.65000e+00	2.454320e+06	
34	-1.70000e+00	2.538095e+06	
35	-1.75000e+00	2.620199e+06	
36	-1.80000e+00	2.700812e+06	
37	-1.85000e+00	2.780066e+06	
38	-1.90000e+00	2.858066e+06	
39	-1.95000e+00	2.934891e+06	
40	-2.00000e+00	3.010608e+06	
41	-2.05000e+00	3.085270e+06	
42	-2.10000e+00	3.158921e+06	
43	-2.15000e+00	3.231600e+06	
44	-2.20000e+00	3.303340e+06	
45	-2.25000e+00	3.374170e+06	
46	-2.30000e+00	3.444115e+06	
47	-2.35000e+00	3.513200e+06	
48	-2.40000e+00	3.581445e+06	
49	-2.45000e+00	3.648869e+06	
50	-2.50000e+00	3.715492e+06	
51	-2.55000e+00	3.781330e+06	
52	-2.60000e+00	3.846398e+06	
53	-2.65000e+00	3.910713e+06	
54	-2.70000e+00	3.974288e+06	

Index   v-sweep         rds             
--------------------------------------------------------------------------------
55	-2.75000e+00	4.037138e+06	
56	-2.80000e+00	4.099275e+06	
57	-2.85000e+00	4.160713e+06	
58	-2.90000e+00	4.221463e+06	
59	-2.95000e+00	4.281537e+06	
60	-3.00000e+00	4.340947e+06	
61	-3.05000e+00	4.399703e+06	
62	-3.10000e+00	4.457817e+06	
63	-3.15000e+00	4.515299e+06	
64	-3.20000e+00	4.572159e+06	
65	-3.25000e+00	4.628407e+06	
66	-3.30000e+00	4.684052e+06	
67	-3.35000e+00	4.739105e+06	
68	-3.40000e+00	4.793574e+06	
69	-3.45000e+00	4.847468e+06	
70	-3.50000e+00	4.900795e+06	
71	-3.55000e+00	4.953565e+06	
72	-3.60000e+00	5.005786e+06	
73	-3.65000e+00	5.057466e+06	
74	-3.70000e+00	5.108612e+06	
75	-3.75000e+00	5.159233e+06	
76	-3.80000e+00	5.209336e+06	
77	-3.85000e+00	5.258928e+06	
78	-3.90000e+00	5.308017e+06	
79	-3.95000e+00	5.356610e+06	
80	-4.00000e+00	5.404713e+06	
81	-4.05000e+00	5.452333e+06	
82	-4.10000e+00	5.499477e+06	
83	-4.15000e+00	5.546151e+06	
84	-4.20000e+00	5.592360e+06	
85	-4.25000e+00	5.638112e+06	
86	-4.30000e+00	5.683411e+06	
87	-4.35000e+00	5.728264e+06	
88	-4.40000e+00	5.772675e+06	
89	-4.45000e+00	5.816650e+06	
90	-4.50000e+00	5.860194e+06	
91	-4.55000e+00	5.903311e+06	
92	-4.60000e+00	5.946007e+06	
93	-4.65000e+00	5.988286e+06	
94	-4.70000e+00	6.030151e+06	
95	-4.75000e+00	6.071609e+06	
96	-4.80000e+00	6.112661e+06	
97	-4.85000e+00	6.153312e+06	
98	-4.90000e+00	6.193566e+06	
99	-4.95000e+00	6.233426e+06	
100	-5.00000e+00	6.272896e+06	
101	-5.05000e+00	6.311977e+06	
102	-5.10000e+00	6.350674e+06	
103	-5.15000e+00	6.388989e+06	
104	-5.20000e+00	6.426925e+06	
105	-5.25000e+00	6.464483e+06	
106	-5.30000e+00	6.501667e+06	
107	-5.35000e+00	6.538478e+06	
108	-5.40000e+00	6.574919e+06	
109	-5.45000e+00	6.610990e+06	
110	-5.50000e+00	6.646695e+06	
111	-5.55000e+00	6.682033e+06	
112	-5.60000e+00	6.717008e+06	

Index   v-sweep         rds             
--------------------------------------------------------------------------------
113	-5.65000e+00	6.751620e+06	
114	-5.70000e+00	6.785869e+06	
115	-5.75000e+00	6.819758e+06	
116	-5.80000e+00	6.853287e+06	
117	-5.85000e+00	6.886457e+06	
118	-5.90000e+00	6.919269e+06	
119	-5.95000e+00	6.951723e+06	
120	-6.00000e+00	6.983820e+06	
121	-6.05000e+00	7.015560e+06	
122	-6.10000e+00	7.046943e+06	
123	-6.15000e+00	7.077970e+06	
124	-6.20000e+00	7.108641e+06	
125	-6.25000e+00	7.138956e+06	
126	-6.30000e+00	7.168916e+06	
127	-6.35000e+00	7.198519e+06	
128	-6.40000e+00	7.227767e+06	
129	-6.45000e+00	7.256658e+06	
130	-6.50000e+00	7.285194e+06	
131	-6.55000e+00	7.313373e+06	
132	-6.60000e+00	7.341196e+06	
Reset re-loads circuit ***************************

Circuit: ***************************

Doing analysis at TEMP = 125.000000 and TNOM = 125.000000


No. of Data Rows : 133
                          ***************************
                          DC transfer characteristic  Mon Jan  9 13:57:55  2023
--------------------------------------------------------------------------------
Index   v-sweep         rds             
--------------------------------------------------------------------------------
0	0.000000e+00	2.854187e+04	
1	-5.00000e-02	2.942739e+04	
2	-1.00000e-01	3.036661e+04	
3	-1.50000e-01	3.136456e+04	
4	-2.00000e-01	3.242691e+04	
5	-2.50000e-01	3.356012e+04	
6	-3.00000e-01	3.477149e+04	
7	-3.50000e-01	3.606940e+04	
8	-4.00000e-01	3.746345e+04	
9	-4.50000e-01	3.896472e+04	
10	-5.00000e-01	4.058604e+04	
11	-5.50000e-01	4.234239e+04	
12	-6.00000e-01	4.425133e+04	
13	-6.50000e-01	4.633359e+04	
14	-7.00000e-01	4.861383e+04	
15	-7.50000e-01	5.112156e+04	
16	-8.00000e-01	5.389248e+04	
17	-8.50000e-01	5.697006e+04	
18	-9.00000e-01	6.040785e+04	
19	-9.50000e-01	6.427244e+04	
20	-1.00000e+00	6.864770e+04	
21	-1.05000e+00	7.364055e+04	
22	-1.10000e+00	7.938924e+04	
23	-1.15000e+00	8.607520e+04	
24	-1.20000e+00	9.394029e+04	
25	-1.25000e+00	1.033121e+05	
26	-1.30000e+00	1.146414e+05	
27	-1.35000e+00	1.285553e+05	
28	-1.40000e+00	1.459305e+05	
29	-1.45000e+00	1.679762e+05	
30	-1.50000e+00	1.962792e+05	
31	-1.55000e+00	2.326665e+05	
32	-1.60000e+00	2.786118e+05	
33	-1.65000e+00	3.340290e+05	
34	-1.70000e+00	3.961552e+05	
35	-1.75000e+00	4.601222e+05	
36	-1.80000e+00	5.213536e+05	
37	-1.85000e+00	5.774426e+05	
38	-1.90000e+00	6.280877e+05	
39	-1.95000e+00	6.740620e+05	
40	-2.00000e+00	7.163835e+05	
41	-2.05000e+00	7.559439e+05	
42	-2.10000e+00	7.934205e+05	
43	-2.15000e+00	8.292986e+05	
44	-2.20000e+00	8.639189e+05	
45	-2.25000e+00	8.975197e+05	
46	-2.30000e+00	9.302697e+05	
47	-2.35000e+00	9.622895e+05	
48	-2.40000e+00	9.936671e+05	
49	-2.45000e+00	1.024468e+06	
50	-2.50000e+00	1.054742e+06	
51	-2.55000e+00	1.084528e+06	
52	-2.60000e+00	1.113855e+06	
53	-2.65000e+00	1.142749e+06	
54	-2.70000e+00	1.171230e+06	

Index   v-sweep         rds             
--------------------------------------------------------------------------------
55	-2.75000e+00	1.199314e+06	
56	-2.80000e+00	1.227017e+06	
57	-2.85000e+00	1.254351e+06	
58	-2.90000e+00	1.281327e+06	
59	-2.95000e+00	1.307955e+06	
60	-3.00000e+00	1.334245e+06	
61	-3.05000e+00	1.360204e+06	
62	-3.10000e+00	1.385840e+06	
63	-3.15000e+00	1.411161e+06	
64	-3.20000e+00	1.436173e+06	
65	-3.25000e+00	1.460882e+06	
66	-3.30000e+00	1.485295e+06	
67	-3.35000e+00	1.509417e+06	
68	-3.40000e+00	1.533254e+06	
69	-3.45000e+00	1.556811e+06	
70	-3.50000e+00	1.580093e+06	
71	-3.55000e+00	1.603105e+06	
72	-3.60000e+00	1.625852e+06	
73	-3.65000e+00	1.648338e+06	
74	-3.70000e+00	1.670568e+06	
75	-3.75000e+00	1.692547e+06	
76	-3.80000e+00	1.714277e+06	
77	-3.85000e+00	1.735764e+06	
78	-3.90000e+00	1.757012e+06	
79	-3.95000e+00	1.778024e+06	
80	-4.00000e+00	1.798805e+06	
81	-4.05000e+00	1.819357e+06	
82	-4.10000e+00	1.839684e+06	
83	-4.15000e+00	1.859791e+06	
84	-4.20000e+00	1.879680e+06	
85	-4.25000e+00	1.899356e+06	
86	-4.30000e+00	1.918820e+06	
87	-4.35000e+00	1.938076e+06	
88	-4.40000e+00	1.957129e+06	
89	-4.45000e+00	1.975979e+06	
90	-4.50000e+00	1.994631e+06	
91	-4.55000e+00	2.013088e+06	
92	-4.60000e+00	2.031352e+06	
93	-4.65000e+00	2.049426e+06	
94	-4.70000e+00	2.067312e+06	
95	-4.75000e+00	2.085014e+06	
96	-4.80000e+00	2.102534e+06	
97	-4.85000e+00	2.119874e+06	
98	-4.90000e+00	2.137037e+06	
99	-4.95000e+00	2.154025e+06	
100	-5.00000e+00	2.170840e+06	
101	-5.05000e+00	2.187485e+06	
102	-5.10000e+00	2.203962e+06	
103	-5.15000e+00	2.220272e+06	
104	-5.20000e+00	2.236417e+06	
105	-5.25000e+00	2.252400e+06	
106	-5.30000e+00	2.268223e+06	
107	-5.35000e+00	2.283886e+06	
108	-5.40000e+00	2.299392e+06	
109	-5.45000e+00	2.314743e+06	
110	-5.50000e+00	2.329939e+06	
111	-5.55000e+00	2.344983e+06	
112	-5.60000e+00	2.359875e+06	

Index   v-sweep         rds             
--------------------------------------------------------------------------------
113	-5.65000e+00	2.374617e+06	
114	-5.70000e+00	2.389211e+06	
115	-5.75000e+00	2.403657e+06	
116	-5.80000e+00	2.417956e+06	
117	-5.85000e+00	2.432111e+06	
118	-5.90000e+00	2.446120e+06	
119	-5.95000e+00	2.459987e+06	
120	-6.00000e+00	2.473710e+06	
121	-6.05000e+00	2.487292e+06	
122	-6.10000e+00	2.500733e+06	
123	-6.15000e+00	2.514033e+06	
124	-6.20000e+00	2.527193e+06	
125	-6.25000e+00	2.540215e+06	
126	-6.30000e+00	2.553097e+06	
127	-6.35000e+00	2.565842e+06	
128	-6.40000e+00	2.578448e+06	
129	-6.45000e+00	2.590917e+06	
130	-6.50000e+00	2.603249e+06	
131	-6.55000e+00	2.615445e+06	
132	-6.60000e+00	2.627503e+06	
Reset re-loads circuit ***************************

Circuit: ***************************

Doing analysis at TEMP = 125.000000 and TNOM = 125.000000


No. of Data Rows : 133
                          ***************************
                          DC transfer characteristic  Mon Jan  9 13:57:55  2023
--------------------------------------------------------------------------------
Index   v-sweep         rds             
--------------------------------------------------------------------------------
0	0.000000e+00	2.136183e+04	
1	-5.00000e-02	2.183028e+04	
2	-1.00000e-01	2.231829e+04	
3	-1.50000e-01	2.282712e+04	
4	-2.00000e-01	2.335813e+04	
5	-2.50000e-01	2.391280e+04	
6	-3.00000e-01	2.449274e+04	
7	-3.50000e-01	2.509972e+04	
8	-4.00000e-01	2.573568e+04	
9	-4.50000e-01	2.640273e+04	
10	-5.00000e-01	2.710322e+04	
11	-5.50000e-01	2.783971e+04	
12	-6.00000e-01	2.861505e+04	
13	-6.50000e-01	2.943241e+04	
14	-7.00000e-01	3.029528e+04	
15	-7.50000e-01	3.120756e+04	
16	-8.00000e-01	3.217362e+04	
17	-8.50000e-01	3.319836e+04	
18	-9.00000e-01	3.428727e+04	
19	-9.50000e-01	3.544657e+04	
20	-1.00000e+00	3.668328e+04	
21	-1.05000e+00	3.800542e+04	
22	-1.10000e+00	3.942213e+04	
23	-1.15000e+00	4.094389e+04	
24	-1.20000e+00	4.258279e+04	
25	-1.25000e+00	4.435285e+04	
26	-1.30000e+00	4.627037e+04	
27	-1.35000e+00	4.835447e+04	
28	-1.40000e+00	5.062768e+04	
29	-1.45000e+00	5.311676e+04	
30	-1.50000e+00	5.585365e+04	
31	-1.55000e+00	5.887682e+04	
32	-1.60000e+00	6.223295e+04	
33	-1.65000e+00	6.597918e+04	
34	-1.70000e+00	7.018601e+04	
35	-1.75000e+00	7.494121e+04	
36	-1.80000e+00	8.035504e+04	
37	-1.85000e+00	8.656698e+04	
38	-1.90000e+00	9.375462e+04	
39	-1.95000e+00	1.021444e+05	
40	-2.00000e+00	1.120237e+05	
41	-2.05000e+00	1.237506e+05	
42	-2.10000e+00	1.377520e+05	
43	-2.15000e+00	1.544922e+05	
44	-2.20000e+00	1.743778e+05	
45	-2.25000e+00	1.975755e+05	
46	-2.30000e+00	2.237732e+05	
47	-2.35000e+00	2.520519e+05	
48	-2.40000e+00	2.810721e+05	
49	-2.45000e+00	3.095443e+05	
50	-2.50000e+00	3.366348e+05	
51	-2.55000e+00	3.620450e+05	
52	-2.60000e+00	3.858436e+05	
53	-2.65000e+00	4.082597e+05	
54	-2.70000e+00	4.295489e+05	

Index   v-sweep         rds             
--------------------------------------------------------------------------------
55	-2.75000e+00	4.499340e+05	
56	-2.80000e+00	4.695903e+05	
57	-2.85000e+00	4.886493e+05	
58	-2.90000e+00	5.072078e+05	
59	-2.95000e+00	5.253367e+05	
60	-3.00000e+00	5.430885e+05	
61	-3.05000e+00	5.605021e+05	
62	-3.10000e+00	5.776073e+05	
63	-3.15000e+00	5.944270e+05	
64	-3.20000e+00	6.109792e+05	
65	-3.25000e+00	6.272786e+05	
66	-3.30000e+00	6.433369e+05	
67	-3.35000e+00	6.591641e+05	
68	-3.40000e+00	6.747688e+05	
69	-3.45000e+00	6.901583e+05	
70	-3.50000e+00	7.053392e+05	
71	-3.55000e+00	7.203172e+05	
72	-3.60000e+00	7.350977e+05	
73	-3.65000e+00	7.496854e+05	
74	-3.70000e+00	7.640850e+05	
75	-3.75000e+00	7.783006e+05	
76	-3.80000e+00	7.923362e+05	
77	-3.85000e+00	8.061955e+05	
78	-3.90000e+00	8.198820e+05	
79	-3.95000e+00	8.333991e+05	
80	-4.00000e+00	8.467502e+05	
81	-4.05000e+00	8.599383e+05	
82	-4.10000e+00	8.729665e+05	
83	-4.15000e+00	8.858377e+05	
84	-4.20000e+00	8.985548e+05	
85	-4.25000e+00	9.111204e+05	
86	-4.30000e+00	9.235372e+05	
87	-4.35000e+00	9.358079e+05	
88	-4.40000e+00	9.479349e+05	
89	-4.45000e+00	9.599208e+05	
90	-4.50000e+00	9.717678e+05	
91	-4.55000e+00	9.834784e+05	
92	-4.60000e+00	9.950547e+05	
93	-4.65000e+00	1.006499e+06	
94	-4.70000e+00	1.017814e+06	
95	-4.75000e+00	1.029001e+06	
96	-4.80000e+00	1.040062e+06	
97	-4.85000e+00	1.051000e+06	
98	-4.90000e+00	1.061816e+06	
99	-4.95000e+00	1.072512e+06	
100	-5.00000e+00	1.083090e+06	
101	-5.05000e+00	1.093553e+06	
102	-5.10000e+00	1.103901e+06	
103	-5.15000e+00	1.114137e+06	
104	-5.20000e+00	1.124262e+06	
105	-5.25000e+00	1.134278e+06	
106	-5.30000e+00	1.144186e+06	
107	-5.35000e+00	1.153989e+06	
108	-5.40000e+00	1.163687e+06	
109	-5.45000e+00	1.173282e+06	
110	-5.50000e+00	1.182776e+06	
111	-5.55000e+00	1.192170e+06	
112	-5.60000e+00	1.201465e+06	

Index   v-sweep         rds             
--------------------------------------------------------------------------------
113	-5.65000e+00	1.210662e+06	
114	-5.70000e+00	1.219764e+06	
115	-5.75000e+00	1.228770e+06	
116	-5.80000e+00	1.237683e+06	
117	-5.85000e+00	1.246504e+06	
118	-5.90000e+00	1.255233e+06	
119	-5.95000e+00	1.263872e+06	
120	-6.00000e+00	1.272421e+06	
121	-6.05000e+00	1.280882e+06	
122	-6.10000e+00	1.289255e+06	
123	-6.15000e+00	1.297542e+06	
124	-6.20000e+00	1.305744e+06	
125	-6.25000e+00	1.313860e+06	
126	-6.30000e+00	1.321892e+06	
127	-6.35000e+00	1.329841e+06	
128	-6.40000e+00	1.337708e+06	
129	-6.45000e+00	1.345492e+06	
130	-6.50000e+00	1.353195e+06	
131	-6.55000e+00	1.360817e+06	
132	-6.60000e+00	1.368358e+06	
Reset re-loads circuit ***************************

Circuit: ***************************

Doing analysis at TEMP = 125.000000 and TNOM = 125.000000


No. of Data Rows : 133
                          ***************************
                          DC transfer characteristic  Mon Jan  9 13:57:55  2023
--------------------------------------------------------------------------------
Index   v-sweep         rds             
--------------------------------------------------------------------------------
0	0.000000e+00	1.745758e+04	
1	-5.00000e-02	1.775538e+04	
2	-1.00000e-01	1.806267e+04	
3	-1.50000e-01	1.837990e+04	
4	-2.00000e-01	1.870756e+04	
5	-2.50000e-01	1.904619e+04	
6	-3.00000e-01	1.939633e+04	
7	-3.50000e-01	1.975859e+04	
8	-4.00000e-01	2.013360e+04	
9	-4.50000e-01	2.052205e+04	
10	-5.00000e-01	2.092467e+04	
11	-5.50000e-01	2.134226e+04	
12	-6.00000e-01	2.177566e+04	
13	-6.50000e-01	2.222578e+04	
14	-7.00000e-01	2.269362e+04	
15	-7.50000e-01	2.318023e+04	
16	-8.00000e-01	2.368678e+04	
17	-8.50000e-01	2.421450e+04	
18	-9.00000e-01	2.476475e+04	
19	-9.50000e-01	2.533901e+04	
20	-1.00000e+00	2.593889e+04	
21	-1.05000e+00	2.656611e+04	
22	-1.10000e+00	2.722262e+04	
23	-1.15000e+00	2.791048e+04	
24	-1.20000e+00	2.863201e+04	
25	-1.25000e+00	2.938974e+04	
26	-1.30000e+00	3.018645e+04	
27	-1.35000e+00	3.102522e+04	
28	-1.40000e+00	3.190947e+04	
29	-1.45000e+00	3.284298e+04	
30	-1.50000e+00	3.382999e+04	
31	-1.55000e+00	3.487521e+04	
32	-1.60000e+00	3.598393e+04	
33	-1.65000e+00	3.716209e+04	
34	-1.70000e+00	3.841640e+04	
35	-1.75000e+00	3.975446e+04	
36	-1.80000e+00	4.118489e+04	
37	-1.85000e+00	4.271753e+04	
38	-1.90000e+00	4.436367e+04	
39	-1.95000e+00	4.613628e+04	
40	-2.00000e+00	4.805038e+04	
41	-2.05000e+00	5.012339e+04	
42	-2.10000e+00	5.237568e+04	
43	-2.15000e+00	5.483114e+04	
44	-2.20000e+00	5.751799e+04	
45	-2.25000e+00	6.046970e+04	
46	-2.30000e+00	6.372619e+04	
47	-2.35000e+00	6.733535e+04	
48	-2.40000e+00	7.135484e+04	
49	-2.45000e+00	7.585427e+04	
50	-2.50000e+00	8.091778e+04	
51	-2.55000e+00	8.664673e+04	
52	-2.60000e+00	9.316198e+04	
53	-2.65000e+00	1.006047e+05	
54	-2.70000e+00	1.091329e+05	

Index   v-sweep         rds             
--------------------------------------------------------------------------------
55	-2.75000e+00	1.189102e+05	
56	-2.80000e+00	1.300802e+05	
57	-2.85000e+00	1.427211e+05	
58	-2.90000e+00	1.567854e+05	
59	-2.95000e+00	1.720476e+05	
60	-3.00000e+00	1.881048e+05	
61	-3.05000e+00	2.044597e+05	
62	-3.10000e+00	2.206557e+05	
63	-3.15000e+00	2.363808e+05	
64	-3.20000e+00	2.514923e+05	
65	-3.25000e+00	2.659743e+05	
66	-3.30000e+00	2.798797e+05	
67	-3.35000e+00	2.932846e+05	
68	-3.40000e+00	3.062642e+05	
69	-3.45000e+00	3.188821e+05	
70	-3.50000e+00	3.311893e+05	
71	-3.55000e+00	3.432248e+05	
72	-3.60000e+00	3.550185e+05	
73	-3.65000e+00	3.665931e+05	
74	-3.70000e+00	3.779660e+05	
75	-3.75000e+00	3.891510e+05	
76	-3.80000e+00	4.001587e+05	
77	-3.85000e+00	4.109979e+05	
78	-3.90000e+00	4.216759e+05	
79	-3.95000e+00	4.321986e+05	
80	-4.00000e+00	4.425714e+05	
81	-4.05000e+00	4.527989e+05	
82	-4.10000e+00	4.628850e+05	
83	-4.15000e+00	4.728335e+05	
84	-4.20000e+00	4.826478e+05	
85	-4.25000e+00	4.923309e+05	
86	-4.30000e+00	5.018859e+05	
87	-4.35000e+00	5.113155e+05	
88	-4.40000e+00	5.206223e+05	
89	-4.45000e+00	5.298088e+05	
90	-4.50000e+00	5.388773e+05	
91	-4.55000e+00	5.478302e+05	
92	-4.60000e+00	5.566697e+05	
93	-4.65000e+00	5.653979e+05	
94	-4.70000e+00	5.740168e+05	
95	-4.75000e+00	5.825286e+05	
96	-4.80000e+00	5.909351e+05	
97	-4.85000e+00	5.992382e+05	
98	-4.90000e+00	6.074398e+05	
99	-4.95000e+00	6.155417e+05	
100	-5.00000e+00	6.235456e+05	
101	-5.05000e+00	6.314532e+05	
102	-5.10000e+00	6.392662e+05	
103	-5.15000e+00	6.469862e+05	
104	-5.20000e+00	6.546148e+05	
105	-5.25000e+00	6.621535e+05	
106	-5.30000e+00	6.696039e+05	
107	-5.35000e+00	6.769675e+05	
108	-5.40000e+00	6.842456e+05	
109	-5.45000e+00	6.914397e+05	
110	-5.50000e+00	6.985512e+05	
111	-5.55000e+00	7.055814e+05	
112	-5.60000e+00	7.125317e+05	

Index   v-sweep         rds             
--------------------------------------------------------------------------------
113	-5.65000e+00	7.194032e+05	
114	-5.70000e+00	7.261974e+05	
115	-5.75000e+00	7.329153e+05	
116	-5.80000e+00	7.395582e+05	
117	-5.85000e+00	7.461273e+05	
118	-5.90000e+00	7.526236e+05	
119	-5.95000e+00	7.590484e+05	
120	-6.00000e+00	7.654026e+05	
121	-6.05000e+00	7.716873e+05	
122	-6.10000e+00	7.779035e+05	
123	-6.15000e+00	7.840523e+05	
124	-6.20000e+00	7.901345e+05	
125	-6.25000e+00	7.961511e+05	
126	-6.30000e+00	8.021030e+05	
127	-6.35000e+00	8.079911e+05	
128	-6.40000e+00	8.138162e+05	
129	-6.45000e+00	8.195791e+05	
130	-6.50000e+00	8.252807e+05	
131	-6.55000e+00	8.309215e+05	
132	-6.60000e+00	8.365025e+05	
Reset re-loads circuit ***************************

Circuit: ***************************

Doing analysis at TEMP = 125.000000 and TNOM = 125.000000


No. of Data Rows : 133
                          ***************************
                          DC transfer characteristic  Mon Jan  9 13:57:55  2023
--------------------------------------------------------------------------------
Index   v-sweep         rds             
--------------------------------------------------------------------------------
0	0.000000e+00	1.496883e+04	
1	-5.00000e-02	1.517862e+04	
2	-1.00000e-01	1.539381e+04	
3	-1.50000e-01	1.561461e+04	
4	-2.00000e-01	1.584125e+04	
5	-2.50000e-01	1.607394e+04	
6	-3.00000e-01	1.631296e+04	
7	-3.50000e-01	1.655854e+04	
8	-4.00000e-01	1.681097e+04	
9	-4.50000e-01	1.707053e+04	
10	-5.00000e-01	1.733754e+04	
11	-5.50000e-01	1.761232e+04	
12	-6.00000e-01	1.789521e+04	
13	-6.50000e-01	1.818657e+04	
14	-7.00000e-01	1.848680e+04	
15	-7.50000e-01	1.879630e+04	
16	-8.00000e-01	1.911550e+04	
17	-8.50000e-01	1.944487e+04	
18	-9.00000e-01	1.978491e+04	
19	-9.50000e-01	2.013614e+04	
20	-1.00000e+00	2.049912e+04	
21	-1.05000e+00	2.087444e+04	
22	-1.10000e+00	2.126276e+04	
23	-1.15000e+00	2.166475e+04	
24	-1.20000e+00	2.208115e+04	
25	-1.25000e+00	2.251275e+04	
26	-1.30000e+00	2.296039e+04	
27	-1.35000e+00	2.342498e+04	
28	-1.40000e+00	2.390751e+04	
29	-1.45000e+00	2.440902e+04	
30	-1.50000e+00	2.493067e+04	
31	-1.55000e+00	2.547368e+04	
32	-1.60000e+00	2.603940e+04	
33	-1.65000e+00	2.662927e+04	
34	-1.70000e+00	2.724487e+04	
35	-1.75000e+00	2.788793e+04	
36	-1.80000e+00	2.856031e+04	
37	-1.85000e+00	2.926406e+04	
38	-1.90000e+00	3.000142e+04	
39	-1.95000e+00	3.077485e+04	
40	-2.00000e+00	3.158706e+04	
41	-2.05000e+00	3.244103e+04	
42	-2.10000e+00	3.334005e+04	
43	-2.15000e+00	3.428776e+04	
44	-2.20000e+00	3.528821e+04	
45	-2.25000e+00	3.634591e+04	
46	-2.30000e+00	3.746587e+04	
47	-2.35000e+00	3.865374e+04	
48	-2.40000e+00	3.991582e+04	
49	-2.45000e+00	4.125924e+04	
50	-2.50000e+00	4.269202e+04	
51	-2.55000e+00	4.422330e+04	
52	-2.60000e+00	4.586344e+04	
53	-2.65000e+00	4.762429e+04	
54	-2.70000e+00	4.951943e+04	

Index   v-sweep         rds             
--------------------------------------------------------------------------------
55	-2.75000e+00	5.156446e+04	
56	-2.80000e+00	5.377743e+04	
57	-2.85000e+00	5.617920e+04	
58	-2.90000e+00	5.879403e+04	
59	-2.95000e+00	6.165019e+04	
60	-3.00000e+00	6.478061e+04	
61	-3.05000e+00	6.822374e+04	
62	-3.10000e+00	7.202424e+04	
63	-3.15000e+00	7.623375e+04	
64	-3.20000e+00	8.091112e+04	
65	-3.25000e+00	8.612191e+04	
66	-3.30000e+00	9.193622e+04	
67	-3.35000e+00	9.842365e+04	
68	-3.40000e+00	1.056440e+05	
69	-3.45000e+00	1.136323e+05	
70	-3.50000e+00	1.223797e+05	
71	-3.55000e+00	1.318143e+05	
72	-3.60000e+00	1.417945e+05	
73	-3.65000e+00	1.521241e+05	
74	-3.70000e+00	1.625906e+05	
75	-3.75000e+00	1.730097e+05	
76	-3.80000e+00	1.832542e+05	
77	-3.85000e+00	1.932584e+05	
78	-3.90000e+00	2.030029e+05	
79	-3.95000e+00	2.124957e+05	
80	-4.00000e+00	2.217571e+05	
81	-4.05000e+00	2.308098e+05	
82	-4.10000e+00	2.396745e+05	
83	-4.15000e+00	2.483689e+05	
84	-4.20000e+00	2.569070e+05	
85	-4.25000e+00	2.653001e+05	
86	-4.30000e+00	2.735570e+05	
87	-4.35000e+00	2.816846e+05	
88	-4.40000e+00	2.896887e+05	
89	-4.45000e+00	2.975740e+05	
90	-4.50000e+00	3.053444e+05	
91	-4.55000e+00	3.130034e+05	
92	-4.60000e+00	3.205541e+05	
93	-4.65000e+00	3.279991e+05	
94	-4.70000e+00	3.353410e+05	
95	-4.75000e+00	3.425820e+05	
96	-4.80000e+00	3.497243e+05	
97	-4.85000e+00	3.567700e+05	
98	-4.90000e+00	3.637210e+05	
99	-4.95000e+00	3.705793e+05	
100	-5.00000e+00	3.773465e+05	
101	-5.05000e+00	3.840244e+05	
102	-5.10000e+00	3.906148e+05	
103	-5.15000e+00	3.971192e+05	
104	-5.20000e+00	4.035393e+05	
105	-5.25000e+00	4.098766e+05	
106	-5.30000e+00	4.161326e+05	
107	-5.35000e+00	4.223088e+05	
108	-5.40000e+00	4.284066e+05	
109	-5.45000e+00	4.344274e+05	
110	-5.50000e+00	4.403726e+05	
111	-5.55000e+00	4.462436e+05	
112	-5.60000e+00	4.520416e+05	

Index   v-sweep         rds             
--------------------------------------------------------------------------------
113	-5.65000e+00	4.577680e+05	
114	-5.70000e+00	4.634239e+05	
115	-5.75000e+00	4.690107e+05	
116	-5.80000e+00	4.745295e+05	
117	-5.85000e+00	4.799814e+05	
118	-5.90000e+00	4.853677e+05	
119	-5.95000e+00	4.906894e+05	
120	-6.00000e+00	4.959476e+05	
121	-6.05000e+00	5.011434e+05	
122	-6.10000e+00	5.062779e+05	
123	-6.15000e+00	5.113521e+05	
124	-6.20000e+00	5.163669e+05	
125	-6.25000e+00	5.213234e+05	
126	-6.30000e+00	5.262224e+05	
127	-6.35000e+00	5.310650e+05	
128	-6.40000e+00	5.358521e+05	
129	-6.45000e+00	5.405845e+05	
130	-6.50000e+00	5.452630e+05	
131	-6.55000e+00	5.498886e+05	
132	-6.60000e+00	5.544621e+05	
Reset re-loads circuit ***************************

Circuit: ***************************

Note: No ".plot", ".print", or ".fourier" lines; no simulations run
