
Note: Compatibility modes selected: hs

Warning: m=xx on .subckt line will override multiplier m hierarchy!


Circuit: ***************************

Doing analysis at TEMP = 125.000000 and TNOM = 125.000000


No. of Data Rows : 133
                          ***************************
                          DC transfer characteristic  Mon Jan  9 13:57:55  2023
--------------------------------------------------------------------------------
Index   v-sweep         rds             
--------------------------------------------------------------------------------
0	0.000000e+00	2.424681e+05	
1	-5.00000e-02	2.853512e+05	
2	-1.00000e-01	3.459147e+05	
3	-1.50000e-01	4.374838e+05	
4	-2.00000e-01	5.898216e+05	
5	-2.50000e-01	8.785800e+05	
6	-3.00000e-01	1.506638e+06	
7	-3.50000e-01	2.861328e+06	
8	-4.00000e-01	4.926590e+06	
9	-4.50000e-01	6.803103e+06	
10	-5.00000e-01	8.026291e+06	
11	-5.50000e-01	8.771875e+06	
12	-6.00000e-01	9.261173e+06	
13	-6.50000e-01	9.618723e+06	
14	-7.00000e-01	9.905515e+06	
15	-7.50000e-01	1.015154e+07	
16	-8.00000e-01	1.037220e+07	
17	-8.50000e-01	1.057585e+07	
18	-9.00000e-01	1.076726e+07	
19	-9.50000e-01	1.094929e+07	
20	-1.00000e+00	1.112373e+07	
21	-1.05000e+00	1.129179e+07	
22	-1.10000e+00	1.145427e+07	
23	-1.15000e+00	1.161174e+07	
24	-1.20000e+00	1.176464e+07	
25	-1.25000e+00	1.191330e+07	
26	-1.30000e+00	1.205797e+07	
27	-1.35000e+00	1.219887e+07	
28	-1.40000e+00	1.233618e+07	
29	-1.45000e+00	1.247006e+07	
30	-1.50000e+00	1.260063e+07	
31	-1.55000e+00	1.272801e+07	
32	-1.60000e+00	1.285233e+07	
33	-1.65000e+00	1.297368e+07	
34	-1.70000e+00	1.309214e+07	
35	-1.75000e+00	1.320782e+07	
36	-1.80000e+00	1.332078e+07	
37	-1.85000e+00	1.343112e+07	
38	-1.90000e+00	1.353889e+07	
39	-1.95000e+00	1.364417e+07	
40	-2.00000e+00	1.374703e+07	
41	-2.05000e+00	1.384754e+07	
42	-2.10000e+00	1.394575e+07	
43	-2.15000e+00	1.404172e+07	
44	-2.20000e+00	1.413551e+07	
45	-2.25000e+00	1.422717e+07	
46	-2.30000e+00	1.431676e+07	
47	-2.35000e+00	1.440434e+07	
48	-2.40000e+00	1.448994e+07	
49	-2.45000e+00	1.457362e+07	
50	-2.50000e+00	1.465542e+07	
51	-2.55000e+00	1.473540e+07	
52	-2.60000e+00	1.481358e+07	
53	-2.65000e+00	1.489003e+07	
54	-2.70000e+00	1.496477e+07	

Index   v-sweep         rds             
--------------------------------------------------------------------------------
55	-2.75000e+00	1.503784e+07	
56	-2.80000e+00	1.510929e+07	
57	-2.85000e+00	1.517916e+07	
58	-2.90000e+00	1.524747e+07	
59	-2.95000e+00	1.531427e+07	
60	-3.00000e+00	1.537959e+07	
61	-3.05000e+00	1.544346e+07	
62	-3.10000e+00	1.550592e+07	
63	-3.15000e+00	1.556699e+07	
64	-3.20000e+00	1.562671e+07	
65	-3.25000e+00	1.568511e+07	
66	-3.30000e+00	1.574222e+07	
67	-3.35000e+00	1.579806e+07	
68	-3.40000e+00	1.585266e+07	
69	-3.45000e+00	1.590605e+07	
70	-3.50000e+00	1.595826e+07	
71	-3.55000e+00	1.600930e+07	
72	-3.60000e+00	1.605921e+07	
73	-3.65000e+00	1.610800e+07	
74	-3.70000e+00	1.615571e+07	
75	-3.75000e+00	1.620234e+07	
76	-3.80000e+00	1.624793e+07	
77	-3.85000e+00	1.629250e+07	
78	-3.90000e+00	1.633606e+07	
79	-3.95000e+00	1.637863e+07	
80	-4.00000e+00	1.642024e+07	
81	-4.05000e+00	1.646090e+07	
82	-4.10000e+00	1.650063e+07	
83	-4.15000e+00	1.653944e+07	
84	-4.20000e+00	1.657736e+07	
85	-4.25000e+00	1.661441e+07	
86	-4.30000e+00	1.665058e+07	
87	-4.35000e+00	1.668591e+07	
88	-4.40000e+00	1.672041e+07	
89	-4.45000e+00	1.675409e+07	
90	-4.50000e+00	1.678696e+07	
91	-4.55000e+00	1.681904e+07	
92	-4.60000e+00	1.685034e+07	
93	-4.65000e+00	1.688088e+07	
94	-4.70000e+00	1.691066e+07	
95	-4.75000e+00	1.693970e+07	
96	-4.80000e+00	1.696801e+07	
97	-4.85000e+00	1.699561e+07	
98	-4.90000e+00	1.702249e+07	
99	-4.95000e+00	1.704867e+07	
100	-5.00000e+00	1.707417e+07	
101	-5.05000e+00	1.709899e+07	
102	-5.10000e+00	1.712313e+07	
103	-5.15000e+00	1.714662e+07	
104	-5.20000e+00	1.716946e+07	
105	-5.25000e+00	1.719166e+07	
106	-5.30000e+00	1.721322e+07	
107	-5.35000e+00	1.723416e+07	
108	-5.40000e+00	1.725448e+07	
109	-5.45000e+00	1.727418e+07	
110	-5.50000e+00	1.729329e+07	
111	-5.55000e+00	1.731180e+07	
112	-5.60000e+00	1.732972e+07	

Index   v-sweep         rds             
--------------------------------------------------------------------------------
113	-5.65000e+00	1.734706e+07	
114	-5.70000e+00	1.736382e+07	
115	-5.75000e+00	1.738002e+07	
116	-5.80000e+00	1.739565e+07	
117	-5.85000e+00	1.741073e+07	
118	-5.90000e+00	1.742525e+07	
119	-5.95000e+00	1.743923e+07	
120	-6.00000e+00	1.745267e+07	
121	-6.05000e+00	1.746558e+07	
122	-6.10000e+00	1.747796e+07	
123	-6.15000e+00	1.748981e+07	
124	-6.20000e+00	1.750115e+07	
125	-6.25000e+00	1.751198e+07	
126	-6.30000e+00	1.752230e+07	
127	-6.35000e+00	1.753211e+07	
128	-6.40000e+00	1.754143e+07	
129	-6.45000e+00	1.755025e+07	
130	-6.50000e+00	1.755859e+07	
131	-6.55000e+00	1.756644e+07	
132	-6.60000e+00	1.757381e+07	
Reset re-loads circuit ***************************

Circuit: ***************************

Doing analysis at TEMP = 125.000000 and TNOM = 125.000000


No. of Data Rows : 133
                          ***************************
                          DC transfer characteristic  Mon Jan  9 13:57:55  2023
--------------------------------------------------------------------------------
Index   v-sweep         rds             
--------------------------------------------------------------------------------
0	0.000000e+00	6.837020e+04	
1	-5.00000e-02	7.176267e+04	
2	-1.00000e-01	7.548589e+04	
3	-1.50000e-01	7.959058e+04	
4	-2.00000e-01	8.413839e+04	
5	-2.50000e-01	8.920493e+04	
6	-3.00000e-01	9.488399e+04	
7	-3.50000e-01	1.012933e+05	
8	-4.00000e-01	1.085825e+05	
9	-4.50000e-01	1.169448e+05	
10	-5.00000e-01	1.266337e+05	
11	-5.50000e-01	1.379876e+05	
12	-6.00000e-01	1.514681e+05	
13	-6.50000e-01	1.677183e+05	
14	-7.00000e-01	1.876559e+05	
15	-7.50000e-01	2.126212e+05	
16	-8.00000e-01	2.446107e+05	
17	-8.50000e-01	2.866182e+05	
18	-9.00000e-01	3.430069e+05	
19	-9.50000e-01	4.194098e+05	
20	-1.00000e+00	5.205787e+05	
21	-1.05000e+00	6.442794e+05	
22	-1.10000e+00	7.756725e+05	
23	-1.15000e+00	8.945709e+05	
24	-1.20000e+00	9.904332e+05	
25	-1.25000e+00	1.064769e+06	
26	-1.30000e+00	1.123669e+06	
27	-1.35000e+00	1.172627e+06	
28	-1.40000e+00	1.215355e+06	
29	-1.45000e+00	1.254122e+06	
30	-1.50000e+00	1.290281e+06	
31	-1.55000e+00	1.324643e+06	
32	-1.60000e+00	1.357704e+06	
33	-1.65000e+00	1.389775e+06	
34	-1.70000e+00	1.421057e+06	
35	-1.75000e+00	1.451684e+06	
36	-1.80000e+00	1.481745e+06	
37	-1.85000e+00	1.511304e+06	
38	-1.90000e+00	1.540408e+06	
39	-1.95000e+00	1.569090e+06	
40	-2.00000e+00	1.597376e+06	
41	-2.05000e+00	1.625285e+06	
42	-2.10000e+00	1.652835e+06	
43	-2.15000e+00	1.680038e+06	
44	-2.20000e+00	1.706904e+06	
45	-2.25000e+00	1.733444e+06	
46	-2.30000e+00	1.759665e+06	
47	-2.35000e+00	1.785574e+06	
48	-2.40000e+00	1.811178e+06	
49	-2.45000e+00	1.836483e+06	
50	-2.50000e+00	1.861495e+06	
51	-2.55000e+00	1.886217e+06	
52	-2.60000e+00	1.910656e+06	
53	-2.65000e+00	1.934816e+06	
54	-2.70000e+00	1.958701e+06	

Index   v-sweep         rds             
--------------------------------------------------------------------------------
55	-2.75000e+00	1.982315e+06	
56	-2.80000e+00	2.005662e+06	
57	-2.85000e+00	2.028747e+06	
58	-2.90000e+00	2.051572e+06	
59	-2.95000e+00	2.074143e+06	
60	-3.00000e+00	2.096461e+06	
61	-3.05000e+00	2.118531e+06	
62	-3.10000e+00	2.140356e+06	
63	-3.15000e+00	2.161939e+06	
64	-3.20000e+00	2.183285e+06	
65	-3.25000e+00	2.204395e+06	
66	-3.30000e+00	2.225273e+06	
67	-3.35000e+00	2.245922e+06	
68	-3.40000e+00	2.266345e+06	
69	-3.45000e+00	2.286545e+06	
70	-3.50000e+00	2.306525e+06	
71	-3.55000e+00	2.326287e+06	
72	-3.60000e+00	2.345836e+06	
73	-3.65000e+00	2.365172e+06	
74	-3.70000e+00	2.384300e+06	
75	-3.75000e+00	2.403221e+06	
76	-3.80000e+00	2.421939e+06	
77	-3.85000e+00	2.440455e+06	
78	-3.90000e+00	2.458773e+06	
79	-3.95000e+00	2.476894e+06	
80	-4.00000e+00	2.494822e+06	
81	-4.05000e+00	2.512558e+06	
82	-4.10000e+00	2.530105e+06	
83	-4.15000e+00	2.547465e+06	
84	-4.20000e+00	2.564640e+06	
85	-4.25000e+00	2.581632e+06	
86	-4.30000e+00	2.598444e+06	
87	-4.35000e+00	2.615078e+06	
88	-4.40000e+00	2.631535e+06	
89	-4.45000e+00	2.647817e+06	
90	-4.50000e+00	2.663927e+06	
91	-4.55000e+00	2.679866e+06	
92	-4.60000e+00	2.695635e+06	
93	-4.65000e+00	2.711238e+06	
94	-4.70000e+00	2.726674e+06	
95	-4.75000e+00	2.741946e+06	
96	-4.80000e+00	2.757056e+06	
97	-4.85000e+00	2.772005e+06	
98	-4.90000e+00	2.786793e+06	
99	-4.95000e+00	2.801424e+06	
100	-5.00000e+00	2.815898e+06	
101	-5.05000e+00	2.830215e+06	
102	-5.10000e+00	2.844379e+06	
103	-5.15000e+00	2.858389e+06	
104	-5.20000e+00	2.872247e+06	
105	-5.25000e+00	2.885953e+06	
106	-5.30000e+00	2.899510e+06	
107	-5.35000e+00	2.912917e+06	
108	-5.40000e+00	2.926176e+06	
109	-5.45000e+00	2.939287e+06	
110	-5.50000e+00	2.952252e+06	
111	-5.55000e+00	2.965071e+06	
112	-5.60000e+00	2.977745e+06	

Index   v-sweep         rds             
--------------------------------------------------------------------------------
113	-5.65000e+00	2.990274e+06	
114	-5.70000e+00	3.002660e+06	
115	-5.75000e+00	3.014902e+06	
116	-5.80000e+00	3.027002e+06	
117	-5.85000e+00	3.038959e+06	
118	-5.90000e+00	3.050775e+06	
119	-5.95000e+00	3.062449e+06	
120	-6.00000e+00	3.073983e+06	
121	-6.05000e+00	3.085376e+06	
122	-6.10000e+00	3.096629e+06	
123	-6.15000e+00	3.107743e+06	
124	-6.20000e+00	3.118717e+06	
125	-6.25000e+00	3.129551e+06	
126	-6.30000e+00	3.140247e+06	
127	-6.35000e+00	3.150804e+06	
128	-6.40000e+00	3.161223e+06	
129	-6.45000e+00	3.171503e+06	
130	-6.50000e+00	3.181645e+06	
131	-6.55000e+00	3.191649e+06	
132	-6.60000e+00	3.201516e+06	
Reset re-loads circuit ***************************

Circuit: ***************************

Doing analysis at TEMP = 125.000000 and TNOM = 125.000000


No. of Data Rows : 133
                          ***************************
                          DC transfer characteristic  Mon Jan  9 13:57:55  2023
--------------------------------------------------------------------------------
Index   v-sweep         rds             
--------------------------------------------------------------------------------
0	0.000000e+00	4.228350e+04	
1	-5.00000e-02	4.354634e+04	
2	-1.00000e-01	4.487976e+04	
3	-1.50000e-01	4.628983e+04	
4	-2.00000e-01	4.778334e+04	
5	-2.50000e-01	4.936791e+04	
6	-3.00000e-01	5.105211e+04	
7	-3.50000e-01	5.284564e+04	
8	-4.00000e-01	5.475946e+04	
9	-4.50000e-01	5.680607e+04	
10	-5.00000e-01	5.899975e+04	
11	-5.50000e-01	6.135690e+04	
12	-6.00000e-01	6.389644e+04	
13	-6.50000e-01	6.664032e+04	
14	-7.00000e-01	6.961414e+04	
15	-7.50000e-01	7.284792e+04	
16	-8.00000e-01	7.637712e+04	
17	-8.50000e-01	8.024389e+04	
18	-9.00000e-01	8.449871e+04	
19	-9.50000e-01	8.920250e+04	
20	-1.00000e+00	9.442940e+04	
21	-1.05000e+00	1.002705e+05	
22	-1.10000e+00	1.068385e+05	
23	-1.15000e+00	1.142747e+05	
24	-1.20000e+00	1.227573e+05	
25	-1.25000e+00	1.325134e+05	
26	-1.30000e+00	1.438341e+05	
27	-1.35000e+00	1.570931e+05	
28	-1.40000e+00	1.727663e+05	
29	-1.45000e+00	1.914435e+05	
30	-1.50000e+00	2.138058e+05	
31	-1.55000e+00	2.405129e+05	
32	-1.60000e+00	2.719081e+05	
33	-1.65000e+00	3.074979e+05	
34	-1.70000e+00	3.454723e+05	
35	-1.75000e+00	3.829541e+05	
36	-1.80000e+00	4.172643e+05	
37	-1.85000e+00	4.471324e+05	
38	-1.90000e+00	4.727396e+05	
39	-1.95000e+00	4.949738e+05	
40	-2.00000e+00	5.147866e+05	
41	-2.05000e+00	5.329287e+05	
42	-2.10000e+00	5.499222e+05	
43	-2.15000e+00	5.661109e+05	
44	-2.20000e+00	5.817173e+05	
45	-2.25000e+00	5.968856e+05	
46	-2.30000e+00	6.117105e+05	
47	-2.35000e+00	6.262547e+05	
48	-2.40000e+00	6.405612e+05	
49	-2.45000e+00	6.546595e+05	
50	-2.50000e+00	6.685709e+05	
51	-2.55000e+00	6.823106e+05	
52	-2.60000e+00	6.958899e+05	
53	-2.65000e+00	7.093175e+05	
54	-2.70000e+00	7.226001e+05	

Index   v-sweep         rds             
--------------------------------------------------------------------------------
55	-2.75000e+00	7.357431e+05	
56	-2.80000e+00	7.487508e+05	
57	-2.85000e+00	7.616269e+05	
58	-2.90000e+00	7.743745e+05	
59	-2.95000e+00	7.869963e+05	
60	-3.00000e+00	7.994948e+05	
61	-3.05000e+00	8.118720e+05	
62	-3.10000e+00	8.241299e+05	
63	-3.15000e+00	8.362704e+05	
64	-3.20000e+00	8.482952e+05	
65	-3.25000e+00	8.602058e+05	
66	-3.30000e+00	8.720038e+05	
67	-3.35000e+00	8.836908e+05	
68	-3.40000e+00	8.952680e+05	
69	-3.45000e+00	9.067369e+05	
70	-3.50000e+00	9.180987e+05	
71	-3.55000e+00	9.293549e+05	
72	-3.60000e+00	9.405065e+05	
73	-3.65000e+00	9.515549e+05	
74	-3.70000e+00	9.625013e+05	
75	-3.75000e+00	9.733468e+05	
76	-3.80000e+00	9.840925e+05	
77	-3.85000e+00	9.947397e+05	
78	-3.90000e+00	1.005289e+06	
79	-3.95000e+00	1.015743e+06	
80	-4.00000e+00	1.026101e+06	
81	-4.05000e+00	1.036365e+06	
82	-4.10000e+00	1.046535e+06	
83	-4.15000e+00	1.056614e+06	
84	-4.20000e+00	1.066601e+06	
85	-4.25000e+00	1.076499e+06	
86	-4.30000e+00	1.086307e+06	
87	-4.35000e+00	1.096027e+06	
88	-4.40000e+00	1.105659e+06	
89	-4.45000e+00	1.115206e+06	
90	-4.50000e+00	1.124667e+06	
91	-4.55000e+00	1.134043e+06	
92	-4.60000e+00	1.143336e+06	
93	-4.65000e+00	1.152546e+06	
94	-4.70000e+00	1.161674e+06	
95	-4.75000e+00	1.170721e+06	
96	-4.80000e+00	1.179688e+06	
97	-4.85000e+00	1.188575e+06	
98	-4.90000e+00	1.197383e+06	
99	-4.95000e+00	1.206114e+06	
100	-5.00000e+00	1.214767e+06	
101	-5.05000e+00	1.223343e+06	
102	-5.10000e+00	1.231844e+06	
103	-5.15000e+00	1.240269e+06	
104	-5.20000e+00	1.248620e+06	
105	-5.25000e+00	1.256896e+06	
106	-5.30000e+00	1.265099e+06	
107	-5.35000e+00	1.273229e+06	
108	-5.40000e+00	1.281287e+06	
109	-5.45000e+00	1.289273e+06	
110	-5.50000e+00	1.297188e+06	
111	-5.55000e+00	1.305031e+06	
112	-5.60000e+00	1.312805e+06	

Index   v-sweep         rds             
--------------------------------------------------------------------------------
113	-5.65000e+00	1.320508e+06	
114	-5.70000e+00	1.328141e+06	
115	-5.75000e+00	1.335705e+06	
116	-5.80000e+00	1.343200e+06	
117	-5.85000e+00	1.350626e+06	
118	-5.90000e+00	1.357984e+06	
119	-5.95000e+00	1.365273e+06	
120	-6.00000e+00	1.372495e+06	
121	-6.05000e+00	1.379649e+06	
122	-6.10000e+00	1.386735e+06	
123	-6.15000e+00	1.393753e+06	
124	-6.20000e+00	1.400705e+06	
125	-6.25000e+00	1.407589e+06	
126	-6.30000e+00	1.414406e+06	
127	-6.35000e+00	1.421157e+06	
128	-6.40000e+00	1.427840e+06	
129	-6.45000e+00	1.434456e+06	
130	-6.50000e+00	1.441005e+06	
131	-6.55000e+00	1.447488e+06	
132	-6.60000e+00	1.453903e+06	
Reset re-loads circuit ***************************

Circuit: ***************************

Doing analysis at TEMP = 125.000000 and TNOM = 125.000000


No. of Data Rows : 133
                          ***************************
                          DC transfer characteristic  Mon Jan  9 13:57:55  2023
--------------------------------------------------------------------------------
Index   v-sweep         rds             
--------------------------------------------------------------------------------
0	0.000000e+00	3.174633e+04	
1	-5.00000e-02	3.243337e+04	
2	-1.00000e-01	3.314742e+04	
3	-1.50000e-01	3.389010e+04	
4	-2.00000e-01	3.466316e+04	
5	-2.50000e-01	3.546849e+04	
6	-3.00000e-01	3.630816e+04	
7	-3.50000e-01	3.718441e+04	
8	-4.00000e-01	3.809967e+04	
9	-4.50000e-01	3.905662e+04	
10	-5.00000e-01	4.005814e+04	
11	-5.50000e-01	4.110743e+04	
12	-6.00000e-01	4.220798e+04	
13	-6.50000e-01	4.336362e+04	
14	-7.00000e-01	4.457861e+04	
15	-7.50000e-01	4.585760e+04	
16	-8.00000e-01	4.720580e+04	
17	-8.50000e-01	4.862894e+04	
18	-9.00000e-01	5.013345e+04	
19	-9.50000e-01	5.172648e+04	
20	-1.00000e+00	5.341605e+04	
21	-1.05000e+00	5.521118e+04	
22	-1.10000e+00	5.712204e+04	
23	-1.15000e+00	5.916013e+04	
24	-1.20000e+00	6.133853e+04	
25	-1.25000e+00	6.367215e+04	
26	-1.30000e+00	6.617806e+04	
27	-1.35000e+00	6.887590e+04	
28	-1.40000e+00	7.178839e+04	
29	-1.45000e+00	7.494186e+04	
30	-1.50000e+00	7.836707e+04	
31	-1.55000e+00	8.210007e+04	
32	-1.60000e+00	8.618335e+04	
33	-1.65000e+00	9.066721e+04	
34	-1.70000e+00	9.561147e+04	
35	-1.75000e+00	1.010875e+05	
36	-1.80000e+00	1.071807e+05	
37	-1.85000e+00	1.139929e+05	
38	-1.90000e+00	1.216450e+05	
39	-1.95000e+00	1.302781e+05	
40	-2.00000e+00	1.400516e+05	
41	-2.05000e+00	1.511342e+05	
42	-2.10000e+00	1.636792e+05	
43	-2.15000e+00	1.777760e+05	
44	-2.20000e+00	1.933688e+05	
45	-2.25000e+00	2.101604e+05	
46	-2.30000e+00	2.275632e+05	
47	-2.35000e+00	2.447949e+05	
48	-2.40000e+00	2.611288e+05	
49	-2.45000e+00	2.761399e+05	
50	-2.50000e+00	2.897644e+05	
51	-2.55000e+00	3.021794e+05	
52	-2.60000e+00	3.136454e+05	
53	-2.65000e+00	3.244066e+05	
54	-2.70000e+00	3.346541e+05	

Index   v-sweep         rds             
--------------------------------------------------------------------------------
55	-2.75000e+00	3.445250e+05	
56	-2.80000e+00	3.541138e+05	
57	-2.85000e+00	3.634842e+05	
58	-2.90000e+00	3.726794e+05	
59	-2.95000e+00	3.817285e+05	
60	-3.00000e+00	3.906517e+05	
61	-3.05000e+00	3.994631e+05	
62	-3.10000e+00	4.081727e+05	
63	-3.15000e+00	4.167877e+05	
64	-3.20000e+00	4.253136e+05	
65	-3.25000e+00	4.337544e+05	
66	-3.30000e+00	4.421134e+05	
67	-3.35000e+00	4.503929e+05	
68	-3.40000e+00	4.585952e+05	
69	-3.45000e+00	4.667220e+05	
70	-3.50000e+00	4.747747e+05	
71	-3.55000e+00	4.827547e+05	
72	-3.60000e+00	4.906631e+05	
73	-3.65000e+00	4.985010e+05	
74	-3.70000e+00	5.062693e+05	
75	-3.75000e+00	5.139691e+05	
76	-3.80000e+00	5.216011e+05	
77	-3.85000e+00	5.291662e+05	
78	-3.90000e+00	5.366651e+05	
79	-3.95000e+00	5.440987e+05	
80	-4.00000e+00	5.514676e+05	
81	-4.05000e+00	5.587727e+05	
82	-4.10000e+00	5.660145e+05	
83	-4.15000e+00	5.731939e+05	
84	-4.20000e+00	5.803114e+05	
85	-4.25000e+00	5.873678e+05	
86	-4.30000e+00	5.943636e+05	
87	-4.35000e+00	6.012996e+05	
88	-4.40000e+00	6.081764e+05	
89	-4.45000e+00	6.149946e+05	
90	-4.50000e+00	6.217547e+05	
91	-4.55000e+00	6.284575e+05	
92	-4.60000e+00	6.351036e+05	
93	-4.65000e+00	6.416934e+05	
94	-4.70000e+00	6.482276e+05	
95	-4.75000e+00	6.547069e+05	
96	-4.80000e+00	6.611316e+05	
97	-4.85000e+00	6.675024e+05	
98	-4.90000e+00	6.738199e+05	
99	-4.95000e+00	6.800846e+05	
100	-5.00000e+00	6.862970e+05	
101	-5.05000e+00	6.924576e+05	
102	-5.10000e+00	6.985670e+05	
103	-5.15000e+00	7.046257e+05	
104	-5.20000e+00	7.106341e+05	
105	-5.25000e+00	7.165928e+05	
106	-5.30000e+00	7.225022e+05	
107	-5.35000e+00	7.283627e+05	
108	-5.40000e+00	7.341749e+05	
109	-5.45000e+00	7.399391e+05	
110	-5.50000e+00	7.456559e+05	
111	-5.55000e+00	7.513255e+05	
112	-5.60000e+00	7.569485e+05	

Index   v-sweep         rds             
--------------------------------------------------------------------------------
113	-5.65000e+00	7.625251e+05	
114	-5.70000e+00	7.680558e+05	
115	-5.75000e+00	7.735410e+05	
116	-5.80000e+00	7.789808e+05	
117	-5.85000e+00	7.843758e+05	
118	-5.90000e+00	7.897262e+05	
119	-5.95000e+00	7.950323e+05	
120	-6.00000e+00	8.002944e+05	
121	-6.05000e+00	8.055128e+05	
122	-6.10000e+00	8.106876e+05	
123	-6.15000e+00	8.158192e+05	
124	-6.20000e+00	8.209077e+05	
125	-6.25000e+00	8.259533e+05	
126	-6.30000e+00	8.309563e+05	
127	-6.35000e+00	8.359168e+05	
128	-6.40000e+00	8.408349e+05	
129	-6.45000e+00	8.457108e+05	
130	-6.50000e+00	8.505445e+05	
131	-6.55000e+00	8.553363e+05	
132	-6.60000e+00	8.600861e+05	
Reset re-loads circuit ***************************

Circuit: ***************************

Doing analysis at TEMP = 125.000000 and TNOM = 125.000000


No. of Data Rows : 133
                          ***************************
                          DC transfer characteristic  Mon Jan  9 13:57:55  2023
--------------------------------------------------------------------------------
Index   v-sweep         rds             
--------------------------------------------------------------------------------
0	0.000000e+00	2.607141e+04	
1	-5.00000e-02	2.651643e+04	
2	-1.00000e-01	2.697496e+04	
3	-1.50000e-01	2.744762e+04	
4	-2.00000e-01	2.793509e+04	
5	-2.50000e-01	2.843805e+04	
6	-3.00000e-01	2.895726e+04	
7	-3.50000e-01	2.949352e+04	
8	-4.00000e-01	3.004768e+04	
9	-4.50000e-01	3.062065e+04	
10	-5.00000e-01	3.121341e+04	
11	-5.50000e-01	3.182698e+04	
12	-6.00000e-01	3.246250e+04	
13	-6.50000e-01	3.312114e+04	
14	-7.00000e-01	3.380420e+04	
15	-7.50000e-01	3.451305e+04	
16	-8.00000e-01	3.524918e+04	
17	-8.50000e-01	3.601420e+04	
18	-9.00000e-01	3.680983e+04	
19	-9.50000e-01	3.763794e+04	
20	-1.00000e+00	3.850056e+04	
21	-1.05000e+00	3.939989e+04	
22	-1.10000e+00	4.033831e+04	
23	-1.15000e+00	4.131843e+04	
24	-1.20000e+00	4.234306e+04	
25	-1.25000e+00	4.341532e+04	
26	-1.30000e+00	4.453859e+04	
27	-1.35000e+00	4.571657e+04	
28	-1.40000e+00	4.695336e+04	
29	-1.45000e+00	4.825345e+04	
30	-1.50000e+00	4.962180e+04	
31	-1.55000e+00	5.106391e+04	
32	-1.60000e+00	5.258586e+04	
33	-1.65000e+00	5.419444e+04	
34	-1.70000e+00	5.589720e+04	
35	-1.75000e+00	5.770258e+04	
36	-1.80000e+00	5.962007e+04	
37	-1.85000e+00	6.166031e+04	
38	-1.90000e+00	6.383533e+04	
39	-1.95000e+00	6.615873e+04	
40	-2.00000e+00	6.864594e+04	
41	-2.05000e+00	7.131454e+04	
42	-2.10000e+00	7.418458e+04	
43	-2.15000e+00	7.727901e+04	
44	-2.20000e+00	8.062415e+04	
45	-2.25000e+00	8.425019e+04	
46	-2.30000e+00	8.819177e+04	
47	-2.35000e+00	9.248854e+04	
48	-2.40000e+00	9.718558e+04	
49	-2.45000e+00	1.023335e+05	
50	-2.50000e+00	1.079879e+05	
51	-2.55000e+00	1.142075e+05	
52	-2.60000e+00	1.210496e+05	
53	-2.65000e+00	1.285617e+05	
54	-2.70000e+00	1.367669e+05	

Index   v-sweep         rds             
--------------------------------------------------------------------------------
55	-2.75000e+00	1.456425e+05	
56	-2.80000e+00	1.550948e+05	
57	-2.85000e+00	1.649415e+05	
58	-2.90000e+00	1.749219e+05	
59	-2.95000e+00	1.847482e+05	
60	-3.00000e+00	1.941828e+05	
61	-3.05000e+00	2.030961e+05	
62	-3.10000e+00	2.114723e+05	
63	-3.15000e+00	2.193710e+05	
64	-3.20000e+00	2.268817e+05	
65	-3.25000e+00	2.340916e+05	
66	-3.30000e+00	2.410724e+05	
67	-3.35000e+00	2.478775e+05	
68	-3.40000e+00	2.545448e+05	
69	-3.45000e+00	2.611008e+05	
70	-3.50000e+00	2.675635e+05	
71	-3.55000e+00	2.739453e+05	
72	-3.60000e+00	2.802549e+05	
73	-3.65000e+00	2.864983e+05	
74	-3.70000e+00	2.926796e+05	
75	-3.75000e+00	2.988021e+05	
76	-3.80000e+00	3.048681e+05	
77	-3.85000e+00	3.108793e+05	
78	-3.90000e+00	3.168371e+05	
79	-3.95000e+00	3.227426e+05	
80	-4.00000e+00	3.285968e+05	
81	-4.05000e+00	3.344005e+05	
82	-4.10000e+00	3.401544e+05	
83	-4.15000e+00	3.458590e+05	
84	-4.20000e+00	3.515152e+05	
85	-4.25000e+00	3.571232e+05	
86	-4.30000e+00	3.626838e+05	
87	-4.35000e+00	3.681975e+05	
88	-4.40000e+00	3.736646e+05	
89	-4.45000e+00	3.790857e+05	
90	-4.50000e+00	3.844613e+05	
91	-4.55000e+00	3.897919e+05	
92	-4.60000e+00	3.950778e+05	
93	-4.65000e+00	4.003196e+05	
94	-4.70000e+00	4.055176e+05	
95	-4.75000e+00	4.106724e+05	
96	-4.80000e+00	4.157843e+05	
97	-4.85000e+00	4.208539e+05	
98	-4.90000e+00	4.258814e+05	
99	-4.95000e+00	4.308674e+05	
100	-5.00000e+00	4.358122e+05	
101	-5.05000e+00	4.407163e+05	
102	-5.10000e+00	4.455801e+05	
103	-5.15000e+00	4.504039e+05	
104	-5.20000e+00	4.551883e+05	
105	-5.25000e+00	4.599335e+05	
106	-5.30000e+00	4.646400e+05	
107	-5.35000e+00	4.693081e+05	
108	-5.40000e+00	4.739383e+05	
109	-5.45000e+00	4.785309e+05	
110	-5.50000e+00	4.830863e+05	
111	-5.55000e+00	4.876049e+05	
112	-5.60000e+00	4.920869e+05	

Index   v-sweep         rds             
--------------------------------------------------------------------------------
113	-5.65000e+00	4.965328e+05	
114	-5.70000e+00	5.009430e+05	
115	-5.75000e+00	5.053177e+05	
116	-5.80000e+00	5.096573e+05	
117	-5.85000e+00	5.139621e+05	
118	-5.90000e+00	5.182325e+05	
119	-5.95000e+00	5.224687e+05	
120	-6.00000e+00	5.266710e+05	
121	-6.05000e+00	5.308398e+05	
122	-6.10000e+00	5.349754e+05	
123	-6.15000e+00	5.390779e+05	
124	-6.20000e+00	5.431478e+05	
125	-6.25000e+00	5.471851e+05	
126	-6.30000e+00	5.511903e+05	
127	-6.35000e+00	5.551635e+05	
128	-6.40000e+00	5.591049e+05	
129	-6.45000e+00	5.630148e+05	
130	-6.50000e+00	5.668933e+05	
131	-6.55000e+00	5.707407e+05	
132	-6.60000e+00	5.745571e+05	
Reset re-loads circuit ***************************

Circuit: ***************************

Doing analysis at TEMP = 125.000000 and TNOM = 125.000000


No. of Data Rows : 133
                          ***************************
                          DC transfer characteristic  Mon Jan  9 13:57:55  2023
--------------------------------------------------------------------------------
Index   v-sweep         rds             
--------------------------------------------------------------------------------
0	0.000000e+00	2.253663e+04	
1	-5.00000e-02	2.285504e+04	
2	-1.00000e-01	2.318134e+04	
3	-1.50000e-01	2.351581e+04	
4	-2.00000e-01	2.385876e+04	
5	-2.50000e-01	2.421053e+04	
6	-3.00000e-01	2.457145e+04	
7	-3.50000e-01	2.494189e+04	
8	-4.00000e-01	2.532222e+04	
9	-4.50000e-01	2.571286e+04	
10	-5.00000e-01	2.611421e+04	
11	-5.50000e-01	2.652673e+04	
12	-6.00000e-01	2.695088e+04	
13	-6.50000e-01	2.738717e+04	
14	-7.00000e-01	2.783613e+04	
15	-7.50000e-01	2.829831e+04	
16	-8.00000e-01	2.877430e+04	
17	-8.50000e-01	2.926473e+04	
18	-9.00000e-01	2.977026e+04	
19	-9.50000e-01	3.029161e+04	
20	-1.00000e+00	3.082952e+04	
21	-1.05000e+00	3.138480e+04	
22	-1.10000e+00	3.195829e+04	
23	-1.15000e+00	3.255091e+04	
24	-1.20000e+00	3.316363e+04	
25	-1.25000e+00	3.379748e+04	
26	-1.30000e+00	3.445357e+04	
27	-1.35000e+00	3.513310e+04	
28	-1.40000e+00	3.583734e+04	
29	-1.45000e+00	3.656765e+04	
30	-1.50000e+00	3.732551e+04	
31	-1.55000e+00	3.811249e+04	
32	-1.60000e+00	3.893031e+04	
33	-1.65000e+00	3.978081e+04	
34	-1.70000e+00	4.066598e+04	
35	-1.75000e+00	4.158797e+04	
36	-1.80000e+00	4.254913e+04	
37	-1.85000e+00	4.355197e+04	
38	-1.90000e+00	4.459927e+04	
39	-1.95000e+00	4.569403e+04	
40	-2.00000e+00	4.683953e+04	
41	-2.05000e+00	4.803936e+04	
42	-2.10000e+00	4.929744e+04	
43	-2.15000e+00	5.061809e+04	
44	-2.20000e+00	5.200604e+04	
45	-2.25000e+00	5.346651e+04	
46	-2.30000e+00	5.500528e+04	
47	-2.35000e+00	5.662871e+04	
48	-2.40000e+00	5.834388e+04	
49	-2.45000e+00	6.015864e+04	
50	-2.50000e+00	6.208172e+04	
51	-2.55000e+00	6.412286e+04	
52	-2.60000e+00	6.629292e+04	
53	-2.65000e+00	6.860405e+04	
54	-2.70000e+00	7.106984e+04	

Index   v-sweep         rds             
--------------------------------------------------------------------------------
55	-2.75000e+00	7.370546e+04	
56	-2.80000e+00	7.652785e+04	
57	-2.85000e+00	7.955587e+04	
58	-2.90000e+00	8.281034e+04	
59	-2.95000e+00	8.631406e+04	
60	-3.00000e+00	9.009151e+04	
61	-3.05000e+00	9.416822e+04	
62	-3.10000e+00	9.856953e+04	
63	-3.15000e+00	1.033183e+05	
64	-3.20000e+00	1.084309e+05	
65	-3.25000e+00	1.139122e+05	
66	-3.30000e+00	1.197470e+05	
67	-3.35000e+00	1.258924e+05	
68	-3.40000e+00	1.322718e+05	
69	-3.45000e+00	1.387770e+05	
70	-3.50000e+00	1.452830e+05	
71	-3.55000e+00	1.516740e+05	
72	-3.60000e+00	1.578683e+05	
73	-3.65000e+00	1.638304e+05	
74	-3.70000e+00	1.695649e+05	
75	-3.75000e+00	1.750998e+05	
76	-3.80000e+00	1.804713e+05	
77	-3.85000e+00	1.857131e+05	
78	-3.90000e+00	1.908524e+05	
79	-3.95000e+00	1.959097e+05	
80	-4.00000e+00	2.008992e+05	
81	-4.05000e+00	2.058307e+05	
82	-4.10000e+00	2.107109e+05	
83	-4.15000e+00	2.155442e+05	
84	-4.20000e+00	2.203336e+05	
85	-4.25000e+00	2.250812e+05	
86	-4.30000e+00	2.297884e+05	
87	-4.35000e+00	2.344561e+05	
88	-4.40000e+00	2.390850e+05	
89	-4.45000e+00	2.436758e+05	
90	-4.50000e+00	2.482289e+05	
91	-4.55000e+00	2.527446e+05	
92	-4.60000e+00	2.572233e+05	
93	-4.65000e+00	2.616653e+05	
94	-4.70000e+00	2.660708e+05	
95	-4.75000e+00	2.704402e+05	
96	-4.80000e+00	2.747738e+05	
97	-4.85000e+00	2.790718e+05	
98	-4.90000e+00	2.833346e+05	
99	-4.95000e+00	2.875624e+05	
100	-5.00000e+00	2.917555e+05	
101	-5.05000e+00	2.959142e+05	
102	-5.10000e+00	3.000389e+05	
103	-5.15000e+00	3.041297e+05	
104	-5.20000e+00	3.081871e+05	
105	-5.25000e+00	3.122113e+05	
106	-5.30000e+00	3.162027e+05	
107	-5.35000e+00	3.201614e+05	
108	-5.40000e+00	3.240879e+05	
109	-5.45000e+00	3.279825e+05	
110	-5.50000e+00	3.318454e+05	
111	-5.55000e+00	3.356769e+05	
112	-5.60000e+00	3.394774e+05	

Index   v-sweep         rds             
--------------------------------------------------------------------------------
113	-5.65000e+00	3.432472e+05	
114	-5.70000e+00	3.469864e+05	
115	-5.75000e+00	3.506956e+05	
116	-5.80000e+00	3.543748e+05	
117	-5.85000e+00	3.580245e+05	
118	-5.90000e+00	3.616449e+05	
119	-5.95000e+00	3.652363e+05	
120	-6.00000e+00	3.687990e+05	
121	-6.05000e+00	3.723333e+05	
122	-6.10000e+00	3.758393e+05	
123	-6.15000e+00	3.793175e+05	
124	-6.20000e+00	3.827681e+05	
125	-6.25000e+00	3.861913e+05	
126	-6.30000e+00	3.895874e+05	
127	-6.35000e+00	3.929566e+05	
128	-6.40000e+00	3.962993e+05	
129	-6.45000e+00	3.996156e+05	
130	-6.50000e+00	4.029057e+05	
131	-6.55000e+00	4.061700e+05	
132	-6.60000e+00	4.094086e+05	
Reset re-loads circuit ***************************

Circuit: ***************************

Note: No ".plot", ".print", or ".fourier" lines; no simulations run
