
Note: Compatibility modes selected: hs

Warning: m=xx on .subckt line will override multiplier m hierarchy!


Circuit: ***************************

Doing analysis at TEMP = -40.000000 and TNOM = -40.000000


No. of Data Rows : 133
                          ***************************
                          DC transfer characteristic  Mon Jan  9 13:57:54  2023
--------------------------------------------------------------------------------
Index   v-sweep         rds             
--------------------------------------------------------------------------------
0	0.000000e+00	3.909623e+04	
1	-5.00000e-02	9.440889e+04	
2	-1.00000e-01	4.141723e+05	
3	-1.50000e-01	1.216940e+06	
4	-2.00000e-01	1.840275e+06	
5	-2.50000e-01	2.188371e+06	
6	-3.00000e-01	2.408474e+06	
7	-3.50000e-01	2.568878e+06	
8	-4.00000e-01	2.696274e+06	
9	-4.50000e-01	2.802363e+06	
10	-5.00000e-01	2.893095e+06	
11	-5.50000e-01	2.971932e+06	
12	-6.00000e-01	3.041119e+06	
13	-6.50000e-01	3.102241e+06	
14	-7.00000e-01	3.156483e+06	
15	-7.50000e-01	3.204772e+06	
16	-8.00000e-01	3.247855e+06	
17	-8.50000e-01	3.286351e+06	
18	-9.00000e-01	3.320776e+06	
19	-9.50000e-01	3.351571e+06	
20	-1.00000e+00	3.379115e+06	
21	-1.05000e+00	3.403734e+06	
22	-1.10000e+00	3.425715e+06	
23	-1.15000e+00	3.445307e+06	
24	-1.20000e+00	3.462732e+06	
25	-1.25000e+00	3.478186e+06	
26	-1.30000e+00	3.491841e+06	
27	-1.35000e+00	3.503853e+06	
28	-1.40000e+00	3.514361e+06	
29	-1.45000e+00	3.523489e+06	
30	-1.50000e+00	3.531349e+06	
31	-1.55000e+00	3.538043e+06	
32	-1.60000e+00	3.543663e+06	
33	-1.65000e+00	3.548290e+06	
34	-1.70000e+00	3.552000e+06	
35	-1.75000e+00	3.554863e+06	
36	-1.80000e+00	3.556941e+06	
37	-1.85000e+00	3.558290e+06	
38	-1.90000e+00	3.558964e+06	
39	-1.95000e+00	3.559011e+06	
40	-2.00000e+00	3.558474e+06	
41	-2.05000e+00	3.557395e+06	
42	-2.10000e+00	3.555810e+06	
43	-2.15000e+00	3.553755e+06	
44	-2.20000e+00	3.551261e+06	
45	-2.25000e+00	3.548357e+06	
46	-2.30000e+00	3.545071e+06	
47	-2.35000e+00	3.541429e+06	
48	-2.40000e+00	3.537453e+06	
49	-2.45000e+00	3.533165e+06	
50	-2.50000e+00	3.528587e+06	
51	-2.55000e+00	3.523736e+06	
52	-2.60000e+00	3.518630e+06	
53	-2.65000e+00	3.513286e+06	
54	-2.70000e+00	3.507719e+06	

Index   v-sweep         rds             
--------------------------------------------------------------------------------
55	-2.75000e+00	3.501944e+06	
56	-2.80000e+00	3.495973e+06	
57	-2.85000e+00	3.489820e+06	
58	-2.90000e+00	3.483495e+06	
59	-2.95000e+00	3.477011e+06	
60	-3.00000e+00	3.470377e+06	
61	-3.05000e+00	3.463603e+06	
62	-3.10000e+00	3.456698e+06	
63	-3.15000e+00	3.449671e+06	
64	-3.20000e+00	3.442529e+06	
65	-3.25000e+00	3.435280e+06	
66	-3.30000e+00	3.427932e+06	
67	-3.35000e+00	3.420491e+06	
68	-3.40000e+00	3.412962e+06	
69	-3.45000e+00	3.405353e+06	
70	-3.50000e+00	3.397669e+06	
71	-3.55000e+00	3.389914e+06	
72	-3.60000e+00	3.382094e+06	
73	-3.65000e+00	3.374214e+06	
74	-3.70000e+00	3.366278e+06	
75	-3.75000e+00	3.358290e+06	
76	-3.80000e+00	3.350254e+06	
77	-3.85000e+00	3.342174e+06	
78	-3.90000e+00	3.334053e+06	
79	-3.95000e+00	3.325894e+06	
80	-4.00000e+00	3.317701e+06	
81	-4.05000e+00	3.309477e+06	
82	-4.10000e+00	3.301224e+06	
83	-4.15000e+00	3.292944e+06	
84	-4.20000e+00	3.284642e+06	
85	-4.25000e+00	3.276318e+06	
86	-4.30000e+00	3.267975e+06	
87	-4.35000e+00	3.259615e+06	
88	-4.40000e+00	3.251240e+06	
89	-4.45000e+00	3.242851e+06	
90	-4.50000e+00	3.234452e+06	
91	-4.55000e+00	3.226043e+06	
92	-4.60000e+00	3.217625e+06	
93	-4.65000e+00	3.209201e+06	
94	-4.70000e+00	3.200772e+06	
95	-4.75000e+00	3.192338e+06	
96	-4.80000e+00	3.183902e+06	
97	-4.85000e+00	3.175464e+06	
98	-4.90000e+00	3.167026e+06	
99	-4.95000e+00	3.158589e+06	
100	-5.00000e+00	3.150153e+06	
101	-5.05000e+00	3.141719e+06	
102	-5.10000e+00	3.133289e+06	
103	-5.15000e+00	3.124863e+06	
104	-5.20000e+00	3.116441e+06	
105	-5.25000e+00	3.108026e+06	
106	-5.30000e+00	3.099617e+06	
107	-5.35000e+00	3.091215e+06	
108	-5.40000e+00	3.082820e+06	
109	-5.45000e+00	3.074434e+06	
110	-5.50000e+00	3.066056e+06	
111	-5.55000e+00	3.057688e+06	
112	-5.60000e+00	3.049329e+06	

Index   v-sweep         rds             
--------------------------------------------------------------------------------
113	-5.65000e+00	3.040981e+06	
114	-5.70000e+00	3.032643e+06	
115	-5.75000e+00	3.024316e+06	
116	-5.80000e+00	3.016001e+06	
117	-5.85000e+00	3.007697e+06	
118	-5.90000e+00	2.999405e+06	
119	-5.95000e+00	2.991126e+06	
120	-6.00000e+00	2.982859e+06	
121	-6.05000e+00	2.974606e+06	
122	-6.10000e+00	2.966365e+06	
123	-6.15000e+00	2.958138e+06	
124	-6.20000e+00	2.949925e+06	
125	-6.25000e+00	2.941725e+06	
126	-6.30000e+00	2.933540e+06	
127	-6.35000e+00	2.925369e+06	
128	-6.40000e+00	2.917212e+06	
129	-6.45000e+00	2.909070e+06	
130	-6.50000e+00	2.900943e+06	
131	-6.55000e+00	2.892831e+06	
132	-6.60000e+00	2.884734e+06	
Reset re-loads circuit ***************************

Circuit: ***************************

Doing analysis at TEMP = -40.000000 and TNOM = -40.000000


No. of Data Rows : 133
                          ***************************
                          DC transfer characteristic  Mon Jan  9 13:57:54  2023
--------------------------------------------------------------------------------
Index   v-sweep         rds             
--------------------------------------------------------------------------------
0	0.000000e+00	2.748235e+03	
1	-5.00000e-02	2.957750e+03	
2	-1.00000e-01	3.195928e+03	
3	-1.50000e-01	3.469039e+03	
4	-2.00000e-01	3.785313e+03	
5	-2.50000e-01	4.155765e+03	
6	-3.00000e-01	4.595454e+03	
7	-3.50000e-01	5.125489e+03	
8	-4.00000e-01	5.776278e+03	
9	-4.50000e-01	6.592970e+03	
10	-5.00000e-01	7.644703e+03	
11	-5.50000e-01	9.040061e+03	
12	-6.00000e-01	1.095015e+04	
13	-6.50000e-01	1.362813e+04	
14	-7.00000e-01	1.736526e+04	
15	-7.50000e-01	2.227218e+04	
16	-8.00000e-01	2.801925e+04	
17	-8.50000e-01	3.403034e+04	
18	-9.00000e-01	3.991925e+04	
19	-9.50000e-01	4.556157e+04	
20	-1.00000e+00	5.095446e+04	
21	-1.05000e+00	5.612452e+04	
22	-1.10000e+00	6.109808e+04	
23	-1.15000e+00	6.589570e+04	
24	-1.20000e+00	7.053285e+04	
25	-1.25000e+00	7.502142e+04	
26	-1.30000e+00	7.937084e+04	
27	-1.35000e+00	8.358895e+04	
28	-1.40000e+00	8.768242e+04	
29	-1.45000e+00	9.165713e+04	
30	-1.50000e+00	9.551833e+04	
31	-1.55000e+00	9.927085e+04	
32	-1.60000e+00	1.029191e+05	
33	-1.65000e+00	1.064672e+05	
34	-1.70000e+00	1.099191e+05	
35	-1.75000e+00	1.132783e+05	
36	-1.80000e+00	1.165483e+05	
37	-1.85000e+00	1.197324e+05	
38	-1.90000e+00	1.228335e+05	
39	-1.95000e+00	1.258547e+05	
40	-2.00000e+00	1.287988e+05	
41	-2.05000e+00	1.316684e+05	
42	-2.10000e+00	1.344661e+05	
43	-2.15000e+00	1.371942e+05	
44	-2.20000e+00	1.398551e+05	
45	-2.25000e+00	1.424511e+05	
46	-2.30000e+00	1.449842e+05	
47	-2.35000e+00	1.474565e+05	
48	-2.40000e+00	1.498700e+05	
49	-2.45000e+00	1.522264e+05	
50	-2.50000e+00	1.545277e+05	
51	-2.55000e+00	1.567755e+05	
52	-2.60000e+00	1.589714e+05	
53	-2.65000e+00	1.611171e+05	
54	-2.70000e+00	1.632141e+05	

Index   v-sweep         rds             
--------------------------------------------------------------------------------
55	-2.75000e+00	1.652639e+05	
56	-2.80000e+00	1.672678e+05	
57	-2.85000e+00	1.692272e+05	
58	-2.90000e+00	1.711435e+05	
59	-2.95000e+00	1.730178e+05	
60	-3.00000e+00	1.748514e+05	
61	-3.05000e+00	1.766454e+05	
62	-3.10000e+00	1.784010e+05	
63	-3.15000e+00	1.801193e+05	
64	-3.20000e+00	1.818012e+05	
65	-3.25000e+00	1.834478e+05	
66	-3.30000e+00	1.850601e+05	
67	-3.35000e+00	1.866389e+05	
68	-3.40000e+00	1.881852e+05	
69	-3.45000e+00	1.896999e+05	
70	-3.50000e+00	1.911838e+05	
71	-3.55000e+00	1.926376e+05	
72	-3.60000e+00	1.940622e+05	
73	-3.65000e+00	1.954583e+05	
74	-3.70000e+00	1.968267e+05	
75	-3.75000e+00	1.981680e+05	
76	-3.80000e+00	1.994829e+05	
77	-3.85000e+00	2.007720e+05	
78	-3.90000e+00	2.020361e+05	
79	-3.95000e+00	2.032756e+05	
80	-4.00000e+00	2.044912e+05	
81	-4.05000e+00	2.056835e+05	
82	-4.10000e+00	2.068529e+05	
83	-4.15000e+00	2.080000e+05	
84	-4.20000e+00	2.091254e+05	
85	-4.25000e+00	2.102294e+05	
86	-4.30000e+00	2.113126e+05	
87	-4.35000e+00	2.123753e+05	
88	-4.40000e+00	2.134181e+05	
89	-4.45000e+00	2.144414e+05	
90	-4.50000e+00	2.154455e+05	
91	-4.55000e+00	2.164308e+05	
92	-4.60000e+00	2.173977e+05	
93	-4.65000e+00	2.183466e+05	
94	-4.70000e+00	2.192777e+05	
95	-4.75000e+00	2.201915e+05	
96	-4.80000e+00	2.210882e+05	
97	-4.85000e+00	2.219681e+05	
98	-4.90000e+00	2.228316e+05	
99	-4.95000e+00	2.236788e+05	
100	-5.00000e+00	2.245101e+05	
101	-5.05000e+00	2.253258e+05	
102	-5.10000e+00	2.261259e+05	
103	-5.15000e+00	2.269109e+05	
104	-5.20000e+00	2.276809e+05	
105	-5.25000e+00	2.284360e+05	
106	-5.30000e+00	2.291766e+05	
107	-5.35000e+00	2.299029e+05	
108	-5.40000e+00	2.306149e+05	
109	-5.45000e+00	2.313129e+05	
110	-5.50000e+00	2.319971e+05	
111	-5.55000e+00	2.326675e+05	
112	-5.60000e+00	2.333245e+05	

Index   v-sweep         rds             
--------------------------------------------------------------------------------
113	-5.65000e+00	2.339681e+05	
114	-5.70000e+00	2.345984e+05	
115	-5.75000e+00	2.352156e+05	
116	-5.80000e+00	2.358199e+05	
117	-5.85000e+00	2.364113e+05	
118	-5.90000e+00	2.369899e+05	
119	-5.95000e+00	2.375560e+05	
120	-6.00000e+00	2.381096e+05	
121	-6.05000e+00	2.386507e+05	
122	-6.10000e+00	2.391796e+05	
123	-6.15000e+00	2.396963e+05	
124	-6.20000e+00	2.402009e+05	
125	-6.25000e+00	2.406935e+05	
126	-6.30000e+00	2.411741e+05	
127	-6.35000e+00	2.416429e+05	
128	-6.40000e+00	2.421000e+05	
129	-6.45000e+00	2.425454e+05	
130	-6.50000e+00	2.429792e+05	
131	-6.55000e+00	2.434015e+05	
132	-6.60000e+00	2.438124e+05	
Reset re-loads circuit ***************************

Circuit: ***************************

Doing analysis at TEMP = -40.000000 and TNOM = -40.000000


No. of Data Rows : 133
                          ***************************
                          DC transfer characteristic  Mon Jan  9 13:57:54  2023
--------------------------------------------------------------------------------
Index   v-sweep         rds             
--------------------------------------------------------------------------------
0	0.000000e+00	1.659020e+03	
1	-5.00000e-02	1.731675e+03	
2	-1.00000e-01	1.809402e+03	
3	-1.50000e-01	1.892745e+03	
4	-2.00000e-01	1.982330e+03	
5	-2.50000e-01	2.078878e+03	
6	-3.00000e-01	2.183227e+03	
7	-3.50000e-01	2.296354e+03	
8	-4.00000e-01	2.419406e+03	
9	-4.50000e-01	2.553738e+03	
10	-5.00000e-01	2.700965e+03	
11	-5.50000e-01	2.863021e+03	
12	-6.00000e-01	3.042248e+03	
13	-6.50000e-01	3.241503e+03	
14	-7.00000e-01	3.464312e+03	
15	-7.50000e-01	3.715068e+03	
16	-8.00000e-01	3.999314e+03	
17	-8.50000e-01	4.324134e+03	
18	-9.00000e-01	4.698704e+03	
19	-9.50000e-01	5.135073e+03	
20	-1.00000e+00	5.649269e+03	
21	-1.05000e+00	6.262798e+03	
22	-1.10000e+00	7.004465e+03	
23	-1.15000e+00	7.911835e+03	
24	-1.20000e+00	9.030031e+03	
25	-1.25000e+00	1.040303e+04	
26	-1.30000e+00	1.205396e+04	
27	-1.35000e+00	1.396442e+04	
28	-1.40000e+00	1.607574e+04	
29	-1.45000e+00	1.831459e+04	
30	-1.50000e+00	2.061767e+04	
31	-1.55000e+00	2.294045e+04	
32	-1.60000e+00	2.525477e+04	
33	-1.65000e+00	2.754372e+04	
34	-1.70000e+00	2.979747e+04	
35	-1.75000e+00	3.201044e+04	
36	-1.80000e+00	3.417961e+04	
37	-1.85000e+00	3.630353e+04	
38	-1.90000e+00	3.838172e+04	
39	-1.95000e+00	4.041431e+04	
40	-2.00000e+00	4.240180e+04	
41	-2.05000e+00	4.434494e+04	
42	-2.10000e+00	4.624461e+04	
43	-2.15000e+00	4.810182e+04	
44	-2.20000e+00	4.991759e+04	
45	-2.25000e+00	5.169299e+04	
46	-2.30000e+00	5.342910e+04	
47	-2.35000e+00	5.512698e+04	
48	-2.40000e+00	5.678769e+04	
49	-2.45000e+00	5.841226e+04	
50	-2.50000e+00	6.000171e+04	
51	-2.55000e+00	6.155702e+04	
52	-2.60000e+00	6.307916e+04	
53	-2.65000e+00	6.456906e+04	
54	-2.70000e+00	6.602762e+04	

Index   v-sweep         rds             
--------------------------------------------------------------------------------
55	-2.75000e+00	6.745572e+04	
56	-2.80000e+00	6.885422e+04	
57	-2.85000e+00	7.022394e+04	
58	-2.90000e+00	7.156566e+04	
59	-2.95000e+00	7.288017e+04	
60	-3.00000e+00	7.416821e+04	
61	-3.05000e+00	7.543049e+04	
62	-3.10000e+00	7.666771e+04	
63	-3.15000e+00	7.788055e+04	
64	-3.20000e+00	7.906965e+04	
65	-3.25000e+00	8.023565e+04	
66	-3.30000e+00	8.137916e+04	
67	-3.35000e+00	8.250075e+04	
68	-3.40000e+00	8.360101e+04	
69	-3.45000e+00	8.468048e+04	
70	-3.50000e+00	8.573969e+04	
71	-3.55000e+00	8.677916e+04	
72	-3.60000e+00	8.779938e+04	
73	-3.65000e+00	8.880085e+04	
74	-3.70000e+00	8.978402e+04	
75	-3.75000e+00	9.074935e+04	
76	-3.80000e+00	9.169727e+04	
77	-3.85000e+00	9.262821e+04	
78	-3.90000e+00	9.354258e+04	
79	-3.95000e+00	9.444077e+04	
80	-4.00000e+00	9.532317e+04	
81	-4.05000e+00	9.619014e+04	
82	-4.10000e+00	9.704205e+04	
83	-4.15000e+00	9.787925e+04	
84	-4.20000e+00	9.870206e+04	
85	-4.25000e+00	9.951082e+04	
86	-4.30000e+00	1.003058e+05	
87	-4.35000e+00	1.010874e+05	
88	-4.40000e+00	1.018558e+05	
89	-4.45000e+00	1.026114e+05	
90	-4.50000e+00	1.033544e+05	
91	-4.55000e+00	1.040851e+05	
92	-4.60000e+00	1.048036e+05	
93	-4.65000e+00	1.055104e+05	
94	-4.70000e+00	1.062056e+05	
95	-4.75000e+00	1.068894e+05	
96	-4.80000e+00	1.075620e+05	
97	-4.85000e+00	1.082238e+05	
98	-4.90000e+00	1.088748e+05	
99	-4.95000e+00	1.095152e+05	
100	-5.00000e+00	1.101453e+05	
101	-5.05000e+00	1.107653e+05	
102	-5.10000e+00	1.113752e+05	
103	-5.15000e+00	1.119753e+05	
104	-5.20000e+00	1.125657e+05	
105	-5.25000e+00	1.131465e+05	
106	-5.30000e+00	1.137180e+05	
107	-5.35000e+00	1.142802e+05	
108	-5.40000e+00	1.148332e+05	
109	-5.45000e+00	1.153773e+05	
110	-5.50000e+00	1.159125e+05	
111	-5.55000e+00	1.164388e+05	
112	-5.60000e+00	1.169565e+05	

Index   v-sweep         rds             
--------------------------------------------------------------------------------
113	-5.65000e+00	1.174656e+05	
114	-5.70000e+00	1.179663e+05	
115	-5.75000e+00	1.184585e+05	
116	-5.80000e+00	1.189424e+05	
117	-5.85000e+00	1.194181e+05	
118	-5.90000e+00	1.198856e+05	
119	-5.95000e+00	1.203451e+05	
120	-6.00000e+00	1.207965e+05	
121	-6.05000e+00	1.212399e+05	
122	-6.10000e+00	1.216755e+05	
123	-6.15000e+00	1.221031e+05	
124	-6.20000e+00	1.225230e+05	
125	-6.25000e+00	1.229351e+05	
126	-6.30000e+00	1.233396e+05	
127	-6.35000e+00	1.237363e+05	
128	-6.40000e+00	1.241254e+05	
129	-6.45000e+00	1.245070e+05	
130	-6.50000e+00	1.248810e+05	
131	-6.55000e+00	1.252474e+05	
132	-6.60000e+00	1.256064e+05	
Reset re-loads circuit ***************************

Circuit: ***************************

Doing analysis at TEMP = -40.000000 and TNOM = -40.000000


No. of Data Rows : 133
                          ***************************
                          DC transfer characteristic  Mon Jan  9 13:57:54  2023
--------------------------------------------------------------------------------
Index   v-sweep         rds             
--------------------------------------------------------------------------------
0	0.000000e+00	1.284351e+03	
1	-5.00000e-02	1.325392e+03	
2	-1.00000e-01	1.368384e+03	
3	-1.50000e-01	1.413469e+03	
4	-2.00000e-01	1.460799e+03	
5	-2.50000e-01	1.510546e+03	
6	-3.00000e-01	1.562896e+03	
7	-3.50000e-01	1.618056e+03	
8	-4.00000e-01	1.676256e+03	
9	-4.50000e-01	1.737753e+03	
10	-5.00000e-01	1.802830e+03	
11	-5.50000e-01	1.871807e+03	
12	-6.00000e-01	1.945043e+03	
13	-6.50000e-01	2.022939e+03	
14	-7.00000e-01	2.105953e+03	
15	-7.50000e-01	2.194601e+03	
16	-8.00000e-01	2.289474e+03	
17	-8.50000e-01	2.391245e+03	
18	-9.00000e-01	2.500692e+03	
19	-9.50000e-01	2.618710e+03	
20	-1.00000e+00	2.746345e+03	
21	-1.05000e+00	2.884815e+03	
22	-1.10000e+00	3.035559e+03	
23	-1.15000e+00	3.200282e+03	
24	-1.20000e+00	3.381026e+03	
25	-1.25000e+00	3.580257e+03	
26	-1.30000e+00	3.800991e+03	
27	-1.35000e+00	4.046961e+03	
28	-1.40000e+00	4.322857e+03	
29	-1.45000e+00	4.634684e+03	
30	-1.50000e+00	4.990276e+03	
31	-1.55000e+00	5.400045e+03	
32	-1.60000e+00	5.877967e+03	
33	-1.65000e+00	6.442545e+03	
34	-1.70000e+00	7.116735e+03	
35	-1.75000e+00	7.924791e+03	
36	-1.80000e+00	8.884459e+03	
37	-1.85000e+00	9.997472e+03	
38	-1.90000e+00	1.124612e+04	
39	-1.95000e+00	1.259950e+04	
40	-2.00000e+00	1.402386e+04	
41	-2.05000e+00	1.548982e+04	
42	-2.10000e+00	1.697493e+04	
43	-2.15000e+00	1.846322e+04	
44	-2.20000e+00	1.994379e+04	
45	-2.25000e+00	2.140936e+04	
46	-2.30000e+00	2.285515e+04	
47	-2.35000e+00	2.427807e+04	
48	-2.40000e+00	2.567622e+04	
49	-2.45000e+00	2.704845e+04	
50	-2.50000e+00	2.839419e+04	
51	-2.55000e+00	2.971320e+04	
52	-2.60000e+00	3.100554e+04	
53	-2.65000e+00	3.227141e+04	
54	-2.70000e+00	3.351118e+04	

Index   v-sweep         rds             
--------------------------------------------------------------------------------
55	-2.75000e+00	3.472527e+04	
56	-2.80000e+00	3.591417e+04	
57	-2.85000e+00	3.707841e+04	
58	-2.90000e+00	3.821854e+04	
59	-2.95000e+00	3.933513e+04	
60	-3.00000e+00	4.042875e+04	
61	-3.05000e+00	4.149997e+04	
62	-3.10000e+00	4.254937e+04	
63	-3.15000e+00	4.357748e+04	
64	-3.20000e+00	4.458488e+04	
65	-3.25000e+00	4.557210e+04	
66	-3.30000e+00	4.653966e+04	
67	-3.35000e+00	4.748808e+04	
68	-3.40000e+00	4.841786e+04	
69	-3.45000e+00	4.932949e+04	
70	-3.50000e+00	5.022345e+04	
71	-3.55000e+00	5.110018e+04	
72	-3.60000e+00	5.196015e+04	
73	-3.65000e+00	5.280377e+04	
74	-3.70000e+00	5.363148e+04	
75	-3.75000e+00	5.444368e+04	
76	-3.80000e+00	5.524077e+04	
77	-3.85000e+00	5.602313e+04	
78	-3.90000e+00	5.679113e+04	
79	-3.95000e+00	5.754512e+04	
80	-4.00000e+00	5.828547e+04	
81	-4.05000e+00	5.901251e+04	
82	-4.10000e+00	5.972656e+04	
83	-4.15000e+00	6.042794e+04	
84	-4.20000e+00	6.111696e+04	
85	-4.25000e+00	6.179392e+04	
86	-4.30000e+00	6.245910e+04	
87	-4.35000e+00	6.311279e+04	
88	-4.40000e+00	6.375525e+04	
89	-4.45000e+00	6.438675e+04	
90	-4.50000e+00	6.500755e+04	
91	-4.55000e+00	6.561788e+04	
92	-4.60000e+00	6.621798e+04	
93	-4.65000e+00	6.680809e+04	
94	-4.70000e+00	6.738843e+04	
95	-4.75000e+00	6.795921e+04	
96	-4.80000e+00	6.852064e+04	
97	-4.85000e+00	6.907292e+04	
98	-4.90000e+00	6.961625e+04	
99	-4.95000e+00	7.015081e+04	
100	-5.00000e+00	7.067679e+04	
101	-5.05000e+00	7.119435e+04	
102	-5.10000e+00	7.170366e+04	
103	-5.15000e+00	7.220489e+04	
104	-5.20000e+00	7.269819e+04	
105	-5.25000e+00	7.318371e+04	
106	-5.30000e+00	7.366159e+04	
107	-5.35000e+00	7.413197e+04	
108	-5.40000e+00	7.459497e+04	
109	-5.45000e+00	7.505074e+04	
110	-5.50000e+00	7.549938e+04	
111	-5.55000e+00	7.594100e+04	
112	-5.60000e+00	7.637573e+04	

Index   v-sweep         rds             
--------------------------------------------------------------------------------
113	-5.65000e+00	7.680366e+04	
114	-5.70000e+00	7.722489e+04	
115	-5.75000e+00	7.763951e+04	
116	-5.80000e+00	7.804762e+04	
117	-5.85000e+00	7.844929e+04	
118	-5.90000e+00	7.884461e+04	
119	-5.95000e+00	7.923365e+04	
120	-6.00000e+00	7.961649e+04	
121	-6.05000e+00	7.999318e+04	
122	-6.10000e+00	8.036379e+04	
123	-6.15000e+00	8.072839e+04	
124	-6.20000e+00	8.108701e+04	
125	-6.25000e+00	8.143972e+04	
126	-6.30000e+00	8.178656e+04	
127	-6.35000e+00	8.212758e+04	
128	-6.40000e+00	8.246281e+04	
129	-6.45000e+00	8.279229e+04	
130	-6.50000e+00	8.311606e+04	
131	-6.55000e+00	8.343415e+04	
132	-6.60000e+00	8.374659e+04	
Reset re-loads circuit ***************************

Circuit: ***************************

Doing analysis at TEMP = -40.000000 and TNOM = -40.000000


No. of Data Rows : 133
                          ***************************
                          DC transfer characteristic  Mon Jan  9 13:57:54  2023
--------------------------------------------------------------------------------
Index   v-sweep         rds             
--------------------------------------------------------------------------------
0	0.000000e+00	1.095102e+03	
1	-5.00000e-02	1.123116e+03	
2	-1.00000e-01	1.152148e+03	
3	-1.50000e-01	1.182252e+03	
4	-2.00000e-01	1.213488e+03	
5	-2.50000e-01	1.245920e+03	
6	-3.00000e-01	1.279616e+03	
7	-3.50000e-01	1.314652e+03	
8	-4.00000e-01	1.351106e+03	
9	-4.50000e-01	1.389065e+03	
10	-5.00000e-01	1.428624e+03	
11	-5.50000e-01	1.469884e+03	
12	-6.00000e-01	1.512955e+03	
13	-6.50000e-01	1.557959e+03	
14	-7.00000e-01	1.605026e+03	
15	-7.50000e-01	1.654300e+03	
16	-8.00000e-01	1.705939e+03	
17	-8.50000e-01	1.760115e+03	
18	-9.00000e-01	1.817017e+03	
19	-9.50000e-01	1.876857e+03	
20	-1.00000e+00	1.939863e+03	
21	-1.05000e+00	2.006294e+03	
22	-1.10000e+00	2.076434e+03	
23	-1.15000e+00	2.150601e+03	
24	-1.20000e+00	2.229150e+03	
25	-1.25000e+00	2.312480e+03	
26	-1.30000e+00	2.401039e+03	
27	-1.35000e+00	2.495337e+03	
28	-1.40000e+00	2.595950e+03	
29	-1.45000e+00	2.703540e+03	
30	-1.50000e+00	2.818863e+03	
31	-1.55000e+00	2.942798e+03	
32	-1.60000e+00	3.076370e+03	
33	-1.65000e+00	3.220786e+03	
34	-1.70000e+00	3.377484e+03	
35	-1.75000e+00	3.548207e+03	
36	-1.80000e+00	3.735101e+03	
37	-1.85000e+00	3.940868e+03	
38	-1.90000e+00	4.168998e+03	
39	-1.95000e+00	4.424117e+03	
40	-2.00000e+00	4.712507e+03	
41	-2.05000e+00	5.042785e+03	
42	-2.10000e+00	5.426616e+03	
43	-2.15000e+00	5.878904e+03	
44	-2.20000e+00	6.416451e+03	
45	-2.25000e+00	7.054121e+03	
46	-2.30000e+00	7.799347e+03	
47	-2.35000e+00	8.648259e+03	
48	-2.40000e+00	9.586479e+03	
49	-2.45000e+00	1.059380e+04	
50	-2.50000e+00	1.164935e+04	
51	-2.55000e+00	1.273490e+04	
52	-2.60000e+00	1.383599e+04	
53	-2.65000e+00	1.494181e+04	
54	-2.70000e+00	1.604454e+04	

Index   v-sweep         rds             
--------------------------------------------------------------------------------
55	-2.75000e+00	1.713869e+04	
56	-2.80000e+00	1.822041e+04	
57	-2.85000e+00	1.928708e+04	
58	-2.90000e+00	2.033694e+04	
59	-2.95000e+00	2.136884e+04	
60	-3.00000e+00	2.238209e+04	
61	-3.05000e+00	2.337630e+04	
62	-3.10000e+00	2.435133e+04	
63	-3.15000e+00	2.530718e+04	
64	-3.20000e+00	2.624400e+04	
65	-3.25000e+00	2.716199e+04	
66	-3.30000e+00	2.806145e+04	
67	-3.35000e+00	2.894269e+04	
68	-3.40000e+00	2.980607e+04	
69	-3.45000e+00	3.065198e+04	
70	-3.50000e+00	3.148078e+04	
71	-3.55000e+00	3.229289e+04	
72	-3.60000e+00	3.308870e+04	
73	-3.65000e+00	3.386861e+04	
74	-3.70000e+00	3.463300e+04	
75	-3.75000e+00	3.538226e+04	
76	-3.80000e+00	3.611679e+04	
77	-3.85000e+00	3.683695e+04	
78	-3.90000e+00	3.754311e+04	
79	-3.95000e+00	3.823563e+04	
80	-4.00000e+00	3.891486e+04	
81	-4.05000e+00	3.958113e+04	
82	-4.10000e+00	4.023478e+04	
83	-4.15000e+00	4.087614e+04	
84	-4.20000e+00	4.150550e+04	
85	-4.25000e+00	4.212319e+04	
86	-4.30000e+00	4.272948e+04	
87	-4.35000e+00	4.332467e+04	
88	-4.40000e+00	4.390904e+04	
89	-4.45000e+00	4.448285e+04	
90	-4.50000e+00	4.504637e+04	
91	-4.55000e+00	4.559985e+04	
92	-4.60000e+00	4.614354e+04	
93	-4.65000e+00	4.667766e+04	
94	-4.70000e+00	4.720247e+04	
95	-4.75000e+00	4.771816e+04	
96	-4.80000e+00	4.822498e+04	
97	-4.85000e+00	4.872311e+04	
98	-4.90000e+00	4.921278e+04	
99	-4.95000e+00	4.969416e+04	
100	-5.00000e+00	5.016747e+04	
101	-5.05000e+00	5.063287e+04	
102	-5.10000e+00	5.109055e+04	
103	-5.15000e+00	5.154068e+04	
104	-5.20000e+00	5.198342e+04	
105	-5.25000e+00	5.241895e+04	
106	-5.30000e+00	5.284740e+04	
107	-5.35000e+00	5.326894e+04	
108	-5.40000e+00	5.368371e+04	
109	-5.45000e+00	5.409185e+04	
110	-5.50000e+00	5.449349e+04	
111	-5.55000e+00	5.488875e+04	
112	-5.60000e+00	5.527778e+04	

Index   v-sweep         rds             
--------------------------------------------------------------------------------
113	-5.65000e+00	5.566068e+04	
114	-5.70000e+00	5.603757e+04	
115	-5.75000e+00	5.640855e+04	
116	-5.80000e+00	5.677374e+04	
117	-5.85000e+00	5.713323e+04	
118	-5.90000e+00	5.748713e+04	
119	-5.95000e+00	5.783551e+04	
120	-6.00000e+00	5.817847e+04	
121	-6.05000e+00	5.851609e+04	
122	-6.10000e+00	5.884844e+04	
123	-6.15000e+00	5.917561e+04	
124	-6.20000e+00	5.949767e+04	
125	-6.25000e+00	5.981467e+04	
126	-6.30000e+00	6.012668e+04	
127	-6.35000e+00	6.043376e+04	
128	-6.40000e+00	6.073597e+04	
129	-6.45000e+00	6.103335e+04	
130	-6.50000e+00	6.132596e+04	
131	-6.55000e+00	6.161384e+04	
132	-6.60000e+00	6.189703e+04	
Reset re-loads circuit ***************************

Circuit: ***************************

Doing analysis at TEMP = -40.000000 and TNOM = -40.000000


No. of Data Rows : 133
                          ***************************
                          DC transfer characteristic  Mon Jan  9 13:57:54  2023
--------------------------------------------------------------------------------
Index   v-sweep         rds             
--------------------------------------------------------------------------------
0	0.000000e+00	9.813464e+02	
1	-5.00000e-02	1.002454e+03	
2	-1.00000e-01	1.024184e+03	
3	-1.50000e-01	1.046564e+03	
4	-2.00000e-01	1.069622e+03	
5	-2.50000e-01	1.093390e+03	
6	-3.00000e-01	1.117899e+03	
7	-3.50000e-01	1.143184e+03	
8	-4.00000e-01	1.169282e+03	
9	-4.50000e-01	1.196232e+03	
10	-5.00000e-01	1.224075e+03	
11	-5.50000e-01	1.252856e+03	
12	-6.00000e-01	1.282622e+03	
13	-6.50000e-01	1.313424e+03	
14	-7.00000e-01	1.345316e+03	
15	-7.50000e-01	1.378355e+03	
16	-8.00000e-01	1.412605e+03	
17	-8.50000e-01	1.448131e+03	
18	-9.00000e-01	1.485006e+03	
19	-9.50000e-01	1.523308e+03	
20	-1.00000e+00	1.563118e+03	
21	-1.05000e+00	1.604527e+03	
22	-1.10000e+00	1.647634e+03	
23	-1.15000e+00	1.692541e+03	
24	-1.20000e+00	1.739366e+03	
25	-1.25000e+00	1.788230e+03	
26	-1.30000e+00	1.839270e+03	
27	-1.35000e+00	1.892633e+03	
28	-1.40000e+00	1.948481e+03	
29	-1.45000e+00	2.006990e+03	
30	-1.50000e+00	2.068353e+03	
31	-1.55000e+00	2.132786e+03	
32	-1.60000e+00	2.200523e+03	
33	-1.65000e+00	2.271826e+03	
34	-1.70000e+00	2.346987e+03	
35	-1.75000e+00	2.426328e+03	
36	-1.80000e+00	2.510213e+03	
37	-1.85000e+00	2.599054e+03	
38	-1.90000e+00	2.693313e+03	
39	-1.95000e+00	2.793522e+03	
40	-2.00000e+00	2.900292e+03	
41	-2.05000e+00	3.014336e+03	
42	-2.10000e+00	3.136496e+03	
43	-2.15000e+00	3.267782e+03	
44	-2.20000e+00	3.409432e+03	
45	-2.25000e+00	3.562998e+03	
46	-2.30000e+00	3.730477e+03	
47	-2.35000e+00	3.914510e+03	
48	-2.40000e+00	4.118677e+03	
49	-2.45000e+00	4.347895e+03	
50	-2.50000e+00	4.608916e+03	
51	-2.55000e+00	4.910736e+03	
52	-2.60000e+00	5.264553e+03	
53	-2.65000e+00	5.682636e+03	
54	-2.70000e+00	6.175741e+03	

Index   v-sweep         rds             
--------------------------------------------------------------------------------
55	-2.75000e+00	6.749697e+03	
56	-2.80000e+00	7.402998e+03	
57	-2.85000e+00	8.126973e+03	
58	-2.90000e+00	8.908332e+03	
59	-2.95000e+00	9.732368e+03	
60	-3.00000e+00	1.058536e+04	
61	-3.05000e+00	1.145577e+04	
62	-3.10000e+00	1.233450e+04	
63	-3.15000e+00	1.321463e+04	
64	-3.20000e+00	1.409108e+04	
65	-3.25000e+00	1.496014e+04	
66	-3.30000e+00	1.581917e+04	
67	-3.35000e+00	1.666632e+04	
68	-3.40000e+00	1.750030e+04	
69	-3.45000e+00	1.832025e+04	
70	-3.50000e+00	1.912564e+04	
71	-3.55000e+00	1.991615e+04	
72	-3.60000e+00	2.069165e+04	
73	-3.65000e+00	2.145211e+04	
74	-3.70000e+00	2.219764e+04	
75	-3.75000e+00	2.292836e+04	
76	-3.80000e+00	2.364450e+04	
77	-3.85000e+00	2.434627e+04	
78	-3.90000e+00	2.503396e+04	
79	-3.95000e+00	2.570784e+04	
80	-4.00000e+00	2.636820e+04	
81	-4.05000e+00	2.701536e+04	
82	-4.10000e+00	2.764960e+04	
83	-4.15000e+00	2.827125e+04	
84	-4.20000e+00	2.888059e+04	
85	-4.25000e+00	2.947795e+04	
86	-4.30000e+00	3.006361e+04	
87	-4.35000e+00	3.063787e+04	
88	-4.40000e+00	3.120101e+04	
89	-4.45000e+00	3.175332e+04	
90	-4.50000e+00	3.229507e+04	
91	-4.55000e+00	3.282653e+04	
92	-4.60000e+00	3.334796e+04	
93	-4.65000e+00	3.385961e+04	
94	-4.70000e+00	3.436173e+04	
95	-4.75000e+00	3.485457e+04	
96	-4.80000e+00	3.533835e+04	
97	-4.85000e+00	3.581331e+04	
98	-4.90000e+00	3.627965e+04	
99	-4.95000e+00	3.673760e+04	
100	-5.00000e+00	3.718737e+04	
101	-5.05000e+00	3.762915e+04	
102	-5.10000e+00	3.806313e+04	
103	-5.15000e+00	3.848952e+04	
104	-5.20000e+00	3.890849e+04	
105	-5.25000e+00	3.932021e+04	
106	-5.30000e+00	3.972487e+04	
107	-5.35000e+00	4.012262e+04	
108	-5.40000e+00	4.051363e+04	
109	-5.45000e+00	4.089806e+04	
110	-5.50000e+00	4.127605e+04	
111	-5.55000e+00	4.164775e+04	
112	-5.60000e+00	4.201330e+04	

Index   v-sweep         rds             
--------------------------------------------------------------------------------
113	-5.65000e+00	4.237285e+04	
114	-5.70000e+00	4.272651e+04	
115	-5.75000e+00	4.307443e+04	
116	-5.80000e+00	4.341671e+04	
117	-5.85000e+00	4.375348e+04	
118	-5.90000e+00	4.408486e+04	
119	-5.95000e+00	4.441095e+04	
120	-6.00000e+00	4.473185e+04	
121	-6.05000e+00	4.504767e+04	
122	-6.10000e+00	4.535851e+04	
123	-6.15000e+00	4.566446e+04	
124	-6.20000e+00	4.596560e+04	
125	-6.25000e+00	4.626202e+04	
126	-6.30000e+00	4.655381e+04	
127	-6.35000e+00	4.684103e+04	
128	-6.40000e+00	4.712377e+04	
129	-6.45000e+00	4.740209e+04	
130	-6.50000e+00	4.767606e+04	
131	-6.55000e+00	4.794574e+04	
132	-6.60000e+00	4.821119e+04	
Reset re-loads circuit ***************************

Circuit: ***************************

Note: No ".plot", ".print", or ".fourier" lines; no simulations run
