
Note: Compatibility modes selected: hs

Warning: m=xx on .subckt line will override multiplier m hierarchy!


Circuit: ***************************

Doing analysis at TEMP = -40.000000 and TNOM = -40.000000


No. of Data Rows : 133
                          ***************************
                          DC transfer characteristic  Mon Jan  9 13:57:54  2023
--------------------------------------------------------------------------------
Index   v-sweep         rds             
--------------------------------------------------------------------------------
0	0.000000e+00	4.268335e+05	
1	-5.00000e-02	1.126654e+06	
2	-1.00000e-01	6.087623e+06	
3	-1.50000e-01	2.404761e+07	
4	-2.00000e-01	4.760317e+07	
5	-2.50000e-01	6.675526e+07	
6	-3.00000e-01	8.141331e+07	
7	-3.50000e-01	9.339121e+07	
8	-4.00000e-01	1.038465e+08	
9	-4.50000e-01	1.133855e+08	
10	-5.00000e-01	1.223269e+08	
11	-5.50000e-01	1.308458e+08	
12	-6.00000e-01	1.390440e+08	
13	-6.50000e-01	1.469843e+08	
14	-7.00000e-01	1.547068e+08	
15	-7.50000e-01	1.622389e+08	
16	-8.00000e-01	1.695999e+08	
17	-8.50000e-01	1.768040e+08	
18	-9.00000e-01	1.838620e+08	
19	-9.50000e-01	1.907825e+08	
20	-1.00000e+00	1.975724e+08	
21	-1.05000e+00	2.042375e+08	
22	-1.10000e+00	2.107828e+08	
23	-1.15000e+00	2.172126e+08	
24	-1.20000e+00	2.235309e+08	
25	-1.25000e+00	2.297411e+08	
26	-1.30000e+00	2.358465e+08	
27	-1.35000e+00	2.418499e+08	
28	-1.40000e+00	2.477542e+08	
29	-1.45000e+00	2.535619e+08	
30	-1.50000e+00	2.592755e+08	
31	-1.55000e+00	2.648972e+08	
32	-1.60000e+00	2.704294e+08	
33	-1.65000e+00	2.758740e+08	
34	-1.70000e+00	2.812331e+08	
35	-1.75000e+00	2.865087e+08	
36	-1.80000e+00	2.917025e+08	
37	-1.85000e+00	2.968165e+08	
38	-1.90000e+00	3.018524e+08	
39	-1.95000e+00	3.068118e+08	
40	-2.00000e+00	3.116963e+08	
41	-2.05000e+00	3.165076e+08	
42	-2.10000e+00	3.212472e+08	
43	-2.15000e+00	3.259165e+08	
44	-2.20000e+00	3.305170e+08	
45	-2.25000e+00	3.350501e+08	
46	-2.30000e+00	3.395172e+08	
47	-2.35000e+00	3.439195e+08	
48	-2.40000e+00	3.482584e+08	
49	-2.45000e+00	3.525351e+08	
50	-2.50000e+00	3.567509e+08	
51	-2.55000e+00	3.609068e+08	
52	-2.60000e+00	3.650042e+08	
53	-2.65000e+00	3.690440e+08	
54	-2.70000e+00	3.730274e+08	

Index   v-sweep         rds             
--------------------------------------------------------------------------------
55	-2.75000e+00	3.769555e+08	
56	-2.80000e+00	3.808293e+08	
57	-2.85000e+00	3.846497e+08	
58	-2.90000e+00	3.884179e+08	
59	-2.95000e+00	3.921346e+08	
60	-3.00000e+00	3.958010e+08	
61	-3.05000e+00	3.994179e+08	
62	-3.10000e+00	4.029861e+08	
63	-3.15000e+00	4.065065e+08	
64	-3.20000e+00	4.099800e+08	
65	-3.25000e+00	4.134074e+08	
66	-3.30000e+00	4.167895e+08	
67	-3.35000e+00	4.201270e+08	
68	-3.40000e+00	4.234207e+08	
69	-3.45000e+00	4.266713e+08	
70	-3.50000e+00	4.298795e+08	
71	-3.55000e+00	4.330460e+08	
72	-3.60000e+00	4.361715e+08	
73	-3.65000e+00	4.392566e+08	
74	-3.70000e+00	4.423020e+08	
75	-3.75000e+00	4.453082e+08	
76	-3.80000e+00	4.482758e+08	
77	-3.85000e+00	4.512054e+08	
78	-3.90000e+00	4.540976e+08	
79	-3.95000e+00	4.569529e+08	
80	-4.00000e+00	4.597717e+08	
81	-4.05000e+00	4.625547e+08	
82	-4.10000e+00	4.653022e+08	
83	-4.15000e+00	4.680147e+08	
84	-4.20000e+00	4.706927e+08	
85	-4.25000e+00	4.733366e+08	
86	-4.30000e+00	4.759468e+08	
87	-4.35000e+00	4.785237e+08	
88	-4.40000e+00	4.810678e+08	
89	-4.45000e+00	4.835793e+08	
90	-4.50000e+00	4.860586e+08	
91	-4.55000e+00	4.885061e+08	
92	-4.60000e+00	4.909221e+08	
93	-4.65000e+00	4.933068e+08	
94	-4.70000e+00	4.956608e+08	
95	-4.75000e+00	4.979841e+08	
96	-4.80000e+00	5.002771e+08	
97	-4.85000e+00	5.025400e+08	
98	-4.90000e+00	5.047731e+08	
99	-4.95000e+00	5.069768e+08	
100	-5.00000e+00	5.091511e+08	
101	-5.05000e+00	5.112963e+08	
102	-5.10000e+00	5.134127e+08	
103	-5.15000e+00	5.155004e+08	
104	-5.20000e+00	5.175596e+08	
105	-5.25000e+00	5.195907e+08	
106	-5.30000e+00	5.215936e+08	
107	-5.35000e+00	5.235687e+08	
108	-5.40000e+00	5.255161e+08	
109	-5.45000e+00	5.274359e+08	
110	-5.50000e+00	5.293283e+08	
111	-5.55000e+00	5.311935e+08	
112	-5.60000e+00	5.330316e+08	

Index   v-sweep         rds             
--------------------------------------------------------------------------------
113	-5.65000e+00	5.348428e+08	
114	-5.70000e+00	5.366273e+08	
115	-5.75000e+00	5.383850e+08	
116	-5.80000e+00	5.401162e+08	
117	-5.85000e+00	5.418211e+08	
118	-5.90000e+00	5.434996e+08	
119	-5.95000e+00	5.451521e+08	
120	-6.00000e+00	5.467785e+08	
121	-6.05000e+00	5.483790e+08	
122	-6.10000e+00	5.499538e+08	
123	-6.15000e+00	5.515028e+08	
124	-6.20000e+00	5.530263e+08	
125	-6.25000e+00	5.545244e+08	
126	-6.30000e+00	5.559971e+08	
127	-6.35000e+00	5.574447e+08	
128	-6.40000e+00	5.588671e+08	
129	-6.45000e+00	5.602645e+08	
130	-6.50000e+00	5.616370e+08	
131	-6.55000e+00	5.629847e+08	
132	-6.60000e+00	5.643078e+08	
Reset re-loads circuit ***************************

Circuit: ***************************

Doing analysis at TEMP = -40.000000 and TNOM = -40.000000


No. of Data Rows : 133
                          ***************************
                          DC transfer characteristic  Mon Jan  9 13:57:54  2023
--------------------------------------------------------------------------------
Index   v-sweep         rds             
--------------------------------------------------------------------------------
0	0.000000e+00	2.835106e+04	
1	-5.00000e-02	3.043240e+04	
2	-1.00000e-01	3.281440e+04	
3	-1.50000e-01	3.556700e+04	
4	-2.00000e-01	3.878356e+04	
5	-2.50000e-01	4.259137e+04	
6	-3.00000e-01	4.716843e+04	
7	-3.50000e-01	5.277097e+04	
8	-4.00000e-01	5.978027e+04	
9	-4.50000e-01	6.878580e+04	
10	-5.00000e-01	8.073839e+04	
11	-5.50000e-01	9.723981e+04	
12	-6.00000e-01	1.210813e+05	
13	-6.50000e-01	1.571001e+05	
14	-7.00000e-01	2.127268e+05	
15	-7.50000e-01	2.952484e+05	
16	-8.00000e-01	4.032288e+05	
17	-8.50000e-01	5.231584e+05	
18	-9.00000e-01	6.411441e+05	
19	-9.50000e-01	7.514734e+05	
20	-1.00000e+00	8.540872e+05	
21	-1.05000e+00	9.505566e+05	
22	-1.10000e+00	1.042390e+06	
23	-1.15000e+00	1.130690e+06	
24	-1.20000e+00	1.216205e+06	
25	-1.25000e+00	1.299434e+06	
26	-1.30000e+00	1.380718e+06	
27	-1.35000e+00	1.460294e+06	
28	-1.40000e+00	1.538331e+06	
29	-1.45000e+00	1.614954e+06	
30	-1.50000e+00	1.690258e+06	
31	-1.55000e+00	1.764318e+06	
32	-1.60000e+00	1.837193e+06	
33	-1.65000e+00	1.908935e+06	
34	-1.70000e+00	1.979586e+06	
35	-1.75000e+00	2.049182e+06	
36	-1.80000e+00	2.117756e+06	
37	-1.85000e+00	2.185337e+06	
38	-1.90000e+00	2.251952e+06	
39	-1.95000e+00	2.317626e+06	
40	-2.00000e+00	2.382381e+06	
41	-2.05000e+00	2.446239e+06	
42	-2.10000e+00	2.509220e+06	
43	-2.15000e+00	2.571343e+06	
44	-2.20000e+00	2.632627e+06	
45	-2.25000e+00	2.693089e+06	
46	-2.30000e+00	2.752745e+06	
47	-2.35000e+00	2.811613e+06	
48	-2.40000e+00	2.869707e+06	
49	-2.45000e+00	2.927043e+06	
50	-2.50000e+00	2.983636e+06	
51	-2.55000e+00	3.039499e+06	
52	-2.60000e+00	3.094646e+06	
53	-2.65000e+00	3.149091e+06	
54	-2.70000e+00	3.202846e+06	

Index   v-sweep         rds             
--------------------------------------------------------------------------------
55	-2.75000e+00	3.255925e+06	
56	-2.80000e+00	3.308340e+06	
57	-2.85000e+00	3.360102e+06	
58	-2.90000e+00	3.411224e+06	
59	-2.95000e+00	3.461716e+06	
60	-3.00000e+00	3.511590e+06	
61	-3.05000e+00	3.560857e+06	
62	-3.10000e+00	3.609527e+06	
63	-3.15000e+00	3.657610e+06	
64	-3.20000e+00	3.705117e+06	
65	-3.25000e+00	3.752058e+06	
66	-3.30000e+00	3.798442e+06	
67	-3.35000e+00	3.844278e+06	
68	-3.40000e+00	3.889575e+06	
69	-3.45000e+00	3.934344e+06	
70	-3.50000e+00	3.978591e+06	
71	-3.55000e+00	4.022326e+06	
72	-3.60000e+00	4.065557e+06	
73	-3.65000e+00	4.108292e+06	
74	-3.70000e+00	4.150540e+06	
75	-3.75000e+00	4.192307e+06	
76	-3.80000e+00	4.233601e+06	
77	-3.85000e+00	4.274429e+06	
78	-3.90000e+00	4.314799e+06	
79	-3.95000e+00	4.354718e+06	
80	-4.00000e+00	4.394191e+06	
81	-4.05000e+00	4.433226e+06	
82	-4.10000e+00	4.471829e+06	
83	-4.15000e+00	4.510006e+06	
84	-4.20000e+00	4.547763e+06	
85	-4.25000e+00	4.585106e+06	
86	-4.30000e+00	4.622040e+06	
87	-4.35000e+00	4.658570e+06	
88	-4.40000e+00	4.694702e+06	
89	-4.45000e+00	4.730441e+06	
90	-4.50000e+00	4.765792e+06	
91	-4.55000e+00	4.800758e+06	
92	-4.60000e+00	4.835345e+06	
93	-4.65000e+00	4.869557e+06	
94	-4.70000e+00	4.903398e+06	
95	-4.75000e+00	4.936871e+06	
96	-4.80000e+00	4.969981e+06	
97	-4.85000e+00	5.002731e+06	
98	-4.90000e+00	5.035125e+06	
99	-4.95000e+00	5.067165e+06	
100	-5.00000e+00	5.098855e+06	
101	-5.05000e+00	5.130197e+06	
102	-5.10000e+00	5.161195e+06	
103	-5.15000e+00	5.191851e+06	
104	-5.20000e+00	5.222168e+06	
105	-5.25000e+00	5.252147e+06	
106	-5.30000e+00	5.281791e+06	
107	-5.35000e+00	5.311102e+06	
108	-5.40000e+00	5.340082e+06	
109	-5.45000e+00	5.368732e+06	
110	-5.50000e+00	5.397055e+06	
111	-5.55000e+00	5.425052e+06	
112	-5.60000e+00	5.452724e+06	

Index   v-sweep         rds             
--------------------------------------------------------------------------------
113	-5.65000e+00	5.480073e+06	
114	-5.70000e+00	5.507099e+06	
115	-5.75000e+00	5.533805e+06	
116	-5.80000e+00	5.560190e+06	
117	-5.85000e+00	5.586257e+06	
118	-5.90000e+00	5.612005e+06	
119	-5.95000e+00	5.637436e+06	
120	-6.00000e+00	5.662550e+06	
121	-6.05000e+00	5.687349e+06	
122	-6.10000e+00	5.711832e+06	
123	-6.15000e+00	5.736000e+06	
124	-6.20000e+00	5.759853e+06	
125	-6.25000e+00	5.783393e+06	
126	-6.30000e+00	5.806619e+06	
127	-6.35000e+00	5.829532e+06	
128	-6.40000e+00	5.852131e+06	
129	-6.45000e+00	5.874419e+06	
130	-6.50000e+00	5.896393e+06	
131	-6.55000e+00	5.918056e+06	
132	-6.60000e+00	5.939407e+06	
Reset re-loads circuit ***************************

Circuit: ***************************

Doing analysis at TEMP = -40.000000 and TNOM = -40.000000


No. of Data Rows : 133
                          ***************************
                          DC transfer characteristic  Mon Jan  9 13:57:54  2023
--------------------------------------------------------------------------------
Index   v-sweep         rds             
--------------------------------------------------------------------------------
0	0.000000e+00	1.636116e+04	
1	-5.00000e-02	1.700786e+04	
2	-1.00000e-01	1.770069e+04	
3	-1.50000e-01	1.844476e+04	
4	-2.00000e-01	1.924595e+04	
5	-2.50000e-01	2.011107e+04	
6	-3.00000e-01	2.104808e+04	
7	-3.50000e-01	2.206630e+04	
8	-4.00000e-01	2.317672e+04	
9	-4.50000e-01	2.439241e+04	
10	-5.00000e-01	2.572904e+04	
11	-5.50000e-01	2.720551e+04	
12	-6.00000e-01	2.884487e+04	
13	-6.50000e-01	3.067548e+04	
14	-7.00000e-01	3.273266e+04	
15	-7.50000e-01	3.506086e+04	
16	-8.00000e-01	3.771681e+04	
17	-8.50000e-01	4.077392e+04	
18	-9.00000e-01	4.432867e+04	
19	-9.50000e-01	4.850995e+04	
20	-1.00000e+00	5.349283e+04	
21	-1.05000e+00	5.951875e+04	
22	-1.10000e+00	6.692456e+04	
23	-1.15000e+00	7.618056e+04	
24	-1.20000e+00	8.792844e+04	
25	-1.25000e+00	1.029816e+05	
26	-1.30000e+00	1.221942e+05	
27	-1.35000e+00	1.460872e+05	
28	-1.40000e+00	1.743465e+05	
29	-1.45000e+00	2.057270e+05	
30	-1.50000e+00	2.386524e+05	
31	-1.55000e+00	2.719051e+05	
32	-1.60000e+00	3.048218e+05	
33	-1.65000e+00	3.371342e+05	
34	-1.70000e+00	3.687722e+05	
35	-1.75000e+00	3.997452e+05	
36	-1.80000e+00	4.300870e+05	
37	-1.85000e+00	4.598347e+05	
38	-1.90000e+00	4.890222e+05	
39	-1.95000e+00	5.176784e+05	
40	-2.00000e+00	5.458277e+05	
41	-2.05000e+00	5.734911e+05	
42	-2.10000e+00	6.006865e+05	
43	-2.15000e+00	6.274298e+05	
44	-2.20000e+00	6.537351e+05	
45	-2.25000e+00	6.796152e+05	
46	-2.30000e+00	7.050819e+05	
47	-2.35000e+00	7.301460e+05	
48	-2.40000e+00	7.548179e+05	
49	-2.45000e+00	7.791071e+05	
50	-2.50000e+00	8.030229e+05	
51	-2.55000e+00	8.265739e+05	
52	-2.60000e+00	8.497685e+05	
53	-2.65000e+00	8.726147e+05	
54	-2.70000e+00	8.951204e+05	

Index   v-sweep         rds             
--------------------------------------------------------------------------------
55	-2.75000e+00	9.172929e+05	
56	-2.80000e+00	9.391394e+05	
57	-2.85000e+00	9.606670e+05	
58	-2.90000e+00	9.818823e+05	
59	-2.95000e+00	1.002792e+06	
60	-3.00000e+00	1.023402e+06	
61	-3.05000e+00	1.043720e+06	
62	-3.10000e+00	1.063750e+06	
63	-3.15000e+00	1.083499e+06	
64	-3.20000e+00	1.102972e+06	
65	-3.25000e+00	1.122175e+06	
66	-3.30000e+00	1.141114e+06	
67	-3.35000e+00	1.159793e+06	
68	-3.40000e+00	1.178217e+06	
69	-3.45000e+00	1.196392e+06	
70	-3.50000e+00	1.214323e+06	
71	-3.55000e+00	1.232014e+06	
72	-3.60000e+00	1.249469e+06	
73	-3.65000e+00	1.266694e+06	
74	-3.70000e+00	1.283692e+06	
75	-3.75000e+00	1.300468e+06	
76	-3.80000e+00	1.317026e+06	
77	-3.85000e+00	1.333370e+06	
78	-3.90000e+00	1.349503e+06	
79	-3.95000e+00	1.365431e+06	
80	-4.00000e+00	1.381156e+06	
81	-4.05000e+00	1.396683e+06	
82	-4.10000e+00	1.412014e+06	
83	-4.15000e+00	1.427153e+06	
84	-4.20000e+00	1.442104e+06	
85	-4.25000e+00	1.456870e+06	
86	-4.30000e+00	1.471454e+06	
87	-4.35000e+00	1.485859e+06	
88	-4.40000e+00	1.500088e+06	
89	-4.45000e+00	1.514145e+06	
90	-4.50000e+00	1.528031e+06	
91	-4.55000e+00	1.541751e+06	
92	-4.60000e+00	1.555305e+06	
93	-4.65000e+00	1.568698e+06	
94	-4.70000e+00	1.581932e+06	
95	-4.75000e+00	1.595009e+06	
96	-4.80000e+00	1.607931e+06	
97	-4.85000e+00	1.620701e+06	
98	-4.90000e+00	1.633321e+06	
99	-4.95000e+00	1.645793e+06	
100	-5.00000e+00	1.658120e+06	
101	-5.05000e+00	1.670303e+06	
102	-5.10000e+00	1.682343e+06	
103	-5.15000e+00	1.694244e+06	
104	-5.20000e+00	1.706006e+06	
105	-5.25000e+00	1.717632e+06	
106	-5.30000e+00	1.729123e+06	
107	-5.35000e+00	1.740481e+06	
108	-5.40000e+00	1.751706e+06	
109	-5.45000e+00	1.762801e+06	
110	-5.50000e+00	1.773767e+06	
111	-5.55000e+00	1.784605e+06	
112	-5.60000e+00	1.795316e+06	

Index   v-sweep         rds             
--------------------------------------------------------------------------------
113	-5.65000e+00	1.805901e+06	
114	-5.70000e+00	1.816363e+06	
115	-5.75000e+00	1.826700e+06	
116	-5.80000e+00	1.836916e+06	
117	-5.85000e+00	1.847009e+06	
118	-5.90000e+00	1.856982e+06	
119	-5.95000e+00	1.866836e+06	
120	-6.00000e+00	1.876570e+06	
121	-6.05000e+00	1.886185e+06	
122	-6.10000e+00	1.895683e+06	
123	-6.15000e+00	1.905064e+06	
124	-6.20000e+00	1.914328e+06	
125	-6.25000e+00	1.923477e+06	
126	-6.30000e+00	1.932509e+06	
127	-6.35000e+00	1.941427e+06	
128	-6.40000e+00	1.950230e+06	
129	-6.45000e+00	1.958918e+06	
130	-6.50000e+00	1.967493e+06	
131	-6.55000e+00	1.975954e+06	
132	-6.60000e+00	1.984302e+06	
Reset re-loads circuit ***************************

Circuit: ***************************

Doing analysis at TEMP = -40.000000 and TNOM = -40.000000


No. of Data Rows : 133
                          ***************************
                          DC transfer characteristic  Mon Jan  9 13:57:54  2023
--------------------------------------------------------------------------------
Index   v-sweep         rds             
--------------------------------------------------------------------------------
0	0.000000e+00	1.227008e+04	
1	-5.00000e-02	1.261064e+04	
2	-1.00000e-01	1.296742e+04	
3	-1.50000e-01	1.334161e+04	
4	-2.00000e-01	1.373450e+04	
5	-2.50000e-01	1.414752e+04	
6	-3.00000e-01	1.458226e+04	
7	-3.50000e-01	1.504048e+04	
8	-4.00000e-01	1.552411e+04	
9	-4.50000e-01	1.603533e+04	
10	-5.00000e-01	1.657655e+04	
11	-5.50000e-01	1.715049e+04	
12	-6.00000e-01	1.776020e+04	
13	-6.50000e-01	1.840911e+04	
14	-7.00000e-01	1.910112e+04	
15	-7.50000e-01	1.984065e+04	
16	-8.00000e-01	2.063276e+04	
17	-8.50000e-01	2.148324e+04	
18	-9.00000e-01	2.239876e+04	
19	-9.50000e-01	2.338704e+04	
20	-1.00000e+00	2.445709e+04	
21	-1.05000e+00	2.561942e+04	
22	-1.10000e+00	2.688646e+04	
23	-1.15000e+00	2.827291e+04	
24	-1.20000e+00	2.979636e+04	
25	-1.25000e+00	3.147798e+04	
26	-1.30000e+00	3.334346e+04	
27	-1.35000e+00	3.542427e+04	
28	-1.40000e+00	3.775928e+04	
29	-1.45000e+00	4.039697e+04	
30	-1.50000e+00	4.339837e+04	
31	-1.55000e+00	4.684095e+04	
32	-1.60000e+00	5.082367e+04	
33	-1.65000e+00	5.547322e+04	
34	-1.70000e+00	6.095058e+04	
35	-1.75000e+00	6.745566e+04	
36	-1.80000e+00	7.522324e+04	
37	-1.85000e+00	8.449862e+04	
38	-1.90000e+00	9.547933e+04	
39	-1.95000e+00	1.082278e+05	
40	-2.00000e+00	1.226028e+05	
41	-2.05000e+00	1.382769e+05	
42	-2.10000e+00	1.548414e+05	
43	-2.15000e+00	1.719203e+05	
44	-2.20000e+00	1.892279e+05	
45	-2.25000e+00	2.065712e+05	
46	-2.30000e+00	2.238285e+05	
47	-2.35000e+00	2.409255e+05	
48	-2.40000e+00	2.578178e+05	
49	-2.45000e+00	2.744796e+05	
50	-2.50000e+00	2.908962e+05	
51	-2.55000e+00	3.070602e+05	
52	-2.60000e+00	3.229684e+05	
53	-2.65000e+00	3.386205e+05	
54	-2.70000e+00	3.540181e+05	

Index   v-sweep         rds             
--------------------------------------------------------------------------------
55	-2.75000e+00	3.691639e+05	
56	-2.80000e+00	3.840613e+05	
57	-2.85000e+00	3.987144e+05	
58	-2.90000e+00	4.131275e+05	
59	-2.95000e+00	4.273052e+05	
60	-3.00000e+00	4.412520e+05	
61	-3.05000e+00	4.549726e+05	
62	-3.10000e+00	4.684717e+05	
63	-3.15000e+00	4.817540e+05	
64	-3.20000e+00	4.948241e+05	
65	-3.25000e+00	5.076864e+05	
66	-3.30000e+00	5.203454e+05	
67	-3.35000e+00	5.328056e+05	
68	-3.40000e+00	5.450711e+05	
69	-3.45000e+00	5.571462e+05	
70	-3.50000e+00	5.690350e+05	
71	-3.55000e+00	5.807415e+05	
72	-3.60000e+00	5.922695e+05	
73	-3.65000e+00	6.036229e+05	
74	-3.70000e+00	6.148053e+05	
75	-3.75000e+00	6.258205e+05	
76	-3.80000e+00	6.366719e+05	
77	-3.85000e+00	6.473630e+05	
78	-3.90000e+00	6.578970e+05	
79	-3.95000e+00	6.682774e+05	
80	-4.00000e+00	6.785072e+05	
81	-4.05000e+00	6.885896e+05	
82	-4.10000e+00	6.985276e+05	
83	-4.15000e+00	7.083241e+05	
84	-4.20000e+00	7.179819e+05	
85	-4.25000e+00	7.275040e+05	
86	-4.30000e+00	7.368930e+05	
87	-4.35000e+00	7.461515e+05	
88	-4.40000e+00	7.552821e+05	
89	-4.45000e+00	7.642874e+05	
90	-4.50000e+00	7.731698e+05	
91	-4.55000e+00	7.819317e+05	
92	-4.60000e+00	7.905754e+05	
93	-4.65000e+00	7.991031e+05	
94	-4.70000e+00	8.075172e+05	
95	-4.75000e+00	8.158196e+05	
96	-4.80000e+00	8.240125e+05	
97	-4.85000e+00	8.320979e+05	
98	-4.90000e+00	8.400779e+05	
99	-4.95000e+00	8.479542e+05	
100	-5.00000e+00	8.557288e+05	
101	-5.05000e+00	8.634035e+05	
102	-5.10000e+00	8.709800e+05	
103	-5.15000e+00	8.784600e+05	
104	-5.20000e+00	8.858451e+05	
105	-5.25000e+00	8.931370e+05	
106	-5.30000e+00	9.003373e+05	
107	-5.35000e+00	9.074473e+05	
108	-5.40000e+00	9.144685e+05	
109	-5.45000e+00	9.214024e+05	
110	-5.50000e+00	9.282502e+05	
111	-5.55000e+00	9.350134e+05	
112	-5.60000e+00	9.416930e+05	

Index   v-sweep         rds             
--------------------------------------------------------------------------------
113	-5.65000e+00	9.482903e+05	
114	-5.70000e+00	9.548065e+05	
115	-5.75000e+00	9.612426e+05	
116	-5.80000e+00	9.675998e+05	
117	-5.85000e+00	9.738790e+05	
118	-5.90000e+00	9.800812e+05	
119	-5.95000e+00	9.862074e+05	
120	-6.00000e+00	9.922584e+05	
121	-6.05000e+00	9.982350e+05	
122	-6.10000e+00	1.004138e+06	
123	-6.15000e+00	1.009968e+06	
124	-6.20000e+00	1.015727e+06	
125	-6.25000e+00	1.021414e+06	
126	-6.30000e+00	1.027030e+06	
127	-6.35000e+00	1.032576e+06	
128	-6.40000e+00	1.038053e+06	
129	-6.45000e+00	1.043460e+06	
130	-6.50000e+00	1.048799e+06	
131	-6.55000e+00	1.054070e+06	
132	-6.60000e+00	1.059274e+06	
Reset re-loads circuit ***************************

Circuit: ***************************

Doing analysis at TEMP = -40.000000 and TNOM = -40.000000


No. of Data Rows : 133
                          ***************************
                          DC transfer characteristic  Mon Jan  9 13:57:54  2023
--------------------------------------------------------------------------------
Index   v-sweep         rds             
--------------------------------------------------------------------------------
0	0.000000e+00	1.021129e+04	
1	-5.00000e-02	1.043228e+04	
2	-1.00000e-01	1.066119e+04	
3	-1.50000e-01	1.089845e+04	
4	-2.00000e-01	1.114452e+04	
5	-2.50000e-01	1.139991e+04	
6	-3.00000e-01	1.166514e+04	
7	-3.50000e-01	1.194080e+04	
8	-4.00000e-01	1.222750e+04	
9	-4.50000e-01	1.252593e+04	
10	-5.00000e-01	1.283681e+04	
11	-5.50000e-01	1.316094e+04	
12	-6.00000e-01	1.349917e+04	
13	-6.50000e-01	1.385244e+04	
14	-7.00000e-01	1.422178e+04	
15	-7.50000e-01	1.460831e+04	
16	-8.00000e-01	1.501324e+04	
17	-8.50000e-01	1.543792e+04	
18	-9.00000e-01	1.588382e+04	
19	-9.50000e-01	1.635256e+04	
20	-1.00000e+00	1.684595e+04	
21	-1.05000e+00	1.736597e+04	
22	-1.10000e+00	1.791483e+04	
23	-1.15000e+00	1.849499e+04	
24	-1.20000e+00	1.910919e+04	
25	-1.25000e+00	1.976052e+04	
26	-1.30000e+00	2.045241e+04	
27	-1.35000e+00	2.118878e+04	
28	-1.40000e+00	2.197403e+04	
29	-1.45000e+00	2.281318e+04	
30	-1.50000e+00	2.371195e+04	
31	-1.55000e+00	2.467688e+04	
32	-1.60000e+00	2.571552e+04	
33	-1.65000e+00	2.683660e+04	
34	-1.70000e+00	2.805027e+04	
35	-1.75000e+00	2.936838e+04	
36	-1.80000e+00	3.080489e+04	
37	-1.85000e+00	3.237631e+04	
38	-1.90000e+00	3.410231e+04	
39	-1.95000e+00	3.600645e+04	
40	-2.00000e+00	3.811720e+04	
41	-2.05000e+00	4.046910e+04	
42	-2.10000e+00	4.310439e+04	
43	-2.15000e+00	4.607483e+04	
44	-2.20000e+00	4.944397e+04	
45	-2.25000e+00	5.328929e+04	
46	-2.30000e+00	5.770363e+04	
47	-2.35000e+00	6.279390e+04	
48	-2.40000e+00	6.867378e+04	
49	-2.45000e+00	7.544651e+04	
50	-2.50000e+00	8.317664e+04	
51	-2.55000e+00	9.185969e+04	
52	-2.60000e+00	1.014082e+05	
53	-2.65000e+00	1.116672e+05	
54	-2.70000e+00	1.224518e+05	

Index   v-sweep         rds             
--------------------------------------------------------------------------------
55	-2.75000e+00	1.335841e+05	
56	-2.80000e+00	1.449150e+05	
57	-2.85000e+00	1.563304e+05	
58	-2.90000e+00	1.677472e+05	
59	-2.95000e+00	1.791073e+05	
60	-3.00000e+00	1.903706e+05	
61	-3.05000e+00	2.015100e+05	
62	-3.10000e+00	2.125076e+05	
63	-3.15000e+00	2.233516e+05	
64	-3.20000e+00	2.340346e+05	
65	-3.25000e+00	2.445523e+05	
66	-3.30000e+00	2.549027e+05	
67	-3.35000e+00	2.650853e+05	
68	-3.40000e+00	2.751006e+05	
69	-3.45000e+00	2.849499e+05	
70	-3.50000e+00	2.946351e+05	
71	-3.55000e+00	3.041586e+05	
72	-3.60000e+00	3.135229e+05	
73	-3.65000e+00	3.227308e+05	
74	-3.70000e+00	3.317852e+05	
75	-3.75000e+00	3.406890e+05	
76	-3.80000e+00	3.494453e+05	
77	-3.85000e+00	3.580571e+05	
78	-3.90000e+00	3.665274e+05	
79	-3.95000e+00	3.748592e+05	
80	-4.00000e+00	3.830554e+05	
81	-4.05000e+00	3.911191e+05	
82	-4.10000e+00	3.990530e+05	
83	-4.15000e+00	4.068600e+05	
84	-4.20000e+00	4.145428e+05	
85	-4.25000e+00	4.221042e+05	
86	-4.30000e+00	4.295468e+05	
87	-4.35000e+00	4.368731e+05	
88	-4.40000e+00	4.440858e+05	
89	-4.45000e+00	4.511872e+05	
90	-4.50000e+00	4.581797e+05	
91	-4.55000e+00	4.650658e+05	
92	-4.60000e+00	4.718476e+05	
93	-4.65000e+00	4.785274e+05	
94	-4.70000e+00	4.851074e+05	
95	-4.75000e+00	4.915897e+05	
96	-4.80000e+00	4.979763e+05	
97	-4.85000e+00	5.042692e+05	
98	-4.90000e+00	5.104705e+05	
99	-4.95000e+00	5.165819e+05	
100	-5.00000e+00	5.226053e+05	
101	-5.05000e+00	5.285425e+05	
102	-5.10000e+00	5.343953e+05	
103	-5.15000e+00	5.401654e+05	
104	-5.20000e+00	5.458545e+05	
105	-5.25000e+00	5.514640e+05	
106	-5.30000e+00	5.569957e+05	
107	-5.35000e+00	5.624510e+05	
108	-5.40000e+00	5.678315e+05	
109	-5.45000e+00	5.731384e+05	
110	-5.50000e+00	5.783734e+05	
111	-5.55000e+00	5.835376e+05	
112	-5.60000e+00	5.886324e+05	

Index   v-sweep         rds             
--------------------------------------------------------------------------------
113	-5.65000e+00	5.936592e+05	
114	-5.70000e+00	5.986190e+05	
115	-5.75000e+00	6.035132e+05	
116	-5.80000e+00	6.083428e+05	
117	-5.85000e+00	6.131091e+05	
118	-5.90000e+00	6.178130e+05	
119	-5.95000e+00	6.224557e+05	
120	-6.00000e+00	6.270380e+05	
121	-6.05000e+00	6.315611e+05	
122	-6.10000e+00	6.360259e+05	
123	-6.15000e+00	6.404331e+05	
124	-6.20000e+00	6.447838e+05	
125	-6.25000e+00	6.490787e+05	
126	-6.30000e+00	6.533187e+05	
127	-6.35000e+00	6.575044e+05	
128	-6.40000e+00	6.616367e+05	
129	-6.45000e+00	6.657162e+05	
130	-6.50000e+00	6.697437e+05	
131	-6.55000e+00	6.737196e+05	
132	-6.60000e+00	6.776447e+05	
Reset re-loads circuit ***************************

Circuit: ***************************

Doing analysis at TEMP = -40.000000 and TNOM = -40.000000


No. of Data Rows : 133
                          ***************************
                          DC transfer characteristic  Mon Jan  9 13:57:55  2023
--------------------------------------------------------------------------------
Index   v-sweep         rds             
--------------------------------------------------------------------------------
0	0.000000e+00	8.975350e+03	
1	-5.00000e-02	9.135475e+03	
2	-1.00000e-01	9.300204e+03	
3	-1.50000e-01	9.469736e+03	
4	-2.00000e-01	9.644282e+03	
5	-2.50000e-01	9.824068e+03	
6	-3.00000e-01	1.000933e+04	
7	-3.50000e-01	1.020032e+04	
8	-4.00000e-01	1.039731e+04	
9	-4.50000e-01	1.060058e+04	
10	-5.00000e-01	1.081044e+04	
11	-5.50000e-01	1.102720e+04	
12	-6.00000e-01	1.125122e+04	
13	-6.50000e-01	1.148286e+04	
14	-7.00000e-01	1.172252e+04	
15	-7.50000e-01	1.197062e+04	
16	-8.00000e-01	1.222760e+04	
17	-8.50000e-01	1.249396e+04	
18	-9.00000e-01	1.277021e+04	
19	-9.50000e-01	1.305691e+04	
20	-1.00000e+00	1.335466e+04	
21	-1.05000e+00	1.366412e+04	
22	-1.10000e+00	1.398597e+04	
23	-1.15000e+00	1.432099e+04	
24	-1.20000e+00	1.466999e+04	
25	-1.25000e+00	1.503385e+04	
26	-1.30000e+00	1.541356e+04	
27	-1.35000e+00	1.581016e+04	
28	-1.40000e+00	1.622479e+04	
29	-1.45000e+00	1.665872e+04	
30	-1.50000e+00	1.711331e+04	
31	-1.55000e+00	1.759008e+04	
32	-1.60000e+00	1.809068e+04	
33	-1.65000e+00	1.861693e+04	
34	-1.70000e+00	1.917085e+04	
35	-1.75000e+00	1.975467e+04	
36	-1.80000e+00	2.037088e+04	
37	-1.85000e+00	2.102223e+04	
38	-1.90000e+00	2.171180e+04	
39	-1.95000e+00	2.244305e+04	
40	-2.00000e+00	2.321985e+04	
41	-2.05000e+00	2.404657e+04	
42	-2.10000e+00	2.492816e+04	
43	-2.15000e+00	2.587025e+04	
44	-2.20000e+00	2.687923e+04	
45	-2.25000e+00	2.796246e+04	
46	-2.30000e+00	2.912838e+04	
47	-2.35000e+00	3.038676e+04	
48	-2.40000e+00	3.174898e+04	
49	-2.45000e+00	3.322831e+04	
50	-2.50000e+00	3.484037e+04	
51	-2.55000e+00	3.660367e+04	
52	-2.60000e+00	3.854021e+04	
53	-2.65000e+00	4.067638e+04	
54	-2.70000e+00	4.304396e+04	

Index   v-sweep         rds             
--------------------------------------------------------------------------------
55	-2.75000e+00	4.568136e+04	
56	-2.80000e+00	4.863484e+04	
57	-2.85000e+00	5.195950e+04	
58	-2.90000e+00	5.571900e+04	
59	-2.95000e+00	5.998237e+04	
60	-3.00000e+00	6.481585e+04	
61	-3.05000e+00	7.026885e+04	
62	-3.10000e+00	7.635697e+04	
63	-3.15000e+00	8.305036e+04	
64	-3.20000e+00	9.027516e+04	
65	-3.25000e+00	9.792835e+04	
66	-3.30000e+00	1.058979e+05	
67	-3.35000e+00	1.140792e+05	
68	-3.40000e+00	1.223840e+05	
69	-3.45000e+00	1.307423e+05	
70	-3.50000e+00	1.391012e+05	
71	-3.55000e+00	1.474219e+05	
72	-3.60000e+00	1.556763e+05	
73	-3.65000e+00	1.638443e+05	
74	-3.70000e+00	1.719121e+05	
75	-3.75000e+00	1.798700e+05	
76	-3.80000e+00	1.877117e+05	
77	-3.85000e+00	1.954332e+05	
78	-3.90000e+00	2.030320e+05	
79	-3.95000e+00	2.105072e+05	
80	-4.00000e+00	2.178587e+05	
81	-4.05000e+00	2.250870e+05	
82	-4.10000e+00	2.321933e+05	
83	-4.15000e+00	2.391788e+05	
84	-4.20000e+00	2.460454e+05	
85	-4.25000e+00	2.527949e+05	
86	-4.30000e+00	2.594294e+05	
87	-4.35000e+00	2.659510e+05	
88	-4.40000e+00	2.723620e+05	
89	-4.45000e+00	2.786644e+05	
90	-4.50000e+00	2.848607e+05	
91	-4.55000e+00	2.909529e+05	
92	-4.60000e+00	2.969434e+05	
93	-4.65000e+00	3.028343e+05	
94	-4.70000e+00	3.086278e+05	
95	-4.75000e+00	3.143261e+05	
96	-4.80000e+00	3.199312e+05	
97	-4.85000e+00	3.254451e+05	
98	-4.90000e+00	3.308700e+05	
99	-4.95000e+00	3.362078e+05	
100	-5.00000e+00	3.414603e+05	
101	-5.05000e+00	3.466295e+05	
102	-5.10000e+00	3.517173e+05	
103	-5.15000e+00	3.567254e+05	
104	-5.20000e+00	3.616555e+05	
105	-5.25000e+00	3.665093e+05	
106	-5.30000e+00	3.712886e+05	
107	-5.35000e+00	3.759949e+05	
108	-5.40000e+00	3.806298e+05	
109	-5.45000e+00	3.851948e+05	
110	-5.50000e+00	3.896914e+05	
111	-5.55000e+00	3.941211e+05	
112	-5.60000e+00	3.984852e+05	

Index   v-sweep         rds             
--------------------------------------------------------------------------------
113	-5.65000e+00	4.027852e+05	
114	-5.70000e+00	4.070224e+05	
115	-5.75000e+00	4.111980e+05	
116	-5.80000e+00	4.153134e+05	
117	-5.85000e+00	4.193698e+05	
118	-5.90000e+00	4.233683e+05	
119	-5.95000e+00	4.273101e+05	
120	-6.00000e+00	4.311964e+05	
121	-6.05000e+00	4.350281e+05	
122	-6.10000e+00	4.388065e+05	
123	-6.15000e+00	4.425324e+05	
124	-6.20000e+00	4.462070e+05	
125	-6.25000e+00	4.498311e+05	
126	-6.30000e+00	4.534057e+05	
127	-6.35000e+00	4.569317e+05	
128	-6.40000e+00	4.604100e+05	
129	-6.45000e+00	4.638413e+05	
130	-6.50000e+00	4.672266e+05	
131	-6.55000e+00	4.705665e+05	
132	-6.60000e+00	4.738619e+05	
Reset re-loads circuit ***************************

Circuit: ***************************

Note: No ".plot", ".print", or ".fourier" lines; no simulations run
