
Note: Compatibility modes selected: hs

Warning: m=xx on .subckt line will override multiplier m hierarchy!


Circuit: ***************************

Doing analysis at TEMP = 125.000000 and TNOM = 125.000000


No. of Data Rows : 133
                          ***************************
                          DC transfer characteristic  Mon Jan  9 13:57:55  2023
--------------------------------------------------------------------------------
Index   v-sweep         rds             
--------------------------------------------------------------------------------
0	0.000000e+00	8.958066e+03	
1	-5.00000e-02	1.090888e+04	
2	-1.00000e-01	1.389017e+04	
3	-1.50000e-01	1.894532e+04	
4	-2.00000e-01	2.889165e+04	
5	-2.50000e-01	5.209903e+04	
6	-3.00000e-01	1.067028e+05	
7	-3.50000e-01	1.936054e+05	
8	-4.00000e-01	2.734336e+05	
9	-4.50000e-01	3.278663e+05	
10	-5.00000e-01	3.642499e+05	
11	-5.50000e-01	3.907869e+05	
12	-6.00000e-01	4.119557e+05	
13	-6.50000e-01	4.299598e+05	
14	-7.00000e-01	4.459109e+05	
15	-7.50000e-01	4.604056e+05	
16	-8.00000e-01	4.737867e+05	
17	-8.50000e-01	4.862658e+05	
18	-9.00000e-01	4.979826e+05	
19	-9.50000e-01	5.090347e+05	
20	-1.00000e+00	5.194945e+05	
21	-1.05000e+00	5.294182e+05	
22	-1.10000e+00	5.388509e+05	
23	-1.15000e+00	5.478305e+05	
24	-1.20000e+00	5.563890e+05	
25	-1.25000e+00	5.645545e+05	
26	-1.30000e+00	5.723517e+05	
27	-1.35000e+00	5.798028e+05	
28	-1.40000e+00	5.869278e+05	
29	-1.45000e+00	5.937451e+05	
30	-1.50000e+00	6.002714e+05	
31	-1.55000e+00	6.065221e+05	
32	-1.60000e+00	6.125115e+05	
33	-1.65000e+00	6.182528e+05	
34	-1.70000e+00	6.237584e+05	
35	-1.75000e+00	6.290397e+05	
36	-1.80000e+00	6.341076e+05	
37	-1.85000e+00	6.389720e+05	
38	-1.90000e+00	6.436425e+05	
39	-1.95000e+00	6.481278e+05	
40	-2.00000e+00	6.524364e+05	
41	-2.05000e+00	6.565761e+05	
42	-2.10000e+00	6.605543e+05	
43	-2.15000e+00	6.643780e+05	
44	-2.20000e+00	6.680538e+05	
45	-2.25000e+00	6.715880e+05	
46	-2.30000e+00	6.749865e+05	
47	-2.35000e+00	6.782548e+05	
48	-2.40000e+00	6.813983e+05	
49	-2.45000e+00	6.844220e+05	
50	-2.50000e+00	6.873307e+05	
51	-2.55000e+00	6.901290e+05	
52	-2.60000e+00	6.928211e+05	
53	-2.65000e+00	6.954111e+05	
54	-2.70000e+00	6.979029e+05	

Index   v-sweep         rds             
--------------------------------------------------------------------------------
55	-2.75000e+00	7.003003e+05	
56	-2.80000e+00	7.026068e+05	
57	-2.85000e+00	7.048258e+05	
58	-2.90000e+00	7.069604e+05	
59	-2.95000e+00	7.090137e+05	
60	-3.00000e+00	7.109887e+05	
61	-3.05000e+00	7.128882e+05	
62	-3.10000e+00	7.147148e+05	
63	-3.15000e+00	7.164710e+05	
64	-3.20000e+00	7.181593e+05	
65	-3.25000e+00	7.197821e+05	
66	-3.30000e+00	7.213415e+05	
67	-3.35000e+00	7.228396e+05	
68	-3.40000e+00	7.242786e+05	
69	-3.45000e+00	7.256603e+05	
70	-3.50000e+00	7.269867e+05	
71	-3.55000e+00	7.282594e+05	
72	-3.60000e+00	7.294803e+05	
73	-3.65000e+00	7.306509e+05	
74	-3.70000e+00	7.317729e+05	
75	-3.75000e+00	7.328477e+05	
76	-3.80000e+00	7.338767e+05	
77	-3.85000e+00	7.348613e+05	
78	-3.90000e+00	7.358030e+05	
79	-3.95000e+00	7.367028e+05	
80	-4.00000e+00	7.375621e+05	
81	-4.05000e+00	7.383820e+05	
82	-4.10000e+00	7.391636e+05	
83	-4.15000e+00	7.399080e+05	
84	-4.20000e+00	7.406162e+05	
85	-4.25000e+00	7.412892e+05	
86	-4.30000e+00	7.419279e+05	
87	-4.35000e+00	7.425333e+05	
88	-4.40000e+00	7.431062e+05	
89	-4.45000e+00	7.436474e+05	
90	-4.50000e+00	7.441577e+05	
91	-4.55000e+00	7.446379e+05	
92	-4.60000e+00	7.450888e+05	
93	-4.65000e+00	7.455110e+05	
94	-4.70000e+00	7.459052e+05	
95	-4.75000e+00	7.462720e+05	
96	-4.80000e+00	7.466121e+05	
97	-4.85000e+00	7.469261e+05	
98	-4.90000e+00	7.472146e+05	
99	-4.95000e+00	7.474780e+05	
100	-5.00000e+00	7.477170e+05	
101	-5.05000e+00	7.479320e+05	
102	-5.10000e+00	7.481235e+05	
103	-5.15000e+00	7.482920e+05	
104	-5.20000e+00	7.484379e+05	
105	-5.25000e+00	7.485617e+05	
106	-5.30000e+00	7.486638e+05	
107	-5.35000e+00	7.487446e+05	
108	-5.40000e+00	7.488044e+05	
109	-5.45000e+00	7.488438e+05	
110	-5.50000e+00	7.488629e+05	
111	-5.55000e+00	7.488621e+05	
112	-5.60000e+00	7.488419e+05	

Index   v-sweep         rds             
--------------------------------------------------------------------------------
113	-5.65000e+00	7.488024e+05	
114	-5.70000e+00	7.487441e+05	
115	-5.75000e+00	7.486672e+05	
116	-5.80000e+00	7.485720e+05	
117	-5.85000e+00	7.484588e+05	
118	-5.90000e+00	7.483279e+05	
119	-5.95000e+00	7.481795e+05	
120	-6.00000e+00	7.480139e+05	
121	-6.05000e+00	7.478313e+05	
122	-6.10000e+00	7.476320e+05	
123	-6.15000e+00	7.474162e+05	
124	-6.20000e+00	7.471841e+05	
125	-6.25000e+00	7.469360e+05	
126	-6.30000e+00	7.466720e+05	
127	-6.35000e+00	7.463925e+05	
128	-6.40000e+00	7.460975e+05	
129	-6.45000e+00	7.457873e+05	
130	-6.50000e+00	7.454621e+05	
131	-6.55000e+00	7.451220e+05	
132	-6.60000e+00	7.447674e+05	
Reset re-loads circuit ***************************

Circuit: ***************************

Doing analysis at TEMP = 125.000000 and TNOM = 125.000000


No. of Data Rows : 133
                          ***************************
                          DC transfer characteristic  Mon Jan  9 13:57:55  2023
--------------------------------------------------------------------------------
Index   v-sweep         rds             
--------------------------------------------------------------------------------
0	0.000000e+00	2.263950e+03	
1	-5.00000e-02	2.382420e+03	
2	-1.00000e-01	2.512927e+03	
3	-1.50000e-01	2.657399e+03	
4	-2.00000e-01	2.818198e+03	
5	-2.50000e-01	2.998247e+03	
6	-3.00000e-01	3.201209e+03	
7	-3.50000e-01	3.431730e+03	
8	-4.00000e-01	3.695797e+03	
9	-4.50000e-01	4.001242e+03	
10	-5.00000e-01	4.358501e+03	
11	-5.50000e-01	4.781771e+03	
12	-6.00000e-01	5.290787e+03	
13	-6.50000e-01	5.913671e+03	
14	-7.00000e-01	6.691502e+03	
15	-7.50000e-01	7.685702e+03	
16	-8.00000e-01	8.989435e+03	
17	-8.50000e-01	1.074242e+04	
18	-9.00000e-01	1.313844e+04	
19	-9.50000e-01	1.638377e+04	
20	-1.00000e+00	2.053343e+04	
21	-1.05000e+00	2.526835e+04	
22	-1.10000e+00	2.998517e+04	
23	-1.15000e+00	3.423731e+04	
24	-1.20000e+00	3.792998e+04	
25	-1.25000e+00	4.116277e+04	
26	-1.30000e+00	4.406451e+04	
27	-1.35000e+00	4.673428e+04	
28	-1.40000e+00	4.923765e+04	
29	-1.45000e+00	5.161618e+04	
30	-1.50000e+00	5.389629e+04	
31	-1.55000e+00	5.609508e+04	
32	-1.60000e+00	5.822404e+04	
33	-1.65000e+00	6.029114e+04	
34	-1.70000e+00	6.230213e+04	
35	-1.75000e+00	6.426133e+04	
36	-1.80000e+00	6.617210e+04	
37	-1.85000e+00	6.803716e+04	
38	-1.90000e+00	6.985877e+04	
39	-1.95000e+00	7.163884e+04	
40	-2.00000e+00	7.337907e+04	
41	-2.05000e+00	7.508096e+04	
42	-2.10000e+00	7.674587e+04	
43	-2.15000e+00	7.837503e+04	
44	-2.20000e+00	7.996962e+04	
45	-2.25000e+00	8.153069e+04	
46	-2.30000e+00	8.305928e+04	
47	-2.35000e+00	8.455633e+04	
48	-2.40000e+00	8.602275e+04	
49	-2.45000e+00	8.745941e+04	
50	-2.50000e+00	8.886714e+04	
51	-2.55000e+00	9.024673e+04	
52	-2.60000e+00	9.159894e+04	
53	-2.65000e+00	9.292450e+04	
54	-2.70000e+00	9.422410e+04	

Index   v-sweep         rds             
--------------------------------------------------------------------------------
55	-2.75000e+00	9.549843e+04	
56	-2.80000e+00	9.674814e+04	
57	-2.85000e+00	9.797385e+04	
58	-2.90000e+00	9.917617e+04	
59	-2.95000e+00	1.003557e+05	
60	-3.00000e+00	1.015130e+05	
61	-3.05000e+00	1.026486e+05	
62	-3.10000e+00	1.037630e+05	
63	-3.15000e+00	1.048568e+05	
64	-3.20000e+00	1.059305e+05	
65	-3.25000e+00	1.069845e+05	
66	-3.30000e+00	1.080193e+05	
67	-3.35000e+00	1.090353e+05	
68	-3.40000e+00	1.100330e+05	
69	-3.45000e+00	1.110129e+05	
70	-3.50000e+00	1.119753e+05	
71	-3.55000e+00	1.129206e+05	
72	-3.60000e+00	1.138492e+05	
73	-3.65000e+00	1.147615e+05	
74	-3.70000e+00	1.156578e+05	
75	-3.75000e+00	1.165386e+05	
76	-3.80000e+00	1.174041e+05	
77	-3.85000e+00	1.182547e+05	
78	-3.90000e+00	1.190906e+05	
79	-3.95000e+00	1.199123e+05	
80	-4.00000e+00	1.207200e+05	
81	-4.05000e+00	1.215141e+05	
82	-4.10000e+00	1.222947e+05	
83	-4.15000e+00	1.230622e+05	
84	-4.20000e+00	1.238168e+05	
85	-4.25000e+00	1.245588e+05	
86	-4.30000e+00	1.252884e+05	
87	-4.35000e+00	1.260059e+05	
88	-4.40000e+00	1.267116e+05	
89	-4.45000e+00	1.274056e+05	
90	-4.50000e+00	1.280881e+05	
91	-4.55000e+00	1.287594e+05	
92	-4.60000e+00	1.294197e+05	
93	-4.65000e+00	1.300691e+05	
94	-4.70000e+00	1.307079e+05	
95	-4.75000e+00	1.313363e+05	
96	-4.80000e+00	1.319543e+05	
97	-4.85000e+00	1.325623e+05	
98	-4.90000e+00	1.331602e+05	
99	-4.95000e+00	1.337484e+05	
100	-5.00000e+00	1.343269e+05	
101	-5.05000e+00	1.348960e+05	
102	-5.10000e+00	1.354556e+05	
103	-5.15000e+00	1.360060e+05	
104	-5.20000e+00	1.365473e+05	
105	-5.25000e+00	1.370796e+05	
106	-5.30000e+00	1.376030e+05	
107	-5.35000e+00	1.381177e+05	
108	-5.40000e+00	1.386237e+05	
109	-5.45000e+00	1.391212e+05	
110	-5.50000e+00	1.396102e+05	
111	-5.55000e+00	1.400908e+05	
112	-5.60000e+00	1.405632e+05	

Index   v-sweep         rds             
--------------------------------------------------------------------------------
113	-5.65000e+00	1.410274e+05	
114	-5.70000e+00	1.414834e+05	
115	-5.75000e+00	1.419315e+05	
116	-5.80000e+00	1.423715e+05	
117	-5.85000e+00	1.428037e+05	
118	-5.90000e+00	1.432281e+05	
119	-5.95000e+00	1.436447e+05	
120	-6.00000e+00	1.440536e+05	
121	-6.05000e+00	1.444549e+05	
122	-6.10000e+00	1.448485e+05	
123	-6.15000e+00	1.452347e+05	
124	-6.20000e+00	1.456134e+05	
125	-6.25000e+00	1.459846e+05	
126	-6.30000e+00	1.463485e+05	
127	-6.35000e+00	1.467050e+05	
128	-6.40000e+00	1.470542e+05	
129	-6.45000e+00	1.473962e+05	
130	-6.50000e+00	1.477310e+05	
131	-6.55000e+00	1.480585e+05	
132	-6.60000e+00	1.483790e+05	
Reset re-loads circuit ***************************

Circuit: ***************************

Doing analysis at TEMP = 125.000000 and TNOM = 125.000000


No. of Data Rows : 133
                          ***************************
                          DC transfer characteristic  Mon Jan  9 13:57:55  2023
--------------------------------------------------------------------------------
Index   v-sweep         rds             
--------------------------------------------------------------------------------
0	0.000000e+00	1.433136e+03	
1	-5.00000e-02	1.477962e+03	
2	-1.00000e-01	1.525351e+03	
3	-1.50000e-01	1.575527e+03	
4	-2.00000e-01	1.628742e+03	
5	-2.50000e-01	1.685283e+03	
6	-3.00000e-01	1.745468e+03	
7	-3.50000e-01	1.809662e+03	
8	-4.00000e-01	1.878278e+03	
9	-4.50000e-01	1.951788e+03	
10	-5.00000e-01	2.030732e+03	
11	-5.50000e-01	2.115735e+03	
12	-6.00000e-01	2.207520e+03	
13	-6.50000e-01	2.306928e+03	
14	-7.00000e-01	2.414947e+03	
15	-7.50000e-01	2.532740e+03	
16	-8.00000e-01	2.661689e+03	
17	-8.50000e-01	2.803447e+03	
18	-9.00000e-01	2.960005e+03	
19	-9.50000e-01	3.133784e+03	
20	-1.00000e+00	3.327754e+03	
21	-1.05000e+00	3.545593e+03	
22	-1.10000e+00	3.791901e+03	
23	-1.15000e+00	4.072488e+03	
24	-1.20000e+00	4.394770e+03	
25	-1.25000e+00	4.768292e+03	
26	-1.30000e+00	5.205409e+03	
27	-1.35000e+00	5.722105e+03	
28	-1.40000e+00	6.338771e+03	
29	-1.45000e+00	7.080406e+03	
30	-1.50000e+00	7.974797e+03	
31	-1.55000e+00	9.046055e+03	
32	-1.60000e+00	1.030094e+04	
33	-1.65000e+00	1.171167e+04	
34	-1.70000e+00	1.321188e+04	
35	-1.75000e+00	1.472072e+04	
36	-1.80000e+00	1.617834e+04	
37	-1.85000e+00	1.756011e+04	
38	-1.90000e+00	1.886663e+04	
39	-1.95000e+00	2.010866e+04	
40	-2.00000e+00	2.129808e+04	
41	-2.05000e+00	2.244464e+04	
42	-2.10000e+00	2.355552e+04	
43	-2.15000e+00	2.463583e+04	
44	-2.20000e+00	2.568918e+04	
45	-2.25000e+00	2.671817e+04	
46	-2.30000e+00	2.772473e+04	
47	-2.35000e+00	2.871031e+04	
48	-2.40000e+00	2.967605e+04	
49	-2.45000e+00	3.062288e+04	
50	-2.50000e+00	3.155159e+04	
51	-2.55000e+00	3.246283e+04	
52	-2.60000e+00	3.335720e+04	
53	-2.65000e+00	3.423522e+04	
54	-2.70000e+00	3.509738e+04	

Index   v-sweep         rds             
--------------------------------------------------------------------------------
55	-2.75000e+00	3.594411e+04	
56	-2.80000e+00	3.677583e+04	
57	-2.85000e+00	3.759294e+04	
58	-2.90000e+00	3.839580e+04	
59	-2.95000e+00	3.918478e+04	
60	-3.00000e+00	3.996019e+04	
61	-3.05000e+00	4.072238e+04	
62	-3.10000e+00	4.147165e+04	
63	-3.15000e+00	4.220830e+04	
64	-3.20000e+00	4.293263e+04	
65	-3.25000e+00	4.364491e+04	
66	-3.30000e+00	4.434541e+04	
67	-3.35000e+00	4.503440e+04	
68	-3.40000e+00	4.571213e+04	
69	-3.45000e+00	4.637885e+04	
70	-3.50000e+00	4.703480e+04	
71	-3.55000e+00	4.768022e+04	
72	-3.60000e+00	4.831532e+04	
73	-3.65000e+00	4.894034e+04	
74	-3.70000e+00	4.955548e+04	
75	-3.75000e+00	5.016095e+04	
76	-3.80000e+00	5.075696e+04	
77	-3.85000e+00	5.134369e+04	
78	-3.90000e+00	5.192135e+04	
79	-3.95000e+00	5.249012e+04	
80	-4.00000e+00	5.305018e+04	
81	-4.05000e+00	5.360171e+04	
82	-4.10000e+00	5.414488e+04	
83	-4.15000e+00	5.467985e+04	
84	-4.20000e+00	5.520680e+04	
85	-4.25000e+00	5.572587e+04	
86	-4.30000e+00	5.623722e+04	
87	-4.35000e+00	5.674101e+04	
88	-4.40000e+00	5.723737e+04	
89	-4.45000e+00	5.772645e+04	
90	-4.50000e+00	5.820840e+04	
91	-4.55000e+00	5.868333e+04	
92	-4.60000e+00	5.915139e+04	
93	-4.65000e+00	5.961270e+04	
94	-4.70000e+00	6.006738e+04	
95	-4.75000e+00	6.051555e+04	
96	-4.80000e+00	6.095732e+04	
97	-4.85000e+00	6.139282e+04	
98	-4.90000e+00	6.182215e+04	
99	-4.95000e+00	6.224540e+04	
100	-5.00000e+00	6.266270e+04	
101	-5.05000e+00	6.307412e+04	
102	-5.10000e+00	6.347977e+04	
103	-5.15000e+00	6.387974e+04	
104	-5.20000e+00	6.427412e+04	
105	-5.25000e+00	6.466299e+04	
106	-5.30000e+00	6.504643e+04	
107	-5.35000e+00	6.542453e+04	
108	-5.40000e+00	6.579735e+04	
109	-5.45000e+00	6.616497e+04	
110	-5.50000e+00	6.652745e+04	
111	-5.55000e+00	6.688488e+04	
112	-5.60000e+00	6.723730e+04	

Index   v-sweep         rds             
--------------------------------------------------------------------------------
113	-5.65000e+00	6.758477e+04	
114	-5.70000e+00	6.792737e+04	
115	-5.75000e+00	6.826513e+04	
116	-5.80000e+00	6.859811e+04	
117	-5.85000e+00	6.892637e+04	
118	-5.90000e+00	6.924994e+04	
119	-5.95000e+00	6.956887e+04	
120	-6.00000e+00	6.988321e+04	
121	-6.05000e+00	7.019299e+04	
122	-6.10000e+00	7.049825e+04	
123	-6.15000e+00	7.079902e+04	
124	-6.20000e+00	7.109534e+04	
125	-6.25000e+00	7.138723e+04	
126	-6.30000e+00	7.167473e+04	
127	-6.35000e+00	7.195787e+04	
128	-6.40000e+00	7.223666e+04	
129	-6.45000e+00	7.251113e+04	
130	-6.50000e+00	7.278130e+04	
131	-6.55000e+00	7.304719e+04	
132	-6.60000e+00	7.330883e+04	
Reset re-loads circuit ***************************

Circuit: ***************************

Doing analysis at TEMP = 125.000000 and TNOM = 125.000000


No. of Data Rows : 133
                          ***************************
                          DC transfer characteristic  Mon Jan  9 13:57:55  2023
--------------------------------------------------------------------------------
Index   v-sweep         rds             
--------------------------------------------------------------------------------
0	0.000000e+00	1.099182e+03	
1	-5.00000e-02	1.124268e+03	
2	-1.00000e-01	1.150358e+03	
3	-1.50000e-01	1.177514e+03	
4	-2.00000e-01	1.205800e+03	
5	-2.50000e-01	1.235291e+03	
6	-3.00000e-01	1.266063e+03	
7	-3.50000e-01	1.298202e+03	
8	-4.00000e-01	1.331802e+03	
9	-4.50000e-01	1.366962e+03	
10	-5.00000e-01	1.403795e+03	
11	-5.50000e-01	1.442422e+03	
12	-6.00000e-01	1.482978e+03	
13	-6.50000e-01	1.525609e+03	
14	-7.00000e-01	1.570479e+03	
15	-7.50000e-01	1.617769e+03	
16	-8.00000e-01	1.667679e+03	
17	-8.50000e-01	1.720433e+03	
18	-9.00000e-01	1.776279e+03	
19	-9.50000e-01	1.835497e+03	
20	-1.00000e+00	1.898400e+03	
21	-1.05000e+00	1.965342e+03	
22	-1.10000e+00	2.036723e+03	
23	-1.15000e+00	2.112998e+03	
24	-1.20000e+00	2.194684e+03	
25	-1.25000e+00	2.282375e+03	
26	-1.30000e+00	2.376754e+03	
27	-1.35000e+00	2.478608e+03	
28	-1.40000e+00	2.588855e+03	
29	-1.45000e+00	2.708563e+03	
30	-1.50000e+00	2.838986e+03	
31	-1.55000e+00	2.981606e+03	
32	-1.60000e+00	3.138178e+03	
33	-1.65000e+00	3.310799e+03	
34	-1.70000e+00	3.501980e+03	
35	-1.75000e+00	3.714745e+03	
36	-1.80000e+00	3.952745e+03	
37	-1.85000e+00	4.220378e+03	
38	-1.90000e+00	4.522917e+03	
39	-1.95000e+00	4.866581e+03	
40	-2.00000e+00	5.258465e+03	
41	-2.05000e+00	5.706139e+03	
42	-2.10000e+00	6.216628e+03	
43	-2.15000e+00	6.794464e+03	
44	-2.20000e+00	7.438907e+03	
45	-2.25000e+00	8.141510e+03	
46	-2.30000e+00	8.886294e+03	
47	-2.35000e+00	9.653784e+03	
48	-2.40000e+00	1.042671e+04	
49	-2.45000e+00	1.119347e+04	
50	-2.50000e+00	1.194811e+04	
51	-2.55000e+00	1.268842e+04	
52	-2.60000e+00	1.341410e+04	
53	-2.65000e+00	1.412557e+04	
54	-2.70000e+00	1.482347e+04	

Index   v-sweep         rds             
--------------------------------------------------------------------------------
55	-2.75000e+00	1.550841e+04	
56	-2.80000e+00	1.618094e+04	
57	-2.85000e+00	1.684150e+04	
58	-2.90000e+00	1.749049e+04	
59	-2.95000e+00	1.812824e+04	
60	-3.00000e+00	1.875506e+04	
61	-3.05000e+00	1.937123e+04	
62	-3.10000e+00	1.997701e+04	
63	-3.15000e+00	2.057263e+04	
64	-3.20000e+00	2.115834e+04	
65	-3.25000e+00	2.173436e+04	
66	-3.30000e+00	2.230089e+04	
67	-3.35000e+00	2.285814e+04	
68	-3.40000e+00	2.340632e+04	
69	-3.45000e+00	2.394563e+04	
70	-3.50000e+00	2.447625e+04	
71	-3.55000e+00	2.499837e+04	
72	-3.60000e+00	2.551216e+04	
73	-3.65000e+00	2.601782e+04	
74	-3.70000e+00	2.651550e+04	
75	-3.75000e+00	2.700537e+04	
76	-3.80000e+00	2.748760e+04	
77	-3.85000e+00	2.796234e+04	
78	-3.90000e+00	2.842976e+04	
79	-3.95000e+00	2.889000e+04	
80	-4.00000e+00	2.934321e+04	
81	-4.05000e+00	2.978953e+04	
82	-4.10000e+00	3.022910e+04	
83	-4.15000e+00	3.066207e+04	
84	-4.20000e+00	3.108856e+04	
85	-4.25000e+00	3.150870e+04	
86	-4.30000e+00	3.192262e+04	
87	-4.35000e+00	3.233044e+04	
88	-4.40000e+00	3.273229e+04	
89	-4.45000e+00	3.312827e+04	
90	-4.50000e+00	3.351852e+04	
91	-4.55000e+00	3.390313e+04	
92	-4.60000e+00	3.428221e+04	
93	-4.65000e+00	3.465588e+04	
94	-4.70000e+00	3.502424e+04	
95	-4.75000e+00	3.538738e+04	
96	-4.80000e+00	3.574541e+04	
97	-4.85000e+00	3.609842e+04	
98	-4.90000e+00	3.644650e+04	
99	-4.95000e+00	3.678975e+04	
100	-5.00000e+00	3.712826e+04	
101	-5.05000e+00	3.746211e+04	
102	-5.10000e+00	3.779138e+04	
103	-5.15000e+00	3.811616e+04	
104	-5.20000e+00	3.843652e+04	
105	-5.25000e+00	3.875255e+04	
106	-5.30000e+00	3.906432e+04	
107	-5.35000e+00	3.937189e+04	
108	-5.40000e+00	3.967535e+04	
109	-5.45000e+00	3.997476e+04	
110	-5.50000e+00	4.027019e+04	
111	-5.55000e+00	4.056169e+04	
112	-5.60000e+00	4.084933e+04	

Index   v-sweep         rds             
--------------------------------------------------------------------------------
113	-5.65000e+00	4.113318e+04	
114	-5.70000e+00	4.141328e+04	
115	-5.75000e+00	4.168970e+04	
116	-5.80000e+00	4.196248e+04	
117	-5.85000e+00	4.223168e+04	
118	-5.90000e+00	4.249735e+04	
119	-5.95000e+00	4.275953e+04	
120	-6.00000e+00	4.301827e+04	
121	-6.05000e+00	4.327361e+04	
122	-6.10000e+00	4.352559e+04	
123	-6.15000e+00	4.377425e+04	
124	-6.20000e+00	4.401962e+04	
125	-6.25000e+00	4.426175e+04	
126	-6.30000e+00	4.450066e+04	
127	-6.35000e+00	4.473639e+04	
128	-6.40000e+00	4.496896e+04	
129	-6.45000e+00	4.519840e+04	
130	-6.50000e+00	4.542475e+04	
131	-6.55000e+00	4.564801e+04	
132	-6.60000e+00	4.586821e+04	
Reset re-loads circuit ***************************

Circuit: ***************************

Doing analysis at TEMP = 125.000000 and TNOM = 125.000000


No. of Data Rows : 133
                          ***************************
                          DC transfer characteristic  Mon Jan  9 13:57:55  2023
--------------------------------------------------------------------------------
Index   v-sweep         rds             
--------------------------------------------------------------------------------
0	0.000000e+00	9.156127e+02	
1	-5.00000e-02	9.322969e+02	
2	-1.00000e-01	9.494971e+02	
3	-1.50000e-01	9.672373e+02	
4	-2.00000e-01	9.855434e+02	
5	-2.50000e-01	1.004443e+03	
6	-3.00000e-01	1.023964e+03	
7	-3.50000e-01	1.044140e+03	
8	-4.00000e-01	1.065002e+03	
9	-4.50000e-01	1.086586e+03	
10	-5.00000e-01	1.108931e+03	
11	-5.50000e-01	1.132076e+03	
12	-6.00000e-01	1.156067e+03	
13	-6.50000e-01	1.180949e+03	
14	-7.00000e-01	1.206774e+03	
15	-7.50000e-01	1.233595e+03	
16	-8.00000e-01	1.261471e+03	
17	-8.50000e-01	1.290465e+03	
18	-9.00000e-01	1.320647e+03	
19	-9.50000e-01	1.352089e+03	
20	-1.00000e+00	1.384873e+03	
21	-1.05000e+00	1.419086e+03	
22	-1.10000e+00	1.454824e+03	
23	-1.15000e+00	1.492188e+03	
24	-1.20000e+00	1.531295e+03	
25	-1.25000e+00	1.572266e+03	
26	-1.30000e+00	1.615240e+03	
27	-1.35000e+00	1.660364e+03	
28	-1.40000e+00	1.707805e+03	
29	-1.45000e+00	1.757744e+03	
30	-1.50000e+00	1.810384e+03	
31	-1.55000e+00	1.865948e+03	
32	-1.60000e+00	1.924685e+03	
33	-1.65000e+00	1.986874e+03	
34	-1.70000e+00	2.052825e+03	
35	-1.75000e+00	2.122888e+03	
36	-1.80000e+00	2.197457e+03	
37	-1.85000e+00	2.276975e+03	
38	-1.90000e+00	2.361947e+03	
39	-1.95000e+00	2.452946e+03	
40	-2.00000e+00	2.550627e+03	
41	-2.05000e+00	2.655738e+03	
42	-2.10000e+00	2.769141e+03	
43	-2.15000e+00	2.891830e+03	
44	-2.20000e+00	3.024954e+03	
45	-2.25000e+00	3.169844e+03	
46	-2.30000e+00	3.328045e+03	
47	-2.35000e+00	3.501349e+03	
48	-2.40000e+00	3.691827e+03	
49	-2.45000e+00	3.901850e+03	
50	-2.50000e+00	4.134093e+03	
51	-2.55000e+00	4.391488e+03	
52	-2.60000e+00	4.677087e+03	
53	-2.65000e+00	4.993787e+03	
54	-2.70000e+00	5.343848e+03	

Index   v-sweep         rds             
--------------------------------------------------------------------------------
55	-2.75000e+00	5.728242e+03	
56	-2.80000e+00	6.145953e+03	
57	-2.85000e+00	6.593617e+03	
58	-2.90000e+00	7.065820e+03	
59	-2.95000e+00	7.556078e+03	
60	-3.00000e+00	8.058021e+03	
61	-3.05000e+00	8.566230e+03	
62	-3.10000e+00	9.076535e+03	
63	-3.15000e+00	9.585924e+03	
64	-3.20000e+00	1.009230e+04	
65	-3.25000e+00	1.059424e+04	
66	-3.30000e+00	1.109076e+04	
67	-3.35000e+00	1.158124e+04	
68	-3.40000e+00	1.206525e+04	
69	-3.45000e+00	1.254252e+04	
70	-3.50000e+00	1.301291e+04	
71	-3.55000e+00	1.347634e+04	
72	-3.60000e+00	1.393278e+04	
73	-3.65000e+00	1.438225e+04	
74	-3.70000e+00	1.482480e+04	
75	-3.75000e+00	1.526050e+04	
76	-3.80000e+00	1.568943e+04	
77	-3.85000e+00	1.611168e+04	
78	-3.90000e+00	1.652736e+04	
79	-3.95000e+00	1.693657e+04	
80	-4.00000e+00	1.733942e+04	
81	-4.05000e+00	1.773603e+04	
82	-4.10000e+00	1.812650e+04	
83	-4.15000e+00	1.851096e+04	
84	-4.20000e+00	1.888951e+04	
85	-4.25000e+00	1.926226e+04	
86	-4.30000e+00	1.962934e+04	
87	-4.35000e+00	1.999084e+04	
88	-4.40000e+00	2.034688e+04	
89	-4.45000e+00	2.069757e+04	
90	-4.50000e+00	2.104300e+04	
91	-4.55000e+00	2.138329e+04	
92	-4.60000e+00	2.171853e+04	
93	-4.65000e+00	2.204882e+04	
94	-4.70000e+00	2.237425e+04	
95	-4.75000e+00	2.269493e+04	
96	-4.80000e+00	2.301095e+04	
97	-4.85000e+00	2.332239e+04	
98	-4.90000e+00	2.362934e+04	
99	-4.95000e+00	2.393190e+04	
100	-5.00000e+00	2.423014e+04	
101	-5.05000e+00	2.452415e+04	
102	-5.10000e+00	2.481401e+04	
103	-5.15000e+00	2.509980e+04	
104	-5.20000e+00	2.538159e+04	
105	-5.25000e+00	2.565946e+04	
106	-5.30000e+00	2.593349e+04	
107	-5.35000e+00	2.620374e+04	
108	-5.40000e+00	2.647028e+04	
109	-5.45000e+00	2.673319e+04	
110	-5.50000e+00	2.699253e+04	
111	-5.55000e+00	2.724836e+04	
112	-5.60000e+00	2.750074e+04	

Index   v-sweep         rds             
--------------------------------------------------------------------------------
113	-5.65000e+00	2.774975e+04	
114	-5.70000e+00	2.799543e+04	
115	-5.75000e+00	2.823785e+04	
116	-5.80000e+00	2.847706e+04	
117	-5.85000e+00	2.871312e+04	
118	-5.90000e+00	2.894607e+04	
119	-5.95000e+00	2.917598e+04	
120	-6.00000e+00	2.940289e+04	
121	-6.05000e+00	2.962685e+04	
122	-6.10000e+00	2.984790e+04	
123	-6.15000e+00	3.006609e+04	
124	-6.20000e+00	3.028147e+04	
125	-6.25000e+00	3.049407e+04	
126	-6.30000e+00	3.070394e+04	
127	-6.35000e+00	3.091112e+04	
128	-6.40000e+00	3.111563e+04	
129	-6.45000e+00	3.131752e+04	
130	-6.50000e+00	3.151682e+04	
131	-6.55000e+00	3.171357e+04	
132	-6.60000e+00	3.190779e+04	
Reset re-loads circuit ***************************

Circuit: ***************************

Doing analysis at TEMP = 125.000000 and TNOM = 125.000000


No. of Data Rows : 133
                          ***************************
                          DC transfer characteristic  Mon Jan  9 13:57:55  2023
--------------------------------------------------------------------------------
Index   v-sweep         rds             
--------------------------------------------------------------------------------
0	0.000000e+00	7.974847e+02	
1	-5.00000e-02	8.096980e+02	
2	-1.00000e-01	8.222201e+02	
3	-1.50000e-01	8.350626e+02	
4	-2.00000e-01	8.482379e+02	
5	-2.50000e-01	8.617591e+02	
6	-3.00000e-01	8.756399e+02	
7	-3.50000e-01	8.898947e+02	
8	-4.00000e-01	9.045389e+02	
9	-4.50000e-01	9.195884e+02	
10	-5.00000e-01	9.350604e+02	
11	-5.50000e-01	9.509726e+02	
12	-6.00000e-01	9.673441e+02	
13	-6.50000e-01	9.841950e+02	
14	-7.00000e-01	1.001546e+03	
15	-7.50000e-01	1.019421e+03	
16	-8.00000e-01	1.037843e+03	
17	-8.50000e-01	1.056837e+03	
18	-9.00000e-01	1.076431e+03	
19	-9.50000e-01	1.096653e+03	
20	-1.00000e+00	1.117534e+03	
21	-1.05000e+00	1.139106e+03	
22	-1.10000e+00	1.161404e+03	
23	-1.15000e+00	1.184466e+03	
24	-1.20000e+00	1.208331e+03	
25	-1.25000e+00	1.233041e+03	
26	-1.30000e+00	1.258642e+03	
27	-1.35000e+00	1.285183e+03	
28	-1.40000e+00	1.312717e+03	
29	-1.45000e+00	1.341300e+03	
30	-1.50000e+00	1.370993e+03	
31	-1.55000e+00	1.401861e+03	
32	-1.60000e+00	1.433976e+03	
33	-1.65000e+00	1.467414e+03	
34	-1.70000e+00	1.502258e+03	
35	-1.75000e+00	1.538598e+03	
36	-1.80000e+00	1.576534e+03	
37	-1.85000e+00	1.616170e+03	
38	-1.90000e+00	1.657624e+03	
39	-1.95000e+00	1.701023e+03	
40	-2.00000e+00	1.746507e+03	
41	-2.05000e+00	1.794227e+03	
42	-2.10000e+00	1.844353e+03	
43	-2.15000e+00	1.897069e+03	
44	-2.20000e+00	1.952579e+03	
45	-2.25000e+00	2.011110e+03	
46	-2.30000e+00	2.072913e+03	
47	-2.35000e+00	2.138265e+03	
48	-2.40000e+00	2.207479e+03	
49	-2.45000e+00	2.280900e+03	
50	-2.50000e+00	2.358919e+03	
51	-2.55000e+00	2.441972e+03	
52	-2.60000e+00	2.530549e+03	
53	-2.65000e+00	2.625206e+03	
54	-2.70000e+00	2.726569e+03	

Index   v-sweep         rds             
--------------------------------------------------------------------------------
55	-2.75000e+00	2.835348e+03	
56	-2.80000e+00	2.952345e+03	
57	-2.85000e+00	3.078471e+03	
58	-2.90000e+00	3.214757e+03	
59	-2.95000e+00	3.362363e+03	
60	-3.00000e+00	3.522590e+03	
61	-3.05000e+00	3.696876e+03	
62	-3.10000e+00	3.886784e+03	
63	-3.15000e+00	4.093954e+03	
64	-3.20000e+00	4.320027e+03	
65	-3.25000e+00	4.566492e+03	
66	-3.30000e+00	4.834473e+03	
67	-3.35000e+00	5.124448e+03	
68	-3.40000e+00	5.435966e+03	
69	-3.45000e+00	5.767473e+03	
70	-3.50000e+00	6.116373e+03	
71	-3.55000e+00	6.479339e+03	
72	-3.60000e+00	6.852778e+03	
73	-3.65000e+00	7.233258e+03	
74	-3.70000e+00	7.617789e+03	
75	-3.75000e+00	8.003932e+03	
76	-3.80000e+00	8.389788e+03	
77	-3.85000e+00	8.773923e+03	
78	-3.90000e+00	9.155280e+03	
79	-3.95000e+00	9.533093e+03	
80	-4.00000e+00	9.906813e+03	
81	-4.05000e+00	1.027606e+04	
82	-4.10000e+00	1.064056e+04	
83	-4.15000e+00	1.100014e+04	
84	-4.20000e+00	1.135471e+04	
85	-4.25000e+00	1.170419e+04	
86	-4.30000e+00	1.204858e+04	
87	-4.35000e+00	1.238786e+04	
88	-4.40000e+00	1.272208e+04	
89	-4.45000e+00	1.305127e+04	
90	-4.50000e+00	1.337549e+04	
91	-4.55000e+00	1.369480e+04	
92	-4.60000e+00	1.400927e+04	
93	-4.65000e+00	1.431897e+04	
94	-4.70000e+00	1.462397e+04	
95	-4.75000e+00	1.492437e+04	
96	-4.80000e+00	1.522022e+04	
97	-4.85000e+00	1.551163e+04	
98	-4.90000e+00	1.579866e+04	
99	-4.95000e+00	1.608140e+04	
100	-5.00000e+00	1.635993e+04	
101	-5.05000e+00	1.663432e+04	
102	-5.10000e+00	1.690465e+04	
103	-5.15000e+00	1.717101e+04	
104	-5.20000e+00	1.743346e+04	
105	-5.25000e+00	1.769209e+04	
106	-5.30000e+00	1.794696e+04	
107	-5.35000e+00	1.819815e+04	
108	-5.40000e+00	1.844572e+04	
109	-5.45000e+00	1.868975e+04	
110	-5.50000e+00	1.893031e+04	
111	-5.55000e+00	1.916745e+04	
112	-5.60000e+00	1.940125e+04	

Index   v-sweep         rds             
--------------------------------------------------------------------------------
113	-5.65000e+00	1.963177e+04	
114	-5.70000e+00	1.985907e+04	
115	-5.75000e+00	2.008321e+04	
116	-5.80000e+00	2.030425e+04	
117	-5.85000e+00	2.052225e+04	
118	-5.90000e+00	2.073726e+04	
119	-5.95000e+00	2.094934e+04	
120	-6.00000e+00	2.115854e+04	
121	-6.05000e+00	2.136492e+04	
122	-6.10000e+00	2.156853e+04	
123	-6.15000e+00	2.176941e+04	
124	-6.20000e+00	2.196761e+04	
125	-6.25000e+00	2.216319e+04	
126	-6.30000e+00	2.235619e+04	
127	-6.35000e+00	2.254664e+04	
128	-6.40000e+00	2.273460e+04	
129	-6.45000e+00	2.292011e+04	
130	-6.50000e+00	2.310321e+04	
131	-6.55000e+00	2.328393e+04	
132	-6.60000e+00	2.346231e+04	
Reset re-loads circuit ***************************

Circuit: ***************************

Note: No ".plot", ".print", or ".fourier" lines; no simulations run
