
Note: Compatibility modes selected: hs

Warning: m=xx on .subckt line will override multiplier m hierarchy!


Circuit: ***************************

Doing analysis at TEMP = 125.000000 and TNOM = 125.000000


No. of Data Rows : 133
                          ***************************
                          DC transfer characteristic  Mon Jan  9 13:57:55  2023
--------------------------------------------------------------------------------
Index   v-sweep         rds             
--------------------------------------------------------------------------------
0	0.000000e+00	9.055245e+04	
1	-5.00000e-02	1.089431e+05	
2	-1.00000e-01	1.362709e+05	
3	-1.50000e-01	1.807264e+05	
4	-2.00000e-01	2.630518e+05	
5	-2.50000e-01	4.427076e+05	
6	-3.00000e-01	8.697727e+05	
7	-3.50000e-01	1.661607e+06	
8	-4.00000e-01	2.520385e+06	
9	-4.50000e-01	3.137578e+06	
10	-5.00000e-01	3.534331e+06	
11	-5.50000e-01	3.805903e+06	
12	-6.00000e-01	4.011627e+06	
13	-6.50000e-01	4.181082e+06	
14	-7.00000e-01	4.328840e+06	
15	-7.50000e-01	4.462401e+06	
16	-8.00000e-01	4.585864e+06	
17	-8.50000e-01	4.701612e+06	
18	-9.00000e-01	4.811111e+06	
19	-9.50000e-01	4.915323e+06	
20	-1.00000e+00	5.014909e+06	
21	-1.05000e+00	5.110347e+06	
22	-1.10000e+00	5.202002e+06	
23	-1.15000e+00	5.290162e+06	
24	-1.20000e+00	5.375060e+06	
25	-1.25000e+00	5.456896e+06	
26	-1.30000e+00	5.535841e+06	
27	-1.35000e+00	5.612044e+06	
28	-1.40000e+00	5.685641e+06	
29	-1.45000e+00	5.756755e+06	
30	-1.50000e+00	5.825495e+06	
31	-1.55000e+00	5.891967e+06	
32	-1.60000e+00	5.956264e+06	
33	-1.65000e+00	6.018477e+06	
34	-1.70000e+00	6.078690e+06	
35	-1.75000e+00	6.136981e+06	
36	-1.80000e+00	6.193425e+06	
37	-1.85000e+00	6.248091e+06	
38	-1.90000e+00	6.301047e+06	
39	-1.95000e+00	6.352355e+06	
40	-2.00000e+00	6.402075e+06	
41	-2.05000e+00	6.450266e+06	
42	-2.10000e+00	6.496980e+06	
43	-2.15000e+00	6.542270e+06	
44	-2.20000e+00	6.586185e+06	
45	-2.25000e+00	6.628773e+06	
46	-2.30000e+00	6.670079e+06	
47	-2.35000e+00	6.710146e+06	
48	-2.40000e+00	6.749016e+06	
49	-2.45000e+00	6.786727e+06	
50	-2.50000e+00	6.823319e+06	
51	-2.55000e+00	6.858826e+06	
52	-2.60000e+00	6.893285e+06	
53	-2.65000e+00	6.926729e+06	
54	-2.70000e+00	6.959189e+06	

Index   v-sweep         rds             
--------------------------------------------------------------------------------
55	-2.75000e+00	6.990697e+06	
56	-2.80000e+00	7.021283e+06	
57	-2.85000e+00	7.050973e+06	
58	-2.90000e+00	7.079797e+06	
59	-2.95000e+00	7.107780e+06	
60	-3.00000e+00	7.134948e+06	
61	-3.05000e+00	7.161324e+06	
62	-3.10000e+00	7.186933e+06	
63	-3.15000e+00	7.211797e+06	
64	-3.20000e+00	7.235937e+06	
65	-3.25000e+00	7.259374e+06	
66	-3.30000e+00	7.282129e+06	
67	-3.35000e+00	7.304220e+06	
68	-3.40000e+00	7.325667e+06	
69	-3.45000e+00	7.346487e+06	
70	-3.50000e+00	7.366697e+06	
71	-3.55000e+00	7.386315e+06	
72	-3.60000e+00	7.405355e+06	
73	-3.65000e+00	7.423835e+06	
74	-3.70000e+00	7.441768e+06	
75	-3.75000e+00	7.459168e+06	
76	-3.80000e+00	7.476051e+06	
77	-3.85000e+00	7.492428e+06	
78	-3.90000e+00	7.508313e+06	
79	-3.95000e+00	7.523718e+06	
80	-4.00000e+00	7.538655e+06	
81	-4.05000e+00	7.553136e+06	
82	-4.10000e+00	7.567171e+06	
83	-4.15000e+00	7.580771e+06	
84	-4.20000e+00	7.593947e+06	
85	-4.25000e+00	7.606708e+06	
86	-4.30000e+00	7.619063e+06	
87	-4.35000e+00	7.631023e+06	
88	-4.40000e+00	7.642595e+06	
89	-4.45000e+00	7.653788e+06	
90	-4.50000e+00	7.664611e+06	
91	-4.55000e+00	7.675072e+06	
92	-4.60000e+00	7.685177e+06	
93	-4.65000e+00	7.694934e+06	
94	-4.70000e+00	7.704351e+06	
95	-4.75000e+00	7.713433e+06	
96	-4.80000e+00	7.722189e+06	
97	-4.85000e+00	7.730623e+06	
98	-4.90000e+00	7.738742e+06	
99	-4.95000e+00	7.746553e+06	
100	-5.00000e+00	7.754060e+06	
101	-5.05000e+00	7.761268e+06	
102	-5.10000e+00	7.768184e+06	
103	-5.15000e+00	7.774813e+06	
104	-5.20000e+00	7.781158e+06	
105	-5.25000e+00	7.787226e+06	
106	-5.30000e+00	7.793020e+06	
107	-5.35000e+00	7.798545e+06	
108	-5.40000e+00	7.803806e+06	
109	-5.45000e+00	7.808805e+06	
110	-5.50000e+00	7.813548e+06	
111	-5.55000e+00	7.818038e+06	
112	-5.60000e+00	7.822279e+06	

Index   v-sweep         rds             
--------------------------------------------------------------------------------
113	-5.65000e+00	7.826275e+06	
114	-5.70000e+00	7.830029e+06	
115	-5.75000e+00	7.833544e+06	
116	-5.80000e+00	7.836823e+06	
117	-5.85000e+00	7.839871e+06	
118	-5.90000e+00	7.842690e+06	
119	-5.95000e+00	7.845283e+06	
120	-6.00000e+00	7.847652e+06	
121	-6.05000e+00	7.849802e+06	
122	-6.10000e+00	7.851734e+06	
123	-6.15000e+00	7.853451e+06	
124	-6.20000e+00	7.854957e+06	
125	-6.25000e+00	7.856253e+06	
126	-6.30000e+00	7.857342e+06	
127	-6.35000e+00	7.858227e+06	
128	-6.40000e+00	7.858909e+06	
129	-6.45000e+00	7.859392e+06	
130	-6.50000e+00	7.859678e+06	
131	-6.55000e+00	7.859768e+06	
132	-6.60000e+00	7.859666e+06	
Reset re-loads circuit ***************************

Circuit: ***************************

Doing analysis at TEMP = 125.000000 and TNOM = 125.000000


No. of Data Rows : 133
                          ***************************
                          DC transfer characteristic  Mon Jan  9 13:57:55  2023
--------------------------------------------------------------------------------
Index   v-sweep         rds             
--------------------------------------------------------------------------------
0	0.000000e+00	2.384208e+04	
1	-5.00000e-02	2.506726e+04	
2	-1.00000e-01	2.641538e+04	
3	-1.50000e-01	2.790586e+04	
4	-2.00000e-01	2.956245e+04	
5	-2.50000e-01	3.141446e+04	
6	-3.00000e-01	3.349851e+04	
7	-3.50000e-01	3.586090e+04	
8	-4.00000e-01	3.856101e+04	
9	-4.50000e-01	4.167625e+04	
10	-5.00000e-01	4.530927e+04	
11	-5.50000e-01	4.959889e+04	
12	-6.00000e-01	5.473701e+04	
13	-6.50000e-01	6.099524e+04	
14	-7.00000e-01	6.876767e+04	
15	-7.50000e-01	7.863993e+04	
16	-8.00000e-01	9.149733e+04	
17	-8.50000e-01	1.086742e+05	
18	-9.00000e-01	1.320715e+05	
19	-9.50000e-01	1.639021e+05	
20	-1.00000e+00	2.052883e+05	
21	-1.05000e+00	2.536807e+05	
22	-1.10000e+00	3.025742e+05	
23	-1.15000e+00	3.460982e+05	
24	-1.20000e+00	3.825378e+05	
25	-1.25000e+00	4.130607e+05	
26	-1.30000e+00	4.394342e+05	
27	-1.35000e+00	4.630505e+05	
28	-1.40000e+00	4.848228e+05	
29	-1.45000e+00	5.053160e+05	
30	-1.50000e+00	5.248769e+05	
31	-1.55000e+00	5.437217e+05	
32	-1.60000e+00	5.619888e+05	
33	-1.65000e+00	5.797692e+05	
34	-1.70000e+00	5.971251e+05	
35	-1.75000e+00	6.141003e+05	
36	-1.80000e+00	6.307265e+05	
37	-1.85000e+00	6.470279e+05	
38	-1.90000e+00	6.630230e+05	
39	-1.95000e+00	6.787269e+05	
40	-2.00000e+00	6.941521e+05	
41	-2.05000e+00	7.093088e+05	
42	-2.10000e+00	7.242063e+05	
43	-2.15000e+00	7.388526e+05	
44	-2.20000e+00	7.532549e+05	
45	-2.25000e+00	7.674199e+05	
46	-2.30000e+00	7.813535e+05	
47	-2.35000e+00	7.950616e+05	
48	-2.40000e+00	8.085495e+05	
49	-2.45000e+00	8.218221e+05	
50	-2.50000e+00	8.348845e+05	
51	-2.55000e+00	8.477411e+05	
52	-2.60000e+00	8.603964e+05	
53	-2.65000e+00	8.728546e+05	
54	-2.70000e+00	8.851199e+05	

Index   v-sweep         rds             
--------------------------------------------------------------------------------
55	-2.75000e+00	8.971962e+05	
56	-2.80000e+00	9.090873e+05	
57	-2.85000e+00	9.207969e+05	
58	-2.90000e+00	9.323288e+05	
59	-2.95000e+00	9.436863e+05	
60	-3.00000e+00	9.548729e+05	
61	-3.05000e+00	9.658920e+05	
62	-3.10000e+00	9.767466e+05	
63	-3.15000e+00	9.874400e+05	
64	-3.20000e+00	9.979753e+05	
65	-3.25000e+00	1.008355e+06	
66	-3.30000e+00	1.018583e+06	
67	-3.35000e+00	1.028662e+06	
68	-3.40000e+00	1.038593e+06	
69	-3.45000e+00	1.048381e+06	
70	-3.50000e+00	1.058028e+06	
71	-3.55000e+00	1.067535e+06	
72	-3.60000e+00	1.076907e+06	
73	-3.65000e+00	1.086145e+06	
74	-3.70000e+00	1.095251e+06	
75	-3.75000e+00	1.104228e+06	
76	-3.80000e+00	1.113078e+06	
77	-3.85000e+00	1.121804e+06	
78	-3.90000e+00	1.130408e+06	
79	-3.95000e+00	1.138891e+06	
80	-4.00000e+00	1.147255e+06	
81	-4.05000e+00	1.155504e+06	
82	-4.10000e+00	1.163638e+06	
83	-4.15000e+00	1.171659e+06	
84	-4.20000e+00	1.179570e+06	
85	-4.25000e+00	1.187373e+06	
86	-4.30000e+00	1.195068e+06	
87	-4.35000e+00	1.202657e+06	
88	-4.40000e+00	1.210143e+06	
89	-4.45000e+00	1.217527e+06	
90	-4.50000e+00	1.224810e+06	
91	-4.55000e+00	1.231994e+06	
92	-4.60000e+00	1.239080e+06	
93	-4.65000e+00	1.246070e+06	
94	-4.70000e+00	1.252965e+06	
95	-4.75000e+00	1.259767e+06	
96	-4.80000e+00	1.266476e+06	
97	-4.85000e+00	1.273093e+06	
98	-4.90000e+00	1.279621e+06	
99	-4.95000e+00	1.286060e+06	
100	-5.00000e+00	1.292411e+06	
101	-5.05000e+00	1.298675e+06	
102	-5.10000e+00	1.304854e+06	
103	-5.15000e+00	1.310947e+06	
104	-5.20000e+00	1.316957e+06	
105	-5.25000e+00	1.322884e+06	
106	-5.30000e+00	1.328728e+06	
107	-5.35000e+00	1.334491e+06	
108	-5.40000e+00	1.340174e+06	
109	-5.45000e+00	1.345777e+06	
110	-5.50000e+00	1.351300e+06	
111	-5.55000e+00	1.356745e+06	
112	-5.60000e+00	1.362113e+06	

Index   v-sweep         rds             
--------------------------------------------------------------------------------
113	-5.65000e+00	1.367403e+06	
114	-5.70000e+00	1.372616e+06	
115	-5.75000e+00	1.377753e+06	
116	-5.80000e+00	1.382815e+06	
117	-5.85000e+00	1.387801e+06	
118	-5.90000e+00	1.392713e+06	
119	-5.95000e+00	1.397551e+06	
120	-6.00000e+00	1.402315e+06	
121	-6.05000e+00	1.407005e+06	
122	-6.10000e+00	1.411623e+06	
123	-6.15000e+00	1.416168e+06	
124	-6.20000e+00	1.420641e+06	
125	-6.25000e+00	1.425041e+06	
126	-6.30000e+00	1.429370e+06	
127	-6.35000e+00	1.433628e+06	
128	-6.40000e+00	1.437815e+06	
129	-6.45000e+00	1.441931e+06	
130	-6.50000e+00	1.445977e+06	
131	-6.55000e+00	1.449952e+06	
132	-6.60000e+00	1.453857e+06	
Reset re-loads circuit ***************************

Circuit: ***************************

Doing analysis at TEMP = 125.000000 and TNOM = 125.000000


No. of Data Rows : 133
                          ***************************
                          DC transfer characteristic  Mon Jan  9 13:57:55  2023
--------------------------------------------------------------------------------
Index   v-sweep         rds             
--------------------------------------------------------------------------------
0	0.000000e+00	1.498567e+04	
1	-5.00000e-02	1.544640e+04	
2	-1.00000e-01	1.593327e+04	
3	-1.50000e-01	1.644858e+04	
4	-2.00000e-01	1.699487e+04	
5	-2.50000e-01	1.757504e+04	
6	-3.00000e-01	1.819231e+04	
7	-3.50000e-01	1.885036e+04	
8	-4.00000e-01	1.955336e+04	
9	-4.50000e-01	2.030606e+04	
10	-5.00000e-01	2.111392e+04	
11	-5.50000e-01	2.198320e+04	
12	-6.00000e-01	2.292117e+04	
13	-6.50000e-01	2.393628e+04	
14	-7.00000e-01	2.503839e+04	
15	-7.50000e-01	2.623916e+04	
16	-8.00000e-01	2.755237e+04	
17	-8.50000e-01	2.899447e+04	
18	-9.00000e-01	3.058527e+04	
19	-9.50000e-01	3.234878e+04	
20	-1.00000e+00	3.431439e+04	
21	-1.05000e+00	3.651838e+04	
22	-1.10000e+00	3.900601e+04	
23	-1.15000e+00	4.183429e+04	
24	-1.20000e+00	4.507573e+04	
25	-1.25000e+00	4.882340e+04	
26	-1.30000e+00	5.319745e+04	
27	-1.35000e+00	5.835310e+04	
28	-1.40000e+00	6.448865e+04	
29	-1.45000e+00	7.184887e+04	
30	-1.50000e+00	8.071095e+04	
31	-1.55000e+00	9.132740e+04	
32	-1.60000e+00	1.037926e+05	
33	-1.65000e+00	1.178462e+05	
34	-1.70000e+00	1.327685e+05	
35	-1.75000e+00	1.475934e+05	
36	-1.80000e+00	1.615572e+05	
37	-1.85000e+00	1.743585e+05	
38	-1.90000e+00	1.860632e+05	
39	-1.95000e+00	1.968857e+05	
40	-2.00000e+00	2.070441e+05	
41	-2.05000e+00	2.167091e+05	
42	-2.10000e+00	2.260016e+05	
43	-2.15000e+00	2.350031e+05	
44	-2.20000e+00	2.437686e+05	
45	-2.25000e+00	2.523353e+05	
46	-2.30000e+00	2.607286e+05	
47	-2.35000e+00	2.689666e+05	
48	-2.40000e+00	2.770622e+05	
49	-2.45000e+00	2.850251e+05	
50	-2.50000e+00	2.928627e+05	
51	-2.55000e+00	3.005808e+05	
52	-2.60000e+00	3.081842e+05	
53	-2.65000e+00	3.156769e+05	
54	-2.70000e+00	3.230622e+05	

Index   v-sweep         rds             
--------------------------------------------------------------------------------
55	-2.75000e+00	3.303431e+05	
56	-2.80000e+00	3.375223e+05	
57	-2.85000e+00	3.446022e+05	
58	-2.90000e+00	3.515850e+05	
59	-2.95000e+00	3.584727e+05	
60	-3.00000e+00	3.652674e+05	
61	-3.05000e+00	3.719708e+05	
62	-3.10000e+00	3.785847e+05	
63	-3.15000e+00	3.851109e+05	
64	-3.20000e+00	3.915508e+05	
65	-3.25000e+00	3.979062e+05	
66	-3.30000e+00	4.041784e+05	
67	-3.35000e+00	4.103690e+05	
68	-3.40000e+00	4.164794e+05	
69	-3.45000e+00	4.225109e+05	
70	-3.50000e+00	4.284650e+05	
71	-3.55000e+00	4.343429e+05	
72	-3.60000e+00	4.401460e+05	
73	-3.65000e+00	4.458754e+05	
74	-3.70000e+00	4.515325e+05	
75	-3.75000e+00	4.571183e+05	
76	-3.80000e+00	4.626342e+05	
77	-3.85000e+00	4.680812e+05	
78	-3.90000e+00	4.734604e+05	
79	-3.95000e+00	4.787730e+05	
80	-4.00000e+00	4.840200e+05	
81	-4.05000e+00	4.892024e+05	
82	-4.10000e+00	4.943214e+05	
83	-4.15000e+00	4.993779e+05	
84	-4.20000e+00	5.043729e+05	
85	-4.25000e+00	5.093073e+05	
86	-4.30000e+00	5.141822e+05	
87	-4.35000e+00	5.189983e+05	
88	-4.40000e+00	5.237567e+05	
89	-4.45000e+00	5.284582e+05	
90	-4.50000e+00	5.331037e+05	
91	-4.55000e+00	5.376939e+05	
92	-4.60000e+00	5.422298e+05	
93	-4.65000e+00	5.467122e+05	
94	-4.70000e+00	5.511417e+05	
95	-4.75000e+00	5.555192e+05	
96	-4.80000e+00	5.598454e+05	
97	-4.85000e+00	5.641210e+05	
98	-4.90000e+00	5.683467e+05	
99	-4.95000e+00	5.725233e+05	
100	-5.00000e+00	5.766513e+05	
101	-5.05000e+00	5.807314e+05	
102	-5.10000e+00	5.847642e+05	
103	-5.15000e+00	5.887503e+05	
104	-5.20000e+00	5.926903e+05	
105	-5.25000e+00	5.965848e+05	
106	-5.30000e+00	6.004342e+05	
107	-5.35000e+00	6.042391e+05	
108	-5.40000e+00	6.080000e+05	
109	-5.45000e+00	6.117173e+05	
110	-5.50000e+00	6.153915e+05	
111	-5.55000e+00	6.190231e+05	
112	-5.60000e+00	6.226124e+05	

Index   v-sweep         rds             
--------------------------------------------------------------------------------
113	-5.65000e+00	6.261599e+05	
114	-5.70000e+00	6.296658e+05	
115	-5.75000e+00	6.331307e+05	
116	-5.80000e+00	6.365547e+05	
117	-5.85000e+00	6.399382e+05	
118	-5.90000e+00	6.432816e+05	
119	-5.95000e+00	6.465851e+05	
120	-6.00000e+00	6.498489e+05	
121	-6.05000e+00	6.530733e+05	
122	-6.10000e+00	6.562585e+05	
123	-6.15000e+00	6.594048e+05	
124	-6.20000e+00	6.625123e+05	
125	-6.25000e+00	6.655813e+05	
126	-6.30000e+00	6.686118e+05	
127	-6.35000e+00	6.716040e+05	
128	-6.40000e+00	6.745582e+05	
129	-6.45000e+00	6.774743e+05	
130	-6.50000e+00	6.803525e+05	
131	-6.55000e+00	6.831929e+05	
132	-6.60000e+00	6.859957e+05	
Reset re-loads circuit ***************************

Circuit: ***************************

Doing analysis at TEMP = 125.000000 and TNOM = 125.000000


No. of Data Rows : 133
                          ***************************
                          DC transfer characteristic  Mon Jan  9 13:57:55  2023
--------------------------------------------------------------------------------
Index   v-sweep         rds             
--------------------------------------------------------------------------------
0	0.000000e+00	1.141020e+04	
1	-5.00000e-02	1.166537e+04	
2	-1.00000e-01	1.193070e+04	
3	-1.50000e-01	1.220679e+04	
4	-2.00000e-01	1.249431e+04	
5	-2.50000e-01	1.279399e+04	
6	-3.00000e-01	1.310661e+04	
7	-3.50000e-01	1.343302e+04	
8	-4.00000e-01	1.377417e+04	
9	-4.50000e-01	1.413105e+04	
10	-5.00000e-01	1.450479e+04	
11	-5.50000e-01	1.489661e+04	
12	-6.00000e-01	1.530785e+04	
13	-6.50000e-01	1.573998e+04	
14	-7.00000e-01	1.619463e+04	
15	-7.50000e-01	1.667360e+04	
16	-8.00000e-01	1.717890e+04	
17	-8.50000e-01	1.771275e+04	
18	-9.00000e-01	1.827764e+04	
19	-9.50000e-01	1.887633e+04	
20	-1.00000e+00	1.951195e+04	
21	-1.05000e+00	2.018801e+04	
22	-1.10000e+00	2.090847e+04	
23	-1.15000e+00	2.167784e+04	
24	-1.20000e+00	2.250124e+04	
25	-1.25000e+00	2.338454e+04	
26	-1.30000e+00	2.433447e+04	
27	-1.35000e+00	2.535880e+04	
28	-1.40000e+00	2.646653e+04	
29	-1.45000e+00	2.766815e+04	
30	-1.50000e+00	2.897596e+04	
31	-1.55000e+00	3.040442e+04	
32	-1.60000e+00	3.197065e+04	
33	-1.65000e+00	3.369505e+04	
34	-1.70000e+00	3.560195e+04	
35	-1.75000e+00	3.772059e+04	
36	-1.80000e+00	4.008612e+04	
37	-1.85000e+00	4.274077e+04	
38	-1.90000e+00	4.573493e+04	
39	-1.95000e+00	4.912785e+04	
40	-2.00000e+00	5.298681e+04	
41	-2.05000e+00	5.738324e+04	
42	-2.10000e+00	6.238261e+04	
43	-2.15000e+00	6.802453e+04	
44	-2.20000e+00	7.429235e+04	
45	-2.25000e+00	8.108247e+04	
46	-2.30000e+00	8.819937e+04	
47	-2.35000e+00	9.540076e+04	
48	-2.40000e+00	1.024761e+05	
49	-2.45000e+00	1.093028e+05	
50	-2.50000e+00	1.158467e+05	
51	-2.55000e+00	1.221279e+05	
52	-2.60000e+00	1.281863e+05	
53	-2.65000e+00	1.340619e+05	
54	-2.70000e+00	1.397870e+05	

Index   v-sweep         rds             
--------------------------------------------------------------------------------
55	-2.75000e+00	1.453859e+05	
56	-2.80000e+00	1.508758e+05	
57	-2.85000e+00	1.562692e+05	
58	-2.90000e+00	1.615747e+05	
59	-2.95000e+00	1.667988e+05	
60	-3.00000e+00	1.719461e+05	
61	-3.05000e+00	1.770204e+05	
62	-3.10000e+00	1.820245e+05	
63	-3.15000e+00	1.869607e+05	
64	-3.20000e+00	1.918310e+05	
65	-3.25000e+00	1.966370e+05	
66	-3.30000e+00	2.013803e+05	
67	-3.35000e+00	2.060622e+05	
68	-3.40000e+00	2.106839e+05	
69	-3.45000e+00	2.152466e+05	
70	-3.50000e+00	2.197514e+05	
71	-3.55000e+00	2.241994e+05	
72	-3.60000e+00	2.285915e+05	
73	-3.65000e+00	2.329287e+05	
74	-3.70000e+00	2.372119e+05	
75	-3.75000e+00	2.414421e+05	
76	-3.80000e+00	2.456201e+05	
77	-3.85000e+00	2.497467e+05	
78	-3.90000e+00	2.538229e+05	
79	-3.95000e+00	2.578494e+05	
80	-4.00000e+00	2.618270e+05	
81	-4.05000e+00	2.657566e+05	
82	-4.10000e+00	2.696388e+05	
83	-4.15000e+00	2.734744e+05	
84	-4.20000e+00	2.772642e+05	
85	-4.25000e+00	2.810089e+05	
86	-4.30000e+00	2.847092e+05	
87	-4.35000e+00	2.883657e+05	
88	-4.40000e+00	2.919792e+05	
89	-4.45000e+00	2.955504e+05	
90	-4.50000e+00	2.990798e+05	
91	-4.55000e+00	3.025681e+05	
92	-4.60000e+00	3.060160e+05	
93	-4.65000e+00	3.094241e+05	
94	-4.70000e+00	3.127929e+05	
95	-4.75000e+00	3.161230e+05	
96	-4.80000e+00	3.194151e+05	
97	-4.85000e+00	3.226697e+05	
98	-4.90000e+00	3.258874e+05	
99	-4.95000e+00	3.290686e+05	
100	-5.00000e+00	3.322140e+05	
101	-5.05000e+00	3.353241e+05	
102	-5.10000e+00	3.383993e+05	
103	-5.15000e+00	3.414401e+05	
104	-5.20000e+00	3.444471e+05	
105	-5.25000e+00	3.474208e+05	
106	-5.30000e+00	3.503615e+05	
107	-5.35000e+00	3.532697e+05	
108	-5.40000e+00	3.561460e+05	
109	-5.45000e+00	3.589906e+05	
110	-5.50000e+00	3.618040e+05	
111	-5.55000e+00	3.645866e+05	
112	-5.60000e+00	3.673388e+05	

Index   v-sweep         rds             
--------------------------------------------------------------------------------
113	-5.65000e+00	3.700609e+05	
114	-5.70000e+00	3.727534e+05	
115	-5.75000e+00	3.754166e+05	
116	-5.80000e+00	3.780508e+05	
117	-5.85000e+00	3.806563e+05	
118	-5.90000e+00	3.832334e+05	
119	-5.95000e+00	3.857825e+05	
120	-6.00000e+00	3.883038e+05	
121	-6.05000e+00	3.907976e+05	
122	-6.10000e+00	3.932641e+05	
123	-6.15000e+00	3.957036e+05	
124	-6.20000e+00	3.981163e+05	
125	-6.25000e+00	4.005025e+05	
126	-6.30000e+00	4.028622e+05	
127	-6.35000e+00	4.051958e+05	
128	-6.40000e+00	4.075034e+05	
129	-6.45000e+00	4.097852e+05	
130	-6.50000e+00	4.120413e+05	
131	-6.55000e+00	4.142719e+05	
132	-6.60000e+00	4.164770e+05	
Reset re-loads circuit ***************************

Circuit: ***************************

Doing analysis at TEMP = 125.000000 and TNOM = 125.000000


No. of Data Rows : 133
                          ***************************
                          DC transfer characteristic  Mon Jan  9 13:57:55  2023
--------------------------------------------------------------------------------
Index   v-sweep         rds             
--------------------------------------------------------------------------------
0	0.000000e+00	9.451508e+03	
1	-5.00000e-02	9.619501e+03	
2	-1.00000e-01	9.792656e+03	
3	-1.50000e-01	9.971211e+03	
4	-2.00000e-01	1.015542e+04	
5	-2.50000e-01	1.034556e+04	
6	-3.00000e-01	1.054192e+04	
7	-3.50000e-01	1.074481e+04	
8	-4.00000e-01	1.095456e+04	
9	-4.50000e-01	1.117151e+04	
10	-5.00000e-01	1.139606e+04	
11	-5.50000e-01	1.162859e+04	
12	-6.00000e-01	1.186955e+04	
13	-6.50000e-01	1.211940e+04	
14	-7.00000e-01	1.237863e+04	
15	-7.50000e-01	1.264780e+04	
16	-8.00000e-01	1.292747e+04	
17	-8.50000e-01	1.321827e+04	
18	-9.00000e-01	1.352088e+04	
19	-9.50000e-01	1.383603e+04	
20	-1.00000e+00	1.416451e+04	
21	-1.05000e+00	1.450718e+04	
22	-1.10000e+00	1.486499e+04	
23	-1.15000e+00	1.523895e+04	
24	-1.20000e+00	1.563018e+04	
25	-1.25000e+00	1.603990e+04	
26	-1.30000e+00	1.646945e+04	
27	-1.35000e+00	1.692029e+04	
28	-1.40000e+00	1.739404e+04	
29	-1.45000e+00	1.789249e+04	
30	-1.50000e+00	1.841761e+04	
31	-1.55000e+00	1.897159e+04	
32	-1.60000e+00	1.955686e+04	
33	-1.65000e+00	2.017613e+04	
34	-1.70000e+00	2.083242e+04	
35	-1.75000e+00	2.152914e+04	
36	-1.80000e+00	2.227010e+04	
37	-1.85000e+00	2.305961e+04	
38	-1.90000e+00	2.390254e+04	
39	-1.95000e+00	2.480442e+04	
40	-2.00000e+00	2.577154e+04	
41	-2.05000e+00	2.681112e+04	
42	-2.10000e+00	2.793139e+04	
43	-2.15000e+00	2.914183e+04	
44	-2.20000e+00	3.045338e+04	
45	-2.25000e+00	3.187864e+04	
46	-2.30000e+00	3.343215e+04	
47	-2.35000e+00	3.513070e+04	
48	-2.40000e+00	3.699349e+04	
49	-2.45000e+00	3.904231e+04	
50	-2.50000e+00	4.130139e+04	
51	-2.55000e+00	4.379668e+04	
52	-2.60000e+00	4.655427e+04	
53	-2.65000e+00	4.959712e+04	
54	-2.70000e+00	5.293973e+04	

Index   v-sweep         rds             
--------------------------------------------------------------------------------
55	-2.75000e+00	5.658064e+04	
56	-2.80000e+00	6.049471e+04	
57	-2.85000e+00	6.462957e+04	
58	-2.90000e+00	6.891157e+04	
59	-2.95000e+00	7.326177e+04	
60	-3.00000e+00	7.761426e+04	
61	-3.05000e+00	8.192628e+04	
62	-3.10000e+00	8.617714e+04	
63	-3.15000e+00	9.036087e+04	
64	-3.20000e+00	9.447883e+04	
65	-3.25000e+00	9.853485e+04	
66	-3.30000e+00	1.025329e+05	
67	-3.35000e+00	1.064763e+05	
68	-3.40000e+00	1.103675e+05	
69	-3.45000e+00	1.142086e+05	
70	-3.50000e+00	1.180010e+05	
71	-3.55000e+00	1.217457e+05	
72	-3.60000e+00	1.254437e+05	
73	-3.65000e+00	1.290959e+05	
74	-3.70000e+00	1.327029e+05	
75	-3.75000e+00	1.362653e+05	
76	-3.80000e+00	1.397839e+05	
77	-3.85000e+00	1.432593e+05	
78	-3.90000e+00	1.466920e+05	
79	-3.95000e+00	1.500827e+05	
80	-4.00000e+00	1.534320e+05	
81	-4.05000e+00	1.567404e+05	
82	-4.10000e+00	1.600086e+05	
83	-4.15000e+00	1.632371e+05	
84	-4.20000e+00	1.664265e+05	
85	-4.25000e+00	1.695775e+05	
86	-4.30000e+00	1.726905e+05	
87	-4.35000e+00	1.757662e+05	
88	-4.40000e+00	1.788051e+05	
89	-4.45000e+00	1.818077e+05	
90	-4.50000e+00	1.847747e+05	
91	-4.55000e+00	1.877065e+05	
92	-4.60000e+00	1.906037e+05	
93	-4.65000e+00	1.934668e+05	
94	-4.70000e+00	1.962963e+05	
95	-4.75000e+00	1.990928e+05	
96	-4.80000e+00	2.018567e+05	
97	-4.85000e+00	2.045885e+05	
98	-4.90000e+00	2.072888e+05	
99	-4.95000e+00	2.099579e+05	
100	-5.00000e+00	2.125964e+05	
101	-5.05000e+00	2.152047e+05	
102	-5.10000e+00	2.177833e+05	
103	-5.15000e+00	2.203327e+05	
104	-5.20000e+00	2.228532e+05	
105	-5.25000e+00	2.253453e+05	
106	-5.30000e+00	2.278093e+05	
107	-5.35000e+00	2.302459e+05	
108	-5.40000e+00	2.326552e+05	
109	-5.45000e+00	2.350378e+05	
110	-5.50000e+00	2.373939e+05	
111	-5.55000e+00	2.397241e+05	
112	-5.60000e+00	2.420287e+05	

Index   v-sweep         rds             
--------------------------------------------------------------------------------
113	-5.65000e+00	2.443079e+05	
114	-5.70000e+00	2.465623e+05	
115	-5.75000e+00	2.487921e+05	
116	-5.80000e+00	2.509977e+05	
117	-5.85000e+00	2.531794e+05	
118	-5.90000e+00	2.553375e+05	
119	-5.95000e+00	2.574724e+05	
120	-6.00000e+00	2.595843e+05	
121	-6.05000e+00	2.616736e+05	
122	-6.10000e+00	2.637405e+05	
123	-6.15000e+00	2.657853e+05	
124	-6.20000e+00	2.678083e+05	
125	-6.25000e+00	2.698097e+05	
126	-6.30000e+00	2.717899e+05	
127	-6.35000e+00	2.737489e+05	
128	-6.40000e+00	2.756871e+05	
129	-6.45000e+00	2.776047e+05	
130	-6.50000e+00	2.795018e+05	
131	-6.55000e+00	2.813788e+05	
132	-6.60000e+00	2.832357e+05	
Reset re-loads circuit ***************************

Circuit: ***************************

Doing analysis at TEMP = 125.000000 and TNOM = 125.000000


No. of Data Rows : 133
                          ***************************
                          DC transfer characteristic  Mon Jan  9 13:57:55  2023
--------------------------------------------------------------------------------
Index   v-sweep         rds             
--------------------------------------------------------------------------------
0	0.000000e+00	8.200234e+03	
1	-5.00000e-02	8.322067e+03	
2	-1.00000e-01	8.446955e+03	
3	-1.50000e-01	8.575014e+03	
4	-2.00000e-01	8.706366e+03	
5	-2.50000e-01	8.841138e+03	
6	-3.00000e-01	8.979466e+03	
7	-3.50000e-01	9.121491e+03	
8	-4.00000e-01	9.267363e+03	
9	-4.50000e-01	9.417240e+03	
10	-5.00000e-01	9.571288e+03	
11	-5.50000e-01	9.729684e+03	
12	-6.00000e-01	9.892612e+03	
13	-6.50000e-01	1.006027e+04	
14	-7.00000e-01	1.023287e+04	
15	-7.50000e-01	1.041062e+04	
16	-8.00000e-01	1.059377e+04	
17	-8.50000e-01	1.078256e+04	
18	-9.00000e-01	1.097725e+04	
19	-9.50000e-01	1.117813e+04	
20	-1.00000e+00	1.138550e+04	
21	-1.05000e+00	1.159966e+04	
22	-1.10000e+00	1.182097e+04	
23	-1.15000e+00	1.204978e+04	
24	-1.20000e+00	1.228647e+04	
25	-1.25000e+00	1.253147e+04	
26	-1.30000e+00	1.278522e+04	
27	-1.35000e+00	1.304819e+04	
28	-1.40000e+00	1.332089e+04	
29	-1.45000e+00	1.360388e+04	
30	-1.50000e+00	1.389773e+04	
31	-1.55000e+00	1.420309e+04	
32	-1.60000e+00	1.452064e+04	
33	-1.65000e+00	1.485113e+04	
34	-1.70000e+00	1.519536e+04	
35	-1.75000e+00	1.555420e+04	
36	-1.80000e+00	1.592860e+04	
37	-1.85000e+00	1.631958e+04	
38	-1.90000e+00	1.672826e+04	
39	-1.95000e+00	1.715588e+04	
40	-2.00000e+00	1.760376e+04	
41	-2.05000e+00	1.807337e+04	
42	-2.10000e+00	1.856633e+04	
43	-2.15000e+00	1.908439e+04	
44	-2.20000e+00	1.962952e+04	
45	-2.25000e+00	2.020386e+04	
46	-2.30000e+00	2.080981e+04	
47	-2.35000e+00	2.145000e+04	
48	-2.40000e+00	2.212738e+04	
49	-2.45000e+00	2.284523e+04	
50	-2.50000e+00	2.360721e+04	
51	-2.55000e+00	2.441742e+04	
52	-2.60000e+00	2.528045e+04	
53	-2.65000e+00	2.620146e+04	
54	-2.70000e+00	2.718625e+04	

Index   v-sweep         rds             
--------------------------------------------------------------------------------
55	-2.75000e+00	2.824134e+04	
56	-2.80000e+00	2.937405e+04	
57	-2.85000e+00	3.059259e+04	
58	-2.90000e+00	3.190613e+04	
59	-2.95000e+00	3.332481e+04	
60	-3.00000e+00	3.485968e+04	
61	-3.05000e+00	3.652255e+04	
62	-3.10000e+00	3.832550e+04	
63	-3.15000e+00	4.028016e+04	
64	-3.20000e+00	4.239639e+04	
65	-3.25000e+00	4.468045e+04	
66	-3.30000e+00	4.713266e+04	
67	-3.35000e+00	4.974524e+04	
68	-3.40000e+00	5.250120e+04	
69	-3.45000e+00	5.537562e+04	
70	-3.50000e+00	5.833929e+04	
71	-3.55000e+00	6.136352e+04	
72	-3.60000e+00	6.442381e+04	
73	-3.65000e+00	6.750130e+04	
74	-3.70000e+00	7.058229e+04	
75	-3.75000e+00	7.365700e+04	
76	-3.80000e+00	7.671840e+04	
77	-3.85000e+00	7.976132e+04	
78	-3.90000e+00	8.278191e+04	
79	-3.95000e+00	8.577728e+04	
80	-4.00000e+00	8.874527e+04	
81	-4.05000e+00	9.168430e+04	
82	-4.10000e+00	9.459320e+04	
83	-4.15000e+00	9.747116e+04	
84	-4.20000e+00	1.003176e+05	
85	-4.25000e+00	1.031323e+05	
86	-4.30000e+00	1.059149e+05	
87	-4.35000e+00	1.086655e+05	
88	-4.40000e+00	1.113842e+05	
89	-4.45000e+00	1.140709e+05	
90	-4.50000e+00	1.167261e+05	
91	-4.55000e+00	1.193499e+05	
92	-4.60000e+00	1.219426e+05	
93	-4.65000e+00	1.245045e+05	
94	-4.70000e+00	1.270360e+05	
95	-4.75000e+00	1.295374e+05	
96	-4.80000e+00	1.320091e+05	
97	-4.85000e+00	1.344515e+05	
98	-4.90000e+00	1.368650e+05	
99	-4.95000e+00	1.392499e+05	
100	-5.00000e+00	1.416067e+05	
101	-5.05000e+00	1.439358e+05	
102	-5.10000e+00	1.462375e+05	
103	-5.15000e+00	1.485122e+05	
104	-5.20000e+00	1.507604e+05	
105	-5.25000e+00	1.529825e+05	
106	-5.30000e+00	1.551787e+05	
107	-5.35000e+00	1.573495e+05	
108	-5.40000e+00	1.594953e+05	
109	-5.45000e+00	1.616164e+05	
110	-5.50000e+00	1.637133e+05	
111	-5.55000e+00	1.657862e+05	
112	-5.60000e+00	1.678355e+05	

Index   v-sweep         rds             
--------------------------------------------------------------------------------
113	-5.65000e+00	1.698616e+05	
114	-5.70000e+00	1.718648e+05	
115	-5.75000e+00	1.738454e+05	
116	-5.80000e+00	1.758039e+05	
117	-5.85000e+00	1.777404e+05	
118	-5.90000e+00	1.796554e+05	
119	-5.95000e+00	1.815492e+05	
120	-6.00000e+00	1.834220e+05	
121	-6.05000e+00	1.852742e+05	
122	-6.10000e+00	1.871060e+05	
123	-6.15000e+00	1.889178e+05	
124	-6.20000e+00	1.907098e+05	
125	-6.25000e+00	1.924824e+05	
126	-6.30000e+00	1.942357e+05	
127	-6.35000e+00	1.959701e+05	
128	-6.40000e+00	1.976858e+05	
129	-6.45000e+00	1.993831e+05	
130	-6.50000e+00	2.010622e+05	
131	-6.55000e+00	2.027234e+05	
132	-6.60000e+00	2.043668e+05	
Reset re-loads circuit ***************************

Circuit: ***************************

Note: No ".plot", ".print", or ".fourier" lines; no simulations run
