
Note: Compatibility modes selected: hs

Warning: m=xx on .subckt line will override multiplier m hierarchy!


Circuit: ***************************

Doing analysis at TEMP = 125.000000 and TNOM = 125.000000


No. of Data Rows : 67
                          ***************************
                          DC transfer characteristic  Mon Jan  9 13:57:20  2023
--------------------------------------------------------------------------------
Index   v-sweep         rds             
--------------------------------------------------------------------------------
0	0.000000e+00	4.201218e+05	
1	5.000000e-02	5.377327e+05	
2	1.000000e-01	7.458517e+05	
3	1.500000e-01	1.209812e+06	
4	2.000000e-01	2.909441e+06	
5	2.500000e-01	1.614794e+07	
6	3.000000e-01	8.021654e+07	
7	3.500000e-01	1.845799e+08	
8	4.000000e-01	2.771373e+08	
9	4.500000e-01	3.451676e+08	
10	5.000000e-01	3.945309e+08	
11	5.500000e-01	4.315530e+08	
12	6.000000e-01	4.603795e+08	
13	6.500000e-01	4.835562e+08	
14	7.000000e-01	5.026763e+08	
15	7.500000e-01	5.187760e+08	
16	8.000000e-01	5.325569e+08	
17	8.500000e-01	5.445120e+08	
18	9.000000e-01	5.549986e+08	
19	9.500000e-01	5.642836e+08	
20	1.000000e+00	5.725702e+08	
21	1.050000e+00	5.800169e+08	
22	1.100000e+00	5.867494e+08	
23	1.150000e+00	5.928686e+08	
24	1.200000e+00	5.984567e+08	
25	1.250000e+00	6.035815e+08	
26	1.300000e+00	6.082997e+08	
27	1.350000e+00	6.126585e+08	
28	1.400000e+00	6.166982e+08	
29	1.450000e+00	6.204532e+08	
30	1.500000e+00	6.239529e+08	
31	1.550000e+00	6.272227e+08	
32	1.600000e+00	6.302848e+08	
33	1.650000e+00	6.331585e+08	
34	1.700000e+00	6.358606e+08	
35	1.750000e+00	6.384059e+08	
36	1.800000e+00	6.408073e+08	
37	1.850000e+00	6.430760e+08	
38	1.900000e+00	6.452216e+08	
39	1.950000e+00	6.472520e+08	
40	2.000000e+00	6.491739e+08	
41	2.050000e+00	6.509919e+08	
42	2.100000e+00	6.527094e+08	
43	2.150000e+00	6.543273e+08	
44	2.200000e+00	6.558449e+08	
45	2.250000e+00	6.572588e+08	
46	2.300000e+00	6.585633e+08	
47	2.350000e+00	6.597496e+08	
48	2.400000e+00	6.608058e+08	
49	2.450000e+00	6.617167e+08	
50	2.500000e+00	6.624632e+08	
51	2.550000e+00	6.630224e+08	
52	2.600000e+00	6.633675e+08	
53	2.650000e+00	6.634672e+08	
54	2.700000e+00	6.632863e+08	

Index   v-sweep         rds             
--------------------------------------------------------------------------------
55	2.750000e+00	6.627855e+08	
56	2.800000e+00	6.619216e+08	
57	2.850000e+00	6.606482e+08	
58	2.900000e+00	6.589159e+08	
59	2.950000e+00	6.566732e+08	
60	3.000000e+00	6.538676e+08	
61	3.050000e+00	6.504464e+08	
62	3.100000e+00	6.463584e+08	
63	3.150000e+00	6.415550e+08	
64	3.200000e+00	6.359917e+08	
65	3.250000e+00	6.296304e+08	
66	3.300000e+00	6.224400e+08	
Reset re-loads circuit ***************************

Circuit: ***************************

Doing analysis at TEMP = 125.000000 and TNOM = 125.000000


No. of Data Rows : 67
                          ***************************
                          DC transfer characteristic  Mon Jan  9 13:57:20  2023
--------------------------------------------------------------------------------
Index   v-sweep         rds             
--------------------------------------------------------------------------------
0	0.000000e+00	1.512631e+05	
1	5.000000e-02	1.653201e+05	
2	1.000000e-01	1.822267e+05	
3	1.500000e-01	2.029466e+05	
4	2.000000e-01	2.289325e+05	
5	2.500000e-01	2.624809e+05	
6	3.000000e-01	3.074458e+05	
7	3.500000e-01	3.708172e+05	
8	4.000000e-01	4.666705e+05	
9	4.500000e-01	6.278195e+05	
10	5.000000e-01	9.487440e+05	
11	5.500000e-01	1.789544e+06	
12	6.000000e-01	4.743019e+06	
13	6.500000e-01	1.379287e+07	
14	7.000000e-01	2.980148e+07	
15	7.500000e-01	4.791665e+07	
16	8.000000e-01	6.454317e+07	
17	8.500000e-01	7.880845e+07	
18	9.000000e-01	9.092168e+07	
19	9.500000e-01	1.012893e+08	
20	1.000000e+00	1.102711e+08	
21	1.050000e+00	1.181453e+08	
22	1.100000e+00	1.251211e+08	
23	1.150000e+00	1.313565e+08	
24	1.200000e+00	1.369726e+08	
25	1.250000e+00	1.420640e+08	
26	1.300000e+00	1.467056e+08	
27	1.350000e+00	1.509580e+08	
28	1.400000e+00	1.548708e+08	
29	1.450000e+00	1.584849e+08	
30	1.500000e+00	1.618346e+08	
31	1.550000e+00	1.649491e+08	
32	1.600000e+00	1.678529e+08	
33	1.650000e+00	1.705675e+08	
34	1.700000e+00	1.731112e+08	
35	1.750000e+00	1.755001e+08	
36	1.800000e+00	1.777480e+08	
37	1.850000e+00	1.798675e+08	
38	1.900000e+00	1.818693e+08	
39	1.950000e+00	1.837631e+08	
40	2.000000e+00	1.855576e+08	
41	2.050000e+00	1.872603e+08	
42	2.100000e+00	1.888780e+08	
43	2.150000e+00	1.904168e+08	
44	2.200000e+00	1.918818e+08	
45	2.250000e+00	1.932778e+08	
46	2.300000e+00	1.946083e+08	
47	2.350000e+00	1.958765e+08	
48	2.400000e+00	1.970845e+08	
49	2.450000e+00	1.982333e+08	
50	2.500000e+00	1.993230e+08	
51	2.550000e+00	2.003524e+08	
52	2.600000e+00	2.013186e+08	
53	2.650000e+00	2.022172e+08	
54	2.700000e+00	2.030421e+08	

Index   v-sweep         rds             
--------------------------------------------------------------------------------
55	2.750000e+00	2.037847e+08	
56	2.800000e+00	2.044345e+08	
57	2.850000e+00	2.049784e+08	
58	2.900000e+00	2.054007e+08	
59	2.950000e+00	2.056831e+08	
60	3.000000e+00	2.058047e+08	
61	3.050000e+00	2.057421e+08	
62	3.100000e+00	2.054696e+08	
63	3.150000e+00	2.049599e+08	
64	3.200000e+00	2.041844e+08	
65	3.250000e+00	2.031140e+08	
66	3.300000e+00	2.017200e+08	
Reset re-loads circuit ***************************

Circuit: ***************************

Doing analysis at TEMP = 125.000000 and TNOM = 125.000000


No. of Data Rows : 67
                          ***************************
                          DC transfer characteristic  Mon Jan  9 13:57:20  2023
--------------------------------------------------------------------------------
Index   v-sweep         rds             
--------------------------------------------------------------------------------
0	0.000000e+00	9.549325e+04	
1	5.000000e-02	1.006434e+05	
2	1.000000e-01	1.063714e+05	
3	1.500000e-01	1.127801e+05	
4	2.000000e-01	1.199986e+05	
5	2.500000e-01	1.281907e+05	
6	3.000000e-01	1.375676e+05	
7	3.500000e-01	1.484060e+05	
8	4.000000e-01	1.610765e+05	
9	4.500000e-01	1.760861e+05	
10	5.000000e-01	1.941476e+05	
11	5.500000e-01	2.162955e+05	
12	6.000000e-01	2.440899e+05	
13	6.500000e-01	2.799962e+05	
14	7.000000e-01	3.281463e+05	
15	7.500000e-01	3.960028e+05	
16	8.000000e-01	4.984288e+05	
17	8.500000e-01	6.690759e+05	
18	9.000000e-01	9.972777e+05	
19	9.500000e-01	1.755593e+06	
20	1.000000e+00	3.702491e+06	
21	1.050000e+00	7.900670e+06	
22	1.100000e+00	1.421450e+07	
23	1.150000e+00	2.133522e+07	
24	1.200000e+00	2.826504e+07	
25	1.250000e+00	3.462964e+07	
26	1.300000e+00	4.037473e+07	
27	1.350000e+00	4.555233e+07	
28	1.400000e+00	5.023636e+07	
29	1.450000e+00	5.449637e+07	
30	1.500000e+00	5.839150e+07	
31	1.550000e+00	6.197060e+07	
32	1.600000e+00	6.527388e+07	
33	1.650000e+00	6.833457e+07	
34	1.700000e+00	7.118039e+07	
35	1.750000e+00	7.383470e+07	
36	1.800000e+00	7.631732e+07	
37	1.850000e+00	7.864526e+07	
38	1.900000e+00	8.083321e+07	
39	1.950000e+00	8.289395e+07	
40	2.000000e+00	8.483866e+07	
41	2.050000e+00	8.667720e+07	
42	2.100000e+00	8.841828e+07	
43	2.150000e+00	9.006965e+07	
44	2.200000e+00	9.163823e+07	
45	2.250000e+00	9.313022e+07	
46	2.300000e+00	9.455120e+07	
47	2.350000e+00	9.590619e+07	
48	2.400000e+00	9.719971e+07	
49	2.450000e+00	9.843585e+07	
50	2.500000e+00	9.961827e+07	
51	2.550000e+00	1.007502e+08	
52	2.600000e+00	1.018346e+08	
53	2.650000e+00	1.028738e+08	
54	2.700000e+00	1.038698e+08	

Index   v-sweep         rds             
--------------------------------------------------------------------------------
55	2.750000e+00	1.048240e+08	
56	2.800000e+00	1.057374e+08	
57	2.850000e+00	1.066099e+08	
58	2.900000e+00	1.074410e+08	
59	2.950000e+00	1.082289e+08	
60	3.000000e+00	1.089708e+08	
61	3.050000e+00	1.096625e+08	
62	3.100000e+00	1.102984e+08	
63	3.150000e+00	1.108712e+08	
64	3.200000e+00	1.113717e+08	
65	3.250000e+00	1.117889e+08	
66	3.300000e+00	1.121096e+08	
Reset re-loads circuit ***************************

Circuit: ***************************

Doing analysis at TEMP = 125.000000 and TNOM = 125.000000


No. of Data Rows : 67
                          ***************************
                          DC transfer characteristic  Mon Jan  9 13:57:20  2023
--------------------------------------------------------------------------------
Index   v-sweep         rds             
--------------------------------------------------------------------------------
0	0.000000e+00	7.226319e+04	
1	5.000000e-02	7.494702e+04	
2	1.000000e-01	7.783344e+04	
3	1.500000e-01	8.094629e+04	
4	2.000000e-01	8.431331e+04	
5	2.500000e-01	8.796695e+04	
6	3.000000e-01	9.194542e+04	
7	3.500000e-01	9.629405e+04	
8	4.000000e-01	1.010670e+05	
9	4.500000e-01	1.063296e+05	
10	5.000000e-01	1.121612e+05	
11	5.500000e-01	1.186593e+05	
12	6.000000e-01	1.259452e+05	
13	6.500000e-01	1.341711e+05	
14	7.000000e-01	1.435316e+05	
15	7.500000e-01	1.542785e+05	
16	8.000000e-01	1.667442e+05	
17	8.500000e-01	1.813764e+05	
18	9.000000e-01	1.987926e+05	
19	9.500000e-01	2.198688e+05	
20	1.000000e+00	2.458899e+05	
21	1.050000e+00	2.788171e+05	
22	1.100000e+00	3.217938e+05	
23	1.150000e+00	3.801714e+05	
24	1.200000e+00	4.637730e+05	
25	1.250000e+00	5.923865e+05	
26	1.300000e+00	8.103747e+05	
27	1.350000e+00	1.226551e+06	
28	1.400000e+00	2.098584e+06	
29	1.450000e+00	3.844797e+06	
30	1.500000e+00	6.662900e+06	
31	1.550000e+00	1.021297e+07	
32	1.600000e+00	1.399611e+07	
33	1.650000e+00	1.770081e+07	
34	1.700000e+00	2.120010e+07	
35	1.750000e+00	2.446183e+07	
36	1.800000e+00	2.749172e+07	
37	1.850000e+00	3.030790e+07	
38	1.900000e+00	3.293098e+07	
39	1.950000e+00	3.538054e+07	
40	2.000000e+00	3.767411e+07	
41	2.050000e+00	3.982704e+07	
42	2.100000e+00	4.185271e+07	
43	2.150000e+00	4.376276e+07	
44	2.200000e+00	4.556738e+07	
45	2.250000e+00	4.727552e+07	
46	2.300000e+00	4.889507e+07	
47	2.350000e+00	5.043305e+07	
48	2.400000e+00	5.189570e+07	
49	2.450000e+00	5.328861e+07	
50	2.500000e+00	5.461680e+07	
51	2.550000e+00	5.588480e+07	
52	2.600000e+00	5.709672e+07	
53	2.650000e+00	5.825627e+07	
54	2.700000e+00	5.936684e+07	

Index   v-sweep         rds             
--------------------------------------------------------------------------------
55	2.750000e+00	6.043152e+07	
56	2.800000e+00	6.145311e+07	
57	2.850000e+00	6.243419e+07	
58	2.900000e+00	6.337708e+07	
59	2.950000e+00	6.428387e+07	
60	3.000000e+00	6.515641e+07	
61	3.050000e+00	6.599628e+07	
62	3.100000e+00	6.680478e+07	
63	3.150000e+00	6.758286e+07	
64	3.200000e+00	6.833104e+07	
65	3.250000e+00	6.904937e+07	
66	3.300000e+00	6.973729e+07	
Reset re-loads circuit ***************************

Circuit: ***************************

Doing analysis at TEMP = 125.000000 and TNOM = 125.000000


No. of Data Rows : 67
                          ***************************
                          DC transfer characteristic  Mon Jan  9 13:57:20  2023
--------------------------------------------------------------------------------
Index   v-sweep         rds             
--------------------------------------------------------------------------------
0	0.000000e+00	5.995762e+04	
1	5.000000e-02	6.162288e+04	
2	1.000000e-01	6.338074e+04	
3	1.500000e-01	6.523914e+04	
4	2.000000e-01	6.720695e+04	
5	2.500000e-01	6.929413e+04	
6	3.000000e-01	7.151188e+04	
7	3.500000e-01	7.387285e+04	
8	4.000000e-01	7.639137e+04	
9	4.500000e-01	7.908376e+04	
10	5.000000e-01	8.196866e+04	
11	5.500000e-01	8.506749e+04	
12	6.000000e-01	8.840494e+04	
13	6.500000e-01	9.200968e+04	
14	7.000000e-01	9.591515e+04	
15	7.500000e-01	1.001606e+05	
16	8.000000e-01	1.047925e+05	
17	8.500000e-01	1.098661e+05	
18	9.000000e-01	1.154476e+05	
19	9.500000e-01	1.216174e+05	
20	1.000000e+00	1.284736e+05	
21	1.050000e+00	1.361375e+05	
22	1.100000e+00	1.447605e+05	
23	1.150000e+00	1.545347e+05	
24	1.200000e+00	1.657068e+05	
25	1.250000e+00	1.785994e+05	
26	1.300000e+00	1.936422e+05	
27	1.350000e+00	2.114210e+05	
28	1.400000e+00	2.327540e+05	
29	1.450000e+00	2.588199e+05	
30	1.500000e+00	2.913779e+05	
31	1.550000e+00	3.331676e+05	
32	1.600000e+00	3.886816e+05	
33	1.650000e+00	4.657547e+05	
34	1.700000e+00	5.790737e+05	
35	1.750000e+00	7.583369e+05	
36	1.800000e+00	1.066808e+06	
37	1.850000e+00	1.632956e+06	
38	1.900000e+00	2.650852e+06	
39	1.950000e+00	4.243431e+06	
40	2.000000e+00	6.307516e+06	
41	2.050000e+00	8.610584e+06	
42	2.100000e+00	1.096291e+07	
43	2.150000e+00	1.326119e+07	
44	2.200000e+00	1.546132e+07	
45	2.250000e+00	1.754938e+07	
46	2.300000e+00	1.952493e+07	
47	2.350000e+00	2.139306e+07	
48	2.400000e+00	2.316075e+07	
49	2.450000e+00	2.483534e+07	
50	2.500000e+00	2.642391e+07	
51	2.550000e+00	2.793300e+07	
52	2.600000e+00	2.936858e+07	
53	2.650000e+00	3.073608e+07	
54	2.700000e+00	3.204038e+07	

Index   v-sweep         rds             
--------------------------------------------------------------------------------
55	2.750000e+00	3.328590e+07	
56	2.800000e+00	3.447667e+07	
57	2.850000e+00	3.561631e+07	
58	2.900000e+00	3.670813e+07	
59	2.950000e+00	3.775517e+07	
60	3.000000e+00	3.876018e+07	
61	3.050000e+00	3.972569e+07	
62	3.100000e+00	4.065404e+07	
63	3.150000e+00	4.154735e+07	
64	3.200000e+00	4.240760e+07	
65	3.250000e+00	4.323661e+07	
66	3.300000e+00	4.403605e+07	
Reset re-loads circuit ***************************

Circuit: ***************************

Doing analysis at TEMP = 125.000000 and TNOM = 125.000000


No. of Data Rows : 67
                          ***************************
                          DC transfer characteristic  Mon Jan  9 13:57:20  2023
--------------------------------------------------------------------------------
Index   v-sweep         rds             
--------------------------------------------------------------------------------
0	0.000000e+00	5.262750e+04	
1	5.000000e-02	5.377420e+04	
2	1.000000e-01	5.497034e+04	
3	1.500000e-01	5.621921e+04	
4	2.000000e-01	5.752436e+04	
5	2.500000e-01	5.888968e+04	
6	3.000000e-01	6.031944e+04	
7	3.500000e-01	6.181831e+04	
8	4.000000e-01	6.339141e+04	
9	4.500000e-01	6.504441e+04	
10	5.000000e-01	6.678355e+04	
11	5.500000e-01	6.861574e+04	
12	6.000000e-01	7.054865e+04	
13	6.500000e-01	7.259082e+04	
14	7.000000e-01	7.475179e+04	
15	7.500000e-01	7.704224e+04	
16	8.000000e-01	7.947414e+04	
17	8.500000e-01	8.206103e+04	
18	9.000000e-01	8.481821e+04	
19	9.500000e-01	8.776307e+04	
20	1.000000e+00	9.091542e+04	
21	1.050000e+00	9.429802e+04	
22	1.100000e+00	9.793702e+04	
23	1.150000e+00	1.018627e+05	
24	1.200000e+00	1.061104e+05	
25	1.250000e+00	1.107214e+05	
26	1.300000e+00	1.157442e+05	
27	1.350000e+00	1.212368e+05	
28	1.400000e+00	1.272682e+05	
29	1.450000e+00	1.339217e+05	
30	1.500000e+00	1.412987e+05	
31	1.550000e+00	1.495241e+05	
32	1.600000e+00	1.587528e+05	
33	1.650000e+00	1.691803e+05	
34	1.700000e+00	1.810559e+05	
35	1.750000e+00	1.947035e+05	
36	1.800000e+00	2.105504e+05	
37	1.850000e+00	2.291732e+05	
38	1.900000e+00	2.513679e+05	
39	1.950000e+00	2.782642e+05	
40	2.000000e+00	3.115178e+05	
41	2.050000e+00	3.536489e+05	
42	2.100000e+00	4.086679e+05	
43	2.150000e+00	4.832927e+05	
44	2.200000e+00	5.894291e+05	
45	2.250000e+00	7.493160e+05	
46	2.300000e+00	1.005451e+06	
47	2.350000e+00	1.433700e+06	
48	2.400000e+00	2.137350e+06	
49	2.450000e+00	3.183797e+06	
50	2.500000e+00	4.533078e+06	
51	2.550000e+00	6.068446e+06	
52	2.600000e+00	7.677653e+06	
53	2.650000e+00	9.288050e+06	
54	2.700000e+00	1.086133e+07	

Index   v-sweep         rds             
--------------------------------------------------------------------------------
55	2.750000e+00	1.237996e+07	
56	2.800000e+00	1.383741e+07	
57	2.850000e+00	1.523255e+07	
58	2.900000e+00	1.656684e+07	
59	2.950000e+00	1.784291e+07	
60	3.000000e+00	1.906381e+07	
61	3.050000e+00	2.023269e+07	
62	3.100000e+00	2.135264e+07	
63	3.150000e+00	2.242658e+07	
64	3.200000e+00	2.345728e+07	
65	3.250000e+00	2.444727e+07	
66	3.300000e+00	2.539894e+07	
Reset re-loads circuit ***************************

Circuit: ***************************

Note: No ".plot", ".print", or ".fourier" lines; no simulations run
