
Note: Compatibility modes selected: hs

Warning: m=xx on .subckt line will override multiplier m hierarchy!


Circuit: ***************************

Doing analysis at TEMP = -40.000000 and TNOM = -40.000000


No. of Data Rows : 67
                          ***************************
                          DC transfer characteristic  Mon Jan  9 13:57:20  2023
--------------------------------------------------------------------------------
Index   v-sweep         rds             
--------------------------------------------------------------------------------
0	0.000000e+00	1.557455e+03	
1	5.000000e-02	2.898767e+03	
2	1.000000e-01	6.912244e+03	
3	1.500000e-01	1.567277e+04	
4	2.000000e-01	2.484681e+04	
5	2.500000e-01	3.089548e+04	
6	3.000000e-01	3.439654e+04	
7	3.500000e-01	3.640891e+04	
8	4.000000e-01	3.757554e+04	
9	4.500000e-01	3.824239e+04	
10	5.000000e-01	3.859913e+04	
11	5.500000e-01	3.875481e+04	
12	6.000000e-01	3.877533e+04	
13	6.500000e-01	3.870234e+04	
14	7.000000e-01	3.856324e+04	
15	7.500000e-01	3.837664e+04	
16	8.000000e-01	3.815556e+04	
17	8.500000e-01	3.790931e+04	
18	9.000000e-01	3.764472e+04	
19	9.500000e-01	3.736686e+04	
20	1.000000e+00	3.707954e+04	
21	1.050000e+00	3.678570e+04	
22	1.100000e+00	3.648761e+04	
23	1.150000e+00	3.618702e+04	
24	1.200000e+00	3.588533e+04	
25	1.250000e+00	3.558362e+04	
26	1.300000e+00	3.528277e+04	
27	1.350000e+00	3.498347e+04	
28	1.400000e+00	3.468626e+04	
29	1.450000e+00	3.439159e+04	
30	1.500000e+00	3.409980e+04	
31	1.550000e+00	3.381117e+04	
32	1.600000e+00	3.352590e+04	
33	1.650000e+00	3.324415e+04	
34	1.700000e+00	3.296605e+04	
35	1.750000e+00	3.269166e+04	
36	1.800000e+00	3.242104e+04	
37	1.850000e+00	3.215419e+04	
38	1.900000e+00	3.189107e+04	
39	1.950000e+00	3.163163e+04	
40	2.000000e+00	3.137577e+04	
41	2.050000e+00	3.112334e+04	
42	2.100000e+00	3.087414e+04	
43	2.150000e+00	3.062792e+04	
44	2.200000e+00	3.038438e+04	
45	2.250000e+00	3.014313e+04	
46	2.300000e+00	2.990372e+04	
47	2.350000e+00	2.966562e+04	
48	2.400000e+00	2.942818e+04	
49	2.450000e+00	2.919069e+04	
50	2.500000e+00	2.895232e+04	
51	2.550000e+00	2.871213e+04	
52	2.600000e+00	2.846908e+04	
53	2.650000e+00	2.822200e+04	
54	2.700000e+00	2.796964e+04	

Index   v-sweep         rds             
--------------------------------------------------------------------------------
55	2.750000e+00	2.771064e+04	
56	2.800000e+00	2.744354e+04	
57	2.850000e+00	2.716680e+04	
58	2.900000e+00	2.687883e+04	
59	2.950000e+00	2.657799e+04	
60	3.000000e+00	2.626263e+04	
61	3.050000e+00	2.593114e+04	
62	3.100000e+00	2.558194e+04	
63	3.150000e+00	2.521357e+04	
64	3.200000e+00	2.482470e+04	
65	3.250000e+00	2.441419e+04	
66	3.300000e+00	2.398114e+04	
Reset re-loads circuit ***************************

Circuit: ***************************

Doing analysis at TEMP = -40.000000 and TNOM = -40.000000


No. of Data Rows : 67
                          ***************************
                          DC transfer characteristic  Mon Jan  9 13:57:20  2023
--------------------------------------------------------------------------------
Index   v-sweep         rds             
--------------------------------------------------------------------------------
0	0.000000e+00	2.763749e+02	
1	5.000000e-02	3.235554e+02	
2	1.000000e-01	3.826148e+02	
3	1.500000e-01	4.587499e+02	
4	2.000000e-01	5.609241e+02	
5	2.500000e-01	7.058913e+02	
6	3.000000e-01	9.265652e+02	
7	3.500000e-01	1.282444e+03	
8	4.000000e-01	1.845383e+03	
9	4.500000e-01	2.631421e+03	
10	5.000000e-01	3.561178e+03	
11	5.500000e-01	4.520861e+03	
12	6.000000e-01	5.427870e+03	
13	6.500000e-01	6.242945e+03	
14	7.000000e-01	6.956262e+03	
15	7.500000e-01	7.572845e+03	
16	8.000000e-01	8.103508e+03	
17	8.500000e-01	8.560310e+03	
18	9.000000e-01	8.954577e+03	
19	9.500000e-01	9.296213e+03	
20	1.000000e+00	9.593590e+03	
21	1.050000e+00	9.853668e+03	
22	1.100000e+00	1.008220e+04	
23	1.150000e+00	1.028392e+04	
24	1.200000e+00	1.046274e+04	
25	1.250000e+00	1.062190e+04	
26	1.300000e+00	1.076411e+04	
27	1.350000e+00	1.089160e+04	
28	1.400000e+00	1.100627e+04	
29	1.450000e+00	1.110971e+04	
30	1.500000e+00	1.120328e+04	
31	1.550000e+00	1.128814e+04	
32	1.600000e+00	1.136526e+04	
33	1.650000e+00	1.143550e+04	
34	1.700000e+00	1.149960e+04	
35	1.750000e+00	1.155818e+04	
36	1.800000e+00	1.161181e+04	
37	1.850000e+00	1.166096e+04	
38	1.900000e+00	1.170605e+04	
39	1.950000e+00	1.174745e+04	
40	2.000000e+00	1.178547e+04	
41	2.050000e+00	1.182037e+04	
42	2.100000e+00	1.185235e+04	
43	2.150000e+00	1.188159e+04	
44	2.200000e+00	1.190818e+04	
45	2.250000e+00	1.193217e+04	
46	2.300000e+00	1.195354e+04	
47	2.350000e+00	1.197220e+04	
48	2.400000e+00	1.198795e+04	
49	2.450000e+00	1.200052e+04	
50	2.500000e+00	1.200950e+04	
51	2.550000e+00	1.201440e+04	
52	2.600000e+00	1.201455e+04	
53	2.650000e+00	1.200918e+04	
54	2.700000e+00	1.199735e+04	

Index   v-sweep         rds             
--------------------------------------------------------------------------------
55	2.750000e+00	1.197797e+04	
56	2.800000e+00	1.194979e+04	
57	2.850000e+00	1.191145e+04	
58	2.900000e+00	1.186143e+04	
59	2.950000e+00	1.179814e+04	
60	3.000000e+00	1.171989e+04	
61	3.050000e+00	1.162501e+04	
62	3.100000e+00	1.151184e+04	
63	3.150000e+00	1.137885e+04	
64	3.200000e+00	1.122467e+04	
65	3.250000e+00	1.104821e+04	
66	3.300000e+00	1.084872e+04	
Reset re-loads circuit ***************************

Circuit: ***************************

Doing analysis at TEMP = -40.000000 and TNOM = -40.000000


No. of Data Rows : 67
                          ***************************
                          DC transfer characteristic  Mon Jan  9 13:57:20  2023
--------------------------------------------------------------------------------
Index   v-sweep         rds             
--------------------------------------------------------------------------------
0	0.000000e+00	1.831378e+02	
1	5.000000e-02	2.028238e+02	
2	1.000000e-01	2.251545e+02	
3	1.500000e-01	2.506980e+02	
4	2.000000e-01	2.802203e+02	
5	2.500000e-01	3.147947e+02	
6	3.000000e-01	3.560041e+02	
7	3.500000e-01	4.063333e+02	
8	4.000000e-01	4.699605e+02	
9	4.500000e-01	5.543293e+02	
10	5.000000e-01	6.728324e+02	
11	5.500000e-01	8.473796e+02	
12	6.000000e-01	1.105102e+03	
13	6.500000e-01	1.463443e+03	
14	7.000000e-01	1.914884e+03	
15	7.500000e-01	2.430018e+03	
16	8.000000e-01	2.973411e+03	
17	8.500000e-01	3.515651e+03	
18	9.000000e-01	4.037034e+03	
19	9.500000e-01	4.526464e+03	
20	1.000000e+00	4.978987e+03	
21	1.050000e+00	5.393545e+03	
22	1.100000e+00	5.771321e+03	
23	1.150000e+00	6.114670e+03	
24	1.200000e+00	6.426451e+03	
25	1.250000e+00	6.709645e+03	
26	1.300000e+00	6.967142e+03	
27	1.350000e+00	7.201636e+03	
28	1.400000e+00	7.415578e+03	
29	1.450000e+00	7.611167e+03	
30	1.500000e+00	7.790362e+03	
31	1.550000e+00	7.954892e+03	
32	1.600000e+00	8.106287e+03	
33	1.650000e+00	8.245891e+03	
34	1.700000e+00	8.374892e+03	
35	1.750000e+00	8.494336e+03	
36	1.800000e+00	8.605145e+03	
37	1.850000e+00	8.708137e+03	
38	1.900000e+00	8.804034e+03	
39	1.950000e+00	8.893476e+03	
40	2.000000e+00	8.977031e+03	
41	2.050000e+00	9.055203e+03	
42	2.100000e+00	9.128435e+03	
43	2.150000e+00	9.197118e+03	
44	2.200000e+00	9.261587e+03	
45	2.250000e+00	9.322125e+03	
46	2.300000e+00	9.378962e+03	
47	2.350000e+00	9.432265e+03	
48	2.400000e+00	9.482136e+03	
49	2.450000e+00	9.528599e+03	
50	2.500000e+00	9.571591e+03	
51	2.550000e+00	9.610948e+03	
52	2.600000e+00	9.646386e+03	
53	2.650000e+00	9.677491e+03	
54	2.700000e+00	9.703697e+03	

Index   v-sweep         rds             
--------------------------------------------------------------------------------
55	2.750000e+00	9.724271e+03	
56	2.800000e+00	9.738301e+03	
57	2.850000e+00	9.744685e+03	
58	2.900000e+00	9.742125e+03	
59	2.950000e+00	9.729134e+03	
60	3.000000e+00	9.704047e+03	
61	3.050000e+00	9.665053e+03	
62	3.100000e+00	9.610236e+03	
63	3.150000e+00	9.537637e+03	
64	3.200000e+00	9.445332e+03	
65	3.250000e+00	9.331531e+03	
66	3.300000e+00	9.194680e+03	
Reset re-loads circuit ***************************

Circuit: ***************************

Doing analysis at TEMP = -40.000000 and TNOM = -40.000000


No. of Data Rows : 67
                          ***************************
                          DC transfer characteristic  Mon Jan  9 13:57:20  2023
--------------------------------------------------------------------------------
Index   v-sweep         rds             
--------------------------------------------------------------------------------
0	0.000000e+00	1.514163e+02	
1	5.000000e-02	1.635859e+02	
2	1.000000e-01	1.768872e+02	
3	1.500000e-01	1.914807e+02	
4	2.000000e-01	2.075626e+02	
5	2.500000e-01	2.253778e+02	
6	3.000000e-01	2.452388e+02	
7	3.500000e-01	2.675576e+02	
8	4.000000e-01	2.928987e+02	
9	4.500000e-01	3.220740e+02	
10	5.000000e-01	3.563169e+02	
11	5.500000e-01	3.976110e+02	
12	6.000000e-01	4.492969e+02	
13	6.500000e-01	5.171042e+02	
14	7.000000e-01	6.104896e+02	
15	7.500000e-01	7.431443e+02	
16	8.000000e-01	9.301264e+02	
17	8.500000e-01	1.180784e+03	
18	9.000000e-01	1.492712e+03	
19	9.500000e-01	1.852676e+03	
20	1.000000e+00	2.242638e+03	
21	1.050000e+00	2.645336e+03	
22	1.100000e+00	3.047053e+03	
23	1.150000e+00	3.438145e+03	
24	1.200000e+00	3.812500e+03	
25	1.250000e+00	4.166690e+03	
26	1.300000e+00	4.499175e+03	
27	1.350000e+00	4.809673e+03	
28	1.400000e+00	5.098690e+03	
29	1.450000e+00	5.367202e+03	
30	1.500000e+00	5.616437e+03	
31	1.550000e+00	5.847731e+03	
32	1.600000e+00	6.062443e+03	
33	1.650000e+00	6.261895e+03	
34	1.700000e+00	6.447341e+03	
35	1.750000e+00	6.619957e+03	
36	1.800000e+00	6.780825e+03	
37	1.850000e+00	6.930941e+03	
38	1.900000e+00	7.071210e+03	
39	1.950000e+00	7.202457e+03	
40	2.000000e+00	7.325430e+03	
41	2.050000e+00	7.440806e+03	
42	2.100000e+00	7.549198e+03	
43	2.150000e+00	7.651160e+03	
44	2.200000e+00	7.747191e+03	
45	2.250000e+00	7.837740e+03	
46	2.300000e+00	7.923207e+03	
47	2.350000e+00	8.003945e+03	
48	2.400000e+00	8.080258e+03	
49	2.450000e+00	8.152398e+03	
50	2.500000e+00	8.220560e+03	
51	2.550000e+00	8.284872e+03	
52	2.600000e+00	8.345388e+03	
53	2.650000e+00	8.402068e+03	
54	2.700000e+00	8.454770e+03	

Index   v-sweep         rds             
--------------------------------------------------------------------------------
55	2.750000e+00	8.503222e+03	
56	2.800000e+00	8.547011e+03	
57	2.850000e+00	8.585554e+03	
58	2.900000e+00	8.618084e+03	
59	2.950000e+00	8.643626e+03	
60	3.000000e+00	8.660986e+03	
61	3.050000e+00	8.668745e+03	
62	3.100000e+00	8.665258e+03	
63	3.150000e+00	8.648678e+03	
64	3.200000e+00	8.616984e+03	
65	3.250000e+00	8.568047e+03	
66	3.300000e+00	8.499700e+03	
Reset re-loads circuit ***************************

Circuit: ***************************

Doing analysis at TEMP = -40.000000 and TNOM = -40.000000


No. of Data Rows : 67
                          ***************************
                          DC transfer characteristic  Mon Jan  9 13:57:20  2023
--------------------------------------------------------------------------------
Index   v-sweep         rds             
--------------------------------------------------------------------------------
0	0.000000e+00	1.362650e+02	
1	5.000000e-02	1.450453e+02	
2	1.000000e-01	1.544527e+02	
3	1.500000e-01	1.645535e+02	
4	2.000000e-01	1.754245e+02	
5	2.500000e-01	1.871562e+02	
6	3.000000e-01	1.998562e+02	
7	3.500000e-01	2.136544e+02	
8	4.000000e-01	2.287114e+02	
9	4.500000e-01	2.452302e+02	
10	5.000000e-01	2.634761e+02	
11	5.500000e-01	2.838086e+02	
12	6.000000e-01	3.067369e+02	
13	6.500000e-01	3.330166e+02	
14	7.000000e-01	3.638219e+02	
15	7.500000e-01	4.010470e+02	
16	8.000000e-01	4.478039e+02	
17	8.500000e-01	5.091228e+02	
18	9.000000e-01	5.925701e+02	
19	9.500000e-01	7.078943e+02	
20	1.000000e+00	8.645773e+02	
21	1.050000e+00	1.067783e+03	
22	1.100000e+00	1.315660e+03	
23	1.150000e+00	1.600160e+03	
24	1.200000e+00	1.910153e+03	
25	1.250000e+00	2.234417e+03	
26	1.300000e+00	2.563349e+03	
27	1.350000e+00	2.889556e+03	
28	1.400000e+00	3.207768e+03	
29	1.450000e+00	3.514496e+03	
30	1.500000e+00	3.807627e+03	
31	1.550000e+00	4.086055e+03	
32	1.600000e+00	4.349386e+03	
33	1.650000e+00	4.597710e+03	
34	1.700000e+00	4.831435e+03	
35	1.750000e+00	5.051167e+03	
36	1.800000e+00	5.257623e+03	
37	1.850000e+00	5.451576e+03	
38	1.900000e+00	5.633815e+03	
39	1.950000e+00	5.805117e+03	
40	2.000000e+00	5.966235e+03	
41	2.050000e+00	6.117883e+03	
42	2.100000e+00	6.260735e+03	
43	2.150000e+00	6.395420e+03	
44	2.200000e+00	6.522523e+03	
45	2.250000e+00	6.642586e+03	
46	2.300000e+00	6.756107e+03	
47	2.350000e+00	6.863546e+03	
48	2.400000e+00	6.965321e+03	
49	2.450000e+00	7.061812e+03	
50	2.500000e+00	7.153362e+03	
51	2.550000e+00	7.240271e+03	
52	2.600000e+00	7.322795e+03	
53	2.650000e+00	7.401137e+03	
54	2.700000e+00	7.475444e+03	

Index   v-sweep         rds             
--------------------------------------------------------------------------------
55	2.750000e+00	7.545788e+03	
56	2.800000e+00	7.612160e+03	
57	2.850000e+00	7.674442e+03	
58	2.900000e+00	7.732396e+03	
59	2.950000e+00	7.785636e+03	
60	3.000000e+00	7.833605e+03	
61	3.050000e+00	7.875550e+03	
62	3.100000e+00	7.910497e+03	
63	3.150000e+00	7.937239e+03	
64	3.200000e+00	7.954314e+03	
65	3.250000e+00	7.960016e+03	
66	3.300000e+00	7.952404e+03	
Reset re-loads circuit ***************************

Circuit: ***************************

Doing analysis at TEMP = -40.000000 and TNOM = -40.000000


No. of Data Rows : 67
                          ***************************
                          DC transfer characteristic  Mon Jan  9 13:57:20  2023
--------------------------------------------------------------------------------
Index   v-sweep         rds             
--------------------------------------------------------------------------------
0	0.000000e+00	1.279343e+02	
1	5.000000e-02	1.348083e+02	
2	1.000000e-01	1.420812e+02	
3	1.500000e-01	1.497866e+02	
4	2.000000e-01	1.579621e+02	
5	2.500000e-01	1.666507e+02	
6	3.000000e-01	1.759011e+02	
7	3.500000e-01	1.857698e+02	
8	4.000000e-01	1.963223e+02	
9	4.500000e-01	2.076363e+02	
10	5.000000e-01	2.198052e+02	
11	5.500000e-01	2.329434e+02	
12	6.000000e-01	2.471949e+02	
13	6.500000e-01	2.627465e+02	
14	7.000000e-01	2.798488e+02	
15	7.500000e-01	2.988513e+02	
16	8.000000e-01	3.202610e+02	
17	8.500000e-01	3.448418e+02	
18	9.000000e-01	3.737820e+02	
19	9.500000e-01	4.089628e+02	
20	1.000000e+00	4.533498e+02	
21	1.050000e+00	5.114340e+02	
22	1.100000e+00	5.894152e+02	
23	1.150000e+00	6.945260e+02	
24	1.200000e+00	8.330984e+02	
25	1.250000e+00	1.008107e+03	
26	1.300000e+00	1.217878e+03	
27	1.350000e+00	1.456795e+03	
28	1.400000e+00	1.717178e+03	
29	1.450000e+00	1.991085e+03	
30	1.500000e+00	2.271439e+03	
31	1.550000e+00	2.552493e+03	
32	1.600000e+00	2.829888e+03	
33	1.650000e+00	3.100493e+03	
34	1.700000e+00	3.362192e+03	
35	1.750000e+00	3.613650e+03	
36	1.800000e+00	3.854126e+03	
37	1.850000e+00	4.083308e+03	
38	1.900000e+00	4.301189e+03	
39	1.950000e+00	4.507975e+03	
40	2.000000e+00	4.704013e+03	
41	2.050000e+00	4.889738e+03	
42	2.100000e+00	5.065637e+03	
43	2.150000e+00	5.232222e+03	
44	2.200000e+00	5.390014e+03	
45	2.250000e+00	5.539525e+03	
46	2.300000e+00	5.681254e+03	
47	2.350000e+00	5.815678e+03	
48	2.400000e+00	5.943253e+03	
49	2.450000e+00	6.064407e+03	
50	2.500000e+00	6.179542e+03	
51	2.550000e+00	6.289033e+03	
52	2.600000e+00	6.393227e+03	
53	2.650000e+00	6.492441e+03	
54	2.700000e+00	6.586959e+03	

Index   v-sweep         rds             
--------------------------------------------------------------------------------
55	2.750000e+00	6.677029e+03	
56	2.800000e+00	6.762858e+03	
57	2.850000e+00	6.844601e+03	
58	2.900000e+00	6.922351e+03	
59	2.950000e+00	6.996124e+03	
60	3.000000e+00	7.065844e+03	
61	3.050000e+00	7.131316e+03	
62	3.100000e+00	7.192207e+03	
63	3.150000e+00	7.248017e+03	
64	3.200000e+00	7.298053e+03	
65	3.250000e+00	7.341400e+03	
66	3.300000e+00	7.376899e+03	
Reset re-loads circuit ***************************

Circuit: ***************************

Note: No ".plot", ".print", or ".fourier" lines; no simulations run
