
Note: Compatibility modes selected: hs

Warning: m=xx on .subckt line will override multiplier m hierarchy!


Circuit: ***************************

Doing analysis at TEMP = 125.000000 and TNOM = 125.000000


No. of Data Rows : 67
                          ***************************
                          DC transfer characteristic  Mon Jan  9 13:57:21  2023
--------------------------------------------------------------------------------
Index   v-sweep         rds             
--------------------------------------------------------------------------------
0	0.000000e+00	1.628574e+06	
1	5.000000e-02	2.016325e+06	
2	1.000000e-01	2.644113e+06	
3	1.500000e-01	3.830657e+06	
4	2.000000e-01	6.839298e+06	
5	2.500000e-01	2.083286e+07	
6	3.000000e-01	1.183673e+08	
7	3.500000e-01	4.107599e+08	
8	4.000000e-01	7.726225e+08	
9	4.500000e-01	1.071989e+09	
10	5.000000e-01	1.295698e+09	
11	5.500000e-01	1.463832e+09	
12	6.000000e-01	1.594149e+09	
13	6.500000e-01	1.698370e+09	
14	7.000000e-01	1.783955e+09	
15	7.500000e-01	1.855755e+09	
16	8.000000e-01	1.917034e+09	
17	8.500000e-01	1.970071e+09	
18	9.000000e-01	2.016508e+09	
19	9.500000e-01	2.057561e+09	
20	1.000000e+00	2.094154e+09	
21	1.050000e+00	2.127004e+09	
22	1.100000e+00	2.156676e+09	
23	1.150000e+00	2.183624e+09	
24	1.200000e+00	2.208217e+09	
25	1.250000e+00	2.230759e+09	
26	1.300000e+00	2.251500e+09	
27	1.350000e+00	2.270653e+09	
28	1.400000e+00	2.288396e+09	
29	1.450000e+00	2.304882e+09	
30	1.500000e+00	2.320242e+09	
31	1.550000e+00	2.334589e+09	
32	1.600000e+00	2.348021e+09	
33	1.650000e+00	2.360623e+09	
34	1.700000e+00	2.372470e+09	
35	1.750000e+00	2.383628e+09	
36	1.800000e+00	2.394154e+09	
37	1.850000e+00	2.404099e+09	
38	1.900000e+00	2.413506e+09	
39	1.950000e+00	2.422412e+09	
40	2.000000e+00	2.430848e+09	
41	2.050000e+00	2.438838e+09	
42	2.100000e+00	2.446399e+09	
43	2.150000e+00	2.453542e+09	
44	2.200000e+00	2.460269e+09	
45	2.250000e+00	2.466572e+09	
46	2.300000e+00	2.472433e+09	
47	2.350000e+00	2.477825e+09	
48	2.400000e+00	2.482706e+09	
49	2.450000e+00	2.487023e+09	
50	2.500000e+00	2.490705e+09	
51	2.550000e+00	2.493669e+09	
52	2.600000e+00	2.495812e+09	
53	2.650000e+00	2.497018e+09	
54	2.700000e+00	2.497150e+09	

Index   v-sweep         rds             
--------------------------------------------------------------------------------
55	2.750000e+00	2.496056e+09	
56	2.800000e+00	2.493568e+09	
57	2.850000e+00	2.489503e+09	
58	2.900000e+00	2.483665e+09	
59	2.950000e+00	2.475848e+09	
60	3.000000e+00	2.465841e+09	
61	3.050000e+00	2.453431e+09	
62	3.100000e+00	2.438409e+09	
63	3.150000e+00	2.420575e+09	
64	3.200000e+00	2.399746e+09	
65	3.250000e+00	2.375762e+09	
66	3.300000e+00	2.348494e+09	
Reset re-loads circuit ***************************

Circuit: ***************************

Doing analysis at TEMP = 125.000000 and TNOM = 125.000000


No. of Data Rows : 67
                          ***************************
                          DC transfer characteristic  Mon Jan  9 13:57:21  2023
--------------------------------------------------------------------------------
Index   v-sweep         rds             
--------------------------------------------------------------------------------
0	0.000000e+00	6.374167e+05	
1	5.000000e-02	6.927071e+05	
2	1.000000e-01	7.583673e+05	
3	1.500000e-01	8.376148e+05	
4	2.000000e-01	9.351504e+05	
5	2.500000e-01	1.058123e+06	
6	3.000000e-01	1.217953e+06	
7	3.500000e-01	1.434073e+06	
8	4.000000e-01	1.742363e+06	
9	4.500000e-01	2.216825e+06	
10	5.000000e-01	3.035740e+06	
11	5.500000e-01	4.734159e+06	
12	6.000000e-01	9.398880e+06	
13	6.500000e-01	2.531122e+07	
14	7.000000e-01	6.730133e+07	
15	7.500000e-01	1.324045e+08	
16	8.000000e-01	2.020149e+08	
17	8.500000e-01	2.653461e+08	
18	9.000000e-01	3.201805e+08	
19	9.500000e-01	3.673544e+08	
20	1.000000e+00	4.082327e+08	
21	1.050000e+00	4.440251e+08	
22	1.100000e+00	4.756837e+08	
23	1.150000e+00	5.039394e+08	
24	1.200000e+00	5.293549e+08	
25	1.250000e+00	5.523692e+08	
26	1.300000e+00	5.733300e+08	
27	1.350000e+00	5.925171e+08	
28	1.400000e+00	6.101586e+08	
29	1.450000e+00	6.264431e+08	
30	1.500000e+00	6.415279e+08	
31	1.550000e+00	6.555460e+08	
32	1.600000e+00	6.686105e+08	
33	1.650000e+00	6.808184e+08	
34	1.700000e+00	6.922535e+08	
35	1.750000e+00	7.029887e+08	
36	1.800000e+00	7.130877e+08	
37	1.850000e+00	7.226065e+08	
38	1.900000e+00	7.315947e+08	
39	1.950000e+00	7.400959e+08	
40	2.000000e+00	7.481493e+08	
41	2.050000e+00	7.557894e+08	
42	2.100000e+00	7.630474e+08	
43	2.150000e+00	7.699507e+08	
44	2.200000e+00	7.765237e+08	
45	2.250000e+00	7.827879e+08	
46	2.300000e+00	7.887615e+08	
47	2.350000e+00	7.944597e+08	
48	2.400000e+00	7.998943e+08	
49	2.450000e+00	8.050732e+08	
50	2.500000e+00	8.100004e+08	
51	2.550000e+00	8.146745e+08	
52	2.600000e+00	8.190888e+08	
53	2.650000e+00	8.232303e+08	
54	2.700000e+00	8.270786e+08	

Index   v-sweep         rds             
--------------------------------------------------------------------------------
55	2.750000e+00	8.306051e+08	
56	2.800000e+00	8.337722e+08	
57	2.850000e+00	8.365324e+08	
58	2.900000e+00	8.388278e+08	
59	2.950000e+00	8.405894e+08	
60	3.000000e+00	8.417369e+08	
61	3.050000e+00	8.421791e+08	
62	3.100000e+00	8.418145e+08	
63	3.150000e+00	8.405327e+08	
64	3.200000e+00	8.382164e+08	
65	3.250000e+00	8.347437e+08	
66	3.300000e+00	8.299925e+08	
Reset re-loads circuit ***************************

Circuit: ***************************

Doing analysis at TEMP = 125.000000 and TNOM = 125.000000


No. of Data Rows : 67
                          ***************************
                          DC transfer characteristic  Mon Jan  9 13:57:21  2023
--------------------------------------------------------------------------------
Index   v-sweep         rds             
--------------------------------------------------------------------------------
0	0.000000e+00	4.101258e+05	
1	5.000000e-02	4.312919e+05	
2	1.000000e-01	4.547182e+05	
3	1.500000e-01	4.807871e+05	
4	2.000000e-01	5.099723e+05	
5	2.500000e-01	5.428681e+05	
6	3.000000e-01	5.802298e+05	
7	3.500000e-01	6.230328e+05	
8	4.000000e-01	6.725586e+05	
9	4.500000e-01	7.305249e+05	
10	5.000000e-01	7.992885e+05	
11	5.500000e-01	8.821719e+05	
12	6.000000e-01	9.840134e+05	
13	6.500000e-01	1.112138e+06	
14	7.000000e-01	1.278178e+06	
15	7.500000e-01	1.501745e+06	
16	8.000000e-01	1.818522e+06	
17	8.500000e-01	2.300211e+06	
18	9.000000e-01	3.110669e+06	
19	9.500000e-01	4.686396e+06	
20	1.000000e+00	8.326549e+06	
21	1.050000e+00	1.731713e+07	
22	1.100000e+00	3.538301e+07	
23	1.150000e+00	6.111020e+07	
24	1.200000e+00	8.949783e+07	
25	1.250000e+00	1.170904e+08	
26	1.300000e+00	1.426030e+08	
27	1.350000e+00	1.658272e+08	
28	1.400000e+00	1.869241e+08	
29	1.450000e+00	2.061418e+08	
30	1.500000e+00	2.237224e+08	
31	1.550000e+00	2.398771e+08	
32	1.600000e+00	2.547842e+08	
33	1.650000e+00	2.685931e+08	
34	1.700000e+00	2.814290e+08	
35	1.750000e+00	2.933977e+08	
36	1.800000e+00	3.045892e+08	
37	1.850000e+00	3.150808e+08	
38	1.900000e+00	3.249391e+08	
39	1.950000e+00	3.342221e+08	
40	2.000000e+00	3.429806e+08	
41	2.050000e+00	3.512592e+08	
42	2.100000e+00	3.590975e+08	
43	2.150000e+00	3.665306e+08	
44	2.200000e+00	3.735899e+08	
45	2.250000e+00	3.803035e+08	
46	2.300000e+00	3.866965e+08	
47	2.350000e+00	3.927919e+08	
48	2.400000e+00	3.986101e+08	
49	2.450000e+00	4.041697e+08	
50	2.500000e+00	4.094875e+08	
51	2.550000e+00	4.145786e+08	
52	2.600000e+00	4.194563e+08	
53	2.650000e+00	4.241325e+08	
54	2.700000e+00	4.286171e+08	

Index   v-sweep         rds             
--------------------------------------------------------------------------------
55	2.750000e+00	4.329181e+08	
56	2.800000e+00	4.370412e+08	
57	2.850000e+00	4.409896e+08	
58	2.900000e+00	4.447634e+08	
59	2.950000e+00	4.483589e+08	
60	3.000000e+00	4.517686e+08	
61	3.050000e+00	4.549794e+08	
62	3.100000e+00	4.579731e+08	
63	3.150000e+00	4.607247e+08	
64	3.200000e+00	4.632019e+08	
65	3.250000e+00	4.653649e+08	
66	3.300000e+00	4.671652e+08	
Reset re-loads circuit ***************************

Circuit: ***************************

Doing analysis at TEMP = 125.000000 and TNOM = 125.000000


No. of Data Rows : 67
                          ***************************
                          DC transfer characteristic  Mon Jan  9 13:57:21  2023
--------------------------------------------------------------------------------
Index   v-sweep         rds             
--------------------------------------------------------------------------------
0	0.000000e+00	3.126507e+05	
1	5.000000e-02	3.239081e+05	
2	1.000000e-01	3.359855e+05	
3	1.500000e-01	3.489757e+05	
4	2.000000e-01	3.629863e+05	
5	2.500000e-01	3.781424e+05	
6	3.000000e-01	3.945906e+05	
7	3.500000e-01	4.125034e+05	
8	4.000000e-01	4.320853e+05	
9	4.500000e-01	4.535813e+05	
10	5.000000e-01	4.772861e+05	
11	5.500000e-01	5.035586e+05	
12	6.000000e-01	5.328397e+05	
13	6.500000e-01	5.656776e+05	
14	7.000000e-01	6.027618e+05	
15	7.500000e-01	6.449724e+05	
16	8.000000e-01	6.934505e+05	
17	8.500000e-01	7.497027e+05	
18	9.000000e-01	8.157593e+05	
19	9.500000e-01	8.944236e+05	
20	1.000000e+00	9.896761e+05	
21	1.050000e+00	1.107361e+06	
22	1.100000e+00	1.256411e+06	
23	1.150000e+00	1.451162e+06	
24	1.200000e+00	1.716059e+06	
25	1.250000e+00	2.096029e+06	
26	1.300000e+00	2.681564e+06	
27	1.350000e+00	3.674587e+06	
28	1.400000e+00	5.561500e+06	
29	1.450000e+00	9.440003e+06	
30	1.500000e+00	1.692861e+07	
31	1.550000e+00	2.858831e+07	
32	1.600000e+00	4.300036e+07	
33	1.650000e+00	5.830624e+07	
34	1.700000e+00	7.336034e+07	
35	1.750000e+00	8.767593e+07	
36	1.800000e+00	1.011102e+08	
37	1.850000e+00	1.136650e+08	
38	1.900000e+00	1.253946e+08	
39	1.950000e+00	1.363680e+08	
40	2.000000e+00	1.466539e+08	
41	2.050000e+00	1.563160e+08	
42	2.100000e+00	1.654111e+08	
43	2.150000e+00	1.739899e+08	
44	2.200000e+00	1.820968e+08	
45	2.250000e+00	1.897715e+08	
46	2.300000e+00	1.970490e+08	
47	2.350000e+00	2.039604e+08	
48	2.400000e+00	2.105336e+08	
49	2.450000e+00	2.167935e+08	
50	2.500000e+00	2.227626e+08	
51	2.550000e+00	2.284613e+08	
52	2.600000e+00	2.339079e+08	
53	2.650000e+00	2.391192e+08	
54	2.700000e+00	2.441102e+08	

Index   v-sweep         rds             
--------------------------------------------------------------------------------
55	2.750000e+00	2.488949e+08	
56	2.800000e+00	2.534860e+08	
57	2.850000e+00	2.578950e+08	
58	2.900000e+00	2.621326e+08	
59	2.950000e+00	2.662083e+08	
60	3.000000e+00	2.701309e+08	
61	3.050000e+00	2.739078e+08	
62	3.100000e+00	2.775458e+08	
63	3.150000e+00	2.810500e+08	
64	3.200000e+00	2.844243e+08	
65	3.250000e+00	2.876708e+08	
66	3.300000e+00	2.907894e+08	
Reset re-loads circuit ***************************

Circuit: ***************************

Doing analysis at TEMP = 125.000000 and TNOM = 125.000000


No. of Data Rows : 67
                          ***************************
                          DC transfer characteristic  Mon Jan  9 13:57:21  2023
--------------------------------------------------------------------------------
Index   v-sweep         rds             
--------------------------------------------------------------------------------
0	0.000000e+00	2.602776e+05	
1	5.000000e-02	2.673501e+05	
2	1.000000e-01	2.748055e+05	
3	1.500000e-01	2.826757e+05	
4	2.000000e-01	2.909962e+05	
5	2.500000e-01	2.998070e+05	
6	3.000000e-01	3.091526e+05	
7	3.500000e-01	3.190833e+05	
8	4.000000e-01	3.296557e+05	
9	4.500000e-01	3.409342e+05	
10	5.000000e-01	3.529918e+05	
11	5.500000e-01	3.659123e+05	
12	6.000000e-01	3.797916e+05	
13	6.500000e-01	3.947406e+05	
14	7.000000e-01	4.108879e+05	
15	7.500000e-01	4.283836e+05	
16	8.000000e-01	4.474038e+05	
17	8.500000e-01	4.681569e+05	
18	9.000000e-01	4.908909e+05	
19	9.500000e-01	5.159035e+05	
20	1.000000e+00	5.435555e+05	
21	1.050000e+00	5.742874e+05	
22	1.100000e+00	6.086441e+05	
23	1.150000e+00	6.473065e+05	
24	1.200000e+00	6.911376e+05	
25	1.250000e+00	7.412470e+05	
26	1.300000e+00	7.990859e+05	
27	1.350000e+00	8.665888e+05	
28	1.400000e+00	9.463925e+05	
29	1.450000e+00	1.042184e+06	
30	1.500000e+00	1.159277e+06	
31	1.550000e+00	1.305608e+06	
32	1.600000e+00	1.493546e+06	
33	1.650000e+00	1.743387e+06	
34	1.700000e+00	2.090538e+06	
35	1.750000e+00	2.601279e+06	
36	1.800000e+00	3.408904e+06	
37	1.850000e+00	4.792776e+06	
38	1.900000e+00	7.298457e+06	
39	1.950000e+00	1.168891e+07	
40	2.000000e+00	1.836371e+07	
41	2.050000e+00	2.685488e+07	
42	2.100000e+00	3.627236e+07	
43	2.150000e+00	4.590891e+07	
44	2.200000e+00	5.537132e+07	
45	2.250000e+00	6.448112e+07	
46	2.300000e+00	7.317302e+07	
47	2.350000e+00	8.143527e+07	
48	2.400000e+00	8.927991e+07	
49	2.450000e+00	9.672865e+07	
50	2.500000e+00	1.038064e+08	
51	2.550000e+00	1.105382e+08	
52	2.600000e+00	1.169480e+08	
53	2.650000e+00	1.230581e+08	
54	2.700000e+00	1.288892e+08	

Index   v-sweep         rds             
--------------------------------------------------------------------------------
55	2.750000e+00	1.344602e+08	
56	2.800000e+00	1.397883e+08	
57	2.850000e+00	1.448892e+08	
58	2.900000e+00	1.497775e+08	
59	2.950000e+00	1.544664e+08	
60	3.000000e+00	1.589679e+08	
61	3.050000e+00	1.632933e+08	
62	3.100000e+00	1.674528e+08	
63	3.150000e+00	1.714560e+08	
64	3.200000e+00	1.753115e+08	
65	3.250000e+00	1.790274e+08	
66	3.300000e+00	1.826111e+08	
Reset re-loads circuit ***************************

Circuit: ***************************

Doing analysis at TEMP = 125.000000 and TNOM = 125.000000


No. of Data Rows : 67
                          ***************************
                          DC transfer characteristic  Mon Jan  9 13:57:21  2023
--------------------------------------------------------------------------------
Index   v-sweep         rds             
--------------------------------------------------------------------------------
0	0.000000e+00	2.288024e+05	
1	5.000000e-02	2.337162e+05	
2	1.000000e-01	2.388377e+05	
3	1.500000e-01	2.441805e+05	
4	2.000000e-01	2.497591e+05	
5	2.500000e-01	2.555896e+05	
6	3.000000e-01	2.616894e+05	
7	3.500000e-01	2.680776e+05	
8	4.000000e-01	2.747751e+05	
9	4.500000e-01	2.818050e+05	
10	5.000000e-01	2.891926e+05	
11	5.500000e-01	2.969660e+05	
12	6.000000e-01	3.051561e+05	
13	6.500000e-01	3.137974e+05	
14	7.000000e-01	3.229283e+05	
15	7.500000e-01	3.325914e+05	
16	8.000000e-01	3.428349e+05	
17	8.500000e-01	3.537125e+05	
18	9.000000e-01	3.652850e+05	
19	9.500000e-01	3.776213e+05	
20	1.000000e+00	3.907994e+05	
21	1.050000e+00	4.049085e+05	
22	1.100000e+00	4.200510e+05	
23	1.150000e+00	4.363447e+05	
24	1.200000e+00	4.539260e+05	
25	1.250000e+00	4.729537e+05	
26	1.300000e+00	4.936140e+05	
27	1.350000e+00	5.161263e+05	
28	1.400000e+00	5.407514e+05	
29	1.450000e+00	5.678010e+05	
30	1.500000e+00	5.976517e+05	
31	1.550000e+00	6.307621e+05	
32	1.600000e+00	6.676966e+05	
33	1.650000e+00	7.091578e+05	
34	1.700000e+00	7.560312e+05	
35	1.750000e+00	8.094492e+05	
36	1.800000e+00	8.708828e+05	
37	1.850000e+00	9.422781e+05	
38	1.900000e+00	1.026264e+06	
39	1.950000e+00	1.126477e+06	
40	2.000000e+00	1.248092e+06	
41	2.050000e+00	1.398710e+06	
42	2.100000e+00	1.589943e+06	
43	2.150000e+00	1.840327e+06	
44	2.200000e+00	2.181017e+06	
45	2.250000e+00	2.667326e+06	
46	2.300000e+00	3.402226e+06	
47	2.350000e+00	4.579160e+06	
48	2.400000e+00	6.527772e+06	
49	2.450000e+00	9.654458e+06	
50	2.500000e+00	1.416238e+07	
51	2.550000e+00	1.983167e+07	
52	2.600000e+00	2.619999e+07	
53	2.650000e+00	3.285149e+07	
54	2.700000e+00	3.951829e+07	

Index   v-sweep         rds             
--------------------------------------------------------------------------------
55	2.750000e+00	4.605471e+07	
56	2.800000e+00	5.238980e+07	
57	2.850000e+00	5.849350e+07	
58	2.900000e+00	6.435712e+07	
59	2.950000e+00	6.998279e+07	
60	3.000000e+00	7.537801e+07	
61	3.050000e+00	8.055276e+07	
62	3.100000e+00	8.551798e+07	
63	3.150000e+00	9.028472e+07	
64	3.200000e+00	9.486382e+07	
65	3.250000e+00	9.926561e+07	
66	3.300000e+00	1.034999e+08	
Reset re-loads circuit ***************************

Circuit: ***************************

Note: No ".plot", ".print", or ".fourier" lines; no simulations run
