
Note: Compatibility modes selected: hs

Warning: m=xx on .subckt line will override multiplier m hierarchy!


Circuit: ***************************

Doing analysis at TEMP = 25.000000 and TNOM = 25.000000


No. of Data Rows : 67
                          ***************************
                          DC transfer characteristic  Mon Jan  9 13:57:19  2023
--------------------------------------------------------------------------------
Index   v-sweep         rds             
--------------------------------------------------------------------------------
0	0.000000e+00	3.307118e+04	
1	5.000000e-02	5.140395e+04	
2	1.000000e-01	1.005252e+05	
3	1.500000e-01	2.732368e+05	
4	2.000000e-01	7.049909e+05	
5	2.500000e-01	1.247577e+06	
6	3.000000e-01	1.728346e+06	
7	3.500000e-01	2.124722e+06	
8	4.000000e-01	2.453819e+06	
9	4.500000e-01	2.732103e+06	
10	5.000000e-01	2.971274e+06	
11	5.500000e-01	3.179500e+06	
12	6.000000e-01	3.362650e+06	
13	6.500000e-01	3.525087e+06	
14	7.000000e-01	3.670152e+06	
15	7.500000e-01	3.800462e+06	
16	8.000000e-01	3.918112e+06	
17	8.500000e-01	4.024806e+06	
18	9.000000e-01	4.121944e+06	
19	9.500000e-01	4.210695e+06	
20	1.000000e+00	4.292042e+06	
21	1.050000e+00	4.366816e+06	
22	1.100000e+00	4.435729e+06	
23	1.150000e+00	4.499395e+06	
24	1.200000e+00	4.558341e+06	
25	1.250000e+00	4.613030e+06	
26	1.300000e+00	4.663863e+06	
27	1.350000e+00	4.711195e+06	
28	1.400000e+00	4.755337e+06	
29	1.450000e+00	4.796566e+06	
30	1.500000e+00	4.835126e+06	
31	1.550000e+00	4.871237e+06	
32	1.600000e+00	4.905093e+06	
33	1.650000e+00	4.936866e+06	
34	1.700000e+00	4.966711e+06	
35	1.750000e+00	4.994765e+06	
36	1.800000e+00	5.021145e+06	
37	1.850000e+00	5.045954e+06	
38	1.900000e+00	5.069274e+06	
39	1.950000e+00	5.091171e+06	
40	2.000000e+00	5.111687e+06	
41	2.050000e+00	5.130843e+06	
42	2.100000e+00	5.148631e+06	
43	2.150000e+00	5.165017e+06	
44	2.200000e+00	5.179930e+06	
45	2.250000e+00	5.193262e+06	
46	2.300000e+00	5.204864e+06	
47	2.350000e+00	5.214540e+06	
48	2.400000e+00	5.222046e+06	
49	2.450000e+00	5.227083e+06	
50	2.500000e+00	5.229298e+06	
51	2.550000e+00	5.228283e+06	
52	2.600000e+00	5.223574e+06	
53	2.650000e+00	5.214655e+06	
54	2.700000e+00	5.200966e+06	

Index   v-sweep         rds             
--------------------------------------------------------------------------------
55	2.750000e+00	5.181909e+06	
56	2.800000e+00	5.156860e+06	
57	2.850000e+00	5.125186e+06	
58	2.900000e+00	5.086266e+06	
59	2.950000e+00	5.039507e+06	
60	3.000000e+00	4.984376e+06	
61	3.050000e+00	4.920423e+06	
62	3.100000e+00	4.847306e+06	
63	3.150000e+00	4.764819e+06	
64	3.200000e+00	4.672915e+06	
65	3.250000e+00	4.571718e+06	
66	3.300000e+00	4.461540e+06	
Reset re-loads circuit ***************************

Circuit: ***************************

Doing analysis at TEMP = 25.000000 and TNOM = 25.000000


No. of Data Rows : 67
                          ***************************
                          DC transfer characteristic  Mon Jan  9 13:57:19  2023
--------------------------------------------------------------------------------
Index   v-sweep         rds             
--------------------------------------------------------------------------------
0	0.000000e+00	6.636929e+03	
1	5.000000e-02	7.445285e+03	
2	1.000000e-01	8.427052e+03	
3	1.500000e-01	9.643997e+03	
4	2.000000e-01	1.119084e+04	
5	2.500000e-01	1.321999e+04	
6	3.000000e-01	1.599117e+04	
7	3.500000e-01	1.997583e+04	
8	4.000000e-01	2.607667e+04	
9	4.500000e-01	3.599554e+04	
10	5.000000e-01	5.227519e+04	
11	5.500000e-01	7.660585e+04	
12	6.000000e-01	1.076541e+05	
13	6.500000e-01	1.423684e+05	
14	7.000000e-01	1.783002e+05	
15	7.500000e-01	2.140744e+05	
16	8.000000e-01	2.490182e+05	
17	8.500000e-01	2.828267e+05	
18	9.000000e-01	3.153777e+05	
19	9.500000e-01	3.466404e+05	
20	1.000000e+00	3.766298e+05	
21	1.050000e+00	4.053845e+05	
22	1.100000e+00	4.329538e+05	
23	1.150000e+00	4.593922e+05	
24	1.200000e+00	4.847551e+05	
25	1.250000e+00	5.090975e+05	
26	1.300000e+00	5.324725e+05	
27	1.350000e+00	5.549307e+05	
28	1.400000e+00	5.765204e+05	
29	1.450000e+00	5.972872e+05	
30	1.500000e+00	6.172737e+05	
31	1.550000e+00	6.365204e+05	
32	1.600000e+00	6.550652e+05	
33	1.650000e+00	6.729434e+05	
34	1.700000e+00	6.901885e+05	
35	1.750000e+00	7.068317e+05	
36	1.800000e+00	7.229023e+05	
37	1.850000e+00	7.384278e+05	
38	1.900000e+00	7.534338e+05	
39	1.950000e+00	7.679441e+05	
40	2.000000e+00	7.819806e+05	
41	2.050000e+00	7.955633e+05	
42	2.100000e+00	8.087098e+05	
43	2.150000e+00	8.214345e+05	
44	2.200000e+00	8.337489e+05	
45	2.250000e+00	8.456595e+05	
46	2.300000e+00	8.571676e+05	
47	2.350000e+00	8.682672e+05	
48	2.400000e+00	8.789437e+05	
49	2.450000e+00	8.891716e+05	
50	2.500000e+00	8.989123e+05	
51	2.550000e+00	9.081117e+05	
52	2.600000e+00	9.166976e+05	
53	2.650000e+00	9.245771e+05	
54	2.700000e+00	9.316344e+05	

Index   v-sweep         rds             
--------------------------------------------------------------------------------
55	2.750000e+00	9.377290e+05	
56	2.800000e+00	9.426945e+05	
57	2.850000e+00	9.463389e+05	
58	2.900000e+00	9.484463e+05	
59	2.950000e+00	9.487807e+05	
60	3.000000e+00	9.470921e+05	
61	3.050000e+00	9.431254e+05	
62	3.100000e+00	9.366319e+05	
63	3.150000e+00	9.273836e+05	
64	3.200000e+00	9.151891e+05	
65	3.250000e+00	8.999105e+05	
66	3.300000e+00	8.814788e+05	
Reset re-loads circuit ***************************

Circuit: ***************************

Doing analysis at TEMP = 25.000000 and TNOM = 25.000000


No. of Data Rows : 67
                          ***************************
                          DC transfer characteristic  Mon Jan  9 13:57:19  2023
--------------------------------------------------------------------------------
Index   v-sweep         rds             
--------------------------------------------------------------------------------
0	0.000000e+00	4.060907e+03	
1	5.000000e-02	4.368957e+03	
2	1.000000e-01	4.712846e+03	
3	1.500000e-01	5.099116e+03	
4	2.000000e-01	5.536010e+03	
5	2.500000e-01	6.034064e+03	
6	3.000000e-01	6.606978e+03	
7	3.500000e-01	7.272901e+03	
8	4.000000e-01	8.056438e+03	
9	4.500000e-01	8.991852e+03	
10	5.000000e-01	1.012845e+04	
11	5.500000e-01	1.154007e+04	
12	6.000000e-01	1.334267e+04	
13	6.500000e-01	1.572734e+04	
14	7.000000e-01	1.901761e+04	
15	7.500000e-01	2.373288e+04	
16	8.000000e-01	3.053322e+04	
17	8.500000e-01	3.987233e+04	
18	9.000000e-01	5.162056e+04	
19	9.500000e-01	6.517653e+04	
20	1.000000e+00	7.986141e+04	
21	1.050000e+00	9.514320e+04	
22	1.100000e+00	1.106632e+05	
23	1.150000e+00	1.261935e+05	
24	1.200000e+00	1.415923e+05	
25	1.250000e+00	1.567722e+05	
26	1.300000e+00	1.716799e+05	
27	1.350000e+00	1.862837e+05	
28	1.400000e+00	2.005660e+05	
29	1.450000e+00	2.145183e+05	
30	1.500000e+00	2.281379e+05	
31	1.550000e+00	2.414264e+05	
32	1.600000e+00	2.543878e+05	
33	1.650000e+00	2.670280e+05	
34	1.700000e+00	2.793540e+05	
35	1.750000e+00	2.913737e+05	
36	1.800000e+00	3.030953e+05	
37	1.850000e+00	3.145273e+05	
38	1.900000e+00	3.256780e+05	
39	1.950000e+00	3.365562e+05	
40	2.000000e+00	3.471700e+05	
41	2.050000e+00	3.575278e+05	
42	2.100000e+00	3.676376e+05	
43	2.150000e+00	3.775072e+05	
44	2.200000e+00	3.871438e+05	
45	2.250000e+00	3.965546e+05	
46	2.300000e+00	4.057459e+05	
47	2.350000e+00	4.147232e+05	
48	2.400000e+00	4.234912e+05	
49	2.450000e+00	4.320528e+05	
50	2.500000e+00	4.404087e+05	
51	2.550000e+00	4.485568e+05	
52	2.600000e+00	4.564911e+05	
53	2.650000e+00	4.642003e+05	
54	2.700000e+00	4.716663e+05	

Index   v-sweep         rds             
--------------------------------------------------------------------------------
55	2.750000e+00	4.788629e+05	
56	2.800000e+00	4.857534e+05	
57	2.850000e+00	4.922886e+05	
58	2.900000e+00	4.984046e+05	
59	2.950000e+00	5.040212e+05	
60	3.000000e+00	5.090393e+05	
61	3.050000e+00	5.133403e+05	
62	3.100000e+00	5.167858e+05	
63	3.150000e+00	5.192181e+05	
64	3.200000e+00	5.204637e+05	
65	3.250000e+00	5.203377e+05	
66	3.300000e+00	5.186516e+05	
Reset re-loads circuit ***************************

Circuit: ***************************

Doing analysis at TEMP = 25.000000 and TNOM = 25.000000


No. of Data Rows : 67
                          ***************************
                          DC transfer characteristic  Mon Jan  9 13:57:19  2023
--------------------------------------------------------------------------------
Index   v-sweep         rds             
--------------------------------------------------------------------------------
0	0.000000e+00	3.130805e+03	
1	5.000000e-02	3.310048e+03	
2	1.000000e-01	3.503844e+03	
3	1.500000e-01	3.713999e+03	
4	2.000000e-01	3.942633e+03	
5	2.500000e-01	4.192254e+03	
6	3.000000e-01	4.465844e+03	
7	3.500000e-01	4.766990e+03	
8	4.000000e-01	5.100039e+03	
9	4.500000e-01	5.470323e+03	
10	5.000000e-01	5.884461e+03	
11	5.500000e-01	6.350795e+03	
12	6.000000e-01	6.880030e+03	
13	6.500000e-01	7.486210e+03	
14	7.000000e-01	8.188285e+03	
15	7.500000e-01	9.012753e+03	
16	8.000000e-01	9.998352e+03	
17	8.500000e-01	1.120470e+04	
18	9.000000e-01	1.272814e+04	
19	9.500000e-01	1.472741e+04	
20	1.000000e+00	1.745061e+04	
21	1.050000e+00	2.121923e+04	
22	1.100000e+00	2.630861e+04	
23	1.150000e+00	3.278198e+04	
24	1.200000e+00	4.045879e+04	
25	1.250000e+00	4.903764e+04	
26	1.300000e+00	5.822330e+04	
27	1.350000e+00	6.778154e+04	
28	1.400000e+00	7.754331e+04	
29	1.450000e+00	8.739129e+04	
30	1.500000e+00	9.724522e+04	
31	1.550000e+00	1.070503e+05	
32	1.600000e+00	1.167690e+05	
33	1.650000e+00	1.263760e+05	
34	1.700000e+00	1.358537e+05	
35	1.750000e+00	1.451907e+05	
36	1.800000e+00	1.543794e+05	
37	1.850000e+00	1.634153e+05	
38	1.900000e+00	1.722958e+05	
39	1.950000e+00	1.810200e+05	
40	2.000000e+00	1.895881e+05	
41	2.050000e+00	1.980011e+05	
42	2.100000e+00	2.062605e+05	
43	2.150000e+00	2.143684e+05	
44	2.200000e+00	2.223272e+05	
45	2.250000e+00	2.301395e+05	
46	2.300000e+00	2.378080e+05	
47	2.350000e+00	2.453355e+05	
48	2.400000e+00	2.527250e+05	
49	2.450000e+00	2.599793e+05	
50	2.500000e+00	2.671010e+05	
51	2.550000e+00	2.740926e+05	
52	2.600000e+00	2.809561e+05	
53	2.650000e+00	2.876928e+05	
54	2.700000e+00	2.943029e+05	

Index   v-sweep         rds             
--------------------------------------------------------------------------------
55	2.750000e+00	3.007853e+05	
56	2.800000e+00	3.071364e+05	
57	2.850000e+00	3.133498e+05	
58	2.900000e+00	3.194149e+05	
59	2.950000e+00	3.253158e+05	
60	3.000000e+00	3.310300e+05	
61	3.050000e+00	3.365262e+05	
62	3.100000e+00	3.417630e+05	
63	3.150000e+00	3.466866e+05	
64	3.200000e+00	3.512294e+05	
65	3.250000e+00	3.553078e+05	
66	3.300000e+00	3.588218e+05	
Reset re-loads circuit ***************************

Circuit: ***************************

Doing analysis at TEMP = 25.000000 and TNOM = 25.000000


No. of Data Rows : 67
                          ***************************
                          DC transfer characteristic  Mon Jan  9 13:57:19  2023
--------------------------------------------------------------------------------
Index   v-sweep         rds             
--------------------------------------------------------------------------------
0	0.000000e+00	2.664452e+03	
1	5.000000e-02	2.788710e+03	
2	1.000000e-01	2.920775e+03	
3	1.500000e-01	3.061388e+03	
4	2.000000e-01	3.211381e+03	
5	2.500000e-01	3.371703e+03	
6	3.000000e-01	3.543435e+03	
7	3.500000e-01	3.727818e+03	
8	4.000000e-01	3.926279e+03	
9	4.500000e-01	4.140473e+03	
10	5.000000e-01	4.372331e+03	
11	5.500000e-01	4.624121e+03	
12	6.000000e-01	4.898529e+03	
13	6.500000e-01	5.198767e+03	
14	7.000000e-01	5.528721e+03	
15	7.500000e-01	5.893155e+03	
16	8.000000e-01	6.298013e+03	
17	8.500000e-01	6.750877e+03	
18	9.000000e-01	7.261680e+03	
19	9.500000e-01	7.843912e+03	
20	1.000000e+00	8.516702e+03	
21	1.050000e+00	9.308554e+03	
22	1.100000e+00	1.026405e+04	
23	1.150000e+00	1.145515e+04	
24	1.200000e+00	1.299683e+04	
25	1.250000e+00	1.505745e+04	
26	1.300000e+00	1.783803e+04	
27	1.350000e+00	2.150008e+04	
28	1.400000e+00	2.608355e+04	
29	1.450000e+00	3.149394e+04	
30	1.500000e+00	3.756156e+04	
31	1.550000e+00	4.410789e+04	
32	1.600000e+00	5.098094e+04	
33	1.650000e+00	5.806356e+04	
34	1.700000e+00	6.526961e+04	
35	1.750000e+00	7.253688e+04	
36	1.800000e+00	7.982071e+04	
37	1.850000e+00	8.708902e+04	
38	1.900000e+00	9.431866e+04	
39	1.950000e+00	1.014929e+05	
40	2.000000e+00	1.085997e+05	
41	2.050000e+00	1.156302e+05	
42	2.100000e+00	1.225783e+05	
43	2.150000e+00	1.294396e+05	
44	2.200000e+00	1.362110e+05	
45	2.250000e+00	1.428908e+05	
46	2.300000e+00	1.494776e+05	
47	2.350000e+00	1.559710e+05	
48	2.400000e+00	1.623710e+05	
49	2.450000e+00	1.686779e+05	
50	2.500000e+00	1.748923e+05	
51	2.550000e+00	1.810151e+05	
52	2.600000e+00	1.870471e+05	
53	2.650000e+00	1.929895e+05	
54	2.700000e+00	1.988433e+05	

Index   v-sweep         rds             
--------------------------------------------------------------------------------
55	2.750000e+00	2.046097e+05	
56	2.800000e+00	2.102894e+05	
57	2.850000e+00	2.158830e+05	
58	2.900000e+00	2.213905e+05	
59	2.950000e+00	2.268109e+05	
60	3.000000e+00	2.321418e+05	
61	3.050000e+00	2.373790e+05	
62	3.100000e+00	2.425155e+05	
63	3.150000e+00	2.475407e+05	
64	3.200000e+00	2.524388e+05	
65	3.250000e+00	2.571884e+05	
66	3.300000e+00	2.617597e+05	
Reset re-loads circuit ***************************

Circuit: ***************************

Doing analysis at TEMP = 25.000000 and TNOM = 25.000000


No. of Data Rows : 67
                          ***************************
                          DC transfer characteristic  Mon Jan  9 13:57:19  2023
--------------------------------------------------------------------------------
Index   v-sweep         rds             
--------------------------------------------------------------------------------
0	0.000000e+00	2.392827e+03	
1	5.000000e-02	2.487463e+03	
2	1.000000e-01	2.586967e+03	
3	1.500000e-01	2.691711e+03	
4	2.000000e-01	2.802107e+03	
5	2.500000e-01	2.918611e+03	
6	3.000000e-01	3.041730e+03	
7	3.500000e-01	3.172030e+03	
8	4.000000e-01	3.310144e+03	
9	4.500000e-01	3.456780e+03	
10	5.000000e-01	3.612740e+03	
11	5.500000e-01	3.778930e+03	
12	6.000000e-01	3.956380e+03	
13	6.500000e-01	4.146265e+03	
14	7.000000e-01	4.349940e+03	
15	7.500000e-01	4.568968e+03	
16	8.000000e-01	4.805178e+03	
17	8.500000e-01	5.060716e+03	
18	9.000000e-01	5.338143e+03	
19	9.500000e-01	5.640548e+03	
20	1.000000e+00	5.971726e+03	
21	1.050000e+00	6.336447e+03	
22	1.100000e+00	6.740873e+03	
23	1.150000e+00	7.193251e+03	
24	1.200000e+00	7.705084e+03	
25	1.250000e+00	8.293176e+03	
26	1.300000e+00	8.983189e+03	
27	1.350000e+00	9.815574e+03	
28	1.400000e+00	1.085433e+04	
29	1.450000e+00	1.219608e+04	
30	1.500000e+00	1.396997e+04	
31	1.550000e+00	1.631285e+04	
32	1.600000e+00	1.931919e+04	
33	1.650000e+00	2.299947e+04	
34	1.700000e+00	2.728310e+04	
35	1.750000e+00	3.205594e+04	
36	1.800000e+00	3.719827e+04	
37	1.850000e+00	4.260561e+04	
38	1.900000e+00	4.819477e+04	
39	1.950000e+00	5.390239e+04	
40	2.000000e+00	5.968119e+04	
41	2.050000e+00	6.549610e+04	
42	2.100000e+00	7.132115e+04	
43	2.150000e+00	7.713701e+04	
44	2.200000e+00	8.292926e+04	
45	2.250000e+00	8.868709e+04	
46	2.300000e+00	9.440238e+04	
47	2.350000e+00	1.000691e+05	
48	2.400000e+00	1.056826e+05	
49	2.450000e+00	1.112395e+05	
50	2.500000e+00	1.167374e+05	
51	2.550000e+00	1.221745e+05	
52	2.600000e+00	1.275496e+05	
53	2.650000e+00	1.328618e+05	
54	2.700000e+00	1.381108e+05	

Index   v-sweep         rds             
--------------------------------------------------------------------------------
55	2.750000e+00	1.432963e+05	
56	2.800000e+00	1.484185e+05	
57	2.850000e+00	1.534774e+05	
58	2.900000e+00	1.584734e+05	
59	2.950000e+00	1.634067e+05	
60	3.000000e+00	1.682778e+05	
61	3.050000e+00	1.730866e+05	
62	3.100000e+00	1.778330e+05	
63	3.150000e+00	1.825161e+05	
64	3.200000e+00	1.871343e+05	
65	3.250000e+00	1.916846e+05	
66	3.300000e+00	1.961621e+05	
Reset re-loads circuit ***************************

Circuit: ***************************

Note: No ".plot", ".print", or ".fourier" lines; no simulations run
