
Note: Compatibility modes selected: hs

Warning: m=xx on .subckt line will override multiplier m hierarchy!


Circuit: ***************************

Doing analysis at TEMP = 25.000000 and TNOM = 25.000000


No. of Data Rows : 67
                          ***************************
                          DC transfer characteristic  Mon Jan  9 13:57:19  2023
--------------------------------------------------------------------------------
Index   v-sweep         rds             
--------------------------------------------------------------------------------
0	0.000000e+00	7.945685e+04	
1	5.000000e-02	1.241364e+05	
2	1.000000e-01	2.751614e+05	
3	1.500000e-01	1.849578e+06	
4	2.000000e-01	1.519893e+07	
5	2.500000e-01	4.049328e+07	
6	3.000000e-01	6.180842e+07	
7	3.500000e-01	7.617024e+07	
8	4.000000e-01	8.584452e+07	
9	4.500000e-01	9.268760e+07	
10	5.000000e-01	9.777322e+07	
11	5.500000e-01	1.017096e+08	
12	6.000000e-01	1.048556e+08	
13	6.500000e-01	1.074342e+08	
14	7.000000e-01	1.095909e+08	
15	7.500000e-01	1.114244e+08	
16	8.000000e-01	1.130045e+08	
17	8.500000e-01	1.143815e+08	
18	9.000000e-01	1.155934e+08	
19	9.500000e-01	1.166687e+08	
20	1.000000e+00	1.176298e+08	
21	1.050000e+00	1.184943e+08	
22	1.100000e+00	1.192763e+08	
23	1.150000e+00	1.199872e+08	
24	1.200000e+00	1.206365e+08	
25	1.250000e+00	1.212319e+08	
26	1.300000e+00	1.217800e+08	
27	1.350000e+00	1.222862e+08	
28	1.400000e+00	1.227552e+08	
29	1.450000e+00	1.231909e+08	
30	1.500000e+00	1.235968e+08	
31	1.550000e+00	1.239759e+08	
32	1.600000e+00	1.243308e+08	
33	1.650000e+00	1.246636e+08	
34	1.700000e+00	1.249763e+08	
35	1.750000e+00	1.252707e+08	
36	1.800000e+00	1.255480e+08	
37	1.850000e+00	1.258097e+08	
38	1.900000e+00	1.260566e+08	
39	1.950000e+00	1.262896e+08	
40	2.000000e+00	1.265092e+08	
41	2.050000e+00	1.267157e+08	
42	2.100000e+00	1.269092e+08	
43	2.150000e+00	1.270894e+08	
44	2.200000e+00	1.272558e+08	
45	2.250000e+00	1.274074e+08	
46	2.300000e+00	1.275431e+08	
47	2.350000e+00	1.276609e+08	
48	2.400000e+00	1.277588e+08	
49	2.450000e+00	1.278342e+08	
50	2.500000e+00	1.278839e+08	
51	2.550000e+00	1.279042e+08	
52	2.600000e+00	1.278910e+08	
53	2.650000e+00	1.278395e+08	
54	2.700000e+00	1.277445e+08	

Index   v-sweep         rds             
--------------------------------------------------------------------------------
55	2.750000e+00	1.276002e+08	
56	2.800000e+00	1.274004e+08	
57	2.850000e+00	1.271386e+08	
58	2.900000e+00	1.268077e+08	
59	2.950000e+00	1.264006e+08	
60	3.000000e+00	1.259100e+08	
61	3.050000e+00	1.253287e+08	
62	3.100000e+00	1.246494e+08	
63	3.150000e+00	1.238654e+08	
64	3.200000e+00	1.229704e+08	
65	3.250000e+00	1.219585e+08	
66	3.300000e+00	1.208252e+08	
Reset re-loads circuit ***************************

Circuit: ***************************

Doing analysis at TEMP = 25.000000 and TNOM = 25.000000


No. of Data Rows : 67
                          ***************************
                          DC transfer characteristic  Mon Jan  9 13:57:19  2023
--------------------------------------------------------------------------------
Index   v-sweep         rds             
--------------------------------------------------------------------------------
0	0.000000e+00	1.936890e+04	
1	5.000000e-02	2.157017e+04	
2	1.000000e-01	2.432770e+04	
3	1.500000e-01	2.788260e+04	
4	2.000000e-01	3.263848e+04	
5	2.500000e-01	3.932533e+04	
6	3.000000e-01	4.940895e+04	
7	3.500000e-01	6.630239e+04	
8	4.000000e-01	9.990439e+04	
9	4.500000e-01	1.895687e+05	
10	5.000000e-01	5.321281e+05	
11	5.500000e-01	1.693972e+06	
12	6.000000e-01	3.836067e+06	
13	6.500000e-01	6.294231e+06	
14	7.000000e-01	8.571371e+06	
15	7.500000e-01	1.053588e+07	
16	8.000000e-01	1.220563e+07	
17	8.500000e-01	1.363080e+07	
18	9.000000e-01	1.485898e+07	
19	9.500000e-01	1.592847e+07	
20	1.000000e+00	1.686888e+07	
21	1.050000e+00	1.770300e+07	
22	1.100000e+00	1.844850e+07	
23	1.150000e+00	1.911928e+07	
24	1.200000e+00	1.972639e+07	
25	1.250000e+00	2.027877e+07	
26	1.300000e+00	2.078370e+07	
27	1.350000e+00	2.124719e+07	
28	1.400000e+00	2.167427e+07	
29	1.450000e+00	2.206915e+07	
30	1.500000e+00	2.243541e+07	
31	1.550000e+00	2.277611e+07	
32	1.600000e+00	2.309387e+07	
33	1.650000e+00	2.339096e+07	
34	1.700000e+00	2.366937e+07	
35	1.750000e+00	2.393082e+07	
36	1.800000e+00	2.417683e+07	
37	1.850000e+00	2.440874e+07	
38	1.900000e+00	2.462774e+07	
39	1.950000e+00	2.483486e+07	
40	2.000000e+00	2.503105e+07	
41	2.050000e+00	2.521712e+07	
42	2.100000e+00	2.539379e+07	
43	2.150000e+00	2.556169e+07	
44	2.200000e+00	2.572133e+07	
45	2.250000e+00	2.587315e+07	
46	2.300000e+00	2.601745e+07	
47	2.350000e+00	2.615444e+07	
48	2.400000e+00	2.628418e+07	
49	2.450000e+00	2.640659e+07	
50	2.500000e+00	2.652140e+07	
51	2.550000e+00	2.662818e+07	
52	2.600000e+00	2.672626e+07	
53	2.650000e+00	2.681474e+07	
54	2.700000e+00	2.689248e+07	

Index   v-sweep         rds             
--------------------------------------------------------------------------------
55	2.750000e+00	2.695803e+07	
56	2.800000e+00	2.700967e+07	
57	2.850000e+00	2.704537e+07	
58	2.900000e+00	2.706279e+07	
59	2.950000e+00	2.705932e+07	
60	3.000000e+00	2.703204e+07	
61	3.050000e+00	2.697785e+07	
62	3.100000e+00	2.689342e+07	
63	3.150000e+00	2.677538e+07	
64	3.200000e+00	2.662030e+07	
65	3.250000e+00	2.642489e+07	
66	3.300000e+00	2.618609e+07	
Reset re-loads circuit ***************************

Circuit: ***************************

Doing analysis at TEMP = 25.000000 and TNOM = 25.000000


No. of Data Rows : 67
                          ***************************
                          DC transfer characteristic  Mon Jan  9 13:57:19  2023
--------------------------------------------------------------------------------
Index   v-sweep         rds             
--------------------------------------------------------------------------------
0	0.000000e+00	1.154896e+04	
1	5.000000e-02	1.225273e+04	
2	1.000000e-01	1.304578e+04	
3	1.500000e-01	1.394623e+04	
4	2.000000e-01	1.497748e+04	
5	2.500000e-01	1.617026e+04	
6	3.000000e-01	1.756572e+04	
7	3.500000e-01	1.922029e+04	
8	4.000000e-01	2.121344e+04	
9	4.500000e-01	2.366081e+04	
10	5.000000e-01	2.673733e+04	
11	5.500000e-01	3.072055e+04	
12	6.000000e-01	3.607818e+04	
13	6.500000e-01	4.366177e+04	
14	7.000000e-01	5.518820e+04	
15	7.500000e-01	7.462377e+04	
16	8.000000e-01	1.128560e+05	
17	8.500000e-01	2.046252e+05	
18	9.000000e-01	4.478080e+05	
19	9.500000e-01	9.670043e+05	
20	1.000000e+00	1.731100e+06	
21	1.050000e+00	2.591591e+06	
22	1.100000e+00	3.440336e+06	
23	1.150000e+00	4.232402e+06	
24	1.200000e+00	4.956566e+06	
25	1.250000e+00	5.614790e+06	
26	1.300000e+00	6.213188e+06	
27	1.350000e+00	6.758603e+06	
28	1.400000e+00	7.257435e+06	
29	1.450000e+00	7.715323e+06	
30	1.500000e+00	8.137124e+06	
31	1.550000e+00	8.526989e+06	
32	1.600000e+00	8.888469e+06	
33	1.650000e+00	9.224608e+06	
34	1.700000e+00	9.538025e+06	
35	1.750000e+00	9.830989e+06	
36	1.800000e+00	1.010547e+07	
37	1.850000e+00	1.036319e+07	
38	1.900000e+00	1.060566e+07	
39	1.950000e+00	1.083421e+07	
40	2.000000e+00	1.105002e+07	
41	2.050000e+00	1.125414e+07	
42	2.100000e+00	1.144750e+07	
43	2.150000e+00	1.163095e+07	
44	2.200000e+00	1.180522e+07	
45	2.250000e+00	1.197099e+07	
46	2.300000e+00	1.212887e+07	
47	2.350000e+00	1.227941e+07	
48	2.400000e+00	1.242309e+07	
49	2.450000e+00	1.256035e+07	
50	2.500000e+00	1.269158e+07	
51	2.550000e+00	1.281708e+07	
52	2.600000e+00	1.293715e+07	
53	2.650000e+00	1.305197e+07	
54	2.700000e+00	1.316168e+07	

Index   v-sweep         rds             
--------------------------------------------------------------------------------
55	2.750000e+00	1.326631e+07	
56	2.800000e+00	1.336581e+07	
57	2.850000e+00	1.346000e+07	
58	2.900000e+00	1.354857e+07	
59	2.950000e+00	1.363106e+07	
60	3.000000e+00	1.370682e+07	
61	3.050000e+00	1.377501e+07	
62	3.100000e+00	1.383460e+07	
63	3.150000e+00	1.388431e+07	
64	3.200000e+00	1.392264e+07	
65	3.250000e+00	1.394784e+07	
66	3.300000e+00	1.395797e+07	
Reset re-loads circuit ***************************

Circuit: ***************************

Doing analysis at TEMP = 25.000000 and TNOM = 25.000000


No. of Data Rows : 67
                          ***************************
                          DC transfer characteristic  Mon Jan  9 13:57:19  2023
--------------------------------------------------------------------------------
Index   v-sweep         rds             
--------------------------------------------------------------------------------
0	0.000000e+00	8.674121e+03	
1	5.000000e-02	9.027543e+03	
2	1.000000e-01	9.410076e+03	
3	1.500000e-01	9.825470e+03	
4	2.000000e-01	1.027815e+04	
5	2.500000e-01	1.077337e+04	
6	3.000000e-01	1.131741e+04	
7	3.500000e-01	1.191788e+04	
8	4.000000e-01	1.258404e+04	
9	4.500000e-01	1.332727e+04	
10	5.000000e-01	1.416177e+04	
11	5.500000e-01	1.510545e+04	
12	6.000000e-01	1.618123e+04	
13	6.500000e-01	1.741892e+04	
14	7.000000e-01	1.885800e+04	
15	7.500000e-01	2.055195e+04	
16	8.000000e-01	2.257496e+04	
17	8.500000e-01	2.503302e+04	
18	9.000000e-01	2.808296e+04	
19	9.500000e-01	3.196674e+04	
20	1.000000e+00	3.707761e+04	
21	1.050000e+00	4.409737e+04	
22	1.100000e+00	5.430841e+04	
23	1.150000e+00	7.037995e+04	
24	1.200000e+00	9.854003e+04	
25	1.250000e+00	1.545212e+05	
26	1.300000e+00	2.740686e+05	
27	1.350000e+00	5.044005e+05	
28	1.400000e+00	8.525716e+05	
29	1.450000e+00	1.274263e+06	
30	1.500000e+00	1.720750e+06	
31	1.550000e+00	2.162381e+06	
32	1.600000e+00	2.585379e+06	
33	1.650000e+00	2.984636e+06	
34	1.700000e+00	3.359134e+06	
35	1.750000e+00	3.709647e+06	
36	1.800000e+00	4.037661e+06	
37	1.850000e+00	4.344881e+06	
38	1.900000e+00	4.633011e+06	
39	1.950000e+00	4.903660e+06	
40	2.000000e+00	5.158306e+06	
41	2.050000e+00	5.398293e+06	
42	2.100000e+00	5.624831e+06	
43	2.150000e+00	5.839010e+06	
44	2.200000e+00	6.041810e+06	
45	2.250000e+00	6.234111e+06	
46	2.300000e+00	6.416708e+06	
47	2.350000e+00	6.590318e+06	
48	2.400000e+00	6.755589e+06	
49	2.450000e+00	6.913110e+06	
50	2.500000e+00	7.063414e+06	
51	2.550000e+00	7.206987e+06	
52	2.600000e+00	7.344272e+06	
53	2.650000e+00	7.475672e+06	
54	2.700000e+00	7.601556e+06	

Index   v-sweep         rds             
--------------------------------------------------------------------------------
55	2.750000e+00	7.722260e+06	
56	2.800000e+00	7.838087e+06	
57	2.850000e+00	7.949310e+06	
58	2.900000e+00	8.056171e+06	
59	2.950000e+00	8.158875e+06	
60	3.000000e+00	8.257591e+06	
61	3.050000e+00	8.352440e+06	
62	3.100000e+00	8.443493e+06	
63	3.150000e+00	8.530754e+06	
64	3.200000e+00	8.614154e+06	
65	3.250000e+00	8.693531e+06	
66	3.300000e+00	8.768619e+06	
Reset re-loads circuit ***************************

Circuit: ***************************

Doing analysis at TEMP = 25.000000 and TNOM = 25.000000


No. of Data Rows : 67
                          ***************************
                          DC transfer characteristic  Mon Jan  9 13:57:19  2023
--------------------------------------------------------------------------------
Index   v-sweep         rds             
--------------------------------------------------------------------------------
0	0.000000e+00	7.274161e+03	
1	5.000000e-02	7.492606e+03	
2	1.000000e-01	7.724070e+03	
3	1.500000e-01	7.969753e+03	
4	2.000000e-01	8.231006e+03	
5	2.500000e-01	8.509357e+03	
6	3.000000e-01	8.806541e+03	
7	3.500000e-01	9.124536e+03	
8	4.000000e-01	9.465607e+03	
9	4.500000e-01	9.832361e+03	
10	5.000000e-01	1.022781e+04	
11	5.500000e-01	1.065546e+04	
12	6.000000e-01	1.111941e+04	
13	6.500000e-01	1.162448e+04	
14	7.000000e-01	1.217640e+04	
15	7.500000e-01	1.278200e+04	
16	8.000000e-01	1.344951e+04	
17	8.500000e-01	1.418892e+04	
18	9.000000e-01	1.501253e+04	
19	9.500000e-01	1.593556e+04	
20	1.000000e+00	1.697717e+04	
21	1.050000e+00	1.816177e+04	
22	1.100000e+00	1.952095e+04	
23	1.150000e+00	2.109633e+04	
24	1.200000e+00	2.294388e+04	
25	1.250000e+00	2.514068e+04	
26	1.300000e+00	2.779582e+04	
27	1.350000e+00	3.106883e+04	
28	1.400000e+00	3.520233e+04	
29	1.450000e+00	4.058312e+04	
30	1.500000e+00	4.786436e+04	
31	1.550000e+00	5.822806e+04	
32	1.600000e+00	7.398987e+04	
33	1.650000e+00	1.000374e+05	
34	1.700000e+00	1.468706e+05	
35	1.750000e+00	2.337116e+05	
36	1.800000e+00	3.813488e+05	
37	1.850000e+00	5.920861e+05	
38	1.900000e+00	8.468581e+05	
39	1.950000e+00	1.122643e+06	
40	2.000000e+00	1.403119e+06	
41	2.050000e+00	1.679050e+06	
42	2.100000e+00	1.945814e+06	
43	2.150000e+00	2.201373e+06	
44	2.200000e+00	2.445057e+06	
45	2.250000e+00	2.676899e+06	
46	2.300000e+00	2.897283e+06	
47	2.350000e+00	3.106759e+06	
48	2.400000e+00	3.305941e+06	
49	2.450000e+00	3.495457e+06	
50	2.500000e+00	3.675919e+06	
51	2.550000e+00	3.847910e+06	
52	2.600000e+00	4.011978e+06	
53	2.650000e+00	4.168635e+06	
54	2.700000e+00	4.318353e+06	

Index   v-sweep         rds             
--------------------------------------------------------------------------------
55	2.750000e+00	4.461572e+06	
56	2.800000e+00	4.598696e+06	
57	2.850000e+00	4.730099e+06	
58	2.900000e+00	4.856127e+06	
59	2.950000e+00	4.977100e+06	
60	3.000000e+00	5.093312e+06	
61	3.050000e+00	5.205036e+06	
62	3.100000e+00	5.312523e+06	
63	3.150000e+00	5.416007e+06	
64	3.200000e+00	5.515702e+06	
65	3.250000e+00	5.611802e+06	
66	3.300000e+00	5.704483e+06	
Reset re-loads circuit ***************************

Circuit: ***************************

Doing analysis at TEMP = 25.000000 and TNOM = 25.000000


No. of Data Rows : 67
                          ***************************
                          DC transfer characteristic  Mon Jan  9 13:57:19  2023
--------------------------------------------------------------------------------
Index   v-sweep         rds             
--------------------------------------------------------------------------------
0	0.000000e+00	6.508951e+03	
1	5.000000e-02	6.661028e+03	
2	1.000000e-01	6.820063e+03	
3	1.500000e-01	6.986544e+03	
4	2.000000e-01	7.161007e+03	
5	2.500000e-01	7.344039e+03	
6	3.000000e-01	7.536288e+03	
7	3.500000e-01	7.738468e+03	
8	4.000000e-01	7.951368e+03	
9	4.500000e-01	8.175864e+03	
10	5.000000e-01	8.412929e+03	
11	5.500000e-01	8.663651e+03	
12	6.000000e-01	8.929243e+03	
13	6.500000e-01	9.211068e+03	
14	7.000000e-01	9.510662e+03	
15	7.500000e-01	9.829760e+03	
16	8.000000e-01	1.017033e+04	
17	8.500000e-01	1.053461e+04	
18	9.000000e-01	1.092518e+04	
19	9.500000e-01	1.134497e+04	
20	1.000000e+00	1.179740e+04	
21	1.050000e+00	1.228643e+04	
22	1.100000e+00	1.281668e+04	
23	1.150000e+00	1.339359e+04	
24	1.200000e+00	1.402362e+04	
25	1.250000e+00	1.471444e+04	
26	1.300000e+00	1.547529e+04	
27	1.350000e+00	1.631740e+04	
28	1.400000e+00	1.725451e+04	
29	1.450000e+00	1.830364e+04	
30	1.500000e+00	1.948615e+04	
31	1.550000e+00	2.082919e+04	
32	1.600000e+00	2.236780e+04	
33	1.650000e+00	2.414800e+04	
34	1.700000e+00	2.623144e+04	
35	1.750000e+00	2.870265e+04	
36	1.800000e+00	3.168060e+04	
37	1.850000e+00	3.533812e+04	
38	1.900000e+00	3.993573e+04	
39	1.950000e+00	4.588373e+04	
40	2.000000e+00	5.386270e+04	
41	2.050000e+00	6.506971e+04	
42	2.100000e+00	8.173804e+04	
43	2.150000e+00	1.081864e+05	
44	2.200000e+00	1.523984e+05	
45	2.250000e+00	2.260852e+05	
46	2.300000e+00	3.386975e+05	
47	2.350000e+00	4.889549e+05	
48	2.400000e+00	6.660767e+05	
49	2.450000e+00	8.577573e+05	
50	2.500000e+00	1.054748e+06	
51	2.550000e+00	1.251257e+06	
52	2.600000e+00	1.443975e+06	
53	2.650000e+00	1.631130e+06	
54	2.700000e+00	1.811855e+06	

Index   v-sweep         rds             
--------------------------------------------------------------------------------
55	2.750000e+00	1.985802e+06	
56	2.800000e+00	2.152925e+06	
57	2.850000e+00	2.313344e+06	
58	2.900000e+00	2.467274e+06	
59	2.950000e+00	2.614977e+06	
60	3.000000e+00	2.756738e+06	
61	3.050000e+00	2.892848e+06	
62	3.100000e+00	3.023595e+06	
63	3.150000e+00	3.149256e+06	
64	3.200000e+00	3.270098e+06	
65	3.250000e+00	3.386377e+06	
66	3.300000e+00	3.498331e+06	
Reset re-loads circuit ***************************

Circuit: ***************************

Note: No ".plot", ".print", or ".fourier" lines; no simulations run
