
Note: Compatibility modes selected: hs

Warning: m=xx on .subckt line will override multiplier m hierarchy!


Circuit: ***************************

Doing analysis at TEMP = 125.000000 and TNOM = 125.000000


No. of Data Rows : 67
                          ***************************
                          DC transfer characteristic  Mon Jan  9 13:57:20  2023
--------------------------------------------------------------------------------
Index   v-sweep         rds             
--------------------------------------------------------------------------------
0	0.000000e+00	1.268616e+04	
1	5.000000e-02	1.579445e+04	
2	1.000000e-01	2.045906e+04	
3	1.500000e-01	2.804866e+04	
4	2.000000e-01	4.147929e+04	
5	2.500000e-01	6.563115e+04	
6	3.000000e-01	1.024636e+05	
7	3.500000e-01	1.439200e+05	
8	4.000000e-01	1.803259e+05	
9	4.500000e-01	2.087965e+05	
10	5.000000e-01	2.303802e+05	
11	5.500000e-01	2.467942e+05	
12	6.000000e-01	2.594426e+05	
13	6.500000e-01	2.693305e+05	
14	7.000000e-01	2.771596e+05	
15	7.500000e-01	2.834228e+05	
16	8.000000e-01	2.884730e+05	
17	8.500000e-01	2.925674e+05	
18	9.000000e-01	2.958973e+05	
19	9.500000e-01	2.986078e+05	
20	1.000000e+00	3.008105e+05	
21	1.050000e+00	3.025927e+05	
22	1.100000e+00	3.040234e+05	
23	1.150000e+00	3.051581e+05	
24	1.200000e+00	3.060416e+05	
25	1.250000e+00	3.067107e+05	
26	1.300000e+00	3.071957e+05	
27	1.350000e+00	3.075218e+05	
28	1.400000e+00	3.077102e+05	
29	1.450000e+00	3.077788e+05	
30	1.500000e+00	3.077427e+05	
31	1.550000e+00	3.076148e+05	
32	1.600000e+00	3.074063e+05	
33	1.650000e+00	3.071268e+05	
34	1.700000e+00	3.067846e+05	
35	1.750000e+00	3.063868e+05	
36	1.800000e+00	3.059397e+05	
37	1.850000e+00	3.054487e+05	
38	1.900000e+00	3.049184e+05	
39	1.950000e+00	3.043526e+05	
40	2.000000e+00	3.037546e+05	
41	2.050000e+00	3.031270e+05	
42	2.100000e+00	3.024714e+05	
43	2.150000e+00	3.017890e+05	
44	2.200000e+00	3.010799e+05	
45	2.250000e+00	3.003433e+05	
46	2.300000e+00	2.995775e+05	
47	2.350000e+00	2.987796e+05	
48	2.400000e+00	2.979451e+05	
49	2.450000e+00	2.970686e+05	
50	2.500000e+00	2.961428e+05	
51	2.550000e+00	2.951588e+05	
52	2.600000e+00	2.941059e+05	
53	2.650000e+00	2.929716e+05	
54	2.700000e+00	2.917414e+05	

Index   v-sweep         rds             
--------------------------------------------------------------------------------
55	2.750000e+00	2.903989e+05	
56	2.800000e+00	2.889258e+05	
57	2.850000e+00	2.873021e+05	
58	2.900000e+00	2.855061e+05	
59	2.950000e+00	2.835147e+05	
60	3.000000e+00	2.813042e+05	
61	3.050000e+00	2.788501e+05	
62	3.100000e+00	2.761281e+05	
63	3.150000e+00	2.731147e+05	
64	3.200000e+00	2.697878e+05	
65	3.250000e+00	2.661279e+05	
66	3.300000e+00	2.621186e+05	
Reset re-loads circuit ***************************

Circuit: ***************************

Doing analysis at TEMP = 125.000000 and TNOM = 125.000000


No. of Data Rows : 67
                          ***************************
                          DC transfer characteristic  Mon Jan  9 13:57:20  2023
--------------------------------------------------------------------------------
Index   v-sweep         rds             
--------------------------------------------------------------------------------
0	0.000000e+00	4.749852e+03	
1	5.000000e-02	5.248540e+03	
2	1.000000e-01	5.828652e+03	
3	1.500000e-01	6.511476e+03	
4	2.000000e-01	7.326378e+03	
5	2.500000e-01	8.314967e+03	
6	3.000000e-01	9.538002e+03	
7	3.500000e-01	1.108714e+04	
8	4.000000e-01	1.310487e+04	
9	4.500000e-01	1.581544e+04	
10	5.000000e-01	1.955649e+04	
11	5.500000e-01	2.474873e+04	
12	6.000000e-01	3.167893e+04	
13	6.500000e-01	4.016161e+04	
14	7.000000e-01	4.952131e+04	
15	7.500000e-01	5.898710e+04	
16	8.000000e-01	6.801508e+04	
17	8.500000e-01	7.633299e+04	
18	9.000000e-01	8.385532e+04	
19	9.500000e-01	9.059690e+04	
20	1.000000e+00	9.661739e+04	
21	1.050000e+00	1.019916e+05	
22	1.100000e+00	1.067952e+05	
23	1.150000e+00	1.110983e+05	
24	1.200000e+00	1.149636e+05	
25	1.250000e+00	1.184456e+05	
26	1.300000e+00	1.215916e+05	
27	1.350000e+00	1.244422e+05	
28	1.400000e+00	1.270324e+05	
29	1.450000e+00	1.293922e+05	
30	1.500000e+00	1.315474e+05	
31	1.550000e+00	1.335204e+05	
32	1.600000e+00	1.353306e+05	
33	1.650000e+00	1.369948e+05	
34	1.700000e+00	1.385277e+05	
35	1.750000e+00	1.399421e+05	
36	1.800000e+00	1.412494e+05	
37	1.850000e+00	1.424596e+05	
38	1.900000e+00	1.435813e+05	
39	1.950000e+00	1.446224e+05	
40	2.000000e+00	1.455898e+05	
41	2.050000e+00	1.464896e+05	
42	2.100000e+00	1.473272e+05	
43	2.150000e+00	1.481075e+05	
44	2.200000e+00	1.488347e+05	
45	2.250000e+00	1.495122e+05	
46	2.300000e+00	1.501431e+05	
47	2.350000e+00	1.507297e+05	
48	2.400000e+00	1.512736e+05	
49	2.450000e+00	1.517757e+05	
50	2.500000e+00	1.522357e+05	
51	2.550000e+00	1.526526e+05	
52	2.600000e+00	1.530241e+05	
53	2.650000e+00	1.533465e+05	
54	2.700000e+00	1.536147e+05	

Index   v-sweep         rds             
--------------------------------------------------------------------------------
55	2.750000e+00	1.538219e+05	
56	2.800000e+00	1.539593e+05	
57	2.850000e+00	1.540164e+05	
58	2.900000e+00	1.539804e+05	
59	2.950000e+00	1.538366e+05	
60	3.000000e+00	1.535680e+05	
61	3.050000e+00	1.531557e+05	
62	3.100000e+00	1.525791e+05	
63	3.150000e+00	1.518164e+05	
64	3.200000e+00	1.508446e+05	
65	3.250000e+00	1.496408e+05	
66	3.300000e+00	1.481828e+05	
Reset re-loads circuit ***************************

Circuit: ***************************

Doing analysis at TEMP = 125.000000 and TNOM = 125.000000


No. of Data Rows : 67
                          ***************************
                          DC transfer characteristic  Mon Jan  9 13:57:20  2023
--------------------------------------------------------------------------------
Index   v-sweep         rds             
--------------------------------------------------------------------------------
0	0.000000e+00	3.226691e+03	
1	5.000000e-02	3.461227e+03	
2	1.000000e-01	3.719332e+03	
3	1.500000e-01	4.004651e+03	
4	2.000000e-01	4.321629e+03	
5	2.500000e-01	4.675748e+03	
6	3.000000e-01	5.073859e+03	
7	3.500000e-01	5.524650e+03	
8	4.000000e-01	6.039341e+03	
9	4.500000e-01	6.632725e+03	
10	5.000000e-01	7.324816e+03	
11	5.500000e-01	8.143523e+03	
12	6.000000e-01	9.129098e+03	
13	6.500000e-01	1.034141e+04	
14	7.000000e-01	1.187062e+04	
15	7.500000e-01	1.384757e+04	
16	8.000000e-01	1.643725e+04	
17	8.500000e-01	1.978641e+04	
18	9.000000e-01	2.392860e+04	
19	9.500000e-01	2.872942e+04	
20	1.000000e+00	3.393910e+04	
21	1.050000e+00	3.929601e+04	
22	1.100000e+00	4.459455e+04	
23	1.150000e+00	4.970056e+04	
24	1.200000e+00	5.453925e+04	
25	1.250000e+00	5.907696e+04	
26	1.300000e+00	6.330581e+04	
27	1.350000e+00	6.723292e+04	
28	1.400000e+00	7.087346e+04	
29	1.450000e+00	7.424643e+04	
30	1.500000e+00	7.737212e+04	
31	1.550000e+00	8.027072e+04	
32	1.600000e+00	8.296148e+04	
33	1.650000e+00	8.546238e+04	
34	1.700000e+00	8.778996e+04	
35	1.750000e+00	8.995929e+04	
36	1.800000e+00	9.198405e+04	
37	1.850000e+00	9.387659e+04	
38	1.900000e+00	9.564805e+04	
39	1.950000e+00	9.730850e+04	
40	2.000000e+00	9.886699e+04	
41	2.050000e+00	1.003317e+05	
42	2.100000e+00	1.017100e+05	
43	2.150000e+00	1.030085e+05	
44	2.200000e+00	1.042334e+05	
45	2.250000e+00	1.053899e+05	
46	2.300000e+00	1.064831e+05	
47	2.350000e+00	1.075173e+05	
48	2.400000e+00	1.084965e+05	
49	2.450000e+00	1.094241e+05	
50	2.500000e+00	1.103030e+05	
51	2.550000e+00	1.111357e+05	
52	2.600000e+00	1.119239e+05	
53	2.650000e+00	1.126688e+05	
54	2.700000e+00	1.133706e+05	

Index   v-sweep         rds             
--------------------------------------------------------------------------------
55	2.750000e+00	1.140286e+05	
56	2.800000e+00	1.146411e+05	
57	2.850000e+00	1.152048e+05	
58	2.900000e+00	1.157153e+05	
59	2.950000e+00	1.161662e+05	
60	3.000000e+00	1.165492e+05	
61	3.050000e+00	1.168541e+05	
62	3.100000e+00	1.170681e+05	
63	3.150000e+00	1.171765e+05	
64	3.200000e+00	1.171619e+05	
65	3.250000e+00	1.170052e+05	
66	3.300000e+00	1.166848e+05	
Reset re-loads circuit ***************************

Circuit: ***************************

Doing analysis at TEMP = 125.000000 and TNOM = 125.000000


No. of Data Rows : 67
                          ***************************
                          DC transfer characteristic  Mon Jan  9 13:57:20  2023
--------------------------------------------------------------------------------
Index   v-sweep         rds             
--------------------------------------------------------------------------------
0	0.000000e+00	2.587318e+03	
1	5.000000e-02	2.735504e+03	
2	1.000000e-01	2.894621e+03	
3	1.500000e-01	3.065882e+03	
4	2.000000e-01	3.250684e+03	
5	2.500000e-01	3.450656e+03	
6	3.000000e-01	3.667704e+03	
7	3.500000e-01	3.904077e+03	
8	4.000000e-01	4.162452e+03	
9	4.500000e-01	4.446050e+03	
10	5.000000e-01	4.758795e+03	
11	5.500000e-01	5.105538e+03	
12	6.000000e-01	5.492392e+03	
13	6.500000e-01	5.927235e+03	
14	7.000000e-01	6.420514e+03	
15	7.500000e-01	6.986546e+03	
16	8.000000e-01	7.645681e+03	
17	8.500000e-01	8.427795e+03	
18	9.000000e-01	9.377527e+03	
19	9.500000e-01	1.056036e+04	
20	1.000000e+00	1.206478e+04	
21	1.050000e+00	1.398988e+04	
22	1.100000e+00	1.641013e+04	
23	1.150000e+00	1.933228e+04	
24	1.200000e+00	2.268103e+04	
25	1.250000e+00	2.632693e+04	
26	1.300000e+00	3.013016e+04	
27	1.350000e+00	3.397104e+04	
28	1.400000e+00	3.776092e+04	
29	1.450000e+00	4.144060e+04	
30	1.500000e+00	4.497413e+04	
31	1.550000e+00	4.834230e+04	
32	1.600000e+00	5.153719e+04	
33	1.650000e+00	5.455825e+04	
34	1.700000e+00	5.740951e+04	
35	1.750000e+00	6.009773e+04	
36	1.800000e+00	6.263114e+04	
37	1.850000e+00	6.501866e+04	
38	1.900000e+00	6.726938e+04	
39	1.950000e+00	6.939224e+04	
40	2.000000e+00	7.139585e+04	
41	2.050000e+00	7.328835e+04	
42	2.100000e+00	7.507741e+04	
43	2.150000e+00	7.677018e+04	
44	2.200000e+00	7.837327e+04	
45	2.250000e+00	7.989283e+04	
46	2.300000e+00	8.133453e+04	
47	2.350000e+00	8.270359e+04	
48	2.400000e+00	8.400481e+04	
49	2.450000e+00	8.524262e+04	
50	2.500000e+00	8.642106e+04	
51	2.550000e+00	8.754383e+04	
52	2.600000e+00	8.861425e+04	
53	2.650000e+00	8.963528e+04	
54	2.700000e+00	9.060949e+04	

Index   v-sweep         rds             
--------------------------------------------------------------------------------
55	2.750000e+00	9.153897e+04	
56	2.800000e+00	9.242532e+04	
57	2.850000e+00	9.326949e+04	
58	2.900000e+00	9.407168e+04	
59	2.950000e+00	9.483121e+04	
60	3.000000e+00	9.554628e+04	
61	3.050000e+00	9.621382e+04	
62	3.100000e+00	9.682921e+04	
63	3.150000e+00	9.738610e+04	
64	3.200000e+00	9.787614e+04	
65	3.250000e+00	9.828878e+04	
66	3.300000e+00	9.861110e+04	
Reset re-loads circuit ***************************

Circuit: ***************************

Doing analysis at TEMP = 125.000000 and TNOM = 125.000000


No. of Data Rows : 67
                          ***************************
                          DC transfer characteristic  Mon Jan  9 13:57:20  2023
--------------------------------------------------------------------------------
Index   v-sweep         rds             
--------------------------------------------------------------------------------
0	0.000000e+00	2.236842e+03	
1	5.000000e-02	2.343925e+03	
2	1.000000e-01	2.457300e+03	
3	1.500000e-01	2.577514e+03	
4	2.000000e-01	2.705179e+03	
5	2.500000e-01	2.840982e+03	
6	3.000000e-01	2.985703e+03	
7	3.500000e-01	3.140227e+03	
8	4.000000e-01	3.305562e+03	
9	4.500000e-01	3.482867e+03	
10	5.000000e-01	3.673484e+03	
11	5.500000e-01	3.878973e+03	
12	6.000000e-01	4.101175e+03	
13	6.500000e-01	4.342276e+03	
14	7.000000e-01	4.604921e+03	
15	7.500000e-01	4.892357e+03	
16	8.000000e-01	5.208665e+03	
17	8.500000e-01	5.559108e+03	
18	9.000000e-01	5.950685e+03	
19	9.500000e-01	6.393039e+03	
20	1.000000e+00	6.899905e+03	
21	1.050000e+00	7.491394e+03	
22	1.100000e+00	8.197255e+03	
23	1.150000e+00	9.060573e+03	
24	1.200000e+00	1.013948e+04	
25	1.250000e+00	1.150172e+04	
26	1.300000e+00	1.320729e+04	
27	1.350000e+00	1.528342e+04	
28	1.400000e+00	1.770842e+04	
29	1.450000e+00	2.041721e+04	
30	1.500000e+00	2.332289e+04	
31	1.550000e+00	2.633861e+04	
32	1.600000e+00	2.939067e+04	
33	1.650000e+00	3.242276e+04	
34	1.700000e+00	3.539496e+04	
35	1.750000e+00	3.828079e+04	
36	1.800000e+00	4.106390e+04	
37	1.850000e+00	4.373526e+04	
38	1.900000e+00	4.629098e+04	
39	1.950000e+00	4.873068e+04	
40	2.000000e+00	5.105625e+04	
41	2.050000e+00	5.327110e+04	
42	2.100000e+00	5.537954e+04	
43	2.150000e+00	5.738639e+04	
44	2.200000e+00	5.929671e+04	
45	2.250000e+00	6.111559e+04	
46	2.300000e+00	6.284806e+04	
47	2.350000e+00	6.449901e+04	
48	2.400000e+00	6.607311e+04	
49	2.450000e+00	6.757481e+04	
50	2.500000e+00	6.900832e+04	
51	2.550000e+00	7.037759e+04	
52	2.600000e+00	7.168635e+04	
53	2.650000e+00	7.293807e+04	
54	2.700000e+00	7.413595e+04	

Index   v-sweep         rds             
--------------------------------------------------------------------------------
55	2.750000e+00	7.528299e+04	
56	2.800000e+00	7.638189e+04	
57	2.850000e+00	7.743508e+04	
58	2.900000e+00	7.844466e+04	
59	2.950000e+00	7.941235e+04	
60	3.000000e+00	8.033939e+04	
61	3.050000e+00	8.122646e+04	
62	3.100000e+00	8.207353e+04	
63	3.150000e+00	8.287967e+04	
64	3.200000e+00	8.364290e+04	
65	3.250000e+00	8.435990e+04	
66	3.300000e+00	8.502582e+04	
Reset re-loads circuit ***************************

Circuit: ***************************

Doing analysis at TEMP = 125.000000 and TNOM = 125.000000


No. of Data Rows : 67
                          ***************************
                          DC transfer characteristic  Mon Jan  9 13:57:20  2023
--------------------------------------------------------------------------------
Index   v-sweep         rds             
--------------------------------------------------------------------------------
0	0.000000e+00	2.016320e+03	
1	5.000000e-02	2.099783e+03	
2	1.000000e-01	2.187341e+03	
3	1.500000e-01	2.279287e+03	
4	2.000000e-01	2.375944e+03	
5	2.500000e-01	2.477665e+03	
6	3.000000e-01	2.584843e+03	
7	3.500000e-01	2.697914e+03	
8	4.000000e-01	2.817360e+03	
9	4.500000e-01	2.943724e+03	
10	5.000000e-01	3.077611e+03	
11	5.500000e-01	3.219705e+03	
12	6.000000e-01	3.370782e+03	
13	6.500000e-01	3.531725e+03	
14	7.000000e-01	3.703551e+03	
15	7.500000e-01	3.887441e+03	
16	8.000000e-01	4.084780e+03	
17	8.500000e-01	4.297216e+03	
18	9.000000e-01	4.526747e+03	
19	9.500000e-01	4.775841e+03	
20	1.000000e+00	5.047630e+03	
21	1.050000e+00	5.346196e+03	
22	1.100000e+00	5.677042e+03	
23	1.150000e+00	6.047815e+03	
24	1.200000e+00	6.469460e+03	
25	1.250000e+00	6.957918e+03	
26	1.300000e+00	7.536422e+03	
27	1.350000e+00	8.237863e+03	
28	1.400000e+00	9.105616e+03	
29	1.450000e+00	1.018977e+04	
30	1.500000e+00	1.153617e+04	
31	1.550000e+00	1.317067e+04	
32	1.600000e+00	1.508738e+04	
33	1.650000e+00	1.724913e+04	
34	1.700000e+00	1.959893e+04	
35	1.750000e+00	2.207428e+04	
36	1.800000e+00	2.461768e+04	
37	1.850000e+00	2.718169e+04	
38	1.900000e+00	2.972992e+04	
39	1.950000e+00	3.223596e+04	
40	2.000000e+00	3.468158e+04	
41	2.050000e+00	3.705481e+04	
42	2.100000e+00	3.934837e+04	
43	2.150000e+00	4.155841e+04	
44	2.200000e+00	4.368350e+04	
45	2.250000e+00	4.572393e+04	
46	2.300000e+00	4.768114e+04	
47	2.350000e+00	4.955737e+04	
48	2.400000e+00	5.135537e+04	
49	2.450000e+00	5.307819e+04	
50	2.500000e+00	5.472901e+04	
51	2.550000e+00	5.631111e+04	
52	2.600000e+00	5.782772e+04	
53	2.650000e+00	5.928203e+04	
54	2.700000e+00	6.067713e+04	

Index   v-sweep         rds             
--------------------------------------------------------------------------------
55	2.750000e+00	6.201598e+04	
56	2.800000e+00	6.330141e+04	
57	2.850000e+00	6.453613e+04	
58	2.900000e+00	6.572265e+04	
59	2.950000e+00	6.686335e+04	
60	3.000000e+00	6.796039e+04	
61	3.050000e+00	6.901571e+04	
62	3.100000e+00	7.003098e+04	
63	3.150000e+00	7.100754e+04	
64	3.200000e+00	7.194626e+04	
65	3.250000e+00	7.284752e+04	
66	3.300000e+00	7.371095e+04	
Reset re-loads circuit ***************************

Circuit: ***************************

Note: No ".plot", ".print", or ".fourier" lines; no simulations run
