
Note: Compatibility modes selected: hs

Warning: m=xx on .subckt line will override multiplier m hierarchy!


Circuit: ***************************

Doing analysis at TEMP = -40.000000 and TNOM = -40.000000


No. of Data Rows : 67
                          ***************************
                          DC transfer characteristic  Mon Jan  9 13:57:20  2023
--------------------------------------------------------------------------------
Index   v-sweep         rds             
--------------------------------------------------------------------------------
0	0.000000e+00	1.408281e+05	
1	5.000000e-02	3.125232e+05	
2	1.000000e-01	1.674286e+06	
3	1.500000e-01	8.252158e+06	
4	2.000000e-01	1.655116e+07	
5	2.500000e-01	2.302443e+07	
6	3.000000e-01	2.790855e+07	
7	3.500000e-01	3.172923e+07	
8	4.000000e-01	3.482005e+07	
9	4.500000e-01	3.738444e+07	
10	5.000000e-01	3.955305e+07	
11	5.500000e-01	4.141444e+07	
12	6.000000e-01	4.303144e+07	
13	6.500000e-01	4.445017e+07	
14	7.000000e-01	4.570549e+07	
15	7.500000e-01	4.682431e+07	
16	8.000000e-01	4.782784e+07	
17	8.500000e-01	4.873303e+07	
18	9.000000e-01	4.955363e+07	
19	9.500000e-01	5.030089e+07	
20	1.000000e+00	5.098417e+07	
21	1.050000e+00	5.161125e+07	
22	1.100000e+00	5.218874e+07	
23	1.150000e+00	5.272220e+07	
24	1.200000e+00	5.321643e+07	
25	1.250000e+00	5.367553e+07	
26	1.300000e+00	5.410305e+07	
27	1.350000e+00	5.450209e+07	
28	1.400000e+00	5.487534e+07	
29	1.450000e+00	5.522518e+07	
30	1.500000e+00	5.555369e+07	
31	1.550000e+00	5.586269e+07	
32	1.600000e+00	5.615382e+07	
33	1.650000e+00	5.642850e+07	
34	1.700000e+00	5.668797e+07	
35	1.750000e+00	5.693332e+07	
36	1.800000e+00	5.716546e+07	
37	1.850000e+00	5.738513e+07	
38	1.900000e+00	5.759291e+07	
39	1.950000e+00	5.778918e+07	
40	2.000000e+00	5.797412e+07	
41	2.050000e+00	5.814765e+07	
42	2.100000e+00	5.830947e+07	
43	2.150000e+00	5.845896e+07	
44	2.200000e+00	5.859517e+07	
45	2.250000e+00	5.871681e+07	
46	2.300000e+00	5.882218e+07	
47	2.350000e+00	5.890916e+07	
48	2.400000e+00	5.897516e+07	
49	2.450000e+00	5.901713e+07	
50	2.500000e+00	5.903151e+07	
51	2.550000e+00	5.901428e+07	
52	2.600000e+00	5.896091e+07	
53	2.650000e+00	5.886645e+07	
54	2.700000e+00	5.872557e+07	

Index   v-sweep         rds             
--------------------------------------------------------------------------------
55	2.750000e+00	5.853262e+07	
56	2.800000e+00	5.828174e+07	
57	2.850000e+00	5.796703e+07	
58	2.900000e+00	5.758263e+07	
59	2.950000e+00	5.712298e+07	
60	3.000000e+00	5.658298e+07	
61	3.050000e+00	5.595820e+07	
62	3.100000e+00	5.524511e+07	
63	3.150000e+00	5.444127e+07	
64	3.200000e+00	5.354553e+07	
65	3.250000e+00	5.255817e+07	
66	3.300000e+00	5.148103e+07	
Reset re-loads circuit ***************************

Circuit: ***************************

Doing analysis at TEMP = -40.000000 and TNOM = -40.000000


No. of Data Rows : 67
                          ***************************
                          DC transfer characteristic  Mon Jan  9 13:57:20  2023
--------------------------------------------------------------------------------
Index   v-sweep         rds             
--------------------------------------------------------------------------------
0	0.000000e+00	1.920625e+04	
1	5.000000e-02	2.177265e+04	
2	1.000000e-01	2.501434e+04	
3	1.500000e-01	2.923672e+04	
4	2.000000e-01	3.496078e+04	
5	2.500000e-01	4.315070e+04	
6	3.000000e-01	5.579198e+04	
7	3.500000e-01	7.756538e+04	
8	4.000000e-01	1.209664e+05	
9	4.500000e-01	2.160925e+05	
10	5.000000e-01	3.948288e+05	
11	5.500000e-01	6.408188e+05	
12	6.000000e-01	9.144117e+05	
13	6.500000e-01	1.191419e+06	
14	7.000000e-01	1.461598e+06	
15	7.500000e-01	1.721119e+06	
16	8.000000e-01	1.968792e+06	
17	8.500000e-01	2.204526e+06	
18	9.000000e-01	2.428693e+06	
19	9.500000e-01	2.641855e+06	
20	1.000000e+00	2.844640e+06	
21	1.050000e+00	3.037684e+06	
22	1.100000e+00	3.221602e+06	
23	1.150000e+00	3.396976e+06	
24	1.200000e+00	3.564354e+06	
25	1.250000e+00	3.724243e+06	
26	1.300000e+00	3.877115e+06	
27	1.350000e+00	4.023405e+06	
28	1.400000e+00	4.163517e+06	
29	1.450000e+00	4.297822e+06	
30	1.500000e+00	4.426666e+06	
31	1.550000e+00	4.550367e+06	
32	1.600000e+00	4.669221e+06	
33	1.650000e+00	4.783501e+06	
34	1.700000e+00	4.893461e+06	
35	1.750000e+00	4.999337e+06	
36	1.800000e+00	5.101346e+06	
37	1.850000e+00	5.199691e+06	
38	1.900000e+00	5.294558e+06	
39	1.950000e+00	5.386119e+06	
40	2.000000e+00	5.474526e+06	
41	2.050000e+00	5.559914e+06	
42	2.100000e+00	5.642398e+06	
43	2.150000e+00	5.722065e+06	
44	2.200000e+00	5.798970e+06	
45	2.250000e+00	5.873129e+06	
46	2.300000e+00	5.944508e+06	
47	2.350000e+00	6.013012e+06	
48	2.400000e+00	6.078475e+06	
49	2.450000e+00	6.140638e+06	
50	2.500000e+00	6.199140e+06	
51	2.550000e+00	6.253500e+06	
52	2.600000e+00	6.303096e+06	
53	2.650000e+00	6.347159e+06	
54	2.700000e+00	6.384757e+06	

Index   v-sweep         rds             
--------------------------------------------------------------------------------
55	2.750000e+00	6.414789e+06	
56	2.800000e+00	6.435991e+06	
57	2.850000e+00	6.446946e+06	
58	2.900000e+00	6.446108e+06	
59	2.950000e+00	6.431849e+06	
60	3.000000e+00	6.402512e+06	
61	3.050000e+00	6.356488e+06	
62	3.100000e+00	6.292307e+06	
63	3.150000e+00	6.208743e+06	
64	3.200000e+00	6.104915e+06	
65	3.250000e+00	5.980391e+06	
66	3.300000e+00	5.835270e+06	
Reset re-loads circuit ***************************

Circuit: ***************************

Doing analysis at TEMP = -40.000000 and TNOM = -40.000000


No. of Data Rows : 67
                          ***************************
                          DC transfer characteristic  Mon Jan  9 13:57:20  2023
--------------------------------------------------------------------------------
Index   v-sweep         rds             
--------------------------------------------------------------------------------
0	0.000000e+00	1.105060e+04	
1	5.000000e-02	1.188336e+04	
2	1.000000e-01	1.282334e+04	
3	1.500000e-01	1.389257e+04	
4	2.000000e-01	1.511950e+04	
5	2.500000e-01	1.654166e+04	
6	3.000000e-01	1.820953e+04	
7	3.500000e-01	2.019273e+04	
8	4.000000e-01	2.259010e+04	
9	4.500000e-01	2.554702e+04	
10	5.000000e-01	2.928706e+04	
11	5.500000e-01	3.417398e+04	
12	6.000000e-01	4.084463e+04	
13	6.500000e-01	5.051977e+04	
14	7.000000e-01	6.574290e+04	
15	7.500000e-01	9.167205e+04	
16	8.000000e-01	1.356890e+05	
17	8.500000e-01	2.013210e+05	
18	9.000000e-01	2.843445e+05	
19	9.500000e-01	3.778197e+05	
20	1.000000e+00	4.763913e+05	
21	1.050000e+00	5.767645e+05	
22	1.100000e+00	6.770376e+05	
23	1.150000e+00	7.761262e+05	
24	1.200000e+00	8.734137e+05	
25	1.250000e+00	9.685553e+05	
26	1.300000e+00	1.061368e+06	
27	1.350000e+00	1.151767e+06	
28	1.400000e+00	1.239728e+06	
29	1.450000e+00	1.325266e+06	
30	1.500000e+00	1.408421e+06	
31	1.550000e+00	1.489244e+06	
32	1.600000e+00	1.567800e+06	
33	1.650000e+00	1.644157e+06	
34	1.700000e+00	1.718384e+06	
35	1.750000e+00	1.790555e+06	
36	1.800000e+00	1.860741e+06	
37	1.850000e+00	1.929011e+06	
38	1.900000e+00	1.995435e+06	
39	1.950000e+00	2.060079e+06	
40	2.000000e+00	2.123008e+06	
41	2.050000e+00	2.184283e+06	
42	2.100000e+00	2.243965e+06	
43	2.150000e+00	2.302111e+06	
44	2.200000e+00	2.358772e+06	
45	2.250000e+00	2.414001e+06	
46	2.300000e+00	2.467840e+06	
47	2.350000e+00	2.520329e+06	
48	2.400000e+00	2.571497e+06	
49	2.450000e+00	2.621364e+06	
50	2.500000e+00	2.669930e+06	
51	2.550000e+00	2.717179e+06	
52	2.600000e+00	2.763064e+06	
53	2.650000e+00	2.807502e+06	
54	2.700000e+00	2.850366e+06	

Index   v-sweep         rds             
--------------------------------------------------------------------------------
55	2.750000e+00	2.891473e+06	
56	2.800000e+00	2.930571e+06	
57	2.850000e+00	2.967326e+06	
58	2.900000e+00	3.001313e+06	
59	2.950000e+00	3.032001e+06	
60	3.000000e+00	3.058747e+06	
61	3.050000e+00	3.080789e+06	
62	3.100000e+00	3.097253e+06	
63	3.150000e+00	3.107158e+06	
64	3.200000e+00	3.109447e+06	
65	3.250000e+00	3.103017e+06	
66	3.300000e+00	3.086777e+06	
Reset re-loads circuit ***************************

Circuit: ***************************

Doing analysis at TEMP = -40.000000 and TNOM = -40.000000


No. of Data Rows : 67
                          ***************************
                          DC transfer characteristic  Mon Jan  9 13:57:20  2023
--------------------------------------------------------------------------------
Index   v-sweep         rds             
--------------------------------------------------------------------------------
0	0.000000e+00	8.303796e+03	
1	5.000000e-02	8.753368e+03	
2	1.000000e-01	9.241304e+03	
3	1.500000e-01	9.772679e+03	
4	2.000000e-01	1.035351e+04	
5	2.500000e-01	1.099097e+04	
6	3.000000e-01	1.169372e+04	
7	3.500000e-01	1.247226e+04	
8	4.000000e-01	1.333951e+04	
9	4.500000e-01	1.431150e+04	
10	5.000000e-01	1.540845e+04	
11	5.500000e-01	1.665617e+04	
12	6.000000e-01	1.808830e+04	
13	6.500000e-01	1.974958e+04	
14	7.000000e-01	2.170117e+04	
15	7.500000e-01	2.402952e+04	
16	8.000000e-01	2.686255e+04	
17	8.500000e-01	3.040125e+04	
18	9.000000e-01	3.498714e+04	
19	9.500000e-01	4.125442e+04	
20	1.000000e+00	5.045227e+04	
21	1.050000e+00	6.489372e+04	
22	1.100000e+00	8.771472e+04	
23	1.150000e+00	1.208815e+05	
24	1.200000e+00	1.635519e+05	
25	1.250000e+00	2.131784e+05	
26	1.300000e+00	2.672236e+05	
27	1.350000e+00	3.238034e+05	
28	1.400000e+00	3.816551e+05	
29	1.450000e+00	4.399579e+05	
30	1.500000e+00	4.981795e+05	
31	1.550000e+00	5.559727e+05	
32	1.600000e+00	6.131102e+05	
33	1.650000e+00	6.694431e+05	
34	1.700000e+00	7.248754e+05	
35	1.750000e+00	7.793464e+05	
36	1.800000e+00	8.328203e+05	
37	1.850000e+00	8.852788e+05	
38	1.900000e+00	9.367154e+05	
39	1.950000e+00	9.871326e+05	
40	2.000000e+00	1.036539e+06	
41	2.050000e+00	1.084948e+06	
42	2.100000e+00	1.132375e+06	
43	2.150000e+00	1.178838e+06	
44	2.200000e+00	1.224359e+06	
45	2.250000e+00	1.268956e+06	
46	2.300000e+00	1.312652e+06	
47	2.350000e+00	1.355469e+06	
48	2.400000e+00	1.397427e+06	
49	2.450000e+00	1.438547e+06	
50	2.500000e+00	1.478850e+06	
51	2.550000e+00	1.518355e+06	
52	2.600000e+00	1.557077e+06	
53	2.650000e+00	1.595030e+06	
54	2.700000e+00	1.632220e+06	

Index   v-sweep         rds             
--------------------------------------------------------------------------------
55	2.750000e+00	1.668647e+06	
56	2.800000e+00	1.704300e+06	
57	2.850000e+00	1.739151e+06	
58	2.900000e+00	1.773151e+06	
59	2.950000e+00	1.806225e+06	
60	3.000000e+00	1.838262e+06	
61	3.050000e+00	1.869104e+06	
62	3.100000e+00	1.898542e+06	
63	3.150000e+00	1.926299e+06	
64	3.200000e+00	1.952023e+06	
65	3.250000e+00	1.975279e+06	
66	3.300000e+00	1.995537e+06	
Reset re-loads circuit ***************************

Circuit: ***************************

Doing analysis at TEMP = -40.000000 and TNOM = -40.000000


No. of Data Rows : 67
                          ***************************
                          DC transfer characteristic  Mon Jan  9 13:57:20  2023
--------------------------------------------------------------------------------
Index   v-sweep         rds             
--------------------------------------------------------------------------------
0	0.000000e+00	7.000637e+03	
1	5.000000e-02	7.299207e+03	
2	1.000000e-01	7.616765e+03	
3	1.500000e-01	7.955155e+03	
4	2.000000e-01	8.316466e+03	
5	2.500000e-01	8.703078e+03	
6	3.000000e-01	9.117712e+03	
7	3.500000e-01	9.563498e+03	
8	4.000000e-01	1.004405e+04	
9	4.500000e-01	1.056357e+04	
10	5.000000e-01	1.112697e+04	
11	5.500000e-01	1.174003e+04	
12	6.000000e-01	1.240959e+04	
13	6.500000e-01	1.314386e+04	
14	7.000000e-01	1.395273e+04	
15	7.500000e-01	1.484825e+04	
16	8.000000e-01	1.584535e+04	
17	8.500000e-01	1.696274e+04	
18	9.000000e-01	1.822433e+04	
19	9.500000e-01	1.966146e+04	
20	1.000000e+00	2.131644e+04	
21	1.050000e+00	2.324885e+04	
22	1.100000e+00	2.554736e+04	
23	1.150000e+00	2.835357e+04	
24	1.200000e+00	3.191254e+04	
25	1.250000e+00	3.667906e+04	
26	1.300000e+00	4.350849e+04	
27	1.350000e+00	5.383943e+04	
28	1.400000e+00	6.943239e+04	
29	1.450000e+00	9.137453e+04	
30	1.500000e+00	1.193568e+05	
31	1.550000e+00	1.521152e+05	
32	1.600000e+00	1.882334e+05	
33	1.650000e+00	2.265481e+05	
34	1.700000e+00	2.662110e+05	
35	1.750000e+00	3.066301e+05	
36	1.800000e+00	3.473964e+05	
37	1.850000e+00	3.882267e+05	
38	1.900000e+00	4.289235e+05	
39	1.950000e+00	4.693483e+05	
40	2.000000e+00	5.094032e+05	
41	2.050000e+00	5.490194e+05	
42	2.100000e+00	5.881485e+05	
43	2.150000e+00	6.267570e+05	
44	2.200000e+00	6.648225e+05	
45	2.250000e+00	7.023307e+05	
46	2.300000e+00	7.392732e+05	
47	2.350000e+00	7.756462e+05	
48	2.400000e+00	8.114496e+05	
49	2.450000e+00	8.466857e+05	
50	2.500000e+00	8.813587e+05	
51	2.550000e+00	9.154746e+05	
52	2.600000e+00	9.490403e+05	
53	2.650000e+00	9.820636e+05	
54	2.700000e+00	1.014553e+06	

Index   v-sweep         rds             
--------------------------------------------------------------------------------
55	2.750000e+00	1.046516e+06	
56	2.800000e+00	1.077962e+06	
57	2.850000e+00	1.108897e+06	
58	2.900000e+00	1.139328e+06	
59	2.950000e+00	1.169258e+06	
60	3.000000e+00	1.198686e+06	
61	3.050000e+00	1.227604e+06	
62	3.100000e+00	1.255995e+06	
63	3.150000e+00	1.283830e+06	
64	3.200000e+00	1.311060e+06	
65	3.250000e+00	1.337615e+06	
66	3.300000e+00	1.363390e+06	
Reset re-loads circuit ***************************

Circuit: ***************************

Doing analysis at TEMP = -40.000000 and TNOM = -40.000000


No. of Data Rows : 67
                          ***************************
                          DC transfer characteristic  Mon Jan  9 13:57:20  2023
--------------------------------------------------------------------------------
Index   v-sweep         rds             
--------------------------------------------------------------------------------
0	0.000000e+00	6.289479e+03	
1	5.000000e-02	6.510884e+03	
2	1.000000e-01	6.743453e+03	
3	1.500000e-01	6.988035e+03	
4	2.000000e-01	7.245567e+03	
5	2.500000e-01	7.517088e+03	
6	3.000000e-01	7.803751e+03	
7	3.500000e-01	8.106841e+03	
8	4.000000e-01	8.427790e+03	
9	4.500000e-01	8.768205e+03	
10	5.000000e-01	9.129894e+03	
11	5.500000e-01	9.514894e+03	
12	6.000000e-01	9.925515e+03	
13	6.500000e-01	1.036439e+04	
14	7.000000e-01	1.083451e+04	
15	7.500000e-01	1.133934e+04	
16	8.000000e-01	1.188286e+04	
17	8.500000e-01	1.246972e+04	
18	9.000000e-01	1.310534e+04	
19	9.500000e-01	1.379613e+04	
20	1.000000e+00	1.454973e+04	
21	1.050000e+00	1.537535e+04	
22	1.100000e+00	1.628424e+04	
23	1.150000e+00	1.729039e+04	
24	1.200000e+00	1.841158e+04	
25	1.250000e+00	1.967108e+04	
26	1.300000e+00	2.110052e+04	
27	1.350000e+00	2.274510e+04	
28	1.400000e+00	2.467349e+04	
29	1.450000e+00	2.699762e+04	
30	1.500000e+00	2.991261e+04	
31	1.550000e+00	3.377282e+04	
32	1.600000e+00	3.920830e+04	
33	1.650000e+00	4.720044e+04	
34	1.700000e+00	5.888171e+04	
35	1.750000e+00	7.497346e+04	
36	1.800000e+00	9.538107e+04	
37	1.850000e+00	1.193859e+05	
38	1.900000e+00	1.460886e+05	
39	1.950000e+00	1.746879e+05	
40	2.000000e+00	2.045612e+05	
41	2.050000e+00	2.352514e+05	
42	2.100000e+00	2.664292e+05	
43	2.150000e+00	2.978582e+05	
44	2.200000e+00	3.293676e+05	
45	2.250000e+00	3.608336e+05	
46	2.300000e+00	3.921653e+05	
47	2.350000e+00	4.232959e+05	
48	2.400000e+00	4.541761e+05	
49	2.450000e+00	4.847696e+05	
50	2.500000e+00	5.150496e+05	
51	2.550000e+00	5.449965e+05	
52	2.600000e+00	5.745964e+05	
53	2.650000e+00	6.038396e+05	
54	2.700000e+00	6.327198e+05	

Index   v-sweep         rds             
--------------------------------------------------------------------------------
55	2.750000e+00	6.612332e+05	
56	2.800000e+00	6.893779e+05	
57	2.850000e+00	7.171538e+05	
58	2.900000e+00	7.445620e+05	
59	2.950000e+00	7.716043e+05	
60	3.000000e+00	7.982833e+05	
61	3.050000e+00	8.246022e+05	
62	3.100000e+00	8.505638e+05	
63	3.150000e+00	8.761707e+05	
64	3.200000e+00	9.014243e+05	
65	3.250000e+00	9.263237e+05	
66	3.300000e+00	9.508647e+05	
Reset re-loads circuit ***************************

Circuit: ***************************

Note: No ".plot", ".print", or ".fourier" lines; no simulations run
