
Note: Compatibility modes selected: hs

Warning: m=xx on .subckt line will override multiplier m hierarchy!


Circuit: ***************************

Doing analysis at TEMP = 125.000000 and TNOM = 125.000000


No. of Data Rows : 67
                          ***************************
                          DC transfer characteristic  Mon Jan  9 13:57:20  2023
--------------------------------------------------------------------------------
Index   v-sweep         rds             
--------------------------------------------------------------------------------
0	0.000000e+00	7.830117e+04	
1	5.000000e-02	1.007300e+05	
2	1.000000e-01	1.409654e+05	
3	1.500000e-01	2.331324e+05	
4	2.000000e-01	5.928774e+05	
5	2.500000e-01	3.507486e+06	
6	3.000000e-01	1.637609e+07	
7	3.500000e-01	3.574868e+07	
8	4.000000e-01	5.239053e+07	
9	4.500000e-01	6.455773e+07	
10	5.000000e-01	7.341110e+07	
11	5.500000e-01	8.007646e+07	
12	6.000000e-01	8.528218e+07	
13	6.500000e-01	8.947648e+07	
14	7.000000e-01	9.294137e+07	
15	7.500000e-01	9.586135e+07	
16	8.000000e-01	9.836194e+07	
17	8.500000e-01	1.005317e+08	
18	9.000000e-01	1.024351e+08	
19	9.500000e-01	1.041203e+08	
20	1.000000e+00	1.056242e+08	
21	1.050000e+00	1.069754e+08	
22	1.100000e+00	1.081968e+08	
23	1.150000e+00	1.093067e+08	
24	1.200000e+00	1.103200e+08	
25	1.250000e+00	1.112492e+08	
26	1.300000e+00	1.121044e+08	
27	1.350000e+00	1.128943e+08	
28	1.400000e+00	1.136263e+08	
29	1.450000e+00	1.143065e+08	
30	1.500000e+00	1.149404e+08	
31	1.550000e+00	1.155325e+08	
32	1.600000e+00	1.160869e+08	
33	1.650000e+00	1.166071e+08	
34	1.700000e+00	1.170962e+08	
35	1.750000e+00	1.175568e+08	
36	1.800000e+00	1.179913e+08	
37	1.850000e+00	1.184017e+08	
38	1.900000e+00	1.187897e+08	
39	1.950000e+00	1.191569e+08	
40	2.000000e+00	1.195044e+08	
41	2.050000e+00	1.198330e+08	
42	2.100000e+00	1.201433e+08	
43	2.150000e+00	1.204356e+08	
44	2.200000e+00	1.207097e+08	
45	2.250000e+00	1.209649e+08	
46	2.300000e+00	1.212002e+08	
47	2.350000e+00	1.214141e+08	
48	2.400000e+00	1.216043e+08	
49	2.450000e+00	1.217682e+08	
50	2.500000e+00	1.219022e+08	
51	2.550000e+00	1.220022e+08	
52	2.600000e+00	1.220634e+08	
53	2.650000e+00	1.220802e+08	
54	2.700000e+00	1.220462e+08	

Index   v-sweep         rds             
--------------------------------------------------------------------------------
55	2.750000e+00	1.219543e+08	
56	2.800000e+00	1.217967e+08	
57	2.850000e+00	1.215652e+08	
58	2.900000e+00	1.212507e+08	
59	2.950000e+00	1.208440e+08	
60	3.000000e+00	1.203357e+08	
61	3.050000e+00	1.197163e+08	
62	3.100000e+00	1.189764e+08	
63	3.150000e+00	1.181075e+08	
64	3.200000e+00	1.171013e+08	
65	3.250000e+00	1.159509e+08	
66	3.300000e+00	1.146506e+08	
Reset re-loads circuit ***************************

Circuit: ***************************

Doing analysis at TEMP = 125.000000 and TNOM = 125.000000


No. of Data Rows : 67
                          ***************************
                          DC transfer characteristic  Mon Jan  9 13:57:20  2023
--------------------------------------------------------------------------------
Index   v-sweep         rds             
--------------------------------------------------------------------------------
0	0.000000e+00	2.774033e+04	
1	5.000000e-02	3.031997e+04	
2	1.000000e-01	3.342245e+04	
3	1.500000e-01	3.722454e+04	
4	2.000000e-01	4.199270e+04	
5	2.500000e-01	4.814814e+04	
6	3.000000e-01	5.639758e+04	
7	3.500000e-01	6.802267e+04	
8	4.000000e-01	8.560353e+04	
9	4.500000e-01	1.151532e+05	
10	5.000000e-01	1.739732e+05	
11	5.500000e-01	3.278875e+05	
12	6.000000e-01	8.661536e+05	
13	6.500000e-01	2.500051e+06	
14	7.000000e-01	5.367292e+06	
15	7.500000e-01	8.607262e+06	
16	8.000000e-01	1.159063e+07	
17	8.500000e-01	1.416145e+07	
18	9.000000e-01	1.635259e+07	
19	9.500000e-01	1.823314e+07	
20	1.000000e+00	1.986542e+07	
21	1.050000e+00	2.129822e+07	
22	1.100000e+00	2.256857e+07	
23	1.150000e+00	2.370462e+07	
24	1.200000e+00	2.472813e+07	
25	1.250000e+00	2.565610e+07	
26	1.300000e+00	2.650213e+07	
27	1.350000e+00	2.727717e+07	
28	1.400000e+00	2.799023e+07	
29	1.450000e+00	2.864878e+07	
30	1.500000e+00	2.925906e+07	
31	1.550000e+00	2.982638e+07	
32	1.600000e+00	3.035524e+07	
33	1.650000e+00	3.084955e+07	
34	1.700000e+00	3.131265e+07	
35	1.750000e+00	3.174747e+07	
36	1.800000e+00	3.215659e+07	
37	1.850000e+00	3.254225e+07	
38	1.900000e+00	3.290644e+07	
39	1.950000e+00	3.325092e+07	
40	2.000000e+00	3.357728e+07	
41	2.050000e+00	3.388690e+07	
42	2.100000e+00	3.418102e+07	
43	2.150000e+00	3.446075e+07	
44	2.200000e+00	3.472705e+07	
45	2.250000e+00	3.498075e+07	
46	2.300000e+00	3.522254e+07	
47	2.350000e+00	3.545299e+07	
48	2.400000e+00	3.567247e+07	
49	2.450000e+00	3.588120e+07	
50	2.500000e+00	3.607921e+07	
51	2.550000e+00	3.626626e+07	
52	2.600000e+00	3.644189e+07	
53	2.650000e+00	3.660530e+07	
54	2.700000e+00	3.675540e+07	

Index   v-sweep         rds             
--------------------------------------------------------------------------------
55	2.750000e+00	3.689067e+07	
56	2.800000e+00	3.700924e+07	
57	2.850000e+00	3.710876e+07	
58	2.900000e+00	3.718643e+07	
59	2.950000e+00	3.723898e+07	
60	3.000000e+00	3.726268e+07	
61	3.050000e+00	3.725333e+07	
62	3.100000e+00	3.720636e+07	
63	3.150000e+00	3.711684e+07	
64	3.200000e+00	3.697966e+07	
65	3.250000e+00	3.678957e+07	
66	3.300000e+00	3.654146e+07	
Reset re-loads circuit ***************************

Circuit: ***************************

Doing analysis at TEMP = 125.000000 and TNOM = 125.000000


No. of Data Rows : 67
                          ***************************
                          DC transfer characteristic  Mon Jan  9 13:57:20  2023
--------------------------------------------------------------------------------
Index   v-sweep         rds             
--------------------------------------------------------------------------------
0	0.000000e+00	1.761738e+04	
1	5.000000e-02	1.856430e+04	
2	1.000000e-01	1.961695e+04	
3	1.500000e-01	2.079406e+04	
4	2.000000e-01	2.211910e+04	
5	2.500000e-01	2.362181e+04	
6	3.000000e-01	2.534048e+04	
7	3.500000e-01	2.732525e+04	
8	4.000000e-01	2.964307e+04	
9	4.500000e-01	3.238538e+04	
10	5.000000e-01	3.568041e+04	
11	5.500000e-01	3.971373e+04	
12	6.000000e-01	4.476411e+04	
13	6.500000e-01	5.127020e+04	
14	7.000000e-01	5.996287e+04	
15	7.500000e-01	7.215261e+04	
16	8.000000e-01	9.042406e+04	
17	8.500000e-01	1.205539e+05	
18	9.000000e-01	1.776335e+05	
19	9.500000e-01	3.071229e+05	
20	1.000000e+00	6.369798e+05	
21	1.050000e+00	1.358357e+06	
22	1.100000e+00	2.467393e+06	
23	1.150000e+00	3.739922e+06	
24	1.200000e+00	4.992287e+06	
25	1.250000e+00	6.150652e+06	
26	1.300000e+00	7.200971e+06	
27	1.350000e+00	8.150295e+06	
28	1.400000e+00	9.010757e+06	
29	1.450000e+00	9.794303e+06	
30	1.500000e+00	1.051132e+07	
31	1.550000e+00	1.117052e+07	
32	1.600000e+00	1.177911e+07	
33	1.650000e+00	1.234311e+07	
34	1.700000e+00	1.286757e+07	
35	1.750000e+00	1.335675e+07	
36	1.800000e+00	1.381427e+07	
37	1.850000e+00	1.424326e+07	
38	1.900000e+00	1.464642e+07	
39	1.950000e+00	1.502610e+07	
40	2.000000e+00	1.538436e+07	
41	2.050000e+00	1.572302e+07	
42	2.100000e+00	1.604368e+07	
43	2.150000e+00	1.634778e+07	
44	2.200000e+00	1.663660e+07	
45	2.250000e+00	1.691128e+07	
46	2.300000e+00	1.717285e+07	
47	2.350000e+00	1.742224e+07	
48	2.400000e+00	1.766029e+07	
49	2.450000e+00	1.788775e+07	
50	2.500000e+00	1.810530e+07	
51	2.550000e+00	1.831355e+07	
52	2.600000e+00	1.851302e+07	
53	2.650000e+00	1.870418e+07	
54	2.700000e+00	1.888738e+07	

Index   v-sweep         rds             
--------------------------------------------------------------------------------
55	2.750000e+00	1.906291e+07	
56	2.800000e+00	1.923094e+07	
57	2.850000e+00	1.939151e+07	
58	2.900000e+00	1.954450e+07	
59	2.950000e+00	1.968963e+07	
60	3.000000e+00	1.982642e+07	
61	3.050000e+00	1.995413e+07	
62	3.100000e+00	2.007177e+07	
63	3.150000e+00	2.017805e+07	
64	3.200000e+00	2.027135e+07	
65	3.250000e+00	2.034968e+07	
66	3.300000e+00	2.041073e+07	
Reset re-loads circuit ***************************

Circuit: ***************************

Doing analysis at TEMP = 125.000000 and TNOM = 125.000000


No. of Data Rows : 67
                          ***************************
                          DC transfer characteristic  Mon Jan  9 13:57:20  2023
--------------------------------------------------------------------------------
Index   v-sweep         rds             
--------------------------------------------------------------------------------
0	0.000000e+00	1.347092e+04	
1	5.000000e-02	1.396890e+04	
2	1.000000e-01	1.450424e+04	
3	1.500000e-01	1.508131e+04	
4	2.000000e-01	1.570517e+04	
5	2.500000e-01	1.638177e+04	
6	3.000000e-01	1.711808e+04	
7	3.500000e-01	1.792237e+04	
8	4.000000e-01	1.880450e+04	
9	4.500000e-01	1.977636e+04	
10	5.000000e-01	2.085237e+04	
11	5.500000e-01	2.205020e+04	
12	6.000000e-01	2.339178e+04	
13	6.500000e-01	2.490462e+04	
14	7.000000e-01	2.662375e+04	
15	7.500000e-01	2.859441e+04	
16	8.000000e-01	3.087611e+04	
17	8.500000e-01	3.354871e+04	
18	9.000000e-01	3.672191e+04	
19	9.500000e-01	4.055055e+04	
20	1.000000e+00	4.526038e+04	
21	1.050000e+00	5.119350e+04	
22	1.100000e+00	5.889339e+04	
23	1.150000e+00	6.927512e+04	
24	1.200000e+00	8.399515e+04	
25	1.250000e+00	1.063333e+05	
26	1.300000e+00	1.434997e+05	
27	1.350000e+00	2.129154e+05	
28	1.400000e+00	3.562870e+05	
29	1.450000e+00	6.465064e+05	
30	1.500000e+00	1.129942e+06	
31	1.550000e+00	1.758167e+06	
32	1.600000e+00	2.441807e+06	
33	1.650000e+00	3.119624e+06	
34	1.700000e+00	3.764503e+06	
35	1.750000e+00	4.368218e+06	
36	1.800000e+00	4.930545e+06	
37	1.850000e+00	5.454123e+06	
38	1.900000e+00	5.942363e+06	
39	1.950000e+00	6.398659e+06	
40	2.000000e+00	6.826119e+06	
41	2.050000e+00	7.227508e+06	
42	2.100000e+00	7.605256e+06	
43	2.150000e+00	7.961494e+06	
44	2.200000e+00	8.298094e+06	
45	2.250000e+00	8.616709e+06	
46	2.300000e+00	8.918801e+06	
47	2.350000e+00	9.205669e+06	
48	2.400000e+00	9.478473e+06	
49	2.450000e+00	9.738255e+06	
50	2.500000e+00	9.985950e+06	
51	2.550000e+00	1.022240e+07	
52	2.600000e+00	1.044838e+07	
53	2.650000e+00	1.066457e+07	
54	2.700000e+00	1.087161e+07	

Index   v-sweep         rds             
--------------------------------------------------------------------------------
55	2.750000e+00	1.107008e+07	
56	2.800000e+00	1.126050e+07	
57	2.850000e+00	1.144336e+07	
58	2.900000e+00	1.161908e+07	
59	2.950000e+00	1.178806e+07	
60	3.000000e+00	1.195066e+07	
61	3.050000e+00	1.210716e+07	
62	3.100000e+00	1.225783e+07	
63	3.150000e+00	1.240285e+07	
64	3.200000e+00	1.254232e+07	
65	3.250000e+00	1.267628e+07	
66	3.300000e+00	1.280464e+07	
Reset re-loads circuit ***************************

Circuit: ***************************

Doing analysis at TEMP = 125.000000 and TNOM = 125.000000


No. of Data Rows : 67
                          ***************************
                          DC transfer characteristic  Mon Jan  9 13:57:20  2023
--------------------------------------------------------------------------------
Index   v-sweep         rds             
--------------------------------------------------------------------------------
0	0.000000e+00	1.131138e+04	
1	5.000000e-02	1.162395e+04	
2	1.000000e-01	1.195379e+04	
3	1.500000e-01	1.230236e+04	
4	2.000000e-01	1.267131e+04	
5	2.500000e-01	1.306248e+04	
6	3.000000e-01	1.347794e+04	
7	3.500000e-01	1.392002e+04	
8	4.000000e-01	1.439137e+04	
9	4.500000e-01	1.489499e+04	
10	5.000000e-01	1.543431e+04	
11	5.500000e-01	1.601327e+04	
12	6.000000e-01	1.663641e+04	
13	6.500000e-01	1.730898e+04	
14	7.000000e-01	1.803710e+04	
15	7.500000e-01	1.882795e+04	
16	8.000000e-01	1.969001e+04	
17	8.500000e-01	2.063334e+04	
18	9.000000e-01	2.166999e+04	
19	9.500000e-01	2.281454e+04	
20	1.000000e+00	2.408474e+04	
21	1.050000e+00	2.550248e+04	
22	1.100000e+00	2.709504e+04	
23	1.150000e+00	2.889685e+04	
24	1.200000e+00	3.095201e+04	
25	1.250000e+00	3.331792e+04	
26	1.300000e+00	3.607073e+04	
27	1.350000e+00	3.931356e+04	
28	1.400000e+00	4.318960e+04	
29	1.450000e+00	4.790352e+04	
30	1.500000e+00	5.375799e+04	
31	1.550000e+00	6.121926e+04	
32	1.600000e+00	7.104171e+04	
33	1.650000e+00	8.452014e+04	
34	1.700000e+00	1.040367e+05	
35	1.750000e+00	1.343166e+05	
36	1.800000e+00	1.853090e+05	
37	1.850000e+00	2.775633e+05	
38	1.900000e+00	4.448075e+05	
39	1.950000e+00	7.149645e+05	
40	2.000000e+00	1.078233e+06	
41	2.050000e+00	1.494885e+06	
42	2.100000e+00	1.927751e+06	
43	2.150000e+00	2.354881e+06	
44	2.200000e+00	2.766151e+06	
45	2.250000e+00	3.157847e+06	
46	2.300000e+00	3.529263e+06	
47	2.350000e+00	3.880991e+06	
48	2.400000e+00	4.214133e+06	
49	2.450000e+00	4.529942e+06	
50	2.500000e+00	4.829666e+06	
51	2.550000e+00	5.114487e+06	
52	2.600000e+00	5.385498e+06	
53	2.650000e+00	5.643695e+06	
54	2.700000e+00	5.889985e+06	

Index   v-sweep         rds             
--------------------------------------------------------------------------------
55	2.750000e+00	6.125192e+06	
56	2.800000e+00	6.350066e+06	
57	2.850000e+00	6.565288e+06	
58	2.900000e+00	6.771479e+06	
59	2.950000e+00	6.969209e+06	
60	3.000000e+00	7.158996e+06	
61	3.050000e+00	7.341319e+06	
62	3.100000e+00	7.516616e+06	
63	3.150000e+00	7.685290e+06	
64	3.200000e+00	7.847714e+06	
65	3.250000e+00	8.004231e+06	
66	3.300000e+00	8.155158e+06	
Reset re-loads circuit ***************************

Circuit: ***************************

Doing analysis at TEMP = 125.000000 and TNOM = 125.000000


No. of Data Rows : 67
                          ***************************
                          DC transfer characteristic  Mon Jan  9 13:57:20  2023
--------------------------------------------------------------------------------
Index   v-sweep         rds             
--------------------------------------------------------------------------------
0	0.000000e+00	1.005220e+04	
1	5.000000e-02	1.027009e+04	
2	1.000000e-01	1.049732e+04	
3	1.500000e-01	1.073449e+04	
4	2.000000e-01	1.098228e+04	
5	2.500000e-01	1.124142e+04	
6	3.000000e-01	1.151270e+04	
7	3.500000e-01	1.179699e+04	
8	4.000000e-01	1.209526e+04	
9	4.500000e-01	1.240856e+04	
10	5.000000e-01	1.273806e+04	
11	5.500000e-01	1.308504e+04	
12	6.000000e-01	1.345094e+04	
13	6.500000e-01	1.383735e+04	
14	7.000000e-01	1.424604e+04	
15	7.500000e-01	1.467899e+04	
16	8.000000e-01	1.513843e+04	
17	8.500000e-01	1.562687e+04	
18	9.000000e-01	1.614714e+04	
19	9.500000e-01	1.670246e+04	
20	1.000000e+00	1.729649e+04	
21	1.050000e+00	1.793343e+04	
22	1.100000e+00	1.861809e+04	
23	1.150000e+00	1.935606e+04	
24	1.200000e+00	2.015380e+04	
25	1.250000e+00	2.101889e+04	
26	1.300000e+00	2.196022e+04	
27	1.350000e+00	2.298834e+04	
28	1.400000e+00	2.411582e+04	
29	1.450000e+00	2.535780e+04	
30	1.500000e+00	2.673263e+04	
31	1.550000e+00	2.826282e+04	
32	1.600000e+00	2.997627e+04	
33	1.650000e+00	3.190796e+04	
34	1.700000e+00	3.410238e+04	
35	1.750000e+00	3.661693e+04	
36	1.800000e+00	3.952703e+04	
37	1.850000e+00	4.293372e+04	
38	1.900000e+00	4.697540e+04	
39	1.950000e+00	5.184682e+04	
40	2.000000e+00	5.783042e+04	
41	2.050000e+00	6.535090e+04	
42	2.100000e+00	7.507443e+04	
43	2.150000e+00	8.809849e+04	
44	2.200000e+00	1.063332e+05	
45	2.250000e+00	1.332887e+05	
46	2.300000e+00	1.756380e+05	
47	2.350000e+00	2.456142e+05	
48	2.400000e+00	3.615303e+05	
49	2.450000e+00	5.391683e+05	
50	2.500000e+00	7.769121e+05	
51	2.550000e+00	1.055770e+06	
52	2.600000e+00	1.353908e+06	
53	2.650000e+00	1.655848e+06	
54	2.700000e+00	1.952915e+06	

Index   v-sweep         rds             
--------------------------------------------------------------------------------
55	2.750000e+00	2.240886e+06	
56	2.800000e+00	2.517985e+06	
57	2.850000e+00	2.783691e+06	
58	2.900000e+00	3.038098e+06	
59	2.950000e+00	3.281594e+06	
60	3.000000e+00	3.514690e+06	
61	3.050000e+00	3.737943e+06	
62	3.100000e+00	3.951912e+06	
63	3.150000e+00	4.157133e+06	
64	3.200000e+00	4.354119e+06	
65	3.250000e+00	4.543348e+06	
66	3.300000e+00	4.725267e+06	
Reset re-loads circuit ***************************

Circuit: ***************************

Note: No ".plot", ".print", or ".fourier" lines; no simulations run
