
Note: Compatibility modes selected: hs

Warning: m=xx on .subckt line will override multiplier m hierarchy!


Circuit: ***************************

Doing analysis at TEMP = 25.000000 and TNOM = 25.000000


No. of Data Rows : 67
                          ***************************
                          DC transfer characteristic  Mon Jan  9 13:57:19  2023
--------------------------------------------------------------------------------
Index   v-sweep         rds             
--------------------------------------------------------------------------------
0	0.000000e+00	3.914441e+04	
1	5.000000e-02	6.112326e+04	
2	1.000000e-01	1.352576e+05	
3	1.500000e-01	9.048531e+05	
4	2.000000e-01	7.443850e+06	
5	2.500000e-01	1.986420e+07	
6	3.000000e-01	3.034573e+07	
7	3.500000e-01	3.741329e+07	
8	4.000000e-01	4.217559e+07	
9	4.500000e-01	4.554447e+07	
10	5.000000e-01	4.804802e+07	
11	5.500000e-01	4.998560e+07	
12	6.000000e-01	5.153395e+07	
13	6.500000e-01	5.280290e+07	
14	7.000000e-01	5.386405e+07	
15	7.500000e-01	5.476608e+07	
16	8.000000e-01	5.554330e+07	
17	8.500000e-01	5.622060e+07	
18	9.000000e-01	5.681657e+07	
19	9.500000e-01	5.734534e+07	
20	1.000000e+00	5.781792e+07	
21	1.050000e+00	5.824295e+07	
22	1.100000e+00	5.862740e+07	
23	1.150000e+00	5.897690e+07	
24	1.200000e+00	5.929606e+07	
25	1.250000e+00	5.958872e+07	
26	1.300000e+00	5.985809e+07	
27	1.350000e+00	6.010686e+07	
28	1.400000e+00	6.033733e+07	
29	1.450000e+00	6.055146e+07	
30	1.500000e+00	6.075094e+07	
31	1.550000e+00	6.093723e+07	
32	1.600000e+00	6.111158e+07	
33	1.650000e+00	6.127510e+07	
34	1.700000e+00	6.142875e+07	
35	1.750000e+00	6.157336e+07	
36	1.800000e+00	6.170963e+07	
37	1.850000e+00	6.183817e+07	
38	1.900000e+00	6.195947e+07	
39	1.950000e+00	6.207393e+07	
40	2.000000e+00	6.218180e+07	
41	2.050000e+00	6.228326e+07	
42	2.100000e+00	6.237831e+07	
43	2.150000e+00	6.246685e+07	
44	2.200000e+00	6.254859e+07	
45	2.250000e+00	6.262309e+07	
46	2.300000e+00	6.268972e+07	
47	2.350000e+00	6.274763e+07	
48	2.400000e+00	6.279577e+07	
49	2.450000e+00	6.283283e+07	
50	2.500000e+00	6.285729e+07	
51	2.550000e+00	6.286734e+07	
52	2.600000e+00	6.286092e+07	
53	2.650000e+00	6.283572e+07	
54	2.700000e+00	6.278916e+07	

Index   v-sweep         rds             
--------------------------------------------------------------------------------
55	2.750000e+00	6.271842e+07	
56	2.800000e+00	6.262045e+07	
57	2.850000e+00	6.249201e+07	
58	2.900000e+00	6.232969e+07	
59	2.950000e+00	6.212998e+07	
60	3.000000e+00	6.188930e+07	
61	3.050000e+00	6.160405e+07	
62	3.100000e+00	6.127074e+07	
63	3.150000e+00	6.088602e+07	
64	3.200000e+00	6.044676e+07	
65	3.250000e+00	5.995019e+07	
66	3.300000e+00	5.939394e+07	
Reset re-loads circuit ***************************

Circuit: ***************************

Doing analysis at TEMP = 25.000000 and TNOM = 25.000000


No. of Data Rows : 67
                          ***************************
                          DC transfer characteristic  Mon Jan  9 13:57:19  2023
--------------------------------------------------------------------------------
Index   v-sweep         rds             
--------------------------------------------------------------------------------
0	0.000000e+00	9.538157e+03	
1	5.000000e-02	1.062026e+04	
2	1.000000e-01	1.197520e+04	
3	1.500000e-01	1.372096e+04	
4	2.000000e-01	1.605477e+04	
5	2.500000e-01	1.933281e+04	
6	3.000000e-01	2.426876e+04	
7	3.500000e-01	3.251912e+04	
8	4.000000e-01	4.886522e+04	
9	4.500000e-01	9.218948e+04	
10	5.000000e-01	2.567537e+05	
11	5.500000e-01	8.179558e+05	
12	6.000000e-01	1.862122e+06	
13	6.500000e-01	3.067501e+06	
14	7.000000e-01	4.187526e+06	
15	7.500000e-01	5.155208e+06	
16	8.000000e-01	5.978272e+06	
17	8.500000e-01	6.680986e+06	
18	9.000000e-01	7.286628e+06	
19	9.500000e-01	7.814017e+06	
20	1.000000e+00	8.277725e+06	
21	1.050000e+00	8.688981e+06	
22	1.100000e+00	9.056504e+06	
23	1.150000e+00	9.387150e+06	
24	1.200000e+00	9.686380e+06	
25	1.250000e+00	9.958601e+06	
26	1.300000e+00	1.020741e+07	
27	1.350000e+00	1.043578e+07	
28	1.400000e+00	1.064618e+07	
29	1.450000e+00	1.084071e+07	
30	1.500000e+00	1.102111e+07	
31	1.550000e+00	1.118891e+07	
32	1.600000e+00	1.134540e+07	
33	1.650000e+00	1.149170e+07	
34	1.700000e+00	1.162879e+07	
35	1.750000e+00	1.175752e+07	
36	1.800000e+00	1.187864e+07	
37	1.850000e+00	1.199281e+07	
38	1.900000e+00	1.210061e+07	
39	1.950000e+00	1.220257e+07	
40	2.000000e+00	1.229913e+07	
41	2.050000e+00	1.239072e+07	
42	2.100000e+00	1.247767e+07	
43	2.150000e+00	1.256030e+07	
44	2.200000e+00	1.263886e+07	
45	2.250000e+00	1.271358e+07	
46	2.300000e+00	1.278459e+07	
47	2.350000e+00	1.285201e+07	
48	2.400000e+00	1.291586e+07	
49	2.450000e+00	1.297610e+07	
50	2.500000e+00	1.303262e+07	
51	2.550000e+00	1.308518e+07	
52	2.600000e+00	1.313348e+07	
53	2.650000e+00	1.317707e+07	
54	2.700000e+00	1.321539e+07	

Index   v-sweep         rds             
--------------------------------------------------------------------------------
55	2.750000e+00	1.324773e+07	
56	2.800000e+00	1.327325e+07	
57	2.850000e+00	1.329095e+07	
58	2.900000e+00	1.329970e+07	
59	2.950000e+00	1.329819e+07	
60	3.000000e+00	1.328502e+07	
61	3.050000e+00	1.325864e+07	
62	3.100000e+00	1.321745e+07	
63	3.150000e+00	1.315975e+07	
64	3.200000e+00	1.308389e+07	
65	3.250000e+00	1.298824e+07	
66	3.300000e+00	1.287129e+07	
Reset re-loads circuit ***************************

Circuit: ***************************

Doing analysis at TEMP = 25.000000 and TNOM = 25.000000


No. of Data Rows : 67
                          ***************************
                          DC transfer characteristic  Mon Jan  9 13:57:19  2023
--------------------------------------------------------------------------------
Index   v-sweep         rds             
--------------------------------------------------------------------------------
0	0.000000e+00	5.692553e+03	
1	5.000000e-02	6.038905e+03	
2	1.000000e-01	6.429104e+03	
3	1.500000e-01	6.872037e+03	
4	2.000000e-01	7.379165e+03	
5	2.500000e-01	7.965530e+03	
6	3.000000e-01	8.651267e+03	
7	3.500000e-01	9.463960e+03	
8	4.000000e-01	1.044243e+04	
9	4.500000e-01	1.164309e+04	
10	5.000000e-01	1.315117e+04	
11	5.500000e-01	1.510167e+04	
12	6.000000e-01	1.772161e+04	
13	6.500000e-01	2.142317e+04	
14	7.000000e-01	2.703432e+04	
15	7.500000e-01	3.645833e+04	
16	8.000000e-01	5.488792e+04	
17	8.500000e-01	9.882701e+04	
18	9.000000e-01	2.151667e+05	
19	9.500000e-01	4.656393e+05	
20	1.000000e+00	8.377980e+05	
21	1.050000e+00	1.259538e+06	
22	1.100000e+00	1.676964e+06	
23	1.150000e+00	2.067239e+06	
24	1.200000e+00	2.424420e+06	
25	1.250000e+00	2.749259e+06	
26	1.300000e+00	3.044662e+06	
27	1.350000e+00	3.313951e+06	
28	1.400000e+00	3.560255e+06	
29	1.450000e+00	3.786345e+06	
30	1.500000e+00	3.994610e+06	
31	1.550000e+00	4.187097e+06	
32	1.600000e+00	4.365559e+06	
33	1.650000e+00	4.531497e+06	
34	1.700000e+00	4.686207e+06	
35	1.750000e+00	4.830809e+06	
36	1.800000e+00	4.966277e+06	
37	1.850000e+00	5.093463e+06	
38	1.900000e+00	5.213113e+06	
39	1.950000e+00	5.325887e+06	
40	2.000000e+00	5.432366e+06	
41	2.050000e+00	5.533071e+06	
42	2.100000e+00	5.628461e+06	
43	2.150000e+00	5.718951e+06	
44	2.200000e+00	5.804911e+06	
45	2.250000e+00	5.886675e+06	
46	2.300000e+00	5.964542e+06	
47	2.350000e+00	6.038783e+06	
48	2.400000e+00	6.109638e+06	
49	2.450000e+00	6.177324e+06	
50	2.500000e+00	6.242029e+06	
51	2.550000e+00	6.303915e+06	
52	2.600000e+00	6.363115e+06	
53	2.650000e+00	6.419730e+06	
54	2.700000e+00	6.473825e+06	

Index   v-sweep         rds             
--------------------------------------------------------------------------------
55	2.750000e+00	6.525420e+06	
56	2.800000e+00	6.574488e+06	
57	2.850000e+00	6.620945e+06	
58	2.900000e+00	6.664640e+06	
59	2.950000e+00	6.705345e+06	
60	3.000000e+00	6.742749e+06	
61	3.050000e+00	6.776444e+06	
62	3.100000e+00	6.805919e+06	
63	3.150000e+00	6.830550e+06	
64	3.200000e+00	6.849603e+06	
65	3.250000e+00	6.862224e+06	
66	3.300000e+00	6.867453e+06	
Reset re-loads circuit ***************************

Circuit: ***************************

Doing analysis at TEMP = 25.000000 and TNOM = 25.000000


No. of Data Rows : 67
                          ***************************
                          DC transfer characteristic  Mon Jan  9 13:57:19  2023
--------------------------------------------------------------------------------
Index   v-sweep         rds             
--------------------------------------------------------------------------------
0	0.000000e+00	4.280276e+03	
1	5.000000e-02	4.454441e+03	
2	1.000000e-01	4.642926e+03	
3	1.500000e-01	4.847572e+03	
4	2.000000e-01	5.070551e+03	
5	2.500000e-01	5.314440e+03	
6	3.000000e-01	5.582327e+03	
7	3.500000e-01	5.877934e+03	
8	4.000000e-01	6.205798e+03	
9	4.500000e-01	6.571504e+03	
10	5.000000e-01	6.982001e+03	
11	5.500000e-01	7.446051e+03	
12	6.000000e-01	7.974863e+03	
13	6.500000e-01	8.583002e+03	
14	7.000000e-01	9.289752e+03	
15	7.500000e-01	1.012119e+04	
16	8.000000e-01	1.111346e+04	
17	8.500000e-01	1.231814e+04	
18	9.000000e-01	1.381139e+04	
19	9.500000e-01	1.571052e+04	
20	1.000000e+00	1.820568e+04	
21	1.050000e+00	2.162553e+04	
22	1.100000e+00	2.658586e+04	
23	1.150000e+00	3.436217e+04	
24	1.200000e+00	4.791531e+04	
25	1.250000e+00	7.470680e+04	
26	1.300000e+00	1.318311e+05	
27	1.350000e+00	2.425705e+05	
28	1.400000e+00	4.115380e+05	
29	1.450000e+00	6.177003e+05	
30	1.500000e+00	8.369854e+05	
31	1.550000e+00	1.054464e+06	
32	1.600000e+00	1.263092e+06	
33	1.650000e+00	1.460194e+06	
34	1.700000e+00	1.645178e+06	
35	1.750000e+00	1.818376e+06	
36	1.800000e+00	1.980492e+06	
37	1.850000e+00	2.132349e+06	
38	1.900000e+00	2.274780e+06	
39	1.950000e+00	2.408573e+06	
40	2.000000e+00	2.534455e+06	
41	2.050000e+00	2.653088e+06	
42	2.100000e+00	2.765070e+06	
43	2.150000e+00	2.870938e+06	
44	2.200000e+00	2.971176e+06	
45	2.250000e+00	3.066221e+06	
46	2.300000e+00	3.156464e+06	
47	2.350000e+00	3.242261e+06	
48	2.400000e+00	3.323932e+06	
49	2.450000e+00	3.401769e+06	
50	2.500000e+00	3.476036e+06	
51	2.550000e+00	3.546973e+06	
52	2.600000e+00	3.614799e+06	
53	2.650000e+00	3.679714e+06	
54	2.700000e+00	3.741901e+06	

Index   v-sweep         rds             
--------------------------------------------------------------------------------
55	2.750000e+00	3.801526e+06	
56	2.800000e+00	3.858739e+06	
57	2.850000e+00	3.913676e+06	
58	2.900000e+00	3.966457e+06	
59	2.950000e+00	4.017183e+06	
60	3.000000e+00	4.065938e+06	
61	3.050000e+00	4.112784e+06	
62	3.100000e+00	4.157756e+06	
63	3.150000e+00	4.200858e+06	
64	3.200000e+00	4.242058e+06	
65	3.250000e+00	4.281278e+06	
66	3.300000e+00	4.318389e+06	
Reset re-loads circuit ***************************

Circuit: ***************************

Doing analysis at TEMP = 25.000000 and TNOM = 25.000000


No. of Data Rows : 67
                          ***************************
                          DC transfer characteristic  Mon Jan  9 13:57:19  2023
--------------------------------------------------------------------------------
Index   v-sweep         rds             
--------------------------------------------------------------------------------
0	0.000000e+00	3.593472e+03	
1	5.000000e-02	3.701265e+03	
2	1.000000e-01	3.815472e+03	
3	1.500000e-01	3.936684e+03	
4	2.000000e-01	4.065564e+03	
5	2.500000e-01	4.202864e+03	
6	3.000000e-01	4.349437e+03	
7	3.500000e-01	4.506255e+03	
8	4.000000e-01	4.674431e+03	
9	4.500000e-01	4.855245e+03	
10	5.000000e-01	5.050177e+03	
11	5.500000e-01	5.260948e+03	
12	6.000000e-01	5.489569e+03	
13	6.500000e-01	5.738407e+03	
14	7.000000e-01	6.010268e+03	
15	7.500000e-01	6.308501e+03	
16	8.000000e-01	6.637139e+03	
17	8.500000e-01	7.001079e+03	
18	9.000000e-01	7.406332e+03	
19	9.500000e-01	7.860350e+03	
20	1.000000e+00	8.372498e+03	
21	1.050000e+00	8.954695e+03	
22	1.100000e+00	9.622357e+03	
23	1.150000e+00	1.039578e+04	
24	1.200000e+00	1.130221e+04	
25	1.250000e+00	1.237914e+04	
26	1.300000e+00	1.367952e+04	
27	1.350000e+00	1.528069e+04	
28	1.400000e+00	1.729994e+04	
29	1.450000e+00	1.992384e+04	
30	1.500000e+00	2.346632e+04	
31	1.550000e+00	2.849336e+04	
32	1.600000e+00	3.610896e+04	
33	1.650000e+00	4.863502e+04	
34	1.700000e+00	7.106318e+04	
35	1.750000e+00	1.126427e+05	
36	1.800000e+00	1.837340e+05	
37	1.850000e+00	2.860474e+05	
38	1.900000e+00	4.105922e+05	
39	1.950000e+00	5.460271e+05	
40	2.000000e+00	6.841570e+05	
41	2.050000e+00	8.202862e+05	
42	2.100000e+00	9.520382e+05	
43	2.150000e+00	1.078346e+06	
44	2.200000e+00	1.198841e+06	
45	2.250000e+00	1.313516e+06	
46	2.300000e+00	1.422546e+06	
47	2.350000e+00	1.526193e+06	
48	2.400000e+00	1.624756e+06	
49	2.450000e+00	1.718540e+06	
50	2.500000e+00	1.807846e+06	
51	2.550000e+00	1.892960e+06	
52	2.600000e+00	1.974153e+06	
53	2.650000e+00	2.051677e+06	
54	2.700000e+00	2.125765e+06	

Index   v-sweep         rds             
--------------------------------------------------------------------------------
55	2.750000e+00	2.196635e+06	
56	2.800000e+00	2.264486e+06	
57	2.850000e+00	2.329505e+06	
58	2.900000e+00	2.391862e+06	
59	2.950000e+00	2.451714e+06	
60	3.000000e+00	2.509209e+06	
61	3.050000e+00	2.564481e+06	
62	3.100000e+00	2.617655e+06	
63	3.150000e+00	2.668847e+06	
64	3.200000e+00	2.718161e+06	
65	3.250000e+00	2.765697e+06	
66	3.300000e+00	2.811539e+06	
Reset re-loads circuit ***************************

Circuit: ***************************

Doing analysis at TEMP = 25.000000 and TNOM = 25.000000


No. of Data Rows : 67
                          ***************************
                          DC transfer characteristic  Mon Jan  9 13:57:19  2023
--------------------------------------------------------------------------------
Index   v-sweep         rds             
--------------------------------------------------------------------------------
0	0.000000e+00	3.218835e+03	
1	5.000000e-02	3.293973e+03	
2	1.000000e-01	3.372545e+03	
3	1.500000e-01	3.454790e+03	
4	2.000000e-01	3.540972e+03	
5	2.500000e-01	3.631381e+03	
6	3.000000e-01	3.726336e+03	
7	3.500000e-01	3.826188e+03	
8	4.000000e-01	3.931326e+03	
9	4.500000e-01	4.042182e+03	
10	5.000000e-01	4.159234e+03	
11	5.500000e-01	4.283017e+03	
12	6.000000e-01	4.414128e+03	
13	6.500000e-01	4.553239e+03	
14	7.000000e-01	4.701103e+03	
15	7.500000e-01	4.858575e+03	
16	8.000000e-01	5.026621e+03	
17	8.500000e-01	5.206344e+03	
18	9.000000e-01	5.399004e+03	
19	9.500000e-01	5.606051e+03	
20	1.000000e+00	5.829157e+03	
21	1.050000e+00	6.070266e+03	
22	1.100000e+00	6.331649e+03	
23	1.150000e+00	6.615975e+03	
24	1.200000e+00	6.926402e+03	
25	1.250000e+00	7.266696e+03	
26	1.300000e+00	7.641385e+03	
27	1.350000e+00	8.055959e+03	
28	1.400000e+00	8.517143e+03	
29	1.450000e+00	9.033263e+03	
30	1.500000e+00	9.614750e+03	
31	1.550000e+00	1.027485e+04	
32	1.600000e+00	1.103066e+04	
33	1.650000e+00	1.190459e+04	
34	1.700000e+00	1.292664e+04	
35	1.750000e+00	1.413786e+04	
36	1.800000e+00	1.559595e+04	
37	1.850000e+00	1.738458e+04	
38	1.900000e+00	1.962953e+04	
39	1.950000e+00	2.252842e+04	
40	2.000000e+00	2.640796e+04	
41	2.050000e+00	3.184084e+04	
42	2.100000e+00	3.989208e+04	
43	2.150000e+00	5.261882e+04	
44	2.200000e+00	7.384223e+04	
45	2.250000e+00	1.092650e+05	
46	2.300000e+00	1.637031e+05	
47	2.350000e+00	2.368456e+05	
48	2.400000e+00	3.235641e+05	
49	2.450000e+00	4.177860e+05	
50	2.500000e+00	5.148699e+05	
51	2.550000e+00	6.118792e+05	
52	2.600000e+00	7.071216e+05	
53	2.650000e+00	7.996830e+05	
54	2.700000e+00	8.891091e+05	

Index   v-sweep         rds             
--------------------------------------------------------------------------------
55	2.750000e+00	9.752119e+05	
56	2.800000e+00	1.057957e+06	
57	2.850000e+00	1.137396e+06	
58	2.900000e+00	1.213632e+06	
59	2.950000e+00	1.286789e+06	
60	3.000000e+00	1.357007e+06	
61	3.050000e+00	1.424428e+06	
62	3.100000e+00	1.489193e+06	
63	3.150000e+00	1.551440e+06	
64	3.200000e+00	1.611300e+06	
65	3.250000e+00	1.668898e+06	
66	3.300000e+00	1.724353e+06	
Reset re-loads circuit ***************************

Circuit: ***************************

Note: No ".plot", ".print", or ".fourier" lines; no simulations run
