
Note: Compatibility modes selected: hs

Warning: m=xx on .subckt line will override multiplier m hierarchy!


Circuit: ***************************

Doing analysis at TEMP = 125.000000 and TNOM = 125.000000


No. of Data Rows : 67
                          ***************************
                          DC transfer characteristic  Mon Jan  9 13:57:20  2023
--------------------------------------------------------------------------------
Index   v-sweep         rds             
--------------------------------------------------------------------------------
0	0.000000e+00	4.670147e+04	
1	5.000000e-02	5.871563e+04	
2	1.000000e-01	7.848026e+04	
3	1.500000e-01	1.165851e+05	
4	2.000000e-01	2.125920e+05	
5	2.500000e-01	5.460108e+05	
6	3.000000e-01	1.498887e+06	
7	3.500000e-01	2.847872e+06	
8	4.000000e-01	4.108522e+06	
9	4.500000e-01	5.188411e+06	
10	5.000000e-01	6.121700e+06	
11	5.500000e-01	6.943990e+06	
12	6.000000e-01	7.679609e+06	
13	6.500000e-01	8.344951e+06	
14	7.000000e-01	8.951589e+06	
15	7.500000e-01	9.508116e+06	
16	8.000000e-01	1.002119e+07	
17	8.500000e-01	1.049612e+07	
18	9.000000e-01	1.093729e+07	
19	9.500000e-01	1.134833e+07	
20	1.000000e+00	1.173234e+07	
21	1.050000e+00	1.209197e+07	
22	1.100000e+00	1.242951e+07	
23	1.150000e+00	1.274696e+07	
24	1.200000e+00	1.304608e+07	
25	1.250000e+00	1.332842e+07	
26	1.300000e+00	1.359536e+07	
27	1.350000e+00	1.384813e+07	
28	1.400000e+00	1.408781e+07	
29	1.450000e+00	1.431541e+07	
30	1.500000e+00	1.453180e+07	
31	1.550000e+00	1.473779e+07	
32	1.600000e+00	1.493410e+07	
33	1.650000e+00	1.512139e+07	
34	1.700000e+00	1.530026e+07	
35	1.750000e+00	1.547123e+07	
36	1.800000e+00	1.563480e+07	
37	1.850000e+00	1.579138e+07	
38	1.900000e+00	1.594136e+07	
39	1.950000e+00	1.608502e+07	
40	2.000000e+00	1.622263e+07	
41	2.050000e+00	1.635432e+07	
42	2.100000e+00	1.648018e+07	
43	2.150000e+00	1.660015e+07	
44	2.200000e+00	1.671408e+07	
45	2.250000e+00	1.682163e+07	
46	2.300000e+00	1.692232e+07	
47	2.350000e+00	1.701546e+07	
48	2.400000e+00	1.710013e+07	
49	2.450000e+00	1.717518e+07	
50	2.500000e+00	1.723918e+07	
51	2.550000e+00	1.729042e+07	
52	2.600000e+00	1.732693e+07	
53	2.650000e+00	1.734642e+07	
54	2.700000e+00	1.734635e+07	

Index   v-sweep         rds             
--------------------------------------------------------------------------------
55	2.750000e+00	1.732397e+07	
56	2.800000e+00	1.727633e+07	
57	2.850000e+00	1.720040e+07	
58	2.900000e+00	1.709316e+07	
59	2.950000e+00	1.695170e+07	
60	3.000000e+00	1.677340e+07	
61	3.050000e+00	1.655607e+07	
62	3.100000e+00	1.629808e+07	
63	3.150000e+00	1.599855e+07	
64	3.200000e+00	1.565745e+07	
65	3.250000e+00	1.527571e+07	
66	3.300000e+00	1.485523e+07	
Reset re-loads circuit ***************************

Circuit: ***************************

Doing analysis at TEMP = 125.000000 and TNOM = 125.000000


No. of Data Rows : 67
                          ***************************
                          DC transfer characteristic  Mon Jan  9 13:57:20  2023
--------------------------------------------------------------------------------
Index   v-sweep         rds             
--------------------------------------------------------------------------------
0	0.000000e+00	1.597156e+04	
1	5.000000e-02	1.741351e+04	
2	1.000000e-01	1.911042e+04	
3	1.500000e-01	2.113628e+04	
4	2.000000e-01	2.359668e+04	
5	2.500000e-01	2.664757e+04	
6	3.000000e-01	3.052919e+04	
7	3.500000e-01	3.563088e+04	
8	4.000000e-01	4.262488e+04	
9	4.500000e-01	5.276633e+04	
10	5.000000e-01	6.862595e+04	
11	5.500000e-01	9.594822e+04	
12	6.000000e-01	1.474475e+05	
13	6.500000e-01	2.426194e+05	
14	7.000000e-01	3.863604e+05	
15	7.500000e-01	5.572479e+05	
16	8.000000e-01	7.341974e+05	
17	8.500000e-01	9.078247e+05	
18	9.000000e-01	1.075207e+06	
19	9.500000e-01	1.235730e+06	
20	1.000000e+00	1.389505e+06	
21	1.050000e+00	1.536857e+06	
22	1.100000e+00	1.678156e+06	
23	1.150000e+00	1.813767e+06	
24	1.200000e+00	1.944031e+06	
25	1.250000e+00	2.069264e+06	
26	1.300000e+00	2.189757e+06	
27	1.350000e+00	2.305776e+06	
28	1.400000e+00	2.417570e+06	
29	1.450000e+00	2.525366e+06	
30	1.500000e+00	2.629375e+06	
31	1.550000e+00	2.729793e+06	
32	1.600000e+00	2.826804e+06	
33	1.650000e+00	2.920577e+06	
34	1.700000e+00	3.011271e+06	
35	1.750000e+00	3.099034e+06	
36	1.800000e+00	3.184006e+06	
37	1.850000e+00	3.266315e+06	
38	1.900000e+00	3.346084e+06	
39	1.950000e+00	3.423428e+06	
40	2.000000e+00	3.498453e+06	
41	2.050000e+00	3.571259e+06	
42	2.100000e+00	3.641938e+06	
43	2.150000e+00	3.710574e+06	
44	2.200000e+00	3.777241e+06	
45	2.250000e+00	3.842002e+06	
46	2.300000e+00	3.904904e+06	
47	2.350000e+00	3.965976e+06	
48	2.400000e+00	4.025222e+06	
49	2.450000e+00	4.082613e+06	
50	2.500000e+00	4.138081e+06	
51	2.550000e+00	4.191506e+06	
52	2.600000e+00	4.242706e+06	
53	2.650000e+00	4.291423e+06	
54	2.700000e+00	4.337311e+06	

Index   v-sweep         rds             
--------------------------------------------------------------------------------
55	2.750000e+00	4.379918e+06	
56	2.800000e+00	4.418676e+06	
57	2.850000e+00	4.452890e+06	
58	2.900000e+00	4.481728e+06	
59	2.950000e+00	4.504221e+06	
60	3.000000e+00	4.519268e+06	
61	3.050000e+00	4.525655e+06	
62	3.100000e+00	4.522081e+06	
63	3.150000e+00	4.507207e+06	
64	3.200000e+00	4.479713e+06	
65	3.250000e+00	4.438377e+06	
66	3.300000e+00	4.382156e+06	
Reset re-loads circuit ***************************

Circuit: ***************************

Doing analysis at TEMP = 125.000000 and TNOM = 125.000000


No. of Data Rows : 67
                          ***************************
                          DC transfer characteristic  Mon Jan  9 13:57:20  2023
--------------------------------------------------------------------------------
Index   v-sweep         rds             
--------------------------------------------------------------------------------
0	0.000000e+00	1.013092e+04	
1	5.000000e-02	1.070483e+04	
2	1.000000e-01	1.133723e+04	
3	1.500000e-01	1.203748e+04	
4	2.000000e-01	1.281710e+04	
5	2.500000e-01	1.369035e+04	
6	3.000000e-01	1.467512e+04	
7	3.500000e-01	1.579418e+04	
8	4.000000e-01	1.707691e+04	
9	4.500000e-01	1.856198e+04	
10	5.000000e-01	2.030119e+04	
11	5.500000e-01	2.236565e+04	
12	6.000000e-01	2.485562e+04	
13	6.500000e-01	2.791694e+04	
14	7.000000e-01	3.176990e+04	
15	7.500000e-01	3.676218e+04	
16	8.000000e-01	4.347114e+04	
17	8.500000e-01	5.290781e+04	
18	9.000000e-01	6.690795e+04	
19	9.500000e-01	8.867618e+04	
20	1.000000e+00	1.225543e+05	
21	1.050000e+00	1.710963e+05	
22	1.100000e+00	2.319900e+05	
23	1.150000e+00	3.002524e+05	
24	1.200000e+00	3.717860e+05	
25	1.250000e+00	4.441801e+05	
26	1.300000e+00	5.161735e+05	
27	1.350000e+00	5.871269e+05	
28	1.400000e+00	6.567203e+05	
29	1.450000e+00	7.247991e+05	
30	1.500000e+00	7.912977e+05	
31	1.550000e+00	8.561988e+05	
32	1.600000e+00	9.195131e+05	
33	1.650000e+00	9.812669e+05	
34	1.700000e+00	1.041495e+06	
35	1.750000e+00	1.100239e+06	
36	1.800000e+00	1.157540e+06	
37	1.850000e+00	1.213443e+06	
38	1.900000e+00	1.267992e+06	
39	1.950000e+00	1.321230e+06	
40	2.000000e+00	1.373199e+06	
41	2.050000e+00	1.423942e+06	
42	2.100000e+00	1.473498e+06	
43	2.150000e+00	1.521905e+06	
44	2.200000e+00	1.569203e+06	
45	2.250000e+00	1.615426e+06	
46	2.300000e+00	1.660608e+06	
47	2.350000e+00	1.704784e+06	
48	2.400000e+00	1.747984e+06	
49	2.450000e+00	1.790237e+06	
50	2.500000e+00	1.831569e+06	
51	2.550000e+00	1.872003e+06	
52	2.600000e+00	1.911557e+06	
53	2.650000e+00	1.950239e+06	
54	2.700000e+00	1.988051e+06	

Index   v-sweep         rds             
--------------------------------------------------------------------------------
55	2.750000e+00	2.024978e+06	
56	2.800000e+00	2.060989e+06	
57	2.850000e+00	2.096027e+06	
58	2.900000e+00	2.130003e+06	
59	2.950000e+00	2.162792e+06	
60	3.000000e+00	2.194216e+06	
61	3.050000e+00	2.224041e+06	
62	3.100000e+00	2.251964e+06	
63	3.150000e+00	2.277603e+06	
64	3.200000e+00	2.300489e+06	
65	3.250000e+00	2.320062e+06	
66	3.300000e+00	2.335667e+06	
Reset re-loads circuit ***************************

Circuit: ***************************

Doing analysis at TEMP = 125.000000 and TNOM = 125.000000


No. of Data Rows : 67
                          ***************************
                          DC transfer characteristic  Mon Jan  9 13:57:20  2023
--------------------------------------------------------------------------------
Index   v-sweep         rds             
--------------------------------------------------------------------------------
0	0.000000e+00	7.724086e+03	
1	5.000000e-02	8.048494e+03	
2	1.000000e-01	8.396050e+03	
3	1.500000e-01	8.769312e+03	
4	2.000000e-01	9.171225e+03	
5	2.500000e-01	9.605204e+03	
6	3.000000e-01	1.007523e+04	
7	3.500000e-01	1.058597e+04	
8	4.000000e-01	1.114293e+04	
9	4.500000e-01	1.175267e+04	
10	5.000000e-01	1.242304e+04	
11	5.500000e-01	1.316352e+04	
12	6.000000e-01	1.398570e+04	
13	6.500000e-01	1.490386e+04	
14	7.000000e-01	1.593582e+04	
15	7.500000e-01	1.710411e+04	
16	8.000000e-01	1.843764e+04	
17	8.500000e-01	1.997411e+04	
18	9.000000e-01	2.176371e+04	
19	9.500000e-01	2.387470e+04	
20	1.000000e+00	2.640249e+04	
21	1.050000e+00	2.948461e+04	
22	1.100000e+00	3.332686e+04	
23	1.150000e+00	3.825061e+04	
24	1.200000e+00	4.477970e+04	
25	1.250000e+00	5.378896e+04	
26	1.300000e+00	6.667383e+04	
27	1.350000e+00	8.522743e+04	
28	1.400000e+00	1.107160e+05	
29	1.450000e+00	1.427776e+05	
30	1.500000e+00	1.797104e+05	
31	1.550000e+00	2.196397e+05	
32	1.600000e+00	2.611568e+05	
33	1.650000e+00	3.033547e+05	
34	1.700000e+00	3.456806e+05	
35	1.750000e+00	3.878010e+05	
36	1.800000e+00	4.295142e+05	
37	1.850000e+00	4.706979e+05	
38	1.900000e+00	5.112782e+05	
39	1.950000e+00	5.512116e+05	
40	2.000000e+00	5.904743e+05	
41	2.050000e+00	6.290549e+05	
42	2.100000e+00	6.669507e+05	
43	2.150000e+00	7.041646e+05	
44	2.200000e+00	7.407034e+05	
45	2.250000e+00	7.765764e+05	
46	2.300000e+00	8.117948e+05	
47	2.350000e+00	8.463707e+05	
48	2.400000e+00	8.803172e+05	
49	2.450000e+00	9.136477e+05	
50	2.500000e+00	9.463759e+05	
51	2.550000e+00	9.785154e+05	
52	2.600000e+00	1.010080e+06	
53	2.650000e+00	1.041083e+06	
54	2.700000e+00	1.071537e+06	

Index   v-sweep         rds             
--------------------------------------------------------------------------------
55	2.750000e+00	1.101455e+06	
56	2.800000e+00	1.130849e+06	
57	2.850000e+00	1.159728e+06	
58	2.900000e+00	1.188101e+06	
59	2.950000e+00	1.215971e+06	
60	3.000000e+00	1.243340e+06	
61	3.050000e+00	1.270200e+06	
62	3.100000e+00	1.296535e+06	
63	3.150000e+00	1.322313e+06	
64	3.200000e+00	1.347487e+06	
65	3.250000e+00	1.371985e+06	
66	3.300000e+00	1.395706e+06	
Reset re-loads circuit ***************************

Circuit: ***************************

Doing analysis at TEMP = 125.000000 and TNOM = 125.000000


No. of Data Rows : 67
                          ***************************
                          DC transfer characteristic  Mon Jan  9 13:57:20  2023
--------------------------------------------------------------------------------
Index   v-sweep         rds             
--------------------------------------------------------------------------------
0	0.000000e+00	6.441421e+03	
1	5.000000e-02	6.658078e+03	
2	1.000000e-01	6.886587e+03	
3	1.500000e-01	7.127940e+03	
4	2.000000e-01	7.383242e+03	
5	2.500000e-01	7.653730e+03	
6	3.000000e-01	7.940792e+03	
7	3.500000e-01	8.245992e+03	
8	4.000000e-01	8.571093e+03	
9	4.500000e-01	8.918099e+03	
10	5.000000e-01	9.289288e+03	
11	5.500000e-01	9.687271e+03	
12	6.000000e-01	1.011504e+04	
13	6.500000e-01	1.057607e+04	
14	7.000000e-01	1.107438e+04	
15	7.500000e-01	1.161465e+04	
16	8.000000e-01	1.220243e+04	
17	8.500000e-01	1.284425e+04	
18	9.000000e-01	1.354791e+04	
19	9.500000e-01	1.432281e+04	
20	1.000000e+00	1.518034e+04	
21	1.050000e+00	1.613450e+04	
22	1.100000e+00	1.720264e+04	
23	1.150000e+00	1.840661e+04	
24	1.200000e+00	1.977430e+04	
25	1.250000e+00	2.134201e+04	
26	1.300000e+00	2.315795e+04	
27	1.350000e+00	2.528791e+04	
28	1.400000e+00	2.782454e+04	
29	1.450000e+00	3.090356e+04	
30	1.500000e+00	3.473287e+04	
31	1.550000e+00	3.964460e+04	
32	1.600000e+00	4.617709e+04	
33	1.650000e+00	5.514964e+04	
34	1.700000e+00	6.756418e+04	
35	1.750000e+00	8.414548e+04	
36	1.800000e+00	1.048298e+05	
37	1.850000e+00	1.288306e+05	
38	1.900000e+00	1.551403e+05	
39	1.950000e+00	1.828974e+05	
40	2.000000e+00	2.114808e+05	
41	2.050000e+00	2.404736e+05	
42	2.100000e+00	2.696022e+05	
43	2.150000e+00	2.986877e+05	
44	2.200000e+00	3.276119e+05	
45	2.250000e+00	3.562966e+05	
46	2.300000e+00	3.846897e+05	
47	2.350000e+00	4.127564e+05	
48	2.400000e+00	4.404740e+05	
49	2.450000e+00	4.678282e+05	
50	2.500000e+00	4.948101e+05	
51	2.550000e+00	5.214153e+05	
52	2.600000e+00	5.476423e+05	
53	2.650000e+00	5.734917e+05	
54	2.700000e+00	5.989657e+05	

Index   v-sweep         rds             
--------------------------------------------------------------------------------
55	2.750000e+00	6.240677e+05	
56	2.800000e+00	6.488020e+05	
57	2.850000e+00	6.731734e+05	
58	2.900000e+00	6.971872e+05	
59	2.950000e+00	7.208489e+05	
60	3.000000e+00	7.441642e+05	
61	3.050000e+00	7.671389e+05	
62	3.100000e+00	7.897784e+05	
63	3.150000e+00	8.120877e+05	
64	3.200000e+00	8.340709e+05	
65	3.250000e+00	8.557305e+05	
66	3.300000e+00	8.770665e+05	
Reset re-loads circuit ***************************

Circuit: ***************************

Doing analysis at TEMP = 125.000000 and TNOM = 125.000000


No. of Data Rows : 67
                          ***************************
                          DC transfer characteristic  Mon Jan  9 13:57:20  2023
--------------------------------------------------------------------------------
Index   v-sweep         rds             
--------------------------------------------------------------------------------
0	0.000000e+00	5.664591e+03	
1	5.000000e-02	5.823949e+03	
2	1.000000e-01	5.990344e+03	
3	1.500000e-01	6.164248e+03	
4	2.000000e-01	6.346176e+03	
5	2.500000e-01	6.536692e+03	
6	3.000000e-01	6.736413e+03	
7	3.500000e-01	6.946018e+03	
8	4.000000e-01	7.166252e+03	
9	4.500000e-01	7.397940e+03	
10	5.000000e-01	7.641993e+03	
11	5.500000e-01	7.899422e+03	
12	6.000000e-01	8.171349e+03	
13	6.500000e-01	8.459029e+03	
14	7.000000e-01	8.763865e+03	
15	7.500000e-01	9.087431e+03	
16	8.000000e-01	9.431500e+03	
17	8.500000e-01	9.798077e+03	
18	9.000000e-01	1.018944e+04	
19	9.500000e-01	1.060818e+04	
20	1.000000e+00	1.105727e+04	
21	1.050000e+00	1.154013e+04	
22	1.100000e+00	1.206071e+04	
23	1.150000e+00	1.262361e+04	
24	1.200000e+00	1.323421e+04	
25	1.250000e+00	1.389888e+04	
26	1.300000e+00	1.462514e+04	
27	1.350000e+00	1.542203e+04	
28	1.400000e+00	1.630048e+04	
29	1.450000e+00	1.727386e+04	
30	1.500000e+00	1.835875e+04	
31	1.550000e+00	1.957601e+04	
32	1.600000e+00	2.095242e+04	
33	1.650000e+00	2.252313e+04	
34	1.700000e+00	2.433576e+04	
35	1.750000e+00	2.645710e+04	
36	1.800000e+00	2.898517e+04	
37	1.850000e+00	3.207056e+04	
38	1.900000e+00	3.595301e+04	
39	1.950000e+00	4.101310e+04	
40	2.000000e+00	4.780597e+04	
41	2.050000e+00	5.697887e+04	
42	2.100000e+00	6.899866e+04	
43	2.150000e+00	8.387374e+04	
44	2.200000e+00	1.011723e+05	
45	2.250000e+00	1.202808e+05	
46	2.300000e+00	1.406272e+05	
47	2.350000e+00	1.617661e+05	
48	2.400000e+00	1.833784e+05	
49	2.450000e+00	2.052427e+05	
50	2.500000e+00	2.272068e+05	
51	2.550000e+00	2.491657e+05	
52	2.600000e+00	2.710465e+05	
53	2.650000e+00	2.927983e+05	
54	2.700000e+00	3.143852e+05	

Index   v-sweep         rds             
--------------------------------------------------------------------------------
55	2.750000e+00	3.357818e+05	
56	2.800000e+00	3.569703e+05	
57	2.850000e+00	3.779384e+05	
58	2.900000e+00	3.986774e+05	
59	2.950000e+00	4.191818e+05	
60	3.000000e+00	4.394483e+05	
61	3.050000e+00	4.594750e+05	
62	3.100000e+00	4.792614e+05	
63	3.150000e+00	4.988078e+05	
64	3.200000e+00	5.181155e+05	
65	3.250000e+00	5.371860e+05	
66	3.300000e+00	5.560214e+05	
Reset re-loads circuit ***************************

Circuit: ***************************

Note: No ".plot", ".print", or ".fourier" lines; no simulations run
