
Note: Compatibility modes selected: hs

Warning: m=xx on .subckt line will override multiplier m hierarchy!


Circuit: ***************************

Doing analysis at TEMP = 25.000000 and TNOM = 25.000000


No. of Data Rows : 67
                          ***************************
                          DC transfer characteristic  Mon Jan  9 13:57:19  2023
--------------------------------------------------------------------------------
Index   v-sweep         rds             
--------------------------------------------------------------------------------
0	0.000000e+00	2.604436e+03	
1	5.000000e-02	3.758590e+03	
2	1.000000e-01	6.087022e+03	
3	1.500000e-01	1.138673e+04	
4	2.000000e-01	2.164015e+04	
5	2.500000e-01	3.408125e+04	
6	3.000000e-01	4.427307e+04	
7	3.500000e-01	5.133642e+04	
8	4.000000e-01	5.606067e+04	
9	4.500000e-01	5.924980e+04	
10	5.000000e-01	6.144131e+04	
11	5.500000e-01	6.296885e+04	
12	6.000000e-01	6.404050e+04	
13	6.500000e-01	6.478959e+04	
14	7.000000e-01	6.530424e+04	
15	7.500000e-01	6.564454e+04	
16	8.000000e-01	6.585262e+04	
17	8.500000e-01	6.595874e+04	
18	9.000000e-01	6.598514e+04	
19	9.500000e-01	6.594850e+04	
20	1.000000e+00	6.586149e+04	
21	1.050000e+00	6.573395e+04	
22	1.100000e+00	6.557358e+04	
23	1.150000e+00	6.538647e+04	
24	1.200000e+00	6.517754e+04	
25	1.250000e+00	6.495075e+04	
26	1.300000e+00	6.470933e+04	
27	1.350000e+00	6.445596e+04	
28	1.400000e+00	6.419283e+04	
29	1.450000e+00	6.392179e+04	
30	1.500000e+00	6.364437e+04	
31	1.550000e+00	6.336189e+04	
32	1.600000e+00	6.307542e+04	
33	1.650000e+00	6.278589e+04	
34	1.700000e+00	6.249409e+04	
35	1.750000e+00	6.220066e+04	
36	1.800000e+00	6.190616e+04	
37	1.850000e+00	6.161102e+04	
38	1.900000e+00	6.131558e+04	
39	1.950000e+00	6.102009e+04	
40	2.000000e+00	6.072468e+04	
41	2.050000e+00	6.042939e+04	
42	2.100000e+00	6.013413e+04	
43	2.150000e+00	5.983867e+04	
44	2.200000e+00	5.954264e+04	
45	2.250000e+00	5.924551e+04	
46	2.300000e+00	5.894655e+04	
47	2.350000e+00	5.864485e+04	
48	2.400000e+00	5.833925e+04	
49	2.450000e+00	5.802836e+04	
50	2.500000e+00	5.771053e+04	
51	2.550000e+00	5.738384e+04	
52	2.600000e+00	5.704606e+04	
53	2.650000e+00	5.669471e+04	
54	2.700000e+00	5.632698e+04	

Index   v-sweep         rds             
--------------------------------------------------------------------------------
55	2.750000e+00	5.593983e+04	
56	2.800000e+00	5.552991e+04	
57	2.850000e+00	5.509367e+04	
58	2.900000e+00	5.462737e+04	
59	2.950000e+00	5.412713e+04	
60	3.000000e+00	5.358901e+04	
61	3.050000e+00	5.300910e+04	
62	3.100000e+00	5.238358e+04	
63	3.150000e+00	5.170889e+04	
64	3.200000e+00	5.098179e+04	
65	3.250000e+00	5.019952e+04	
66	3.300000e+00	4.935990e+04	
Reset re-loads circuit ***************************

Circuit: ***************************

Doing analysis at TEMP = 25.000000 and TNOM = 25.000000


No. of Data Rows : 67
                          ***************************
                          DC transfer characteristic  Mon Jan  9 13:57:19  2023
--------------------------------------------------------------------------------
Index   v-sweep         rds             
--------------------------------------------------------------------------------
0	0.000000e+00	6.991703e+02	
1	5.000000e-02	7.954545e+02	
2	1.000000e-01	9.116520e+02	
3	1.500000e-01	1.054588e+03	
4	2.000000e-01	1.234704e+03	
5	2.500000e-01	1.468853e+03	
6	3.000000e-01	1.785883e+03	
7	3.500000e-01	2.237398e+03	
8	4.000000e-01	2.912986e+03	
9	4.500000e-01	3.936768e+03	
10	5.000000e-01	5.391596e+03	
11	5.500000e-01	7.209674e+03	
12	6.000000e-01	9.196560e+03	
13	6.500000e-01	1.116025e+04	
14	7.000000e-01	1.298267e+04	
15	7.500000e-01	1.461504e+04	
16	8.000000e-01	1.605069e+04	
17	8.500000e-01	1.730306e+04	
18	9.000000e-01	1.839298e+04	
19	9.500000e-01	1.934236e+04	
20	1.000000e+00	2.017155e+04	
21	1.050000e+00	2.089838e+04	
22	1.100000e+00	2.153804e+04	
23	1.150000e+00	2.210330e+04	
24	1.200000e+00	2.260487e+04	
25	1.250000e+00	2.305167e+04	
26	1.300000e+00	2.345115e+04	
27	1.350000e+00	2.380958e+04	
28	1.400000e+00	2.413222e+04	
29	1.450000e+00	2.442353e+04	
30	1.500000e+00	2.468728e+04	
31	1.550000e+00	2.492670e+04	
32	1.600000e+00	2.514454e+04	
33	1.650000e+00	2.534317e+04	
34	1.700000e+00	2.552467e+04	
35	1.750000e+00	2.569079e+04	
36	1.800000e+00	2.584309e+04	
37	1.850000e+00	2.598293e+04	
38	1.900000e+00	2.611148e+04	
39	1.950000e+00	2.622979e+04	
40	2.000000e+00	2.633875e+04	
41	2.050000e+00	2.643916e+04	
42	2.100000e+00	2.653167e+04	
43	2.150000e+00	2.661686e+04	
44	2.200000e+00	2.669516e+04	
45	2.250000e+00	2.676690e+04	
46	2.300000e+00	2.683227e+04	
47	2.350000e+00	2.689132e+04	
48	2.400000e+00	2.694394e+04	
49	2.450000e+00	2.698981e+04	
50	2.500000e+00	2.702842e+04	
51	2.550000e+00	2.705900e+04	
52	2.600000e+00	2.708054e+04	
53	2.650000e+00	2.709170e+04	
54	2.700000e+00	2.709084e+04	

Index   v-sweep         rds             
--------------------------------------------------------------------------------
55	2.750000e+00	2.707599e+04	
56	2.800000e+00	2.704480e+04	
57	2.850000e+00	2.699460e+04	
58	2.900000e+00	2.692236e+04	
59	2.950000e+00	2.682473e+04	
60	3.000000e+00	2.669811e+04	
61	3.050000e+00	2.653870e+04	
62	3.100000e+00	2.634261e+04	
63	3.150000e+00	2.610597e+04	
64	3.200000e+00	2.582510e+04	
65	3.250000e+00	2.549666e+04	
66	3.300000e+00	2.511785e+04	
Reset re-loads circuit ***************************

Circuit: ***************************

Doing analysis at TEMP = 25.000000 and TNOM = 25.000000


No. of Data Rows : 67
                          ***************************
                          DC transfer characteristic  Mon Jan  9 13:57:19  2023
--------------------------------------------------------------------------------
Index   v-sweep         rds             
--------------------------------------------------------------------------------
0	0.000000e+00	4.661280e+02	
1	5.000000e-02	5.084762e+02	
2	1.000000e-01	5.558309e+02	
3	1.500000e-01	6.091155e+02	
4	2.000000e-01	6.695098e+02	
5	2.500000e-01	7.385550e+02	
6	3.000000e-01	8.183216e+02	
7	3.500000e-01	9.116917e+02	
8	4.000000e-01	1.022860e+03	
9	4.500000e-01	1.158263e+03	
10	5.000000e-01	1.328328e+03	
11	5.500000e-01	1.550603e+03	
12	6.000000e-01	1.854243e+03	
13	6.500000e-01	2.282352e+03	
14	7.000000e-01	2.882095e+03	
15	7.500000e-01	3.677202e+03	
16	8.000000e-01	4.645295e+03	
17	8.500000e-01	5.727177e+03	
18	9.000000e-01	6.855492e+03	
19	9.500000e-01	7.975479e+03	
20	1.000000e+00	9.050898e+03	
21	1.050000e+00	1.006157e+04	
22	1.100000e+00	1.099864e+04	
23	1.150000e+00	1.186040e+04	
24	1.200000e+00	1.264927e+04	
25	1.250000e+00	1.336976e+04	
26	1.300000e+00	1.402735e+04	
27	1.350000e+00	1.462773e+04	
28	1.400000e+00	1.517641e+04	
29	1.450000e+00	1.567859e+04	
30	1.500000e+00	1.613897e+04	
31	1.550000e+00	1.656184e+04	
32	1.600000e+00	1.695100e+04	
33	1.650000e+00	1.730986e+04	
34	1.700000e+00	1.764141e+04	
35	1.750000e+00	1.794833e+04	
36	1.800000e+00	1.823300e+04	
37	1.850000e+00	1.849749e+04	
38	1.900000e+00	1.874368e+04	
39	1.950000e+00	1.897322e+04	
40	2.000000e+00	1.918757e+04	
41	2.050000e+00	1.938806e+04	
42	2.100000e+00	1.957585e+04	
43	2.150000e+00	1.975197e+04	
44	2.200000e+00	1.991735e+04	
45	2.250000e+00	2.007280e+04	
46	2.300000e+00	2.021902e+04	
47	2.350000e+00	2.035661e+04	
48	2.400000e+00	2.048604e+04	
49	2.450000e+00	2.060766e+04	
50	2.500000e+00	2.072169e+04	
51	2.550000e+00	2.082817e+04	
52	2.600000e+00	2.092696e+04	
53	2.650000e+00	2.101770e+04	
54	2.700000e+00	2.109978e+04	

Index   v-sweep         rds             
--------------------------------------------------------------------------------
55	2.750000e+00	2.117229e+04	
56	2.800000e+00	2.123400e+04	
57	2.850000e+00	2.128333e+04	
58	2.900000e+00	2.131829e+04	
59	2.950000e+00	2.133650e+04	
60	3.000000e+00	2.133512e+04	
61	3.050000e+00	2.131093e+04	
62	3.100000e+00	2.126030e+04	
63	3.150000e+00	2.117929e+04	
64	3.200000e+00	2.106370e+04	
65	3.250000e+00	2.090926e+04	
66	3.300000e+00	2.071175e+04	
Reset re-loads circuit ***************************

Circuit: ***************************

Doing analysis at TEMP = 25.000000 and TNOM = 25.000000


No. of Data Rows : 67
                          ***************************
                          DC transfer characteristic  Mon Jan  9 13:57:19  2023
--------------------------------------------------------------------------------
Index   v-sweep         rds             
--------------------------------------------------------------------------------
0	0.000000e+00	3.796852e+02	
1	5.000000e-02	4.061235e+02	
2	1.000000e-01	4.347855e+02	
3	1.500000e-01	4.659531e+02	
4	2.000000e-01	4.999609e+02	
5	2.500000e-01	5.372108e+02	
6	3.000000e-01	5.781919e+02	
7	3.500000e-01	6.235100e+02	
8	4.000000e-01	6.739311e+02	
9	4.500000e-01	7.304504e+02	
10	5.000000e-01	7.944054e+02	
11	5.500000e-01	8.676681e+02	
12	6.000000e-01	9.529851e+02	
13	6.500000e-01	1.054587e+03	
14	7.000000e-01	1.179257e+03	
15	7.500000e-01	1.338047e+03	
16	8.000000e-01	1.548397e+03	
17	8.500000e-01	1.834899e+03	
18	9.000000e-01	2.224880e+03	
19	9.500000e-01	2.736858e+03	
20	1.000000e+00	3.368995e+03	
21	1.050000e+00	4.098401e+03	
22	1.100000e+00	4.891034e+03	
23	1.150000e+00	5.712787e+03	
24	1.200000e+00	6.535808e+03	
25	1.250000e+00	7.340164e+03	
26	1.300000e+00	8.113013e+03	
27	1.350000e+00	8.846983e+03	
28	1.400000e+00	9.538571e+03	
29	1.450000e+00	1.018687e+04	
30	1.500000e+00	1.079260e+04	
31	1.550000e+00	1.135748e+04	
32	1.600000e+00	1.188377e+04	
33	1.650000e+00	1.237398e+04	
34	1.700000e+00	1.283070e+04	
35	1.750000e+00	1.325646e+04	
36	1.800000e+00	1.365369e+04	
37	1.850000e+00	1.402468e+04	
38	1.900000e+00	1.437154e+04	
39	1.950000e+00	1.469623e+04	
40	2.000000e+00	1.500054e+04	
41	2.050000e+00	1.528611e+04	
42	2.100000e+00	1.555442e+04	
43	2.150000e+00	1.580683e+04	
44	2.200000e+00	1.604458e+04	
45	2.250000e+00	1.626877e+04	
46	2.300000e+00	1.648043e+04	
47	2.350000e+00	1.668046e+04	
48	2.400000e+00	1.686968e+04	
49	2.450000e+00	1.704883e+04	
50	2.500000e+00	1.721854e+04	
51	2.550000e+00	1.737935e+04	
52	2.600000e+00	1.753166e+04	
53	2.650000e+00	1.767579e+04	
54	2.700000e+00	1.781187e+04	

Index   v-sweep         rds             
--------------------------------------------------------------------------------
55	2.750000e+00	1.793987e+04	
56	2.800000e+00	1.805957e+04	
57	2.850000e+00	1.817046e+04	
58	2.900000e+00	1.827178e+04	
59	2.950000e+00	1.836243e+04	
60	3.000000e+00	1.844091e+04	
61	3.050000e+00	1.850532e+04	
62	3.100000e+00	1.855331e+04	
63	3.150000e+00	1.858205e+04	
64	3.200000e+00	1.858823e+04	
65	3.250000e+00	1.856808e+04	
66	3.300000e+00	1.851747e+04	
Reset re-loads circuit ***************************

Circuit: ***************************

Doing analysis at TEMP = 25.000000 and TNOM = 25.000000


No. of Data Rows : 67
                          ***************************
                          DC transfer characteristic  Mon Jan  9 13:57:19  2023
--------------------------------------------------------------------------------
Index   v-sweep         rds             
--------------------------------------------------------------------------------
0	0.000000e+00	3.362437e+02	
1	5.000000e-02	3.553569e+02	
2	1.000000e-01	3.757253e+02	
3	1.500000e-01	3.974702e+02	
4	2.000000e-01	4.207299e+02	
5	2.500000e-01	4.456636e+02	
6	3.000000e-01	4.724552e+02	
7	3.500000e-01	5.013196e+02	
8	4.000000e-01	5.325110e+02	
9	4.500000e-01	5.663332e+02	
10	5.000000e-01	6.031568e+02	
11	5.500000e-01	6.434425e+02	
12	6.000000e-01	6.877791e+02	
13	6.500000e-01	7.369426e+02	
14	7.000000e-01	7.919950e+02	
15	7.500000e-01	8.544509e+02	
16	8.000000e-01	9.265622e+02	
17	8.500000e-01	1.011802e+03	
18	9.000000e-01	1.115643e+03	
19	9.500000e-01	1.246666e+03	
20	1.000000e+00	1.417667e+03	
21	1.050000e+00	1.645628e+03	
22	1.100000e+00	1.948667e+03	
23	1.150000e+00	2.339544e+03	
24	1.200000e+00	2.819342e+03	
25	1.250000e+00	3.376369e+03	
26	1.300000e+00	3.990659e+03	
27	1.350000e+00	4.640066e+03	
28	1.400000e+00	5.304597e+03	
29	1.450000e+00	5.968319e+03	
30	1.500000e+00	6.619600e+03	
31	1.550000e+00	7.250547e+03	
32	1.600000e+00	7.856214e+03	
33	1.650000e+00	8.433836e+03	
34	1.700000e+00	8.982206e+03	
35	1.750000e+00	9.501179e+03	
36	1.800000e+00	9.991320e+03	
37	1.850000e+00	1.045364e+04	
38	1.900000e+00	1.088943e+04	
39	1.950000e+00	1.130010e+04	
40	2.000000e+00	1.168713e+04	
41	2.050000e+00	1.205200e+04	
42	2.100000e+00	1.239617e+04	
43	2.150000e+00	1.272100e+04	
44	2.200000e+00	1.302781e+04	
45	2.250000e+00	1.331783e+04	
46	2.300000e+00	1.359222e+04	
47	2.350000e+00	1.385203e+04	
48	2.400000e+00	1.409828e+04	
49	2.450000e+00	1.433186e+04	
50	2.500000e+00	1.455362e+04	
51	2.550000e+00	1.476433e+04	
52	2.600000e+00	1.496469e+04	
53	2.650000e+00	1.515531e+04	
54	2.700000e+00	1.533674e+04	

Index   v-sweep         rds             
--------------------------------------------------------------------------------
55	2.750000e+00	1.550943e+04	
56	2.800000e+00	1.567370e+04	
57	2.850000e+00	1.582979e+04	
58	2.900000e+00	1.597773e+04	
59	2.950000e+00	1.611741e+04	
60	3.000000e+00	1.624846e+04	
61	3.050000e+00	1.637025e+04	
62	3.100000e+00	1.648184e+04	
63	3.150000e+00	1.658189e+04	
64	3.200000e+00	1.666867e+04	
65	3.250000e+00	1.673995e+04	
66	3.300000e+00	1.679304e+04	
Reset re-loads circuit ***************************

Circuit: ***************************

Doing analysis at TEMP = 25.000000 and TNOM = 25.000000


No. of Data Rows : 67
                          ***************************
                          DC transfer characteristic  Mon Jan  9 13:57:19  2023
--------------------------------------------------------------------------------
Index   v-sweep         rds             
--------------------------------------------------------------------------------
0	0.000000e+00	3.111774e+02	
1	5.000000e-02	3.261391e+02	
2	1.000000e-01	3.419084e+02	
3	1.500000e-01	3.585484e+02	
4	2.000000e-01	3.761295e+02	
5	2.500000e-01	3.947299e+02	
6	3.000000e-01	4.144380e+02	
7	3.500000e-01	4.353531e+02	
8	4.000000e-01	4.575885e+02	
9	4.500000e-01	4.812734e+02	
10	5.000000e-01	5.065577e+02	
11	5.500000e-01	5.336164e+02	
12	6.000000e-01	5.626568e+02	
13	6.500000e-01	5.939290e+02	
14	7.000000e-01	6.277408e+02	
15	7.500000e-01	6.644808e+02	
16	8.000000e-01	7.046538e+02	
17	8.500000e-01	7.489383e+02	
18	9.000000e-01	7.982793e+02	
19	9.500000e-01	8.540418e+02	
20	1.000000e+00	9.182615e+02	
21	1.050000e+00	9.940455e+02	
22	1.100000e+00	1.086164e+03	
23	1.150000e+00	1.201787e+03	
24	1.200000e+00	1.351055e+03	
25	1.250000e+00	1.546682e+03	
26	1.300000e+00	1.801637e+03	
27	1.350000e+00	2.124988e+03	
28	1.400000e+00	2.518105e+03	
29	1.450000e+00	2.973876e+03	
30	1.500000e+00	3.479193e+03	
31	1.550000e+00	4.018630e+03	
32	1.600000e+00	4.577401e+03	
33	1.650000e+00	5.142947e+03	
34	1.700000e+00	5.705441e+03	
35	1.750000e+00	6.257646e+03	
36	1.800000e+00	6.794525e+03	
37	1.850000e+00	7.312782e+03	
38	1.900000e+00	7.810444e+03	
39	1.950000e+00	8.286506e+03	
40	2.000000e+00	8.740665e+03	
41	2.050000e+00	9.173102e+03	
42	2.100000e+00	9.584330e+03	
43	2.150000e+00	9.975077e+03	
44	2.200000e+00	1.034621e+04	
45	2.250000e+00	1.069865e+04	
46	2.300000e+00	1.103337e+04	
47	2.350000e+00	1.135135e+04	
48	2.400000e+00	1.165352e+04	
49	2.450000e+00	1.194082e+04	
50	2.500000e+00	1.221411e+04	
51	2.550000e+00	1.247424e+04	
52	2.600000e+00	1.272200e+04	
53	2.650000e+00	1.295812e+04	
54	2.700000e+00	1.318329e+04	

Index   v-sweep         rds             
--------------------------------------------------------------------------------
55	2.750000e+00	1.339816e+04	
56	2.800000e+00	1.360330e+04	
57	2.850000e+00	1.379923e+04	
58	2.900000e+00	1.398640e+04	
59	2.950000e+00	1.416517e+04	
60	3.000000e+00	1.433578e+04	
61	3.050000e+00	1.449838e+04	
62	3.100000e+00	1.465293e+04	
63	3.150000e+00	1.479918e+04	
64	3.200000e+00	1.493668e+04	
65	3.250000e+00	1.506464e+04	
66	3.300000e+00	1.518195e+04	
Reset re-loads circuit ***************************

Circuit: ***************************

Note: No ".plot", ".print", or ".fourier" lines; no simulations run
