
Note: Compatibility modes selected: hs

Warning: m=xx on .subckt line will override multiplier m hierarchy!


Circuit: ***************************

Doing analysis at TEMP = 25.000000 and TNOM = 25.000000


No. of Data Rows : 67
                          ***************************
                          DC transfer characteristic  Mon Jan  9 13:57:19  2023
--------------------------------------------------------------------------------
Index   v-sweep         rds             
--------------------------------------------------------------------------------
0	0.000000e+00	4.106920e+04	
1	5.000000e-02	6.399208e+04	
2	1.000000e-01	1.398090e+05	
3	1.500000e-01	8.421469e+05	
4	2.000000e-01	5.926942e+06	
5	2.500000e-01	1.457070e+07	
6	3.000000e-01	2.175128e+07	
7	3.500000e-01	2.686840e+07	
8	4.000000e-01	3.057419e+07	
9	4.500000e-01	3.337419e+07	
10	5.000000e-01	3.557202e+07	
11	5.500000e-01	3.735005e+07	
12	6.000000e-01	3.882276e+07	
13	6.500000e-01	4.006555e+07	
14	7.000000e-01	4.113021e+07	
15	7.500000e-01	4.205367e+07	
16	8.000000e-01	4.286302e+07	
17	8.500000e-01	4.357869e+07	
18	9.000000e-01	4.421638e+07	
19	9.500000e-01	4.478840e+07	
20	1.000000e+00	4.530456e+07	
21	1.050000e+00	4.577277e+07	
22	1.100000e+00	4.619948e+07	
23	1.150000e+00	4.659004e+07	
24	1.200000e+00	4.694888e+07	
25	1.250000e+00	4.727975e+07	
26	1.300000e+00	4.758581e+07	
27	1.350000e+00	4.786977e+07	
28	1.400000e+00	4.813395e+07	
29	1.450000e+00	4.838034e+07	
30	1.500000e+00	4.861068e+07	
31	1.550000e+00	4.882650e+07	
32	1.600000e+00	4.902911e+07	
33	1.650000e+00	4.921967e+07	
34	1.700000e+00	4.939919e+07	
35	1.750000e+00	4.956855e+07	
36	1.800000e+00	4.972851e+07	
37	1.850000e+00	4.987969e+07	
38	1.900000e+00	5.002263e+07	
39	1.950000e+00	5.015771e+07	
40	2.000000e+00	5.028520e+07	
41	2.050000e+00	5.040521e+07	
42	2.100000e+00	5.051770e+07	
43	2.150000e+00	5.062247e+07	
44	2.200000e+00	5.071910e+07	
45	2.250000e+00	5.080697e+07	
46	2.300000e+00	5.088521e+07	
47	2.350000e+00	5.095271e+07	
48	2.400000e+00	5.100807e+07	
49	2.450000e+00	5.104958e+07	
50	2.500000e+00	5.107525e+07	
51	2.550000e+00	5.108274e+07	
52	2.600000e+00	5.106942e+07	
53	2.650000e+00	5.103230e+07	
54	2.700000e+00	5.096815e+07	

Index   v-sweep         rds             
--------------------------------------------------------------------------------
55	2.750000e+00	5.087342e+07	
56	2.800000e+00	5.074434e+07	
57	2.850000e+00	5.057700e+07	
58	2.900000e+00	5.036733e+07	
59	2.950000e+00	5.011126e+07	
60	3.000000e+00	4.980480e+07	
61	3.050000e+00	4.944414e+07	
62	3.100000e+00	4.902576e+07	
63	3.150000e+00	4.854657e+07	
64	3.200000e+00	4.800404e+07	
65	3.250000e+00	4.739630e+07	
66	3.300000e+00	4.672228e+07	
Reset re-loads circuit ***************************

Circuit: ***************************

Doing analysis at TEMP = 25.000000 and TNOM = 25.000000


No. of Data Rows : 67
                          ***************************
                          DC transfer characteristic  Mon Jan  9 13:57:19  2023
--------------------------------------------------------------------------------
Index   v-sweep         rds             
--------------------------------------------------------------------------------
0	0.000000e+00	9.845106e+03	
1	5.000000e-02	1.095538e+04	
2	1.000000e-01	1.233972e+04	
3	1.500000e-01	1.411378e+04	
4	2.000000e-01	1.646873e+04	
5	2.500000e-01	1.974458e+04	
6	3.000000e-01	2.460822e+04	
7	3.500000e-01	3.255869e+04	
8	4.000000e-01	4.769888e+04	
9	4.500000e-01	8.475804e+04	
10	5.000000e-01	2.071974e+05	
11	5.500000e-01	5.741171e+05	
12	6.000000e-01	1.209280e+06	
13	6.500000e-01	1.930364e+06	
14	7.000000e-01	2.617506e+06	
15	7.500000e-01	3.237807e+06	
16	8.000000e-01	3.791052e+06	
17	8.500000e-01	4.285042e+06	
18	9.000000e-01	4.728288e+06	
19	9.500000e-01	5.128254e+06	
20	1.000000e+00	5.491141e+06	
21	1.050000e+00	5.822038e+06	
22	1.100000e+00	6.125132e+06	
23	1.150000e+00	6.403891e+06	
24	1.200000e+00	6.661212e+06	
25	1.250000e+00	6.899535e+06	
26	1.300000e+00	7.120936e+06	
27	1.350000e+00	7.327188e+06	
28	1.400000e+00	7.519820e+06	
29	1.450000e+00	7.700159e+06	
30	1.500000e+00	7.869358e+06	
31	1.550000e+00	8.028432e+06	
32	1.600000e+00	8.178271e+06	
33	1.650000e+00	8.319663e+06	
34	1.700000e+00	8.453309e+06	
35	1.750000e+00	8.579832e+06	
36	1.800000e+00	8.699790e+06	
37	1.850000e+00	8.813681e+06	
38	1.900000e+00	8.921955e+06	
39	1.950000e+00	9.025013e+06	
40	2.000000e+00	9.123216e+06	
41	2.050000e+00	9.216886e+06	
42	2.100000e+00	9.306305e+06	
43	2.150000e+00	9.391718e+06	
44	2.200000e+00	9.473327e+06	
45	2.250000e+00	9.551291e+06	
46	2.300000e+00	9.625719e+06	
47	2.350000e+00	9.696659e+06	
48	2.400000e+00	9.764096e+06	
49	2.450000e+00	9.827932e+06	
50	2.500000e+00	9.887983e+06	
51	2.550000e+00	9.943956e+06	
52	2.600000e+00	9.995445e+06	
53	2.650000e+00	1.004191e+07	
54	2.700000e+00	1.008266e+07	

Index   v-sweep         rds             
--------------------------------------------------------------------------------
55	2.750000e+00	1.011686e+07	
56	2.800000e+00	1.014350e+07	
57	2.850000e+00	1.016141e+07	
58	2.900000e+00	1.016926e+07	
59	2.950000e+00	1.016557e+07	
60	3.000000e+00	1.014873e+07	
61	3.050000e+00	1.011704e+07	
62	3.100000e+00	1.006875e+07	
63	3.150000e+00	1.000212e+07	
64	3.200000e+00	9.915523e+06	
65	3.250000e+00	9.807470e+06	
66	3.300000e+00	9.676746e+06	
Reset re-loads circuit ***************************

Circuit: ***************************

Doing analysis at TEMP = 25.000000 and TNOM = 25.000000


No. of Data Rows : 67
                          ***************************
                          DC transfer characteristic  Mon Jan  9 13:57:19  2023
--------------------------------------------------------------------------------
Index   v-sweep         rds             
--------------------------------------------------------------------------------
0	0.000000e+00	5.881007e+03	
1	5.000000e-02	6.240412e+03	
2	1.000000e-01	6.644509e+03	
3	1.500000e-01	7.102184e+03	
4	2.000000e-01	7.624845e+03	
5	2.500000e-01	8.227383e+03	
6	3.000000e-01	8.929614e+03	
7	3.500000e-01	9.758495e+03	
8	4.000000e-01	1.075165e+04	
9	4.500000e-01	1.196323e+04	
10	5.000000e-01	1.347403e+04	
11	5.500000e-01	1.541020e+04	
12	6.000000e-01	1.797982e+04	
13	6.500000e-01	2.155139e+04	
14	7.000000e-01	2.684003e+04	
15	7.500000e-01	3.540944e+04	
16	8.000000e-01	5.121054e+04	
17	8.500000e-01	8.539213e+04	
18	9.000000e-01	1.649104e+05	
19	9.500000e-01	3.184500e+05	
20	1.000000e+00	5.345461e+05	
21	1.050000e+00	7.779534e+05	
22	1.100000e+00	1.024139e+06	
23	1.150000e+00	1.262009e+06	
24	1.200000e+00	1.487560e+06	
25	1.250000e+00	1.699847e+06	
26	1.300000e+00	1.899150e+06	
27	1.350000e+00	2.086214e+06	
28	1.400000e+00	2.261926e+06	
29	1.450000e+00	2.427178e+06	
30	1.500000e+00	2.582820e+06	
31	1.550000e+00	2.729632e+06	
32	1.600000e+00	2.868327e+06	
33	1.650000e+00	2.999549e+06	
34	1.700000e+00	3.123880e+06	
35	1.750000e+00	3.241844e+06	
36	1.800000e+00	3.353918e+06	
37	1.850000e+00	3.460529e+06	
38	1.900000e+00	3.562067e+06	
39	1.950000e+00	3.658885e+06	
40	2.000000e+00	3.751304e+06	
41	2.050000e+00	3.839618e+06	
42	2.100000e+00	3.924093e+06	
43	2.150000e+00	4.004975e+06	
44	2.200000e+00	4.082487e+06	
45	2.250000e+00	4.156834e+06	
46	2.300000e+00	4.228205e+06	
47	2.350000e+00	4.296770e+06	
48	2.400000e+00	4.362685e+06	
49	2.450000e+00	4.426089e+06	
50	2.500000e+00	4.487102e+06	
51	2.550000e+00	4.545825e+06	
52	2.600000e+00	4.602338e+06	
53	2.650000e+00	4.656690e+06	
54	2.700000e+00	4.708901e+06	

Index   v-sweep         rds             
--------------------------------------------------------------------------------
55	2.750000e+00	4.758946e+06	
56	2.800000e+00	4.806756e+06	
57	2.850000e+00	4.852201e+06	
58	2.900000e+00	4.895083e+06	
59	2.950000e+00	4.935123e+06	
60	3.000000e+00	4.971950e+06	
61	3.050000e+00	5.005093e+06	
62	3.100000e+00	5.033965e+06	
63	3.150000e+00	5.057864e+06	
64	3.200000e+00	5.075965e+06	
65	3.250000e+00	5.087325e+06	
66	3.300000e+00	5.090895e+06	
Reset re-loads circuit ***************************

Circuit: ***************************

Doing analysis at TEMP = 25.000000 and TNOM = 25.000000


No. of Data Rows : 67
                          ***************************
                          DC transfer characteristic  Mon Jan  9 13:57:19  2023
--------------------------------------------------------------------------------
Index   v-sweep         rds             
--------------------------------------------------------------------------------
0	0.000000e+00	4.429691e+03	
1	5.000000e-02	4.612638e+03	
2	1.000000e-01	4.810411e+03	
3	1.500000e-01	5.024889e+03	
4	2.000000e-01	5.258279e+03	
5	2.500000e-01	5.513198e+03	
6	3.000000e-01	5.792767e+03	
7	3.500000e-01	6.100741e+03	
8	4.000000e-01	6.441681e+03	
9	4.500000e-01	6.821176e+03	
10	5.000000e-01	7.246155e+03	
11	5.500000e-01	7.725314e+03	
12	6.000000e-01	8.269714e+03	
13	6.500000e-01	8.893647e+03	
14	7.000000e-01	9.615904e+03	
15	7.500000e-01	1.046170e+04	
16	8.000000e-01	1.146566e+04	
17	8.500000e-01	1.267667e+04	
18	9.000000e-01	1.416600e+04	
19	9.500000e-01	1.604175e+04	
20	1.000000e+00	1.847582e+04	
21	1.050000e+00	2.175826e+04	
22	1.100000e+00	2.641569e+04	
23	1.150000e+00	3.349255e+04	
24	1.200000e+00	4.526119e+04	
25	1.250000e+00	6.687425e+04	
26	1.300000e+00	1.082647e+05	
27	1.350000e+00	1.797114e+05	
28	1.400000e+00	2.803599e+05	
29	1.450000e+00	3.994366e+05	
30	1.500000e+00	5.264402e+05	
31	1.550000e+00	6.548350e+05	
32	1.600000e+00	7.811788e+05	
33	1.650000e+00	9.037961e+05	
34	1.700000e+00	1.021940e+06	
35	1.750000e+00	1.135345e+06	
36	1.800000e+00	1.243995e+06	
37	1.850000e+00	1.348003e+06	
38	1.900000e+00	1.447546e+06	
39	1.950000e+00	1.542831e+06	
40	2.000000e+00	1.634077e+06	
41	2.050000e+00	1.721498e+06	
42	2.100000e+00	1.805308e+06	
43	2.150000e+00	1.885707e+06	
44	2.200000e+00	1.962886e+06	
45	2.250000e+00	2.037026e+06	
46	2.300000e+00	2.108295e+06	
47	2.350000e+00	2.176851e+06	
48	2.400000e+00	2.242841e+06	
49	2.450000e+00	2.306404e+06	
50	2.500000e+00	2.367668e+06	
51	2.550000e+00	2.426754e+06	
52	2.600000e+00	2.483772e+06	
53	2.650000e+00	2.538828e+06	
54	2.700000e+00	2.592019e+06	

Index   v-sweep         rds             
--------------------------------------------------------------------------------
55	2.750000e+00	2.643434e+06	
56	2.800000e+00	2.693154e+06	
57	2.850000e+00	2.741254e+06	
58	2.900000e+00	2.787797e+06	
59	2.950000e+00	2.832834e+06	
60	3.000000e+00	2.876402e+06	
61	3.050000e+00	2.918520e+06	
62	3.100000e+00	2.959182e+06	
63	3.150000e+00	2.998356e+06	
64	3.200000e+00	3.035970e+06	
65	3.250000e+00	3.071910e+06	
66	3.300000e+00	3.106006e+06	
Reset re-loads circuit ***************************

Circuit: ***************************

Doing analysis at TEMP = 25.000000 and TNOM = 25.000000


No. of Data Rows : 67
                          ***************************
                          DC transfer characteristic  Mon Jan  9 13:57:19  2023
--------------------------------------------------------------------------------
Index   v-sweep         rds             
--------------------------------------------------------------------------------
0	0.000000e+00	3.723787e+03	
1	5.000000e-02	3.838262e+03	
2	1.000000e-01	3.959474e+03	
3	1.500000e-01	4.088036e+03	
4	2.000000e-01	4.224635e+03	
5	2.500000e-01	4.370050e+03	
6	3.000000e-01	4.525163e+03	
7	3.500000e-01	4.690976e+03	
8	4.000000e-01	4.868635e+03	
9	4.500000e-01	5.059456e+03	
10	5.000000e-01	5.264958e+03	
11	5.500000e-01	5.486903e+03	
12	6.000000e-01	5.727343e+03	
13	6.500000e-01	5.988693e+03	
14	7.000000e-01	6.273802e+03	
15	7.500000e-01	6.586063e+03	
16	8.000000e-01	6.929548e+03	
17	8.500000e-01	7.309186e+03	
18	9.000000e-01	7.730999e+03	
19	9.500000e-01	8.202429e+03	
20	1.000000e+00	8.732773e+03	
21	1.050000e+00	9.333812e+03	
22	1.100000e+00	1.002069e+04	
23	1.150000e+00	1.081319e+04	
24	1.200000e+00	1.173773e+04	
25	1.250000e+00	1.283028e+04	
26	1.300000e+00	1.414118e+04	
27	1.350000e+00	1.574313e+04	
28	1.400000e+00	1.774495e+04	
29	1.450000e+00	2.031707e+04	
30	1.500000e+00	2.374112e+04	
31	1.550000e+00	2.851321e+04	
32	1.600000e+00	3.556947e+04	
33	1.650000e+00	4.676704e+04	
34	1.700000e+00	6.565111e+04	
35	1.750000e+00	9.743140e+04	
36	1.800000e+00	1.458264e+05	
37	1.850000e+00	2.094213e+05	
38	1.900000e+00	2.833025e+05	
39	1.950000e+00	3.626554e+05	
40	2.000000e+00	4.441349e+05	
41	2.050000e+00	5.257054e+05	
42	2.100000e+00	6.061919e+05	
43	2.150000e+00	6.849365e+05	
44	2.200000e+00	7.615856e+05	
45	2.250000e+00	8.359649e+05	
46	2.300000e+00	9.080073e+05	
47	2.350000e+00	9.777096e+05	
48	2.400000e+00	1.045108e+06	
49	2.450000e+00	1.110260e+06	
50	2.500000e+00	1.173237e+06	
51	2.550000e+00	1.234119e+06	
52	2.600000e+00	1.292987e+06	
53	2.650000e+00	1.349923e+06	
54	2.700000e+00	1.405008e+06	

Index   v-sweep         rds             
--------------------------------------------------------------------------------
55	2.750000e+00	1.458322e+06	
56	2.800000e+00	1.509941e+06	
57	2.850000e+00	1.559938e+06	
58	2.900000e+00	1.608384e+06	
59	2.950000e+00	1.655347e+06	
60	3.000000e+00	1.700888e+06	
61	3.050000e+00	1.745070e+06	
62	3.100000e+00	1.787949e+06	
63	3.150000e+00	1.829580e+06	
64	3.200000e+00	1.870011e+06	
65	3.250000e+00	1.909288e+06	
66	3.300000e+00	1.947451e+06	
Reset re-loads circuit ***************************

Circuit: ***************************

Doing analysis at TEMP = 25.000000 and TNOM = 25.000000


No. of Data Rows : 67
                          ***************************
                          DC transfer characteristic  Mon Jan  9 13:57:19  2023
--------------------------------------------------------------------------------
Index   v-sweep         rds             
--------------------------------------------------------------------------------
0	0.000000e+00	3.337907e+03	
1	5.000000e-02	3.418461e+03	
2	1.000000e-01	3.502666e+03	
3	1.500000e-01	3.590776e+03	
4	2.000000e-01	3.683070e+03	
5	2.500000e-01	3.779853e+03	
6	3.000000e-01	3.881459e+03	
7	3.500000e-01	3.988258e+03	
8	4.000000e-01	4.100658e+03	
9	4.500000e-01	4.219113e+03	
10	5.000000e-01	4.344123e+03	
11	5.500000e-01	4.476249e+03	
12	6.000000e-01	4.616116e+03	
13	6.500000e-01	4.764423e+03	
14	7.000000e-01	4.921959e+03	
15	7.500000e-01	5.089612e+03	
16	8.000000e-01	5.268388e+03	
17	8.500000e-01	5.459432e+03	
18	9.000000e-01	5.664052e+03	
19	9.500000e-01	5.883747e+03	
20	1.000000e+00	6.120246e+03	
21	1.050000e+00	6.375554e+03	
22	1.100000e+00	6.652006e+03	
23	1.150000e+00	6.952343e+03	
24	1.200000e+00	7.279800e+03	
25	1.250000e+00	7.638223e+03	
26	1.300000e+00	8.032223e+03	
27	1.350000e+00	8.467374e+03	
28	1.400000e+00	8.950480e+03	
29	1.450000e+00	9.489934e+03	
30	1.500000e+00	1.009621e+04	
31	1.550000e+00	1.078255e+04	
32	1.600000e+00	1.156595e+04	
33	1.650000e+00	1.246860e+04	
34	1.700000e+00	1.352001e+04	
35	1.750000e+00	1.476035e+04	
36	1.800000e+00	1.624573e+04	
37	1.850000e+00	1.805697e+04	
38	1.900000e+00	2.031495e+04	
39	1.950000e+00	2.320852e+04	
40	2.000000e+00	2.704839e+04	
41	2.050000e+00	3.237467e+04	
42	2.100000e+00	4.016712e+04	
43	2.150000e+00	5.217892e+04	
44	2.200000e+00	7.109699e+04	
45	2.250000e+00	9.961385e+04	
46	2.300000e+00	1.384566e+05	
47	2.350000e+00	1.858497e+05	
48	2.400000e+00	2.389983e+05	
49	2.450000e+00	2.954308e+05	
50	2.500000e+00	3.533853e+05	
51	2.550000e+00	4.117124e+05	
52	2.600000e+00	4.696888e+05	
53	2.650000e+00	5.268670e+05	
54	2.700000e+00	5.829746e+05	

Index   v-sweep         rds             
--------------------------------------------------------------------------------
55	2.750000e+00	6.378506e+05	
56	2.800000e+00	6.914056e+05	
57	2.850000e+00	7.435964e+05	
58	2.900000e+00	7.944102e+05	
59	2.950000e+00	8.438539e+05	
60	3.000000e+00	8.919475e+05	
61	3.050000e+00	9.387197e+05	
62	3.100000e+00	9.842041e+05	
63	3.150000e+00	1.028438e+06	
64	3.200000e+00	1.071460e+06	
65	3.250000e+00	1.113309e+06	
66	3.300000e+00	1.154026e+06	
Reset re-loads circuit ***************************

Circuit: ***************************

Note: No ".plot", ".print", or ".fourier" lines; no simulations run
