
Note: Compatibility modes selected: hs

Warning: m=xx on .subckt line will override multiplier m hierarchy!


Circuit: ***************************

Doing analysis at TEMP = 25.000000 and TNOM = 25.000000


No. of Data Rows : 67
                          ***************************
                          DC transfer characteristic  Mon Jan  9 13:57:20  2023
--------------------------------------------------------------------------------
Index   v-sweep         rds             
--------------------------------------------------------------------------------
0	0.000000e+00	8.634461e+05	
1	5.000000e-02	1.237537e+06	
2	1.000000e-01	2.160381e+06	
3	1.500000e-01	6.600158e+06	
4	2.000000e-01	4.867538e+07	
5	2.500000e-01	1.828662e+08	
6	3.000000e-01	3.301010e+08	
7	3.500000e-01	4.437178e+08	
8	4.000000e-01	5.283829e+08	
9	4.500000e-01	5.935411e+08	
10	5.000000e-01	6.455027e+08	
11	5.500000e-01	6.881476e+08	
12	6.000000e-01	7.239310e+08	
13	6.500000e-01	7.544813e+08	
14	7.000000e-01	7.809266e+08	
15	7.500000e-01	8.040785e+08	
16	8.000000e-01	8.245391e+08	
17	8.500000e-01	8.427670e+08	
18	9.000000e-01	8.591184e+08	
19	9.500000e-01	8.738756e+08	
20	1.000000e+00	8.872654e+08	
21	1.050000e+00	8.994726e+08	
22	1.100000e+00	9.106494e+08	
23	1.150000e+00	9.209225e+08	
24	1.200000e+00	9.303984e+08	
25	1.250000e+00	9.391673e+08	
26	1.300000e+00	9.473058e+08	
27	1.350000e+00	9.548801e+08	
28	1.400000e+00	9.619472e+08	
29	1.450000e+00	9.685564e+08	
30	1.500000e+00	9.747511e+08	
31	1.550000e+00	9.805689e+08	
32	1.600000e+00	9.860432e+08	
33	1.650000e+00	9.912032e+08	
34	1.700000e+00	9.960746e+08	
35	1.750000e+00	1.000680e+09	
36	1.800000e+00	1.005039e+09	
37	1.850000e+00	1.009169e+09	
38	1.900000e+00	1.013084e+09	
39	1.950000e+00	1.016795e+09	
40	2.000000e+00	1.020310e+09	
41	2.050000e+00	1.023636e+09	
42	2.100000e+00	1.026772e+09	
43	2.150000e+00	1.029717e+09	
44	2.200000e+00	1.032465e+09	
45	2.250000e+00	1.035004e+09	
46	2.300000e+00	1.037317e+09	
47	2.350000e+00	1.039382e+09	
48	2.400000e+00	1.041169e+09	
49	2.450000e+00	1.042642e+09	
50	2.500000e+00	1.043759e+09	
51	2.550000e+00	1.044468e+09	
52	2.600000e+00	1.044713e+09	
53	2.650000e+00	1.044427e+09	
54	2.700000e+00	1.043537e+09	

Index   v-sweep         rds             
--------------------------------------------------------------------------------
55	2.750000e+00	1.041966e+09	
56	2.800000e+00	1.039627e+09	
57	2.850000e+00	1.036432e+09	
58	2.900000e+00	1.032290e+09	
59	2.950000e+00	1.027107e+09	
60	3.000000e+00	1.020793e+09	
61	3.050000e+00	1.013262e+09	
62	3.100000e+00	1.004433e+09	
63	3.150000e+00	9.942391e+08	
64	3.200000e+00	9.826230e+08	
65	3.250000e+00	9.695457e+08	
66	3.300000e+00	9.549865e+08	
Reset re-loads circuit ***************************

Circuit: ***************************

Doing analysis at TEMP = 25.000000 and TNOM = 25.000000


No. of Data Rows : 67
                          ***************************
                          DC transfer characteristic  Mon Jan  9 13:57:20  2023
--------------------------------------------------------------------------------
Index   v-sweep         rds             
--------------------------------------------------------------------------------
0	0.000000e+00	2.390769e+05	
1	5.000000e-02	2.643191e+05	
2	1.000000e-01	2.953410e+05	
3	1.500000e-01	3.343820e+05	
4	2.000000e-01	3.850079e+05	
5	2.500000e-01	4.532574e+05	
6	3.000000e-01	5.502185e+05	
7	3.500000e-01	6.985967e+05	
8	4.000000e-01	9.525969e+05	
9	4.500000e-01	1.473175e+06	
10	5.000000e-01	2.878573e+06	
11	5.500000e-01	7.453357e+06	
12	6.000000e-01	1.817703e+07	
13	6.500000e-01	3.293205e+07	
14	7.000000e-01	4.802992e+07	
15	7.500000e-01	6.200794e+07	
16	8.000000e-01	7.463686e+07	
17	8.500000e-01	8.602699e+07	
18	9.000000e-01	9.634347e+07	
19	9.500000e-01	1.057377e+08	
20	1.000000e+00	1.143364e+08	
21	1.050000e+00	1.222432e+08	
22	1.100000e+00	1.295438e+08	
23	1.150000e+00	1.363091e+08	
24	1.200000e+00	1.425987e+08	
25	1.250000e+00	1.484630e+08	
26	1.300000e+00	1.539454e+08	
27	1.350000e+00	1.590829e+08	
28	1.400000e+00	1.639080e+08	
29	1.450000e+00	1.684490e+08	
30	1.500000e+00	1.727307e+08	
31	1.550000e+00	1.767749e+08	
32	1.600000e+00	1.806013e+08	
33	1.650000e+00	1.842272e+08	
34	1.700000e+00	1.876681e+08	
35	1.750000e+00	1.909378e+08	
36	1.800000e+00	1.940491e+08	
37	1.850000e+00	1.970131e+08	
38	1.900000e+00	1.998401e+08	
39	1.950000e+00	2.025394e+08	
40	2.000000e+00	2.051194e+08	
41	2.050000e+00	2.075875e+08	
42	2.100000e+00	2.099505e+08	
43	2.150000e+00	2.122143e+08	
44	2.200000e+00	2.143841e+08	
45	2.250000e+00	2.164639e+08	
46	2.300000e+00	2.184569e+08	
47	2.350000e+00	2.203650e+08	
48	2.400000e+00	2.221887e+08	
49	2.450000e+00	2.239270e+08	
50	2.500000e+00	2.255768e+08	
51	2.550000e+00	2.271328e+08	
52	2.600000e+00	2.285873e+08	
53	2.650000e+00	2.299296e+08	
54	2.700000e+00	2.311457e+08	

Index   v-sweep         rds             
--------------------------------------------------------------------------------
55	2.750000e+00	2.322180e+08	
56	2.800000e+00	2.331255e+08	
57	2.850000e+00	2.338428e+08	
58	2.900000e+00	2.343409e+08	
59	2.950000e+00	2.345867e+08	
60	3.000000e+00	2.345439e+08	
61	3.050000e+00	2.341733e+08	
62	3.100000e+00	2.334339e+08	
63	3.150000e+00	2.322838e+08	
64	3.200000e+00	2.306824e+08	
65	3.250000e+00	2.285915e+08	
66	3.300000e+00	2.259780e+08	
Reset re-loads circuit ***************************

Circuit: ***************************

Doing analysis at TEMP = 25.000000 and TNOM = 25.000000


No. of Data Rows : 67
                          ***************************
                          DC transfer characteristic  Mon Jan  9 13:57:20  2023
--------------------------------------------------------------------------------
Index   v-sweep         rds             
--------------------------------------------------------------------------------
0	0.000000e+00	1.439905e+05	
1	5.000000e-02	1.524678e+05	
2	1.000000e-01	1.619562e+05	
3	1.500000e-01	1.726478e+05	
4	2.000000e-01	1.847869e+05	
5	2.500000e-01	1.986888e+05	
6	3.000000e-01	2.147672e+05	
7	3.500000e-01	2.335762e+05	
8	4.000000e-01	2.558756e+05	
9	4.500000e-01	2.827351e+05	
10	5.000000e-01	3.157102e+05	
11	5.500000e-01	3.571528e+05	
12	6.000000e-01	4.107909e+05	
13	6.500000e-01	4.828966e+05	
14	7.000000e-01	5.848521e+05	
15	7.500000e-01	7.394417e+05	
16	8.000000e-01	9.983154e+05	
17	8.500000e-01	1.495518e+06	
18	9.000000e-01	2.592856e+06	
19	9.500000e-01	4.973838e+06	
20	1.000000e+00	8.957512e+06	
21	1.050000e+00	1.394875e+07	
22	1.100000e+00	1.924078e+07	
23	1.150000e+00	2.446215e+07	
24	1.200000e+00	2.947065e+07	
25	1.250000e+00	3.422419e+07	
26	1.300000e+00	3.871950e+07	
27	1.350000e+00	4.296757e+07	
28	1.400000e+00	4.698403e+07	
29	1.450000e+00	5.078544e+07	
30	1.500000e+00	5.438776e+07	
31	1.550000e+00	5.780588e+07	
32	1.600000e+00	6.105344e+07	
33	1.650000e+00	6.414288e+07	
34	1.700000e+00	6.708548e+07	
35	1.750000e+00	6.989151e+07	
36	1.800000e+00	7.257031e+07	
37	1.850000e+00	7.513038e+07	
38	1.900000e+00	7.757948e+07	
39	1.950000e+00	7.992471e+07	
40	2.000000e+00	8.217256e+07	
41	2.050000e+00	8.432900e+07	
42	2.100000e+00	8.639951e+07	
43	2.150000e+00	8.838913e+07	
44	2.200000e+00	9.030253e+07	
45	2.250000e+00	9.214399e+07	
46	2.300000e+00	9.391748e+07	
47	2.350000e+00	9.562664e+07	
48	2.400000e+00	9.727481e+07	
49	2.450000e+00	9.886503e+07	
50	2.500000e+00	1.004000e+08	
51	2.550000e+00	1.018820e+08	
52	2.600000e+00	1.033130e+08	
53	2.650000e+00	1.046944e+08	
54	2.700000e+00	1.060270e+08	

Index   v-sweep         rds             
--------------------------------------------------------------------------------
55	2.750000e+00	1.073107e+08	
56	2.800000e+00	1.085446e+08	
57	2.850000e+00	1.097267e+08	
58	2.900000e+00	1.108535e+08	
59	2.950000e+00	1.119200e+08	
60	3.000000e+00	1.129191e+08	
61	3.050000e+00	1.138418e+08	
62	3.100000e+00	1.146765e+08	
63	3.150000e+00	1.154091e+08	
64	3.200000e+00	1.160226e+08	
65	3.250000e+00	1.164973e+08	
66	3.300000e+00	1.168108e+08	
Reset re-loads circuit ***************************

Circuit: ***************************

Doing analysis at TEMP = 25.000000 and TNOM = 25.000000


No. of Data Rows : 67
                          ***************************
                          DC transfer characteristic  Mon Jan  9 13:57:20  2023
--------------------------------------------------------------------------------
Index   v-sweep         rds             
--------------------------------------------------------------------------------
0	0.000000e+00	1.074976e+05	
1	5.000000e-02	1.118265e+05	
2	1.000000e-01	1.164958e+05	
3	1.500000e-01	1.215475e+05	
4	2.000000e-01	1.270304e+05	
5	2.500000e-01	1.330022e+05	
6	3.000000e-01	1.395314e+05	
7	3.500000e-01	1.466997e+05	
8	4.000000e-01	1.546058e+05	
9	4.500000e-01	1.633696e+05	
10	5.000000e-01	1.731388e+05	
11	5.500000e-01	1.840968e+05	
12	6.000000e-01	1.964746e+05	
13	6.500000e-01	2.105669e+05	
14	7.000000e-01	2.267565e+05	
15	7.500000e-01	2.455486e+05	
16	8.000000e-01	2.676252e+05	
17	8.500000e-01	2.939285e+05	
18	9.000000e-01	3.257987e+05	
19	9.500000e-01	3.652070e+05	
20	1.000000e+00	4.151741e+05	
21	1.050000e+00	4.805647e+05	
22	1.100000e+00	5.697095e+05	
23	1.150000e+00	6.979898e+05	
24	1.200000e+00	8.963867e+05	
25	1.250000e+00	1.232361e+06	
26	1.300000e+00	1.851113e+06	
27	1.350000e+00	2.987005e+06	
28	1.400000e+00	4.788152e+06	
29	1.450000e+00	7.127819e+06	
30	1.500000e+00	9.755908e+06	
31	1.550000e+00	1.248382e+07	
32	1.600000e+00	1.520751e+07	
33	1.650000e+00	1.787589e+07	
34	1.700000e+00	2.046542e+07	
35	1.750000e+00	2.296639e+07	
36	1.800000e+00	2.537598e+07	
37	1.850000e+00	2.769487e+07	
38	1.900000e+00	2.992554e+07	
39	1.950000e+00	3.207132e+07	
40	2.000000e+00	3.413591e+07	
41	2.050000e+00	3.612314e+07	
42	2.100000e+00	3.803679e+07	
43	2.150000e+00	3.988054e+07	
44	2.200000e+00	4.165790e+07	
45	2.250000e+00	4.337222e+07	
46	2.300000e+00	4.502665e+07	
47	2.350000e+00	4.662418e+07	
48	2.400000e+00	4.816762e+07	
49	2.450000e+00	4.965960e+07	
50	2.500000e+00	5.110260e+07	
51	2.550000e+00	5.249897e+07	
52	2.600000e+00	5.385088e+07	
53	2.650000e+00	5.516039e+07	
54	2.700000e+00	5.642943e+07	

Index   v-sweep         rds             
--------------------------------------------------------------------------------
55	2.750000e+00	5.765979e+07	
56	2.800000e+00	5.885314e+07	
57	2.850000e+00	6.001098e+07	
58	2.900000e+00	6.113467e+07	
59	2.950000e+00	6.222536e+07	
60	3.000000e+00	6.328393e+07	
61	3.050000e+00	6.431097e+07	
62	3.100000e+00	6.530665e+07	
63	3.150000e+00	6.627061e+07	
64	3.200000e+00	6.720184e+07	
65	3.250000e+00	6.809849e+07	
66	3.300000e+00	6.895773e+07	
Reset re-loads circuit ***************************

Circuit: ***************************

Doing analysis at TEMP = 25.000000 and TNOM = 25.000000


No. of Data Rows : 67
                          ***************************
                          DC transfer characteristic  Mon Jan  9 13:57:20  2023
--------------------------------------------------------------------------------
Index   v-sweep         rds             
--------------------------------------------------------------------------------
0	0.000000e+00	8.915849e+04	
1	5.000000e-02	9.185087e+04	
2	1.000000e-01	9.469801e+04	
3	1.500000e-01	9.771361e+04	
4	2.000000e-01	1.009131e+05	
5	2.500000e-01	1.043138e+05	
6	3.000000e-01	1.079353e+05	
7	3.500000e-01	1.117997e+05	
8	4.000000e-01	1.159325e+05	
9	4.500000e-01	1.203625e+05	
10	5.000000e-01	1.251230e+05	
11	5.500000e-01	1.302523e+05	
12	6.000000e-01	1.357951e+05	
13	6.500000e-01	1.418034e+05	
14	7.000000e-01	1.483383e+05	
15	7.500000e-01	1.554724e+05	
16	8.000000e-01	1.632919e+05	
17	8.500000e-01	1.719005e+05	
18	9.000000e-01	1.814241e+05	
19	9.500000e-01	1.920165e+05	
20	1.000000e+00	2.038685e+05	
21	1.050000e+00	2.172187e+05	
22	1.100000e+00	2.323704e+05	
23	1.150000e+00	2.497145e+05	
24	1.200000e+00	2.697637e+05	
25	1.250000e+00	2.932042e+05	
26	1.300000e+00	3.209752e+05	
27	1.350000e+00	3.543978e+05	
28	1.400000e+00	3.953893e+05	
29	1.450000e+00	4.468403e+05	
30	1.500000e+00	5.133112e+05	
31	1.550000e+00	6.023998e+05	
32	1.600000e+00	7.275839e+05	
33	1.650000e+00	9.143087e+05	
34	1.700000e+00	1.211987e+06	
35	1.750000e+00	1.708073e+06	
36	1.800000e+00	2.509507e+06	
37	1.850000e+00	3.659489e+06	
38	1.900000e+00	5.092630e+06	
39	1.950000e+00	6.699628e+06	
40	2.000000e+00	8.390850e+06	
41	2.050000e+00	1.010908e+07	
42	2.100000e+00	1.182105e+07	
43	2.150000e+00	1.350808e+07	
44	2.200000e+00	1.515991e+07	
45	2.250000e+00	1.677113e+07	
46	2.300000e+00	1.833912e+07	
47	2.350000e+00	1.986296e+07	
48	2.400000e+00	2.134271e+07	
49	2.450000e+00	2.277904e+07	
50	2.500000e+00	2.417296e+07	
51	2.550000e+00	2.552571e+07	
52	2.600000e+00	2.683863e+07	
53	2.650000e+00	2.811311e+07	
54	2.700000e+00	2.935056e+07	

Index   v-sweep         rds             
--------------------------------------------------------------------------------
55	2.750000e+00	3.055236e+07	
56	2.800000e+00	3.171988e+07	
57	2.850000e+00	3.285444e+07	
58	2.900000e+00	3.395732e+07	
59	2.950000e+00	3.502975e+07	
60	3.000000e+00	3.607290e+07	
61	3.050000e+00	3.708790e+07	
62	3.100000e+00	3.807583e+07	
63	3.150000e+00	3.903770e+07	
64	3.200000e+00	3.997446e+07	
65	3.250000e+00	4.088701e+07	
66	3.300000e+00	4.177614e+07	
Reset re-loads circuit ***************************

Circuit: ***************************

Doing analysis at TEMP = 25.000000 and TNOM = 25.000000


No. of Data Rows : 67
                          ***************************
                          DC transfer characteristic  Mon Jan  9 13:57:20  2023
--------------------------------------------------------------------------------
Index   v-sweep         rds             
--------------------------------------------------------------------------------
0	0.000000e+00	7.877293e+04	
1	5.000000e-02	8.065069e+04	
2	1.000000e-01	8.261190e+04	
3	1.500000e-01	8.466224e+04	
4	2.000000e-01	8.680792e+04	
5	2.500000e-01	8.905575e+04	
6	3.000000e-01	9.141318e+04	
7	3.500000e-01	9.388844e+04	
8	4.000000e-01	9.649057e+04	
9	4.500000e-01	9.922958e+04	
10	5.000000e-01	1.021165e+05	
11	5.500000e-01	1.051638e+05	
12	6.000000e-01	1.083850e+05	
13	6.500000e-01	1.117956e+05	
14	7.000000e-01	1.154126e+05	
15	7.500000e-01	1.192555e+05	
16	8.000000e-01	1.233461e+05	
17	8.500000e-01	1.277090e+05	
18	9.000000e-01	1.323725e+05	
19	9.500000e-01	1.373686e+05	
20	1.000000e+00	1.427343e+05	
21	1.050000e+00	1.485121e+05	
22	1.100000e+00	1.547514e+05	
23	1.150000e+00	1.615098e+05	
24	1.200000e+00	1.688548e+05	
25	1.250000e+00	1.768663e+05	
26	1.300000e+00	1.856393e+05	
27	1.350000e+00	1.952877e+05	
28	1.400000e+00	2.059495e+05	
29	1.450000e+00	2.177933e+05	
30	1.500000e+00	2.310272e+05	
31	1.550000e+00	2.459112e+05	
32	1.600000e+00	2.627747e+05	
33	1.650000e+00	2.820411e+05	
34	1.700000e+00	3.042640e+05	
35	1.750000e+00	3.301816e+05	
36	1.800000e+00	3.608008e+05	
37	1.850000e+00	3.975320e+05	
38	1.900000e+00	4.424139e+05	
39	1.950000e+00	4.985061e+05	
40	2.000000e+00	5.706078e+05	
41	2.050000e+00	6.666387e+05	
42	2.100000e+00	8.003506e+05	
43	2.150000e+00	9.963424e+05	
44	2.200000e+00	1.296673e+06	
45	2.250000e+00	1.759235e+06	
46	2.300000e+00	2.429693e+06	
47	2.350000e+00	3.304508e+06	
48	2.400000e+00	4.335953e+06	
49	2.450000e+00	5.466772e+06	
50	2.500000e+00	6.651390e+06	
51	2.550000e+00	7.859015e+06	
52	2.600000e+00	9.070138e+06	
53	2.650000e+00	1.027268e+07	
54	2.700000e+00	1.145922e+07	

Index   v-sweep         rds             
--------------------------------------------------------------------------------
55	2.750000e+00	1.262527e+07	
56	2.800000e+00	1.376817e+07	
57	2.850000e+00	1.488644e+07	
58	2.900000e+00	1.597935e+07	
59	2.950000e+00	1.704667e+07	
60	3.000000e+00	1.808851e+07	
61	3.050000e+00	1.910518e+07	
62	3.100000e+00	2.009715e+07	
63	3.150000e+00	2.106496e+07	
64	3.200000e+00	2.200922e+07	
65	3.250000e+00	2.293058e+07	
66	3.300000e+00	2.382970e+07	
Reset re-loads circuit ***************************

Circuit: ***************************

Note: No ".plot", ".print", or ".fourier" lines; no simulations run
