
Note: Compatibility modes selected: hs

Warning: m=xx on .subckt line will override multiplier m hierarchy!


Circuit: ***************************

Doing analysis at TEMP = -40.000000 and TNOM = -40.000000


No. of Data Rows : 67
                          ***************************
                          DC transfer characteristic  Mon Jan  9 13:57:20  2023
--------------------------------------------------------------------------------
Index   v-sweep         rds             
--------------------------------------------------------------------------------
0	0.000000e+00	4.702762e+03	
1	5.000000e-02	1.247413e+04	
2	1.000000e-01	5.950508e+04	
3	1.500000e-01	1.869370e+05	
4	2.000000e-01	3.256946e+05	
5	2.500000e-01	4.325105e+05	
6	3.000000e-01	5.099642e+05	
7	3.500000e-01	5.670898e+05	
8	4.000000e-01	6.105018e+05	
9	4.500000e-01	6.444269e+05	
10	5.000000e-01	6.715663e+05	
11	5.500000e-01	6.936975e+05	
12	6.000000e-01	7.120304e+05	
13	6.500000e-01	7.274147e+05	
14	7.000000e-01	7.404645e+05	
15	7.500000e-01	7.516345e+05	
16	8.000000e-01	7.612686e+05	
17	8.500000e-01	7.696315e+05	
18	9.000000e-01	7.769309e+05	
19	9.500000e-01	7.833315e+05	
20	1.000000e+00	7.889659e+05	
21	1.050000e+00	7.939420e+05	
22	1.100000e+00	7.983485e+05	
23	1.150000e+00	8.022589e+05	
24	1.200000e+00	8.057349e+05	
25	1.250000e+00	8.088283e+05	
26	1.300000e+00	8.115832e+05	
27	1.350000e+00	8.140372e+05	
28	1.400000e+00	8.162227e+05	
29	1.450000e+00	8.181675e+05	
30	1.500000e+00	8.198959e+05	
31	1.550000e+00	8.214287e+05	
32	1.600000e+00	8.227843e+05	
33	1.650000e+00	8.239784e+05	
34	1.700000e+00	8.250247e+05	
35	1.750000e+00	8.259345e+05	
36	1.800000e+00	8.267174e+05	
37	1.850000e+00	8.273806e+05	
38	1.900000e+00	8.279293e+05	
39	1.950000e+00	8.283663e+05	
40	2.000000e+00	8.286917e+05	
41	2.050000e+00	8.289028e+05	
42	2.100000e+00	8.289934e+05	
43	2.150000e+00	8.289539e+05	
44	2.200000e+00	8.287706e+05	
45	2.250000e+00	8.284252e+05	
46	2.300000e+00	8.278945e+05	
47	2.350000e+00	8.271500e+05	
48	2.400000e+00	8.261579e+05	
49	2.450000e+00	8.248781e+05	
50	2.500000e+00	8.232649e+05	
51	2.550000e+00	8.212664e+05	
52	2.600000e+00	8.188252e+05	
53	2.650000e+00	8.158785e+05	
54	2.700000e+00	8.123588e+05	

Index   v-sweep         rds             
--------------------------------------------------------------------------------
55	2.750000e+00	8.081951e+05	
56	2.800000e+00	8.033140e+05	
57	2.850000e+00	7.976412e+05	
58	2.900000e+00	7.911035e+05	
59	2.950000e+00	7.836312e+05	
60	3.000000e+00	7.751600e+05	
61	3.050000e+00	7.656341e+05	
62	3.100000e+00	7.550082e+05	
63	3.150000e+00	7.432509e+05	
64	3.200000e+00	7.303459e+05	
65	3.250000e+00	7.162951e+05	
66	3.300000e+00	7.011189e+05	
Reset re-loads circuit ***************************

Circuit: ***************************

Doing analysis at TEMP = -40.000000 and TNOM = -40.000000


No. of Data Rows : 67
                          ***************************
                          DC transfer characteristic  Mon Jan  9 13:57:20  2023
--------------------------------------------------------------------------------
Index   v-sweep         rds             
--------------------------------------------------------------------------------
0	0.000000e+00	4.691489e+02	
1	5.000000e-02	5.434980e+02	
2	1.000000e-01	6.380918e+02	
3	1.500000e-01	7.624525e+02	
4	2.000000e-01	9.332506e+02	
5	2.500000e-01	1.182465e+03	
6	3.000000e-01	1.578353e+03	
7	3.500000e-01	2.277286e+03	
8	4.000000e-01	3.594913e+03	
9	4.500000e-01	5.890138e+03	
10	5.000000e-01	9.187194e+03	
11	5.500000e-01	1.316037e+04	
12	6.000000e-01	1.744641e+04	
13	6.500000e-01	2.179210e+04	
14	7.000000e-01	2.604981e+04	
15	7.500000e-01	3.014165e+04	
16	8.000000e-01	3.403100e+04	
17	8.500000e-01	3.770472e+04	
18	9.000000e-01	4.116276e+04	
19	9.500000e-01	4.441209e+04	
20	1.000000e+00	4.746326e+04	
21	1.050000e+00	5.032844e+04	
22	1.100000e+00	5.302021e+04	
23	1.150000e+00	5.555100e+04	
24	1.200000e+00	5.793265e+04	
25	1.250000e+00	6.017631e+04	
26	1.300000e+00	6.229235e+04	
27	1.350000e+00	6.429031e+04	
28	1.400000e+00	6.617898e+04	
29	1.450000e+00	6.796639e+04	
30	1.500000e+00	6.965992e+04	
31	1.550000e+00	7.126629e+04	
32	1.600000e+00	7.279164e+04	
33	1.650000e+00	7.424161e+04	
34	1.700000e+00	7.562134e+04	
35	1.750000e+00	7.693552e+04	
36	1.800000e+00	7.818844e+04	
37	1.850000e+00	7.938401e+04	
38	1.900000e+00	8.052575e+04	
39	1.950000e+00	8.161684e+04	
40	2.000000e+00	8.266002e+04	
41	2.050000e+00	8.365764e+04	
42	2.100000e+00	8.461154e+04	
43	2.150000e+00	8.552300e+04	
44	2.200000e+00	8.639260e+04	
45	2.250000e+00	8.722009e+04	
46	2.300000e+00	8.800424e+04	
47	2.350000e+00	8.874262e+04	
48	2.400000e+00	8.943136e+04	
49	2.450000e+00	9.006500e+04	
50	2.500000e+00	9.063615e+04	
51	2.550000e+00	9.113537e+04	
52	2.600000e+00	9.155091e+04	
53	2.650000e+00	9.186862e+04	
54	2.700000e+00	9.207191e+04	

Index   v-sweep         rds             
--------------------------------------------------------------------------------
55	2.750000e+00	9.214184e+04	
56	2.800000e+00	9.205742e+04	
57	2.850000e+00	9.179603e+04	
58	2.900000e+00	9.133422e+04	
59	2.950000e+00	9.064861e+04	
60	3.000000e+00	8.971717e+04	
61	3.050000e+00	8.852065e+04	
62	3.100000e+00	8.704410e+04	
63	3.150000e+00	8.527844e+04	
64	3.200000e+00	8.322184e+04	
65	3.250000e+00	8.088074e+04	
66	3.300000e+00	7.827039e+04	
Reset re-loads circuit ***************************

Circuit: ***************************

Doing analysis at TEMP = -40.000000 and TNOM = -40.000000


No. of Data Rows : 67
                          ***************************
                          DC transfer characteristic  Mon Jan  9 13:57:20  2023
--------------------------------------------------------------------------------
Index   v-sweep         rds             
--------------------------------------------------------------------------------
0	0.000000e+00	2.838304e+02	
1	5.000000e-02	3.102522e+02	
2	1.000000e-01	3.402287e+02	
3	1.500000e-01	3.745186e+02	
4	2.000000e-01	4.141202e+02	
5	2.500000e-01	4.603792e+02	
6	3.000000e-01	5.151662e+02	
7	3.500000e-01	5.811866e+02	
8	4.000000e-01	6.625626e+02	
9	4.500000e-01	7.660174e+02	
10	5.000000e-01	9.034612e+02	
11	5.500000e-01	1.097755e+03	
12	6.000000e-01	1.393992e+03	
13	6.500000e-01	1.871491e+03	
14	7.000000e-01	2.627766e+03	
15	7.500000e-01	3.716967e+03	
16	8.000000e-01	5.112299e+03	
17	8.500000e-01	6.737650e+03	
18	9.000000e-01	8.511961e+03	
19	9.500000e-01	1.036932e+04	
20	1.000000e+00	1.226171e+04	
21	1.050000e+00	1.415582e+04	
22	1.100000e+00	1.602920e+04	
23	1.150000e+00	1.786701e+04	
24	1.200000e+00	1.965978e+04	
25	1.250000e+00	2.140166e+04	
26	1.300000e+00	2.308938e+04	
27	1.350000e+00	2.472144e+04	
28	1.400000e+00	2.629752e+04	
29	1.450000e+00	2.781815e+04	
30	1.500000e+00	2.928443e+04	
31	1.550000e+00	3.069780e+04	
32	1.600000e+00	3.205997e+04	
33	1.650000e+00	3.337277e+04	
34	1.700000e+00	3.463811e+04	
35	1.750000e+00	3.585792e+04	
36	1.800000e+00	3.703411e+04	
37	1.850000e+00	3.816858e+04	
38	1.900000e+00	3.926315e+04	
39	1.950000e+00	4.031960e+04	
40	2.000000e+00	4.133962e+04	
41	2.050000e+00	4.232482e+04	
42	2.100000e+00	4.327672e+04	
43	2.150000e+00	4.419673e+04	
44	2.200000e+00	4.508610e+04	
45	2.250000e+00	4.594595e+04	
46	2.300000e+00	4.677715e+04	
47	2.350000e+00	4.758026e+04	
48	2.400000e+00	4.835547e+04	
49	2.450000e+00	4.910248e+04	
50	2.500000e+00	4.982031e+04	
51	2.550000e+00	5.050715e+04	
52	2.600000e+00	5.116018e+04	
53	2.650000e+00	5.177530e+04	
54	2.700000e+00	5.234693e+04	

Index   v-sweep         rds             
--------------------------------------------------------------------------------
55	2.750000e+00	5.286772e+04	
56	2.800000e+00	5.332840e+04	
57	2.850000e+00	5.371752e+04	
58	2.900000e+00	5.402143e+04	
59	2.950000e+00	5.422427e+04	
60	3.000000e+00	5.430822e+04	
61	3.050000e+00	5.425392e+04	
62	3.100000e+00	5.404121e+04	
63	3.150000e+00	5.365016e+04	
64	3.200000e+00	5.306234e+04	
65	3.250000e+00	5.226242e+04	
66	3.300000e+00	5.123973e+04	
Reset re-loads circuit ***************************

Circuit: ***************************

Doing analysis at TEMP = -40.000000 and TNOM = -40.000000


No. of Data Rows : 67
                          ***************************
                          DC transfer characteristic  Mon Jan  9 13:57:20  2023
--------------------------------------------------------------------------------
Index   v-sweep         rds             
--------------------------------------------------------------------------------
0	0.000000e+00	2.253103e+02	
1	5.000000e-02	2.406869e+02	
2	1.000000e-01	2.574608e+02	
3	1.500000e-01	2.758266e+02	
4	2.000000e-01	2.960176e+02	
5	2.500000e-01	3.183170e+02	
6	3.000000e-01	3.430724e+02	
7	3.500000e-01	3.707175e+02	
8	4.000000e-01	4.018032e+02	
9	4.500000e-01	4.370461e+02	
10	5.000000e-01	4.774073e+02	
11	5.500000e-01	5.242277e+02	
12	6.000000e-01	5.794770e+02	
13	6.500000e-01	6.462381e+02	
14	7.000000e-01	7.296936e+02	
15	7.500000e-01	8.391448e+02	
16	8.000000e-01	9.918033e+02	
17	8.500000e-01	1.217990e+03	
18	9.000000e-01	1.562173e+03	
19	9.500000e-01	2.069195e+03	
20	1.000000e+00	2.759983e+03	
21	1.050000e+00	3.622402e+03	
22	1.100000e+00	4.623809e+03	
23	1.150000e+00	5.727069e+03	
24	1.200000e+00	6.899236e+03	
25	1.250000e+00	8.114019e+03	
26	1.300000e+00	9.351445e+03	
27	1.350000e+00	1.059670e+04	
28	1.400000e+00	1.183892e+04	
29	1.450000e+00	1.307025e+04	
30	1.500000e+00	1.428503e+04	
31	1.550000e+00	1.547926e+04	
32	1.600000e+00	1.665016e+04	
33	1.650000e+00	1.779585e+04	
34	1.700000e+00	1.891517e+04	
35	1.750000e+00	2.000744e+04	
36	1.800000e+00	2.107238e+04	
37	1.850000e+00	2.210998e+04	
38	1.900000e+00	2.312046e+04	
39	1.950000e+00	2.410420e+04	
40	2.000000e+00	2.506167e+04	
41	2.050000e+00	2.599346e+04	
42	2.100000e+00	2.690017e+04	
43	2.150000e+00	2.778249e+04	
44	2.200000e+00	2.864109e+04	
45	2.250000e+00	2.947665e+04	
46	2.300000e+00	3.028987e+04	
47	2.350000e+00	3.108139e+04	
48	2.400000e+00	3.185182e+04	
49	2.450000e+00	3.260167e+04	
50	2.500000e+00	3.333135e+04	
51	2.550000e+00	3.404108e+04	
52	2.600000e+00	3.473082e+04	
53	2.650000e+00	3.540018e+04	
54	2.700000e+00	3.604826e+04	

Index   v-sweep         rds             
--------------------------------------------------------------------------------
55	2.750000e+00	3.667357e+04	
56	2.800000e+00	3.727373e+04	
57	2.850000e+00	3.784538e+04	
58	2.900000e+00	3.838385e+04	
59	2.950000e+00	3.888298e+04	
60	3.000000e+00	3.933484e+04	
61	3.050000e+00	3.972957e+04	
62	3.100000e+00	4.005522e+04	
63	3.150000e+00	4.029774e+04	
64	3.200000e+00	4.044117e+04	
65	3.250000e+00	4.046799e+04	
66	3.300000e+00	4.035982e+04	
Reset re-loads circuit ***************************

Circuit: ***************************

Doing analysis at TEMP = -40.000000 and TNOM = -40.000000


No. of Data Rows : 67
                          ***************************
                          DC transfer characteristic  Mon Jan  9 13:57:20  2023
--------------------------------------------------------------------------------
Index   v-sweep         rds             
--------------------------------------------------------------------------------
0	0.000000e+00	1.985487e+02	
1	5.000000e-02	2.093194e+02	
2	1.000000e-01	2.208330e+02	
3	1.500000e-01	2.331661e+02	
4	2.000000e-01	2.464070e+02	
5	2.500000e-01	2.606571e+02	
6	3.000000e-01	2.760344e+02	
7	3.500000e-01	2.926767e+02	
8	4.000000e-01	3.107466e+02	
9	4.500000e-01	3.304382e+02	
10	5.000000e-01	3.519856e+02	
11	5.500000e-01	3.756759e+02	
12	6.000000e-01	4.018683e+02	
13	6.500000e-01	4.310235e+02	
14	7.000000e-01	4.637520e+02	
15	7.500000e-01	5.008956e+02	
16	8.000000e-01	5.436750e+02	
17	8.500000e-01	5.939648e+02	
18	9.000000e-01	6.548214e+02	
19	9.500000e-01	7.314900e+02	
20	1.000000e+00	8.331985e+02	
21	1.050000e+00	9.757305e+02	
22	1.100000e+00	1.183164e+03	
23	1.150000e+00	1.484492e+03	
24	1.200000e+00	1.902800e+03	
25	1.250000e+00	2.444668e+03	
26	1.300000e+00	3.099709e+03	
27	1.350000e+00	3.848086e+03	
28	1.400000e+00	4.667986e+03	
29	1.450000e+00	5.539678e+03	
30	1.500000e+00	6.446838e+03	
31	1.550000e+00	7.376540e+03	
32	1.600000e+00	8.318763e+03	
33	1.650000e+00	9.265825e+03	
34	1.700000e+00	1.021187e+04	
35	1.750000e+00	1.115247e+04	
36	1.800000e+00	1.208425e+04	
37	1.850000e+00	1.300472e+04	
38	1.900000e+00	1.391201e+04	
39	1.950000e+00	1.480476e+04	
40	2.000000e+00	1.568200e+04	
41	2.050000e+00	1.654305e+04	
42	2.100000e+00	1.738750e+04	
43	2.150000e+00	1.821510e+04	
44	2.200000e+00	1.902576e+04	
45	2.250000e+00	1.981948e+04	
46	2.300000e+00	2.059638e+04	
47	2.350000e+00	2.135663e+04	
48	2.400000e+00	2.210045e+04	
49	2.450000e+00	2.282811e+04	
50	2.500000e+00	2.353988e+04	
51	2.550000e+00	2.423606e+04	
52	2.600000e+00	2.491693e+04	
53	2.650000e+00	2.558271e+04	
54	2.700000e+00	2.623360e+04	

Index   v-sweep         rds             
--------------------------------------------------------------------------------
55	2.750000e+00	2.686963e+04	
56	2.800000e+00	2.749067e+04	
57	2.850000e+00	2.809634e+04	
58	2.900000e+00	2.868585e+04	
59	2.950000e+00	2.925795e+04	
60	3.000000e+00	2.981066e+04	
61	3.050000e+00	3.034118e+04	
62	3.100000e+00	3.084561e+04	
63	3.150000e+00	3.131871e+04	
64	3.200000e+00	3.175371e+04	
65	3.250000e+00	3.214205e+04	
66	3.300000e+00	3.247326e+04	
Reset re-loads circuit ***************************

Circuit: ***************************

Doing analysis at TEMP = -40.000000 and TNOM = -40.000000


No. of Data Rows : 67
                          ***************************
                          DC transfer characteristic  Mon Jan  9 13:57:20  2023
--------------------------------------------------------------------------------
Index   v-sweep         rds             
--------------------------------------------------------------------------------
0	0.000000e+00	1.844709e+02	
1	5.000000e-02	1.927704e+02	
2	1.000000e-01	2.015317e+02	
3	1.500000e-01	2.107925e+02	
4	2.000000e-01	2.205954e+02	
5	2.500000e-01	2.309876e+02	
6	3.000000e-01	2.420226e+02	
7	3.500000e-01	2.537604e+02	
8	4.000000e-01	2.662694e+02	
9	4.500000e-01	2.796272e+02	
10	5.000000e-01	2.939232e+02	
11	5.500000e-01	3.092609e+02	
12	6.000000e-01	3.257606e+02	
13	6.500000e-01	3.435648e+02	
14	7.000000e-01	3.628434e+02	
15	7.500000e-01	3.838033e+02	
16	8.000000e-01	4.067010e+02	
17	8.500000e-01	4.318637e+02	
18	9.000000e-01	4.597217e+02	
19	9.500000e-01	4.908643e+02	
20	1.000000e+00	5.261361e+02	
21	1.050000e+00	5.668103e+02	
22	1.100000e+00	6.149030e+02	
23	1.150000e+00	6.737433e+02	
24	1.200000e+00	7.489469e+02	
25	1.250000e+00	8.498454e+02	
26	1.300000e+00	9.908460e+02	
27	1.350000e+00	1.190949e+03	
28	1.400000e+00	1.469273e+03	
29	1.450000e+00	1.837862e+03	
30	1.500000e+00	2.297417e+03	
31	1.550000e+00	2.838993e+03	
32	1.600000e+00	3.448760e+03	
33	1.650000e+00	4.112060e+03	
34	1.700000e+00	4.815571e+03	
35	1.750000e+00	5.548069e+03	
36	1.800000e+00	6.300449e+03	
37	1.850000e+00	7.065469e+03	
38	1.900000e+00	7.837428e+03	
39	1.950000e+00	8.611859e+03	
40	2.000000e+00	9.385271e+03	
41	2.050000e+00	1.015494e+04	
42	2.100000e+00	1.091876e+04	
43	2.150000e+00	1.167508e+04	
44	2.200000e+00	1.242266e+04	
45	2.250000e+00	1.316052e+04	
46	2.300000e+00	1.388795e+04	
47	2.350000e+00	1.460443e+04	
48	2.400000e+00	1.530956e+04	
49	2.450000e+00	1.600311e+04	
50	2.500000e+00	1.668492e+04	
51	2.550000e+00	1.735491e+04	
52	2.600000e+00	1.801306e+04	
53	2.650000e+00	1.865941e+04	
54	2.700000e+00	1.929405e+04	

Index   v-sweep         rds             
--------------------------------------------------------------------------------
55	2.750000e+00	1.991705e+04	
56	2.800000e+00	2.052853e+04	
57	2.850000e+00	2.112857e+04	
58	2.900000e+00	2.171722e+04	
59	2.950000e+00	2.229447e+04	
60	3.000000e+00	2.286015e+04	
61	3.050000e+00	2.341394e+04	
62	3.100000e+00	2.395518e+04	
63	3.150000e+00	2.448287e+04	
64	3.200000e+00	2.499542e+04	
65	3.250000e+00	2.549056e+04	
66	3.300000e+00	2.596509e+04	
Reset re-loads circuit ***************************

Circuit: ***************************

Note: No ".plot", ".print", or ".fourier" lines; no simulations run
