
Note: Compatibility modes selected: hs

Warning: m=xx on .subckt line will override multiplier m hierarchy!


Circuit: ***************************

Doing analysis at TEMP = 25.000000 and TNOM = 25.000000


No. of Data Rows : 67
                          ***************************
                          DC transfer characteristic  Mon Jan  9 13:57:19  2023
--------------------------------------------------------------------------------
Index   v-sweep         rds             
--------------------------------------------------------------------------------
0	0.000000e+00	4.408860e+05	
1	5.000000e-02	6.894995e+05	
2	1.000000e-01	1.533628e+06	
3	1.500000e-01	1.042219e+07	
4	2.000000e-01	8.596999e+07	
5	2.500000e-01	2.293286e+08	
6	3.000000e-01	3.498796e+08	
7	3.500000e-01	4.307629e+08	
8	4.000000e-01	4.850506e+08	
9	4.500000e-01	5.233599e+08	
10	5.000000e-01	5.517918e+08	
11	5.500000e-01	5.737836e+08	
12	6.000000e-01	5.913556e+08	
13	6.500000e-01	6.057588e+08	
14	7.000000e-01	6.178071e+08	
15	7.500000e-01	6.280527e+08	
16	8.000000e-01	6.368843e+08	
17	8.500000e-01	6.445840e+08	
18	9.000000e-01	6.513621e+08	
19	9.500000e-01	6.573785e+08	
20	1.000000e+00	6.627576e+08	
21	1.050000e+00	6.675975e+08	
22	1.100000e+00	6.719769e+08	
23	1.150000e+00	6.759595e+08	
24	1.200000e+00	6.795977e+08	
25	1.250000e+00	6.829349e+08	
26	1.300000e+00	6.860073e+08	
27	1.350000e+00	6.888457e+08	
28	1.400000e+00	6.914759e+08	
29	1.450000e+00	6.939202e+08	
30	1.500000e+00	6.961978e+08	
31	1.550000e+00	6.983253e+08	
32	1.600000e+00	7.003169e+08	
33	1.650000e+00	7.021852e+08	
34	1.700000e+00	7.039410e+08	
35	1.750000e+00	7.055937e+08	
36	1.800000e+00	7.071514e+08	
37	1.850000e+00	7.086210e+08	
38	1.900000e+00	7.100079e+08	
39	1.950000e+00	7.113166e+08	
40	2.000000e+00	7.125501e+08	
41	2.050000e+00	7.137101e+08	
42	2.100000e+00	7.147968e+08	
43	2.150000e+00	7.158086e+08	
44	2.200000e+00	7.167424e+08	
45	2.250000e+00	7.175928e+08	
46	2.300000e+00	7.183523e+08	
47	2.350000e+00	7.190112e+08	
48	2.400000e+00	7.195570e+08	
49	2.450000e+00	7.199747e+08	
50	2.500000e+00	7.202463e+08	
51	2.550000e+00	7.203508e+08	
52	2.600000e+00	7.202643e+08	
53	2.650000e+00	7.199599e+08	
54	2.700000e+00	7.194075e+08	

Index   v-sweep         rds             
--------------------------------------------------------------------------------
55	2.750000e+00	7.185744e+08	
56	2.800000e+00	7.174253e+08	
57	2.850000e+00	7.159224e+08	
58	2.900000e+00	7.140263e+08	
59	2.950000e+00	7.116962e+08	
60	3.000000e+00	7.088905e+08	
61	3.050000e+00	7.055680e+08	
62	3.100000e+00	7.016881e+08	
63	3.150000e+00	6.972123e+08	
64	3.200000e+00	6.921047e+08	
65	3.250000e+00	6.863335e+08	
66	3.300000e+00	6.798715e+08	
Reset re-loads circuit ***************************

Circuit: ***************************

Doing analysis at TEMP = 25.000000 and TNOM = 25.000000


No. of Data Rows : 67
                          ***************************
                          DC transfer characteristic  Mon Jan  9 13:57:19  2023
--------------------------------------------------------------------------------
Index   v-sweep         rds             
--------------------------------------------------------------------------------
0	0.000000e+00	1.080740e+05	
1	5.000000e-02	1.204773e+05	
2	1.000000e-01	1.360541e+05	
3	1.500000e-01	1.561998e+05	
4	2.000000e-01	1.832657e+05	
5	2.500000e-01	2.215429e+05	
6	3.000000e-01	2.797542e+05	
7	3.500000e-01	3.785821e+05	
8	4.000000e-01	5.796978e+05	
9	4.500000e-01	1.137831e+06	
10	5.000000e-01	3.338968e+06	
11	5.500000e-01	1.058146e+07	
12	6.000000e-01	2.331195e+07	
13	6.500000e-01	3.747004e+07	
14	7.000000e-01	5.036291e+07	
15	7.500000e-01	6.138329e+07	
16	8.000000e-01	7.070229e+07	
17	8.500000e-01	7.863325e+07	
18	9.000000e-01	8.545686e+07	
19	9.500000e-01	9.139362e+07	
20	1.000000e+00	9.661163e+07	
21	1.050000e+00	1.012392e+08	
22	1.100000e+00	1.053752e+08	
23	1.150000e+00	1.090972e+08	
24	1.200000e+00	1.124666e+08	
25	1.250000e+00	1.155331e+08	
26	1.300000e+00	1.183369e+08	
27	1.350000e+00	1.209114e+08	
28	1.400000e+00	1.232843e+08	
29	1.450000e+00	1.254789e+08	
30	1.500000e+00	1.275151e+08	
31	1.550000e+00	1.294096e+08	
32	1.600000e+00	1.311771e+08	
33	1.650000e+00	1.328301e+08	
34	1.700000e+00	1.343795e+08	
35	1.750000e+00	1.358350e+08	
36	1.800000e+00	1.372047e+08	
37	1.850000e+00	1.384963e+08	
38	1.900000e+00	1.397162e+08	
39	1.950000e+00	1.408702e+08	
40	2.000000e+00	1.419635e+08	
41	2.050000e+00	1.430006e+08	
42	2.100000e+00	1.439855e+08	
43	2.150000e+00	1.449215e+08	
44	2.200000e+00	1.458116e+08	
45	2.250000e+00	1.466580e+08	
46	2.300000e+00	1.474625e+08	
47	2.350000e+00	1.482260e+08	
48	2.400000e+00	1.489489e+08	
49	2.450000e+00	1.496304e+08	
50	2.500000e+00	1.502691e+08	
51	2.550000e+00	1.508622e+08	
52	2.600000e+00	1.514059e+08	
53	2.650000e+00	1.518948e+08	
54	2.700000e+00	1.523223e+08	

Index   v-sweep         rds             
--------------------------------------------------------------------------------
55	2.750000e+00	1.526800e+08	
56	2.800000e+00	1.529580e+08	
57	2.850000e+00	1.531445e+08	
58	2.900000e+00	1.532260e+08	
59	2.950000e+00	1.531876e+08	
60	3.000000e+00	1.530126e+08	
61	3.050000e+00	1.526831e+08	
62	3.100000e+00	1.521803e+08	
63	3.150000e+00	1.514849e+08	
64	3.200000e+00	1.505776e+08	
65	3.250000e+00	1.494398e+08	
66	3.300000e+00	1.480542e+08	
Reset re-loads circuit ***************************

Circuit: ***************************

Doing analysis at TEMP = 25.000000 and TNOM = 25.000000


No. of Data Rows : 67
                          ***************************
                          DC transfer characteristic  Mon Jan  9 13:57:19  2023
--------------------------------------------------------------------------------
Index   v-sweep         rds             
--------------------------------------------------------------------------------
0	0.000000e+00	6.402737e+04	
1	5.000000e-02	6.796632e+04	
2	1.000000e-01	7.241107e+04	
3	1.500000e-01	7.746571e+04	
4	2.000000e-01	8.326498e+04	
5	2.500000e-01	8.998644e+04	
6	3.000000e-01	9.786896e+04	
7	3.500000e-01	1.072416e+05	
8	4.000000e-01	1.185706e+05	
9	4.500000e-01	1.325389e+05	
10	5.000000e-01	1.501885e+05	
11	5.500000e-01	1.731899e+05	
12	6.000000e-01	2.043960e+05	
13	6.500000e-01	2.490927e+05	
14	7.000000e-01	3.181897e+05	
15	7.500000e-01	4.376969e+05	
16	8.000000e-01	6.817907e+05	
17	8.500000e-01	1.292372e+06	
18	9.000000e-01	2.911840e+06	
19	9.500000e-01	6.193974e+06	
20	1.000000e+00	1.076412e+07	
21	1.050000e+00	1.573036e+07	
22	1.100000e+00	2.053143e+07	
23	1.150000e+00	2.496162e+07	
24	1.200000e+00	2.898550e+07	
25	1.250000e+00	3.262849e+07	
26	1.300000e+00	3.593222e+07	
27	1.350000e+00	3.893877e+07	
28	1.400000e+00	4.168586e+07	
29	1.450000e+00	4.420596e+07	
30	1.500000e+00	4.652664e+07	
31	1.550000e+00	4.867124e+07	
32	1.600000e+00	5.065958e+07	
33	1.650000e+00	5.250858e+07	
34	1.700000e+00	5.423273e+07	
35	1.750000e+00	5.584457e+07	
36	1.800000e+00	5.735494e+07	
37	1.850000e+00	5.877332e+07	
38	1.900000e+00	6.010801e+07	
39	1.950000e+00	6.136633e+07	
40	2.000000e+00	6.255475e+07	
41	2.050000e+00	6.367901e+07	
42	2.100000e+00	6.474423e+07	
43	2.150000e+00	6.575500e+07	
44	2.200000e+00	6.671541e+07	
45	2.250000e+00	6.762917e+07	
46	2.300000e+00	6.849959e+07	
47	2.350000e+00	6.932966e+07	
48	2.400000e+00	7.012204e+07	
49	2.450000e+00	7.087910e+07	
50	2.500000e+00	7.160292e+07	
51	2.550000e+00	7.229526e+07	
52	2.600000e+00	7.295754e+07	
53	2.650000e+00	7.359079e+07	
54	2.700000e+00	7.419565e+07	

Index   v-sweep         rds             
--------------------------------------------------------------------------------
55	2.750000e+00	7.477223e+07	
56	2.800000e+00	7.532007e+07	
57	2.850000e+00	7.583802e+07	
58	2.900000e+00	7.632418e+07	
59	2.950000e+00	7.677574e+07	
60	3.000000e+00	7.718889e+07	
61	3.050000e+00	7.755871e+07	
62	3.100000e+00	7.787908e+07	
63	3.150000e+00	7.814259e+07	
64	3.200000e+00	7.834053e+07	
65	3.250000e+00	7.846286e+07	
66	3.300000e+00	7.849833e+07	
Reset re-loads circuit ***************************

Circuit: ***************************

Doing analysis at TEMP = 25.000000 and TNOM = 25.000000


No. of Data Rows : 67
                          ***************************
                          DC transfer characteristic  Mon Jan  9 13:57:19  2023
--------------------------------------------------------------------------------
Index   v-sweep         rds             
--------------------------------------------------------------------------------
0	0.000000e+00	4.770386e+04	
1	5.000000e-02	4.966435e+04	
2	1.000000e-01	5.178822e+04	
3	1.500000e-01	5.409675e+04	
4	2.000000e-01	5.661513e+04	
5	2.500000e-01	5.937333e+04	
6	3.000000e-01	6.240731e+04	
7	3.500000e-01	6.576059e+04	
8	4.000000e-01	6.948637e+04	
9	4.500000e-01	7.365036e+04	
10	5.000000e-01	7.833467e+04	
11	5.500000e-01	8.364329e+04	
12	6.000000e-01	8.970988e+04	
13	6.500000e-01	9.670914e+04	
14	7.000000e-01	1.048739e+05	
15	7.500000e-01	1.145214e+05	
16	8.000000e-01	1.260952e+05	
17	8.500000e-01	1.402349e+05	
18	9.000000e-01	1.578971e+05	
19	9.500000e-01	1.805777e+05	
20	1.000000e+00	2.107486e+05	
21	1.050000e+00	2.527856e+05	
22	1.100000e+00	3.151401e+05	
23	1.150000e+00	4.159811e+05	
24	1.200000e+00	5.991464e+05	
25	1.250000e+00	9.766249e+05	
26	1.300000e+00	1.786701e+06	
27	1.350000e+00	3.280756e+06	
28	1.400000e+00	5.410184e+06	
29	1.450000e+00	7.877597e+06	
30	1.500000e+00	1.042021e+07	
31	1.550000e+00	1.289541e+07	
32	1.600000e+00	1.524361e+07	
33	1.650000e+00	1.744683e+07	
34	1.700000e+00	1.950549e+07	
35	1.750000e+00	2.142738e+07	
36	1.800000e+00	2.322277e+07	
37	1.850000e+00	2.490235e+07	
38	1.900000e+00	2.647626e+07	
39	1.950000e+00	2.795384e+07	
40	2.000000e+00	2.934352e+07	
41	2.050000e+00	3.065288e+07	
42	2.100000e+00	3.188868e+07	
43	2.150000e+00	3.305696e+07	
44	2.200000e+00	3.416315e+07	
45	2.250000e+00	3.521209e+07	
46	2.300000e+00	3.620815e+07	
47	2.350000e+00	3.715525e+07	
48	2.400000e+00	3.805695e+07	
49	2.450000e+00	3.891645e+07	
50	2.500000e+00	3.973666e+07	
51	2.550000e+00	4.052024e+07	
52	2.600000e+00	4.126959e+07	
53	2.650000e+00	4.198691e+07	
54	2.700000e+00	4.267421e+07	

Index   v-sweep         rds             
--------------------------------------------------------------------------------
55	2.750000e+00	4.333330e+07	
56	2.800000e+00	4.396582e+07	
57	2.850000e+00	4.457326e+07	
58	2.900000e+00	4.515688e+07	
59	2.950000e+00	4.571780e+07	
60	3.000000e+00	4.625687e+07	
61	3.050000e+00	4.677469e+07	
62	3.100000e+00	4.727158e+07	
63	3.150000e+00	4.774744e+07	
64	3.200000e+00	4.820176e+07	
65	3.250000e+00	4.863349e+07	
66	3.300000e+00	4.904096e+07	
Reset re-loads circuit ***************************

Circuit: ***************************

Doing analysis at TEMP = 25.000000 and TNOM = 25.000000


No. of Data Rows : 67
                          ***************************
                          DC transfer characteristic  Mon Jan  9 13:57:19  2023
--------------------------------------------------------------------------------
Index   v-sweep         rds             
--------------------------------------------------------------------------------
0	0.000000e+00	3.967658e+04	
1	5.000000e-02	4.087730e+04	
2	1.000000e-01	4.215036e+04	
3	1.500000e-01	4.350251e+04	
4	2.000000e-01	4.494134e+04	
5	2.500000e-01	4.647547e+04	
6	3.000000e-01	4.811470e+04	
7	3.500000e-01	4.987019e+04	
8	4.000000e-01	5.175477e+04	
9	4.500000e-01	5.378323e+04	
10	5.000000e-01	5.597269e+04	
11	5.500000e-01	5.834311e+04	
12	6.000000e-01	6.091787e+04	
13	6.500000e-01	6.372460e+04	
14	7.000000e-01	6.679612e+04	
15	7.500000e-01	7.017173e+04	
16	8.000000e-01	7.389895e+04	
17	8.500000e-01	7.803570e+04	
18	9.000000e-01	8.265338e+04	
19	9.500000e-01	8.784100e+04	
20	1.000000e+00	9.371097e+04	
21	1.050000e+00	1.004073e+05	
22	1.100000e+00	1.081175e+05	
23	1.150000e+00	1.170905e+05	
24	1.200000e+00	1.276637e+05	
25	1.250000e+00	1.403059e+05	
26	1.300000e+00	1.556885e+05	
27	1.350000e+00	1.748059e+05	
28	1.400000e+00	1.991947e+05	
29	1.450000e+00	2.313524e+05	
30	1.500000e+00	2.755956e+05	
31	1.550000e+00	3.399558e+05	
32	1.600000e+00	4.406482e+05	
33	1.650000e+00	6.126871e+05	
34	1.700000e+00	9.303335e+05	
35	1.750000e+00	1.516595e+06	
36	1.800000e+00	2.471052e+06	
37	1.850000e+00	3.760300e+06	
38	1.900000e+00	5.252540e+06	
39	1.950000e+00	6.822785e+06	
40	2.000000e+00	8.392110e+06	
41	2.050000e+00	9.919306e+06	
42	2.100000e+00	1.138549e+07	
43	2.150000e+00	1.278360e+07	
44	2.200000e+00	1.411251e+07	
45	2.250000e+00	1.537402e+07	
46	2.300000e+00	1.657128e+07	
47	2.350000e+00	1.770796e+07	
48	2.400000e+00	1.878787e+07	
49	2.450000e+00	1.981473e+07	
50	2.500000e+00	2.079208e+07	
51	2.550000e+00	2.172324e+07	
52	2.600000e+00	2.261130e+07	
53	2.650000e+00	2.345909e+07	
54	2.700000e+00	2.426924e+07	

Index   v-sweep         rds             
--------------------------------------------------------------------------------
55	2.750000e+00	2.504417e+07	
56	2.800000e+00	2.578610e+07	
57	2.850000e+00	2.649708e+07	
58	2.900000e+00	2.717898e+07	
59	2.950000e+00	2.783355e+07	
60	3.000000e+00	2.846239e+07	
61	3.050000e+00	2.906697e+07	
62	3.100000e+00	2.964867e+07	
63	3.150000e+00	3.020874e+07	
64	3.200000e+00	3.074833e+07	
65	3.250000e+00	3.126849e+07	
66	3.300000e+00	3.177015e+07	
Reset re-loads circuit ***************************

Circuit: ***************************

Doing analysis at TEMP = 25.000000 and TNOM = 25.000000


No. of Data Rows : 67
                          ***************************
                          DC transfer characteristic  Mon Jan  9 13:57:19  2023
--------------------------------------------------------------------------------
Index   v-sweep         rds             
--------------------------------------------------------------------------------
0	0.000000e+00	3.522573e+04	
1	5.000000e-02	3.605440e+04	
2	1.000000e-01	3.692137e+04	
3	1.500000e-01	3.782935e+04	
4	2.000000e-01	3.878133e+04	
5	2.500000e-01	3.978058e+04	
6	3.000000e-01	4.083070e+04	
7	3.500000e-01	4.193569e+04	
8	4.000000e-01	4.309995e+04	
9	4.500000e-01	4.432840e+04	
10	5.000000e-01	4.562649e+04	
11	5.500000e-01	4.700030e+04	
12	6.000000e-01	4.845667e+04	
13	6.500000e-01	5.000326e+04	
14	7.000000e-01	5.164873e+04	
15	7.500000e-01	5.340287e+04	
16	8.000000e-01	5.527681e+04	
17	8.500000e-01	5.728325e+04	
18	9.000000e-01	5.943677e+04	
19	9.500000e-01	6.175414e+04	
20	1.000000e+00	6.425481e+04	
21	1.050000e+00	6.696141e+04	
22	1.100000e+00	6.990046e+04	
23	1.150000e+00	7.310326e+04	
24	1.200000e+00	7.660696e+04	
25	1.250000e+00	8.045604e+04	
26	1.300000e+00	8.470420e+04	
27	1.350000e+00	8.941689e+04	
28	1.400000e+00	9.467468e+04	
29	1.450000e+00	1.005779e+05	
30	1.500000e+00	1.072530e+05	
31	1.550000e+00	1.148620e+05	
32	1.600000e+00	1.236153e+05	
33	1.650000e+00	1.337916e+05	
34	1.700000e+00	1.457679e+05	
35	1.750000e+00	1.600667e+05	
36	1.800000e+00	1.774328e+05	
37	1.850000e+00	1.989647e+05	
38	1.900000e+00	2.263476e+05	
39	1.950000e+00	2.622919e+05	
40	2.000000e+00	3.114031e+05	
41	2.050000e+00	3.819965e+05	
42	2.100000e+00	4.899408e+05	
43	2.150000e+00	6.660358e+05	
44	2.200000e+00	9.645423e+05	
45	2.250000e+00	1.453815e+06	
46	2.300000e+00	2.169031e+06	
47	2.350000e+00	3.077121e+06	
48	2.400000e+00	4.106673e+06	
49	2.450000e+00	5.192027e+06	
50	2.500000e+00	6.288826e+06	
51	2.550000e+00	7.371115e+06	
52	2.600000e+00	8.424917e+06	
53	2.650000e+00	9.443298e+06	
54	2.700000e+00	1.042332e+07	

Index   v-sweep         rds             
--------------------------------------------------------------------------------
55	2.750000e+00	1.136426e+07	
56	2.800000e+00	1.226666e+07	
57	2.850000e+00	1.313169e+07	
58	2.900000e+00	1.396089e+07	
59	2.950000e+00	1.475593e+07	
60	3.000000e+00	1.551852e+07	
61	3.050000e+00	1.625039e+07	
62	3.100000e+00	1.695316e+07	
63	3.150000e+00	1.762841e+07	
64	3.200000e+00	1.827764e+07	
65	3.250000e+00	1.890225e+07	
66	3.300000e+00	1.950356e+07	
Reset re-loads circuit ***************************

Circuit: ***************************

Note: No ".plot", ".print", or ".fourier" lines; no simulations run
