
Note: Compatibility modes selected: hs

Warning: m=xx on .subckt line will override multiplier m hierarchy!


Circuit: ***************************

Doing analysis at TEMP = 25.000000 and TNOM = 25.000000


No. of Data Rows : 67
                          ***************************
                          DC transfer characteristic  Mon Jan  9 13:57:19  2023
--------------------------------------------------------------------------------
Index   v-sweep         rds             
--------------------------------------------------------------------------------
0	0.000000e+00	8.688836e+04	
1	5.000000e-02	1.204763e+05	
2	1.000000e-01	1.873256e+05	
3	1.500000e-01	3.548633e+05	
4	2.000000e-01	8.128494e+05	
5	2.500000e-01	1.643028e+06	
6	3.000000e-01	2.550664e+06	
7	3.500000e-01	3.364064e+06	
8	4.000000e-01	4.074708e+06	
9	4.500000e-01	4.702716e+06	
10	5.000000e-01	5.264949e+06	
11	5.500000e-01	5.773294e+06	
12	6.000000e-01	6.236273e+06	
13	6.500000e-01	6.660282e+06	
14	7.000000e-01	7.050322e+06	
15	7.500000e-01	7.410428e+06	
16	8.000000e-01	7.743940e+06	
17	8.500000e-01	8.053669e+06	
18	9.000000e-01	8.342014e+06	
19	9.500000e-01	8.611046e+06	
20	1.000000e+00	8.862565e+06	
21	1.050000e+00	9.098149e+06	
22	1.100000e+00	9.319188e+06	
23	1.150000e+00	9.526913e+06	
24	1.200000e+00	9.722419e+06	
25	1.250000e+00	9.906683e+06	
26	1.300000e+00	1.008058e+07	
27	1.350000e+00	1.024491e+07	
28	1.400000e+00	1.040036e+07	
29	1.450000e+00	1.054759e+07	
30	1.500000e+00	1.068718e+07	
31	1.550000e+00	1.081965e+07	
32	1.600000e+00	1.094549e+07	
33	1.650000e+00	1.106513e+07	
34	1.700000e+00	1.117896e+07	
35	1.750000e+00	1.128735e+07	
36	1.800000e+00	1.139062e+07	
37	1.850000e+00	1.148904e+07	
38	1.900000e+00	1.158286e+07	
39	1.950000e+00	1.167227e+07	
40	2.000000e+00	1.175744e+07	
41	2.050000e+00	1.183847e+07	
42	2.100000e+00	1.191537e+07	
43	2.150000e+00	1.198814e+07	
44	2.200000e+00	1.205664e+07	
45	2.250000e+00	1.212067e+07	
46	2.300000e+00	1.217991e+07	
47	2.350000e+00	1.223392e+07	
48	2.400000e+00	1.228215e+07	
49	2.450000e+00	1.232388e+07	
50	2.500000e+00	1.235825e+07	
51	2.550000e+00	1.238425e+07	
52	2.600000e+00	1.240069e+07	
53	2.650000e+00	1.240626e+07	
54	2.700000e+00	1.239948e+07	

Index   v-sweep         rds             
--------------------------------------------------------------------------------
55	2.750000e+00	1.237875e+07	
56	2.800000e+00	1.234238e+07	
57	2.850000e+00	1.228864e+07	
58	2.900000e+00	1.221578e+07	
59	2.950000e+00	1.212213e+07	
60	3.000000e+00	1.200613e+07	
61	3.050000e+00	1.186645e+07	
62	3.100000e+00	1.170204e+07	
63	3.150000e+00	1.151222e+07	
64	3.200000e+00	1.129674e+07	
65	3.250000e+00	1.105587e+07	
66	3.300000e+00	1.079036e+07	
Reset re-loads circuit ***************************

Circuit: ***************************

Doing analysis at TEMP = 25.000000 and TNOM = 25.000000


No. of Data Rows : 67
                          ***************************
                          DC transfer characteristic  Mon Jan  9 13:57:20  2023
--------------------------------------------------------------------------------
Index   v-sweep         rds             
--------------------------------------------------------------------------------
0	0.000000e+00	2.341608e+04	
1	5.000000e-02	2.612862e+04	
2	1.000000e-01	2.937198e+04	
3	1.500000e-01	3.331646e+04	
4	2.000000e-01	3.821328e+04	
5	2.500000e-01	4.444794e+04	
6	3.000000e-01	5.264013e+04	
7	3.500000e-01	6.383927e+04	
8	4.000000e-01	7.991131e+04	
9	4.500000e-01	1.042128e+05	
10	5.000000e-01	1.420776e+05	
11	5.500000e-01	1.986793e+05	
12	6.000000e-01	2.735834e+05	
13	6.500000e-01	3.604571e+05	
14	7.000000e-01	4.527657e+05	
15	7.500000e-01	5.464598e+05	
16	8.000000e-01	6.394586e+05	
17	8.500000e-01	7.307513e+05	
18	9.000000e-01	8.198595e+05	
19	9.500000e-01	9.065710e+05	
20	1.000000e+00	9.908104e+05	
21	1.050000e+00	1.072576e+06	
22	1.100000e+00	1.151904e+06	
23	1.150000e+00	1.228854e+06	
24	1.200000e+00	1.303497e+06	
25	1.250000e+00	1.375909e+06	
26	1.300000e+00	1.446170e+06	
27	1.350000e+00	1.514356e+06	
28	1.400000e+00	1.580547e+06	
29	1.450000e+00	1.644818e+06	
30	1.500000e+00	1.707243e+06	
31	1.550000e+00	1.767892e+06	
32	1.600000e+00	1.826832e+06	
33	1.650000e+00	1.884131e+06	
34	1.700000e+00	1.939849e+06	
35	1.750000e+00	1.994046e+06	
36	1.800000e+00	2.046780e+06	
37	1.850000e+00	2.098105e+06	
38	1.900000e+00	2.148072e+06	
39	1.950000e+00	2.196730e+06	
40	2.000000e+00	2.244125e+06	
41	2.050000e+00	2.290299e+06	
42	2.100000e+00	2.335289e+06	
43	2.150000e+00	2.379128e+06	
44	2.200000e+00	2.421840e+06	
45	2.250000e+00	2.463440e+06	
46	2.300000e+00	2.503932e+06	
47	2.350000e+00	2.543300e+06	
48	2.400000e+00	2.581510e+06	
49	2.450000e+00	2.618501e+06	
50	2.500000e+00	2.654177e+06	
51	2.550000e+00	2.688404e+06	
52	2.600000e+00	2.720999e+06	
53	2.650000e+00	2.751723e+06	
54	2.700000e+00	2.780273e+06	

Index   v-sweep         rds             
--------------------------------------------------------------------------------
55	2.750000e+00	2.806277e+06	
56	2.800000e+00	2.829283e+06	
57	2.850000e+00	2.848762e+06	
58	2.900000e+00	2.864106e+06	
59	2.950000e+00	2.874631e+06	
60	3.000000e+00	2.879595e+06	
61	3.050000e+00	2.878211e+06	
62	3.100000e+00	2.869680e+06	
63	3.150000e+00	2.853224e+06	
64	3.200000e+00	2.828131e+06	
65	3.250000e+00	2.793807e+06	
66	3.300000e+00	2.749822e+06	
Reset re-loads circuit ***************************

Circuit: ***************************

Doing analysis at TEMP = 25.000000 and TNOM = 25.000000


No. of Data Rows : 67
                          ***************************
                          DC transfer characteristic  Mon Jan  9 13:57:20  2023
--------------------------------------------------------------------------------
Index   v-sweep         rds             
--------------------------------------------------------------------------------
0	0.000000e+00	1.474358e+04	
1	5.000000e-02	1.586128e+04	
2	1.000000e-01	1.710397e+04	
3	1.500000e-01	1.849343e+04	
4	2.000000e-01	2.005681e+04	
5	2.500000e-01	2.182848e+04	
6	3.000000e-01	2.385250e+04	
7	3.500000e-01	2.618646e+04	
8	4.000000e-01	2.890713e+04	
9	4.500000e-01	3.211941e+04	
10	5.000000e-01	3.597106e+04	
11	5.500000e-01	4.067808e+04	
12	6.000000e-01	4.657096e+04	
13	6.500000e-01	5.418065e+04	
14	7.000000e-01	6.438670e+04	
15	7.500000e-01	7.858006e+04	
16	8.000000e-01	9.851020e+04	
17	8.500000e-01	1.253516e+05	
18	9.000000e-01	1.586982e+05	
19	9.500000e-01	1.969008e+05	
20	1.000000e+00	2.381526e+05	
21	1.050000e+00	2.810737e+05	
22	1.100000e+00	3.247526e+05	
23	1.150000e+00	3.686182e+05	
24	1.200000e+00	4.123160e+05	
25	1.250000e+00	4.556254e+05	
26	1.300000e+00	4.984087e+05	
27	1.350000e+00	5.405798e+05	
28	1.400000e+00	5.820859e+05	
29	1.450000e+00	6.228959e+05	
30	1.500000e+00	6.629933e+05	
31	1.550000e+00	7.023713e+05	
32	1.600000e+00	7.410300e+05	
33	1.650000e+00	7.789740e+05	
34	1.700000e+00	8.162112e+05	
35	1.750000e+00	8.527520e+05	
36	1.800000e+00	8.886080e+05	
37	1.850000e+00	9.237920e+05	
38	1.900000e+00	9.583176e+05	
39	1.950000e+00	9.921986e+05	
40	2.000000e+00	1.025449e+06	
41	2.050000e+00	1.058083e+06	
42	2.100000e+00	1.090115e+06	
43	2.150000e+00	1.121559e+06	
44	2.200000e+00	1.152427e+06	
45	2.250000e+00	1.182734e+06	
46	2.300000e+00	1.212489e+06	
47	2.350000e+00	1.241703e+06	
48	2.400000e+00	1.270384e+06	
49	2.450000e+00	1.298535e+06	
50	2.500000e+00	1.326154e+06	
51	2.550000e+00	1.353234e+06	
52	2.600000e+00	1.379753e+06	
53	2.650000e+00	1.405681e+06	
54	2.700000e+00	1.430966e+06	

Index   v-sweep         rds             
--------------------------------------------------------------------------------
55	2.750000e+00	1.455536e+06	
56	2.800000e+00	1.479289e+06	
57	2.850000e+00	1.502092e+06	
58	2.900000e+00	1.523767e+06	
59	2.950000e+00	1.544093e+06	
60	3.000000e+00	1.562794e+06	
61	3.050000e+00	1.579537e+06	
62	3.100000e+00	1.593927e+06	
63	3.150000e+00	1.605512e+06	
64	3.200000e+00	1.613783e+06	
65	3.250000e+00	1.618189e+06	
66	3.300000e+00	1.618149e+06	
Reset re-loads circuit ***************************

Circuit: ***************************

Doing analysis at TEMP = 25.000000 and TNOM = 25.000000


No. of Data Rows : 67
                          ***************************
                          DC transfer characteristic  Mon Jan  9 13:57:20  2023
--------------------------------------------------------------------------------
Index   v-sweep         rds             
--------------------------------------------------------------------------------
0	0.000000e+00	1.137637e+04	
1	5.000000e-02	1.204368e+04	
2	1.000000e-01	1.276422e+04	
3	1.500000e-01	1.354445e+04	
4	2.000000e-01	1.439191e+04	
5	2.500000e-01	1.531546e+04	
6	3.000000e-01	1.632564e+04	
7	3.500000e-01	1.743505e+04	
8	4.000000e-01	1.865887e+04	
9	4.500000e-01	2.001565e+04	
10	5.000000e-01	2.152830e+04	
11	5.500000e-01	2.322554e+04	
12	6.000000e-01	2.514411e+04	
13	6.500000e-01	2.733207e+04	
14	7.000000e-01	2.985429e+04	
15	7.500000e-01	3.280206e+04	
16	8.000000e-01	3.631044e+04	
17	8.500000e-01	4.059124e+04	
18	9.000000e-01	4.599214e+04	
19	9.500000e-01	5.308295e+04	
20	1.000000e+00	6.270270e+04	
21	1.050000e+00	7.578048e+04	
22	1.100000e+00	9.285099e+04	
23	1.150000e+00	1.136985e+05	
24	1.200000e+00	1.375489e+05	
25	1.250000e+00	1.635074e+05	
26	1.300000e+00	1.908241e+05	
27	1.350000e+00	2.189521e+05	
28	1.400000e+00	2.475147e+05	
29	1.450000e+00	2.762571e+05	
30	1.500000e+00	3.050071e+05	
31	1.550000e+00	3.336473e+05	
32	1.600000e+00	3.620974e+05	
33	1.650000e+00	3.903016e+05	
34	1.700000e+00	4.182214e+05	
35	1.750000e+00	4.458303e+05	
36	1.800000e+00	4.731101e+05	
37	1.850000e+00	5.000488e+05	
38	1.900000e+00	5.266389e+05	
39	1.950000e+00	5.528761e+05	
40	2.000000e+00	5.787586e+05	
41	2.050000e+00	6.042864e+05	
42	2.100000e+00	6.294609e+05	
43	2.150000e+00	6.542846e+05	
44	2.200000e+00	6.787605e+05	
45	2.250000e+00	7.028926e+05	
46	2.300000e+00	7.266850e+05	
47	2.350000e+00	7.501423e+05	
48	2.400000e+00	7.732691e+05	
49	2.450000e+00	7.960700e+05	
50	2.500000e+00	8.185490e+05	
51	2.550000e+00	8.407097e+05	
52	2.600000e+00	8.625543e+05	
53	2.650000e+00	8.840829e+05	
54	2.700000e+00	9.052925e+05	

Index   v-sweep         rds             
--------------------------------------------------------------------------------
55	2.750000e+00	9.261755e+05	
56	2.800000e+00	9.467178e+05	
57	2.850000e+00	9.668960e+05	
58	2.900000e+00	9.866747e+05	
59	2.950000e+00	1.006003e+06	
60	3.000000e+00	1.024808e+06	
61	3.050000e+00	1.042994e+06	
62	3.100000e+00	1.060434e+06	
63	3.150000e+00	1.076963e+06	
64	3.200000e+00	1.092376e+06	
65	3.250000e+00	1.106421e+06	
66	3.300000e+00	1.118797e+06	
Reset re-loads circuit ***************************

Circuit: ***************************

Doing analysis at TEMP = 25.000000 and TNOM = 25.000000


No. of Data Rows : 67
                          ***************************
                          DC transfer characteristic  Mon Jan  9 13:57:20  2023
--------------------------------------------------------------------------------
Index   v-sweep         rds             
--------------------------------------------------------------------------------
0	0.000000e+00	9.606695e+03	
1	5.000000e-02	1.007414e+04	
2	1.000000e-01	1.057085e+04	
3	1.500000e-01	1.109956e+04	
4	2.000000e-01	1.166335e+04	
5	2.500000e-01	1.226574e+04	
6	3.000000e-01	1.291070e+04	
7	3.500000e-01	1.360281e+04	
8	4.000000e-01	1.434731e+04	
9	4.500000e-01	1.515030e+04	
10	5.000000e-01	1.601886e+04	
11	5.500000e-01	1.696131e+04	
12	6.000000e-01	1.798752e+04	
13	6.500000e-01	1.910930e+04	
14	7.000000e-01	2.034099e+04	
15	7.500000e-01	2.170026e+04	
16	8.000000e-01	2.320943e+04	
17	8.500000e-01	2.489745e+04	
18	9.000000e-01	2.680334e+04	
19	9.500000e-01	2.898220e+04	
20	1.000000e+00	3.151623e+04	
21	1.050000e+00	3.453509e+04	
22	1.100000e+00	3.825097e+04	
23	1.150000e+00	4.300853e+04	
24	1.200000e+00	4.931978e+04	
25	1.250000e+00	5.779816e+04	
26	1.300000e+00	6.892456e+04	
27	1.350000e+00	8.278891e+04	
28	1.400000e+00	9.906880e+04	
29	1.450000e+00	1.172342e+05	
30	1.500000e+00	1.367541e+05	
31	1.550000e+00	1.571933e+05	
32	1.600000e+00	1.782266e+05	
33	1.650000e+00	1.996209e+05	
34	1.700000e+00	2.212108e+05	
35	1.750000e+00	2.428792e+05	
36	1.800000e+00	2.645426e+05	
37	1.850000e+00	2.861410e+05	
38	1.900000e+00	3.076308e+05	
39	1.950000e+00	3.289803e+05	
40	2.000000e+00	3.501661e+05	
41	2.050000e+00	3.711713e+05	
42	2.100000e+00	3.919833e+05	
43	2.150000e+00	4.125932e+05	
44	2.200000e+00	4.329945e+05	
45	2.250000e+00	4.531829e+05	
46	2.300000e+00	4.731555e+05	
47	2.350000e+00	4.929107e+05	
48	2.400000e+00	5.124478e+05	
49	2.450000e+00	5.317667e+05	
50	2.500000e+00	5.508681e+05	
51	2.550000e+00	5.697530e+05	
52	2.600000e+00	5.884226e+05	
53	2.650000e+00	6.068784e+05	
54	2.700000e+00	6.251217e+05	

Index   v-sweep         rds             
--------------------------------------------------------------------------------
55	2.750000e+00	6.431533e+05	
56	2.800000e+00	6.609734e+05	
57	2.850000e+00	6.785805e+05	
58	2.900000e+00	6.959709e+05	
59	2.950000e+00	7.131374e+05	
60	3.000000e+00	7.300676e+05	
61	3.050000e+00	7.467421e+05	
62	3.100000e+00	7.631316e+05	
63	3.150000e+00	7.791939e+05	
64	3.200000e+00	7.948703e+05	
65	3.250000e+00	8.100809e+05	
66	3.300000e+00	8.247202e+05	
Reset re-loads circuit ***************************

Circuit: ***************************

Doing analysis at TEMP = 25.000000 and TNOM = 25.000000


No. of Data Rows : 67
                          ***************************
                          DC transfer characteristic  Mon Jan  9 13:57:20  2023
--------------------------------------------------------------------------------
Index   v-sweep         rds             
--------------------------------------------------------------------------------
0	0.000000e+00	8.528408e+03	
1	5.000000e-02	8.885815e+03	
2	1.000000e-01	9.261735e+03	
3	1.500000e-01	9.657580e+03	
4	2.000000e-01	1.007491e+04	
5	2.500000e-01	1.051545e+04	
6	3.000000e-01	1.098112e+04	
7	3.500000e-01	1.147407e+04	
8	4.000000e-01	1.199669e+04	
9	4.500000e-01	1.255167e+04	
10	5.000000e-01	1.314206e+04	
11	5.500000e-01	1.377129e+04	
12	6.000000e-01	1.444328e+04	
13	6.500000e-01	1.516251e+04	
14	7.000000e-01	1.593417e+04	
15	7.500000e-01	1.676425e+04	
16	8.000000e-01	1.765984e+04	
17	8.500000e-01	1.862934e+04	
18	9.000000e-01	1.968292e+04	
19	9.500000e-01	2.083313e+04	
20	1.000000e+00	2.209590e+04	
21	1.050000e+00	2.349216e+04	
22	1.100000e+00	2.505063e+04	
23	1.150000e+00	2.681272e+04	
24	1.200000e+00	2.884140e+04	
25	1.250000e+00	3.123663e+04	
26	1.300000e+00	3.416042e+04	
27	1.350000e+00	3.786930e+04	
28	1.400000e+00	4.273319e+04	
29	1.450000e+00	4.919082e+04	
30	1.500000e+00	5.760611e+04	
31	1.550000e+00	6.810121e+04	
32	1.600000e+00	8.051515e+04	
33	1.650000e+00	9.450983e+04	
34	1.700000e+00	1.097075e+05	
35	1.750000e+00	1.257738e+05	
36	1.800000e+00	1.424441e+05	
37	1.850000e+00	1.595196e+05	
38	1.900000e+00	1.768545e+05	
39	1.950000e+00	1.943422e+05	
40	2.000000e+00	2.119047e+05	
41	2.050000e+00	2.294847e+05	
42	2.100000e+00	2.470395e+05	
43	2.150000e+00	2.645371e+05	
44	2.200000e+00	2.819535e+05	
45	2.250000e+00	2.992706e+05	
46	2.300000e+00	3.164744e+05	
47	2.350000e+00	3.335544e+05	
48	2.400000e+00	3.505026e+05	
49	2.450000e+00	3.673129e+05	
50	2.500000e+00	3.839809e+05	
51	2.550000e+00	4.005033e+05	
52	2.600000e+00	4.168776e+05	
53	2.650000e+00	4.331023e+05	
54	2.700000e+00	4.491764e+05	

Index   v-sweep         rds             
--------------------------------------------------------------------------------
55	2.750000e+00	4.650993e+05	
56	2.800000e+00	4.808708e+05	
57	2.850000e+00	4.964909e+05	
58	2.900000e+00	5.119595e+05	
59	2.950000e+00	5.272763e+05	
60	3.000000e+00	5.424402e+05	
61	3.050000e+00	5.574491e+05	
62	3.100000e+00	5.722987e+05	
63	3.150000e+00	5.869820e+05	
64	3.200000e+00	6.014872e+05	
65	3.250000e+00	6.157965e+05	
66	3.300000e+00	6.298834e+05	
Reset re-loads circuit ***************************

Circuit: ***************************

Note: No ".plot", ".print", or ".fourier" lines; no simulations run
