
Note: Compatibility modes selected: hs

Warning: m=xx on .subckt line will override multiplier m hierarchy!


Circuit: ***************************

Doing analysis at TEMP = 125.000000 and TNOM = 125.000000


No. of Data Rows : 67
                          ***************************
                          DC transfer characteristic  Mon Jan  9 13:57:20  2023
--------------------------------------------------------------------------------
Index   v-sweep         rds             
--------------------------------------------------------------------------------
0	0.000000e+00	4.778316e+04	
1	5.000000e-02	5.918706e+04	
2	1.000000e-01	7.680487e+04	
3	1.500000e-01	1.071454e+05	
4	2.000000e-01	1.679349e+05	
5	2.500000e-01	3.087920e+05	
6	3.000000e-01	6.117747e+05	
7	3.500000e-01	1.056084e+06	
8	4.000000e-01	1.513987e+06	
9	4.500000e-01	1.924808e+06	
10	5.000000e-01	2.286048e+06	
11	5.500000e-01	2.607048e+06	
12	6.000000e-01	2.896042e+06	
13	6.500000e-01	3.158938e+06	
14	7.000000e-01	3.399949e+06	
15	7.500000e-01	3.622188e+06	
16	8.000000e-01	3.828049e+06	
17	8.500000e-01	4.019441e+06	
18	9.000000e-01	4.197924e+06	
19	9.500000e-01	4.364808e+06	
20	1.000000e+00	4.521204e+06	
21	1.050000e+00	4.668074e+06	
22	1.100000e+00	4.806254e+06	
23	1.150000e+00	4.936479e+06	
24	1.200000e+00	5.059398e+06	
25	1.250000e+00	5.175591e+06	
26	1.300000e+00	5.285575e+06	
27	1.350000e+00	5.389812e+06	
28	1.400000e+00	5.488722e+06	
29	1.450000e+00	5.582682e+06	
30	1.500000e+00	5.672036e+06	
31	1.550000e+00	5.757094e+06	
32	1.600000e+00	5.838141e+06	
33	1.650000e+00	5.915434e+06	
34	1.700000e+00	5.989211e+06	
35	1.750000e+00	6.059685e+06	
36	1.800000e+00	6.127051e+06	
37	1.850000e+00	6.191484e+06	
38	1.900000e+00	6.253139e+06	
39	1.950000e+00	6.312148e+06	
40	2.000000e+00	6.368621e+06	
41	2.050000e+00	6.422638e+06	
42	2.100000e+00	6.474250e+06	
43	2.150000e+00	6.523469e+06	
44	2.200000e+00	6.570263e+06	
45	2.250000e+00	6.614549e+06	
46	2.300000e+00	6.656182e+06	
47	2.350000e+00	6.694949e+06	
48	2.400000e+00	6.730557e+06	
49	2.450000e+00	6.762626e+06	
50	2.500000e+00	6.790677e+06	
51	2.550000e+00	6.814129e+06	
52	2.600000e+00	6.832292e+06	
53	2.650000e+00	6.844366e+06	
54	2.700000e+00	6.849443e+06	

Index   v-sweep         rds             
--------------------------------------------------------------------------------
55	2.750000e+00	6.846519e+06	
56	2.800000e+00	6.834509e+06	
57	2.850000e+00	6.812265e+06	
58	2.900000e+00	6.778617e+06	
59	2.950000e+00	6.732409e+06	
60	3.000000e+00	6.672546e+06	
61	3.050000e+00	6.598057e+06	
62	3.100000e+00	6.508146e+06	
63	3.150000e+00	6.402258e+06	
64	3.200000e+00	6.280131e+06	
65	3.250000e+00	6.141841e+06	
66	3.300000e+00	5.987837e+06	
Reset re-loads circuit ***************************

Circuit: ***************************

Doing analysis at TEMP = 125.000000 and TNOM = 125.000000


No. of Data Rows : 67
                          ***************************
                          DC transfer characteristic  Mon Jan  9 13:57:20  2023
--------------------------------------------------------------------------------
Index   v-sweep         rds             
--------------------------------------------------------------------------------
0	0.000000e+00	1.671657e+04	
1	5.000000e-02	1.825651e+04	
2	1.000000e-01	2.004834e+04	
3	1.500000e-01	2.215879e+04	
4	2.000000e-01	2.468027e+04	
5	2.500000e-01	2.774435e+04	
6	3.000000e-01	3.154451e+04	
7	3.500000e-01	3.637603e+04	
8	4.000000e-01	4.270909e+04	
9	4.500000e-01	5.132637e+04	
10	5.000000e-01	6.358004e+04	
11	5.500000e-01	8.180536e+04	
12	6.000000e-01	1.095971e+05	
13	6.500000e-01	1.506065e+05	
14	7.000000e-01	2.050590e+05	
15	7.500000e-01	2.686120e+05	
16	8.000000e-01	3.360770e+05	
17	8.500000e-01	4.041215e+05	
18	9.000000e-01	4.711330e+05	
19	9.500000e-01	5.364285e+05	
20	1.000000e+00	5.997509e+05	
21	1.050000e+00	6.610315e+05	
22	1.100000e+00	7.202855e+05	
23	1.150000e+00	7.775656e+05	
24	1.200000e+00	8.329404e+05	
25	1.250000e+00	8.864853e+05	
26	1.300000e+00	9.382766e+05	
27	1.350000e+00	9.883895e+05	
28	1.400000e+00	1.036897e+06	
29	1.450000e+00	1.083869e+06	
30	1.500000e+00	1.129372e+06	
31	1.550000e+00	1.173470e+06	
32	1.600000e+00	1.216222e+06	
33	1.650000e+00	1.257687e+06	
34	1.700000e+00	1.297918e+06	
35	1.750000e+00	1.336967e+06	
36	1.800000e+00	1.374883e+06	
37	1.850000e+00	1.411711e+06	
38	1.900000e+00	1.447496e+06	
39	1.950000e+00	1.482279e+06	
40	2.000000e+00	1.516099e+06	
41	2.050000e+00	1.548993e+06	
42	2.100000e+00	1.580995e+06	
43	2.150000e+00	1.612137e+06	
44	2.200000e+00	1.642448e+06	
45	2.250000e+00	1.671952e+06	
46	2.300000e+00	1.700666e+06	
47	2.350000e+00	1.728604e+06	
48	2.400000e+00	1.755768e+06	
49	2.450000e+00	1.782148e+06	
50	2.500000e+00	1.807719e+06	
51	2.550000e+00	1.832436e+06	
52	2.600000e+00	1.856232e+06	
53	2.650000e+00	1.879006e+06	
54	2.700000e+00	1.900626e+06	

Index   v-sweep         rds             
--------------------------------------------------------------------------------
55	2.750000e+00	1.920914e+06	
56	2.800000e+00	1.939649e+06	
57	2.850000e+00	1.956552e+06	
58	2.900000e+00	1.971293e+06	
59	2.950000e+00	1.983478e+06	
60	3.000000e+00	1.992656e+06	
61	3.050000e+00	1.998324e+06	
62	3.100000e+00	1.999934e+06	
63	3.150000e+00	1.996909e+06	
64	3.200000e+00	1.988666e+06	
65	3.250000e+00	1.974646e+06	
66	3.300000e+00	1.954346e+06	
Reset re-loads circuit ***************************

Circuit: ***************************

Doing analysis at TEMP = 125.000000 and TNOM = 125.000000


No. of Data Rows : 67
                          ***************************
                          DC transfer characteristic  Mon Jan  9 13:57:20  2023
--------------------------------------------------------------------------------
Index   v-sweep         rds             
--------------------------------------------------------------------------------
0	0.000000e+00	1.081959e+04	
1	5.000000e-02	1.148338e+04	
2	1.000000e-01	1.221238e+04	
3	1.500000e-01	1.301657e+04	
4	2.000000e-01	1.390810e+04	
5	2.500000e-01	1.490187e+04	
6	3.000000e-01	1.601636e+04	
7	3.500000e-01	1.727482e+04	
8	4.000000e-01	1.870683e+04	
9	4.500000e-01	2.035065e+04	
10	5.000000e-01	2.225665e+04	
11	5.500000e-01	2.449240e+04	
12	6.000000e-01	2.715065e+04	
13	6.500000e-01	3.036195e+04	
14	7.000000e-01	3.431518e+04	
15	7.500000e-01	3.929133e+04	
16	8.000000e-01	4.571740e+04	
17	8.500000e-01	5.423984e+04	
18	9.000000e-01	6.577061e+04	
19	9.500000e-01	8.134035e+04	
20	1.000000e+00	1.015824e+05	
21	1.050000e+00	1.261924e+05	
22	1.100000e+00	1.540715e+05	
23	1.150000e+00	1.839681e+05	
24	1.200000e+00	2.148988e+05	
25	1.250000e+00	2.462127e+05	
26	1.300000e+00	2.775092e+05	
27	1.350000e+00	3.085476e+05	
28	1.400000e+00	3.391849e+05	
29	1.450000e+00	3.693369e+05	
30	1.500000e+00	3.989551e+05	
31	1.550000e+00	4.280131e+05	
32	1.600000e+00	4.564988e+05	
33	1.650000e+00	4.844090e+05	
34	1.700000e+00	5.117463e+05	
35	1.750000e+00	5.385172e+05	
36	1.800000e+00	5.647309e+05	
37	1.850000e+00	5.903980e+05	
38	1.900000e+00	6.155302e+05	
39	1.950000e+00	6.401399e+05	
40	2.000000e+00	6.642398e+05	
41	2.050000e+00	6.878427e+05	
42	2.100000e+00	7.109613e+05	
43	2.150000e+00	7.336083e+05	
44	2.200000e+00	7.557962e+05	
45	2.250000e+00	7.775372e+05	
46	2.300000e+00	7.988431e+05	
47	2.350000e+00	8.197252e+05	
48	2.400000e+00	8.401943e+05	
49	2.450000e+00	8.602601e+05	
50	2.500000e+00	8.799313e+05	
51	2.550000e+00	8.992145e+05	
52	2.600000e+00	9.181136e+05	
53	2.650000e+00	9.366289e+05	
54	2.700000e+00	9.547551e+05	

Index   v-sweep         rds             
--------------------------------------------------------------------------------
55	2.750000e+00	9.724798e+05	
56	2.800000e+00	9.897806e+05	
57	2.850000e+00	1.006623e+06	
58	2.900000e+00	1.022955e+06	
59	2.950000e+00	1.038706e+06	
60	3.000000e+00	1.053779e+06	
61	3.050000e+00	1.068049e+06	
62	3.100000e+00	1.081357e+06	
63	3.150000e+00	1.093505e+06	
64	3.200000e+00	1.104253e+06	
65	3.250000e+00	1.113319e+06	
66	3.300000e+00	1.120377e+06	
Reset re-loads circuit ***************************

Circuit: ***************************

Doing analysis at TEMP = 125.000000 and TNOM = 125.000000


No. of Data Rows : 67
                          ***************************
                          DC transfer characteristic  Mon Jan  9 13:57:20  2023
--------------------------------------------------------------------------------
Index   v-sweep         rds             
--------------------------------------------------------------------------------
0	0.000000e+00	8.352657e+03	
1	5.000000e-02	8.749741e+03	
2	1.000000e-01	9.175079e+03	
3	1.500000e-01	9.631750e+03	
4	2.000000e-01	1.012329e+04	
5	2.500000e-01	1.065381e+04	
6	3.000000e-01	1.122806e+04	
7	3.500000e-01	1.185163e+04	
8	4.000000e-01	1.253108e+04	
9	4.500000e-01	1.327422e+04	
10	5.000000e-01	1.409036e+04	
11	5.500000e-01	1.499074e+04	
12	6.000000e-01	1.598905e+04	
13	6.500000e-01	1.710212e+04	
14	7.000000e-01	1.835093e+04	
15	7.500000e-01	1.976196e+04	
16	8.000000e-01	2.136918e+04	
17	8.500000e-01	2.321699e+04	
18	9.000000e-01	2.536472e+04	
19	9.500000e-01	2.789374e+04	
20	1.000000e+00	3.091895e+04	
21	1.050000e+00	3.460745e+04	
22	1.100000e+00	3.920684e+04	
23	1.150000e+00	4.507826e+04	
24	1.200000e+00	5.270131e+04	
25	1.250000e+00	6.257629e+04	
26	1.300000e+00	7.499289e+04	
27	1.350000e+00	8.983616e+04	
28	1.400000e+00	1.066461e+05	
29	1.450000e+00	1.248498e+05	
30	1.500000e+00	1.439410e+05	
31	1.550000e+00	1.635400e+05	
32	1.600000e+00	1.833828e+05	
33	1.650000e+00	2.032918e+05	
34	1.700000e+00	2.231488e+05	
35	1.750000e+00	2.428750e+05	
36	1.800000e+00	2.624178e+05	
37	1.850000e+00	2.817421e+05	
38	1.900000e+00	3.008248e+05	
39	1.950000e+00	3.196506e+05	
40	2.000000e+00	3.382104e+05	
41	2.050000e+00	3.564986e+05	
42	2.100000e+00	3.745126e+05	
43	2.150000e+00	3.922520e+05	
44	2.200000e+00	4.097178e+05	
45	2.250000e+00	4.269119e+05	
46	2.300000e+00	4.438372e+05	
47	2.350000e+00	4.604972e+05	
48	2.400000e+00	4.768957e+05	
49	2.450000e+00	4.930367e+05	
50	2.500000e+00	5.089247e+05	
51	2.550000e+00	5.245639e+05	
52	2.600000e+00	5.399588e+05	
53	2.650000e+00	5.551137e+05	
54	2.700000e+00	5.700324e+05	

Index   v-sweep         rds             
--------------------------------------------------------------------------------
55	2.750000e+00	5.847185e+05	
56	2.800000e+00	5.991744e+05	
57	2.850000e+00	6.134013e+05	
58	2.900000e+00	6.273979e+05	
59	2.950000e+00	6.411601e+05	
60	3.000000e+00	6.546790e+05	
61	3.050000e+00	6.679395e+05	
62	3.100000e+00	6.809181e+05	
63	3.150000e+00	6.935802e+05	
64	3.200000e+00	7.058774e+05	
65	3.250000e+00	7.177436e+05	
66	3.300000e+00	7.290913e+05	
Reset re-loads circuit ***************************

Circuit: ***************************

Doing analysis at TEMP = 125.000000 and TNOM = 125.000000


No. of Data Rows : 67
                          ***************************
                          DC transfer characteristic  Mon Jan  9 13:57:20  2023
--------------------------------------------------------------------------------
Index   v-sweep         rds             
--------------------------------------------------------------------------------
0	0.000000e+00	7.003419e+03	
1	5.000000e-02	7.279752e+03	
2	1.000000e-01	7.571623e+03	
3	1.500000e-01	7.880351e+03	
4	2.000000e-01	8.207411e+03	
5	2.500000e-01	8.554455e+03	
6	3.000000e-01	8.923340e+03	
7	3.500000e-01	9.316161e+03	
8	4.000000e-01	9.735293e+03	
9	4.500000e-01	1.018343e+04	
10	5.000000e-01	1.066367e+04	
11	5.500000e-01	1.117954e+04	
12	6.000000e-01	1.173512e+04	
13	6.500000e-01	1.233515e+04	
14	7.000000e-01	1.298515e+04	
15	7.500000e-01	1.369163e+04	
16	8.000000e-01	1.446227e+04	
17	8.500000e-01	1.530625e+04	
18	9.000000e-01	1.623465e+04	
19	9.500000e-01	1.726097e+04	
20	1.000000e+00	1.840190e+04	
21	1.050000e+00	1.967844e+04	
22	1.100000e+00	2.111747e+04	
23	1.150000e+00	2.275436e+04	
24	1.200000e+00	2.463696e+04	
25	1.250000e+00	2.683231e+04	
26	1.300000e+00	2.943749e+04	
27	1.350000e+00	3.259623e+04	
28	1.400000e+00	3.651911e+04	
29	1.450000e+00	4.149257e+04	
30	1.500000e+00	4.784197e+04	
31	1.550000e+00	5.582237e+04	
32	1.600000e+00	6.549090e+04	
33	1.650000e+00	7.667603e+04	
34	1.700000e+00	8.906740e+04	
35	1.750000e+00	1.023326e+05	
36	1.800000e+00	1.161868e+05	
37	1.850000e+00	1.304114e+05	
38	1.900000e+00	1.448479e+05	
39	1.950000e+00	1.593841e+05	
40	2.000000e+00	1.739407e+05	
41	2.050000e+00	1.884623e+05	
42	2.100000e+00	2.029093e+05	
43	2.150000e+00	2.172540e+05	
44	2.200000e+00	2.314764e+05	
45	2.250000e+00	2.455625e+05	
46	2.300000e+00	2.595022e+05	
47	2.350000e+00	2.732887e+05	
48	2.400000e+00	2.869174e+05	
49	2.450000e+00	3.003851e+05	
50	2.500000e+00	3.136903e+05	
51	2.550000e+00	3.268321e+05	
52	2.600000e+00	3.398106e+05	
53	2.650000e+00	3.526261e+05	
54	2.700000e+00	3.652797e+05	

Index   v-sweep         rds             
--------------------------------------------------------------------------------
55	2.750000e+00	3.777727e+05	
56	2.800000e+00	3.901065e+05	
57	2.850000e+00	4.022828e+05	
58	2.900000e+00	4.143033e+05	
59	2.950000e+00	4.261696e+05	
60	3.000000e+00	4.378828e+05	
61	3.050000e+00	4.494437e+05	
62	3.100000e+00	4.608520e+05	
63	3.150000e+00	4.721059e+05	
64	3.200000e+00	4.832011e+05	
65	3.250000e+00	4.941299e+05	
66	3.300000e+00	5.048798e+05	
Reset re-loads circuit ***************************

Circuit: ***************************

Doing analysis at TEMP = 125.000000 and TNOM = 125.000000


No. of Data Rows : 67
                          ***************************
                          DC transfer characteristic  Mon Jan  9 13:57:20  2023
--------------------------------------------------------------------------------
Index   v-sweep         rds             
--------------------------------------------------------------------------------
0	0.000000e+00	6.156209e+03	
1	5.000000e-02	6.365749e+03	
2	1.000000e-01	6.585077e+03	
3	1.500000e-01	6.814874e+03	
4	2.000000e-01	7.055892e+03	
5	2.500000e-01	7.308953e+03	
6	3.000000e-01	7.574962e+03	
7	3.500000e-01	7.854919e+03	
8	4.000000e-01	8.149930e+03	
9	4.500000e-01	8.461220e+03	
10	5.000000e-01	8.790154e+03	
11	5.500000e-01	9.138251e+03	
12	6.000000e-01	9.507214e+03	
13	6.500000e-01	9.898955e+03	
14	7.000000e-01	1.031563e+04	
15	7.500000e-01	1.075967e+04	
16	8.000000e-01	1.123385e+04	
17	8.500000e-01	1.174134e+04	
18	9.000000e-01	1.228576e+04	
19	9.500000e-01	1.287131e+04	
20	1.000000e+00	1.350286e+04	
21	1.050000e+00	1.418611e+04	
22	1.100000e+00	1.492781e+04	
23	1.150000e+00	1.573600e+04	
24	1.200000e+00	1.662043e+04	
25	1.250000e+00	1.759306e+04	
26	1.300000e+00	1.866888e+04	
27	1.350000e+00	1.986715e+04	
28	1.400000e+00	2.121333e+04	
29	1.450000e+00	2.274227e+04	
30	1.500000e+00	2.450342e+04	
31	1.550000e+00	2.656913e+04	
32	1.600000e+00	2.904651e+04	
33	1.650000e+00	3.209055e+04	
34	1.700000e+00	3.590726e+04	
35	1.750000e+00	4.072653e+04	
36	1.800000e+00	4.673272e+04	
37	1.850000e+00	5.398591e+04	
38	1.900000e+00	6.239688e+04	
39	1.950000e+00	7.177322e+04	
40	2.000000e+00	8.189035e+04	
41	2.050000e+00	9.254197e+04	
42	2.100000e+00	1.035604e+05	
43	2.150000e+00	1.148178e+05	
44	2.200000e+00	1.262198e+05	
45	2.250000e+00	1.376971e+05	
46	2.300000e+00	1.491998e+05	
47	2.350000e+00	1.606911e+05	
48	2.400000e+00	1.721441e+05	
49	2.450000e+00	1.835391e+05	
50	2.500000e+00	1.948613e+05	
51	2.550000e+00	2.060999e+05	
52	2.600000e+00	2.172468e+05	
53	2.650000e+00	2.282961e+05	
54	2.700000e+00	2.392435e+05	

Index   v-sweep         rds             
--------------------------------------------------------------------------------
55	2.750000e+00	2.500858e+05	
56	2.800000e+00	2.608209e+05	
57	2.850000e+00	2.714475e+05	
58	2.900000e+00	2.819645e+05	
59	2.950000e+00	2.923717e+05	
60	3.000000e+00	3.026690e+05	
61	3.050000e+00	3.128566e+05	
62	3.100000e+00	3.229349e+05	
63	3.150000e+00	3.329043e+05	
64	3.200000e+00	3.427653e+05	
65	3.250000e+00	3.525182e+05	
66	3.300000e+00	3.621625e+05	
Reset re-loads circuit ***************************

Circuit: ***************************

Note: No ".plot", ".print", or ".fourier" lines; no simulations run
