
Note: Compatibility modes selected: hs

Warning: m=xx on .subckt line will override multiplier m hierarchy!


Circuit: ***************************

Doing analysis at TEMP = -40.000000 and TNOM = -40.000000


No. of Data Rows : 67
                          ***************************
                          DC transfer characteristic  Mon Jan  9 13:57:20  2023
--------------------------------------------------------------------------------
Index   v-sweep         rds             
--------------------------------------------------------------------------------
0	0.000000e+00	8.471196e+04	
1	5.000000e-02	2.215633e+05	
2	1.000000e-01	1.608145e+06	
3	1.500000e-01	6.700247e+06	
4	2.000000e-01	1.192725e+07	
5	2.500000e-01	1.576866e+07	
6	3.000000e-01	1.861014e+07	
7	3.500000e-01	2.080665e+07	
8	4.000000e-01	2.256685e+07	
9	4.500000e-01	2.401554e+07	
10	5.000000e-01	2.523207e+07	
11	5.500000e-01	2.626987e+07	
12	6.000000e-01	2.716653e+07	
13	6.500000e-01	2.794944e+07	
14	7.000000e-01	2.863919e+07	
15	7.500000e-01	2.925155e+07	
16	8.000000e-01	2.979886e+07	
17	8.500000e-01	3.029096e+07	
18	9.000000e-01	3.073576e+07	
19	9.500000e-01	3.113970e+07	
20	1.000000e+00	3.150813e+07	
21	1.050000e+00	3.184548e+07	
22	1.100000e+00	3.215547e+07	
23	1.150000e+00	3.244124e+07	
24	1.200000e+00	3.270550e+07	
25	1.250000e+00	3.295052e+07	
26	1.300000e+00	3.317831e+07	
27	1.350000e+00	3.339059e+07	
28	1.400000e+00	3.358884e+07	
29	1.450000e+00	3.377438e+07	
30	1.500000e+00	3.394837e+07	
31	1.550000e+00	3.411181e+07	
32	1.600000e+00	3.426559e+07	
33	1.650000e+00	3.441050e+07	
34	1.700000e+00	3.454721e+07	
35	1.750000e+00	3.467631e+07	
36	1.800000e+00	3.479830e+07	
37	1.850000e+00	3.491356e+07	
38	1.900000e+00	3.502240e+07	
39	1.950000e+00	3.512501e+07	
40	2.000000e+00	3.522146e+07	
41	2.050000e+00	3.531170e+07	
42	2.100000e+00	3.539551e+07	
43	2.150000e+00	3.547253e+07	
44	2.200000e+00	3.554221e+07	
45	2.250000e+00	3.560379e+07	
46	2.300000e+00	3.565629e+07	
47	2.350000e+00	3.569850e+07	
48	2.400000e+00	3.572896e+07	
49	2.450000e+00	3.574593e+07	
50	2.500000e+00	3.574742e+07	
51	2.550000e+00	3.573114e+07	
52	2.600000e+00	3.569456e+07	
53	2.650000e+00	3.563489e+07	
54	2.700000e+00	3.554914e+07	

Index   v-sweep         rds             
--------------------------------------------------------------------------------
55	2.750000e+00	3.543414e+07	
56	2.800000e+00	3.528657e+07	
57	2.850000e+00	3.510311e+07	
58	2.900000e+00	3.488042e+07	
59	2.950000e+00	3.461533e+07	
60	3.000000e+00	3.430488e+07	
61	3.050000e+00	3.394645e+07	
62	3.100000e+00	3.353790e+07	
63	3.150000e+00	3.307767e+07	
64	3.200000e+00	3.256485e+07	
65	3.250000e+00	3.199932e+07	
66	3.300000e+00	3.138180e+07	
Reset re-loads circuit ***************************

Circuit: ***************************

Doing analysis at TEMP = -40.000000 and TNOM = -40.000000


No. of Data Rows : 67
                          ***************************
                          DC transfer characteristic  Mon Jan  9 13:57:20  2023
--------------------------------------------------------------------------------
Index   v-sweep         rds             
--------------------------------------------------------------------------------
0	0.000000e+00	9.680995e+03	
1	5.000000e-02	1.102416e+04	
2	1.000000e-01	1.273737e+04	
3	1.500000e-01	1.499707e+04	
4	2.000000e-01	1.811220e+04	
5	2.500000e-01	2.267441e+04	
6	3.000000e-01	2.995953e+04	
7	3.500000e-01	4.315114e+04	
8	4.000000e-01	7.104573e+04	
9	4.500000e-01	1.325948e+05	
10	5.000000e-01	2.394760e+05	
11	5.500000e-01	3.756074e+05	
12	6.000000e-01	5.211372e+05	
13	6.500000e-01	6.658934e+05	
14	7.000000e-01	8.058432e+05	
15	7.500000e-01	9.395789e+05	
16	8.000000e-01	1.066758e+06	
17	8.500000e-01	1.187478e+06	
18	9.000000e-01	1.302015e+06	
19	9.500000e-01	1.410716e+06	
20	1.000000e+00	1.513943e+06	
21	1.050000e+00	1.612052e+06	
22	1.100000e+00	1.705382e+06	
23	1.150000e+00	1.794253e+06	
24	1.200000e+00	1.878959e+06	
25	1.250000e+00	1.959774e+06	
26	1.300000e+00	2.036951e+06	
27	1.350000e+00	2.110722e+06	
28	1.400000e+00	2.181301e+06	
29	1.450000e+00	2.248887e+06	
30	1.500000e+00	2.313660e+06	
31	1.550000e+00	2.375790e+06	
32	1.600000e+00	2.435432e+06	
33	1.650000e+00	2.492728e+06	
34	1.700000e+00	2.547813e+06	
35	1.750000e+00	2.600810e+06	
36	1.800000e+00	2.651831e+06	
37	1.850000e+00	2.700983e+06	
38	1.900000e+00	2.748362e+06	
39	1.950000e+00	2.794056e+06	
40	2.000000e+00	2.838144e+06	
41	2.050000e+00	2.880695e+06	
42	2.100000e+00	2.921765e+06	
43	2.150000e+00	2.961397e+06	
44	2.200000e+00	2.999615e+06	
45	2.250000e+00	3.036423e+06	
46	2.300000e+00	3.071797e+06	
47	2.350000e+00	3.105681e+06	
48	2.400000e+00	3.137977e+06	
49	2.450000e+00	3.168543e+06	
50	2.500000e+00	3.197181e+06	
51	2.550000e+00	3.223626e+06	
52	2.600000e+00	3.247546e+06	
53	2.650000e+00	3.268530e+06	
54	2.700000e+00	3.286082e+06	

Index   v-sweep         rds             
--------------------------------------------------------------------------------
55	2.750000e+00	3.299623e+06	
56	2.800000e+00	3.308492e+06	
57	2.850000e+00	3.311955e+06	
58	2.900000e+00	3.309218e+06	
59	2.950000e+00	3.299451e+06	
60	3.000000e+00	3.281821e+06	
61	3.050000e+00	3.255529e+06	
62	3.100000e+00	3.219860e+06	
63	3.150000e+00	3.174235e+06	
64	3.200000e+00	3.118262e+06	
65	3.250000e+00	3.051787e+06	
66	3.300000e+00	2.974930e+06	
Reset re-loads circuit ***************************

Circuit: ***************************

Doing analysis at TEMP = -40.000000 and TNOM = -40.000000


No. of Data Rows : 67
                          ***************************
                          DC transfer characteristic  Mon Jan  9 13:57:20  2023
--------------------------------------------------------------------------------
Index   v-sweep         rds             
--------------------------------------------------------------------------------
0	0.000000e+00	5.508999e+03	
1	5.000000e-02	5.932777e+03	
2	1.000000e-01	6.412536e+03	
3	1.500000e-01	6.960082e+03	
4	2.000000e-01	7.590800e+03	
5	2.500000e-01	8.325120e+03	
6	3.000000e-01	9.190786e+03	
7	3.500000e-01	1.022647e+04	
8	4.000000e-01	1.148777e+04	
9	4.500000e-01	1.305781e+04	
10	5.000000e-01	1.506691e+04	
11	5.500000e-01	1.773260e+04	
12	6.000000e-01	2.144820e+04	
13	6.500000e-01	2.699601e+04	
14	7.000000e-01	3.604104e+04	
15	7.500000e-01	5.178692e+04	
16	8.000000e-01	7.792778e+04	
17	8.500000e-01	1.149656e+05	
18	9.000000e-01	1.598403e+05	
19	9.500000e-01	2.090684e+05	
20	1.000000e+00	2.602364e+05	
21	1.050000e+00	3.119108e+05	
22	1.100000e+00	3.632727e+05	
23	1.150000e+00	4.138572e+05	
24	1.200000e+00	4.634030e+05	
25	1.250000e+00	5.117670e+05	
26	1.300000e+00	5.588771e+05	
27	1.350000e+00	6.047045e+05	
28	1.400000e+00	6.492477e+05	
29	1.450000e+00	6.925214e+05	
30	1.500000e+00	7.345515e+05	
31	1.550000e+00	7.753698e+05	
32	1.600000e+00	8.150121e+05	
33	1.650000e+00	8.535163e+05	
34	1.700000e+00	8.909211e+05	
35	1.750000e+00	9.272651e+05	
36	1.800000e+00	9.625869e+05	
37	1.850000e+00	9.969237e+05	
38	1.900000e+00	1.030312e+06	
39	1.950000e+00	1.062788e+06	
40	2.000000e+00	1.094384e+06	
41	2.050000e+00	1.125133e+06	
42	2.100000e+00	1.155068e+06	
43	2.150000e+00	1.184216e+06	
44	2.200000e+00	1.212607e+06	
45	2.250000e+00	1.240265e+06	
46	2.300000e+00	1.267214e+06	
47	2.350000e+00	1.293473e+06	
48	2.400000e+00	1.319055e+06	
49	2.450000e+00	1.343969e+06	
50	2.500000e+00	1.368214e+06	
51	2.550000e+00	1.391776e+06	
52	2.600000e+00	1.414628e+06	
53	2.650000e+00	1.436721e+06	
54	2.700000e+00	1.457982e+06	

Index   v-sweep         rds             
--------------------------------------------------------------------------------
55	2.750000e+00	1.478309e+06	
56	2.800000e+00	1.497561e+06	
57	2.850000e+00	1.515555e+06	
58	2.900000e+00	1.532060e+06	
59	2.950000e+00	1.546788e+06	
60	3.000000e+00	1.559396e+06	
61	3.050000e+00	1.569479e+06	
62	3.100000e+00	1.576577e+06	
63	3.150000e+00	1.580181e+06	
64	3.200000e+00	1.579747e+06	
65	3.250000e+00	1.574717e+06	
66	3.300000e+00	1.564549e+06	
Reset re-loads circuit ***************************

Circuit: ***************************

Doing analysis at TEMP = -40.000000 and TNOM = -40.000000


No. of Data Rows : 67
                          ***************************
                          DC transfer characteristic  Mon Jan  9 13:57:20  2023
--------------------------------------------------------------------------------
Index   v-sweep         rds             
--------------------------------------------------------------------------------
0	0.000000e+00	4.137886e+03	
1	5.000000e-02	4.365144e+03	
2	1.000000e-01	4.612183e+03	
3	1.500000e-01	4.881675e+03	
4	2.000000e-01	5.176798e+03	
5	2.500000e-01	5.501362e+03	
6	3.000000e-01	5.859974e+03	
7	3.500000e-01	6.258259e+03	
8	4.000000e-01	6.703162e+03	
9	4.500000e-01	7.203363e+03	
10	5.000000e-01	7.769865e+03	
11	5.500000e-01	8.416845e+03	
12	6.000000e-01	9.162923e+03	
13	6.500000e-01	1.003314e+04	
14	7.000000e-01	1.106215e+04	
15	7.500000e-01	1.229978e+04	
16	8.000000e-01	1.382130e+04	
17	8.500000e-01	1.574823e+04	
18	9.000000e-01	1.829406e+04	
19	9.500000e-01	2.186759e+04	
20	1.000000e+00	2.727746e+04	
21	1.050000e+00	3.592483e+04	
22	1.100000e+00	4.938066e+04	
23	1.150000e+00	6.818029e+04	
24	1.200000e+00	9.145600e+04	
25	1.250000e+00	1.178133e+05	
26	1.300000e+00	1.460478e+05	
27	1.350000e+00	1.753103e+05	
28	1.400000e+00	2.050417e+05	
29	1.450000e+00	2.348798e+05	
30	1.500000e+00	2.645900e+05	
31	1.550000e+00	2.940191e+05	
32	1.600000e+00	3.230672e+05	
33	1.650000e+00	3.516693e+05	
34	1.700000e+00	3.797840e+05	
35	1.750000e+00	4.073860e+05	
36	1.800000e+00	4.344611e+05	
37	1.850000e+00	4.610032e+05	
38	1.900000e+00	4.870113e+05	
39	1.950000e+00	5.124887e+05	
40	2.000000e+00	5.374414e+05	
41	2.050000e+00	5.618772e+05	
42	2.100000e+00	5.858056e+05	
43	2.150000e+00	6.092369e+05	
44	2.200000e+00	6.321819e+05	
45	2.250000e+00	6.546519e+05	
46	2.300000e+00	6.766585e+05	
47	2.350000e+00	6.982131e+05	
48	2.400000e+00	7.193270e+05	
49	2.450000e+00	7.400114e+05	
50	2.500000e+00	7.602767e+05	
51	2.550000e+00	7.801324e+05	
52	2.600000e+00	7.995867e+05	
53	2.650000e+00	8.186456e+05	
54	2.700000e+00	8.373120e+05	

Index   v-sweep         rds             
--------------------------------------------------------------------------------
55	2.750000e+00	8.555840e+05	
56	2.800000e+00	8.734533e+05	
57	2.850000e+00	8.909030e+05	
58	2.900000e+00	9.079041e+05	
59	2.950000e+00	9.244123e+05	
60	3.000000e+00	9.403634e+05	
61	3.050000e+00	9.556689e+05	
62	3.100000e+00	9.702105e+05	
63	3.150000e+00	9.838352e+05	
64	3.200000e+00	9.963494e+05	
65	3.250000e+00	1.007515e+06	
66	3.300000e+00	1.017048e+06	
Reset re-loads circuit ***************************

Circuit: ***************************

Doing analysis at TEMP = -40.000000 and TNOM = -40.000000


No. of Data Rows : 67
                          ***************************
                          DC transfer characteristic  Mon Jan  9 13:57:20  2023
--------------------------------------------------------------------------------
Index   v-sweep         rds             
--------------------------------------------------------------------------------
0	0.000000e+00	3.495036e+03	
1	5.000000e-02	3.645688e+03	
2	1.000000e-01	3.806090e+03	
3	1.500000e-01	3.977206e+03	
4	2.000000e-01	4.160131e+03	
5	2.500000e-01	4.356116e+03	
6	3.000000e-01	4.566597e+03	
7	3.500000e-01	4.793227e+03	
8	4.000000e-01	5.037922e+03	
9	4.500000e-01	5.302917e+03	
10	5.000000e-01	5.590834e+03	
11	5.500000e-01	5.904768e+03	
12	6.000000e-01	6.248410e+03	
13	6.500000e-01	6.626190e+03	
14	7.000000e-01	7.043486e+03	
15	7.500000e-01	7.506898e+03	
16	8.000000e-01	8.024639e+03	
17	8.500000e-01	8.607102e+03	
18	9.000000e-01	9.267700e+03	
19	9.500000e-01	1.002421e+04	
20	1.000000e+00	1.090103e+04	
21	1.050000e+00	1.193317e+04	
22	1.100000e+00	1.317406e+04	
23	1.150000e+00	1.471162e+04	
24	1.200000e+00	1.670268e+04	
25	1.250000e+00	1.944336e+04	
26	1.300000e+00	2.348024e+04	
27	1.350000e+00	2.965673e+04	
28	1.400000e+00	3.882339e+04	
29	1.450000e+00	5.127883e+04	
30	1.500000e+00	6.662193e+04	
31	1.550000e+00	8.412803e+04	
32	1.600000e+00	1.031044e+05	
33	1.650000e+00	1.230159e+05	
34	1.700000e+00	1.434815e+05	
35	1.750000e+00	1.642375e+05	
36	1.800000e+00	1.851018e+05	
37	1.850000e+00	2.059481e+05	
38	1.900000e+00	2.266884e+05	
39	1.950000e+00	2.472606e+05	
40	2.000000e+00	2.676212e+05	
41	2.050000e+00	2.877398e+05	
42	2.100000e+00	3.075949e+05	
43	2.150000e+00	3.271722e+05	
44	2.200000e+00	3.464623e+05	
45	2.250000e+00	3.654592e+05	
46	2.300000e+00	3.841601e+05	
47	2.350000e+00	4.025641e+05	
48	2.400000e+00	4.206719e+05	
49	2.450000e+00	4.384854e+05	
50	2.500000e+00	4.560074e+05	
51	2.550000e+00	4.732414e+05	
52	2.600000e+00	4.901914e+05	
53	2.650000e+00	5.068617e+05	
54	2.700000e+00	5.232568e+05	

Index   v-sweep         rds             
--------------------------------------------------------------------------------
55	2.750000e+00	5.393813e+05	
56	2.800000e+00	5.552393e+05	
57	2.850000e+00	5.708347e+05	
58	2.900000e+00	5.861702e+05	
59	2.950000e+00	6.012468e+05	
60	3.000000e+00	6.160631e+05	
61	3.050000e+00	6.306138e+05	
62	3.100000e+00	6.448882e+05	
63	3.150000e+00	6.588677e+05	
64	3.200000e+00	6.725239e+05	
65	3.250000e+00	6.858147e+05	
66	3.300000e+00	6.986807e+05	
Reset re-loads circuit ***************************

Circuit: ***************************

Doing analysis at TEMP = -40.000000 and TNOM = -40.000000


No. of Data Rows : 67
                          ***************************
                          DC transfer characteristic  Mon Jan  9 13:57:20  2023
--------------------------------------------------------------------------------
Index   v-sweep         rds             
--------------------------------------------------------------------------------
0	0.000000e+00	3.147578e+03	
1	5.000000e-02	3.259276e+03	
2	1.000000e-01	3.376699e+03	
3	1.500000e-01	3.500290e+03	
4	2.000000e-01	3.630542e+03	
5	2.500000e-01	3.767996e+03	
6	3.000000e-01	3.913260e+03	
7	3.500000e-01	4.067008e+03	
8	4.000000e-01	4.229996e+03	
9	4.500000e-01	4.403074e+03	
10	5.000000e-01	4.587198e+03	
11	5.500000e-01	4.783451e+03	
12	6.000000e-01	4.993063e+03	
13	6.500000e-01	5.217438e+03	
14	7.000000e-01	5.458187e+03	
15	7.500000e-01	5.717165e+03	
16	8.000000e-01	5.996526e+03	
17	8.500000e-01	6.298782e+03	
18	9.000000e-01	6.626891e+03	
19	9.500000e-01	6.984360e+03	
20	1.000000e+00	7.375395e+03	
21	1.050000e+00	7.805097e+03	
22	1.100000e+00	8.279747e+03	
23	1.150000e+00	8.807230e+03	
24	1.200000e+00	9.397683e+03	
25	1.250000e+00	1.006457e+04	
26	1.300000e+00	1.082652e+04	
27	1.350000e+00	1.171077e+04	
28	1.400000e+00	1.275981e+04	
29	1.450000e+00	1.404487e+04	
30	1.500000e+00	1.569289e+04	
31	1.550000e+00	1.793523e+04	
32	1.600000e+00	2.116956e+04	
33	1.650000e+00	2.595914e+04	
34	1.700000e+00	3.284122e+04	
35	1.750000e+00	4.202194e+04	
36	1.800000e+00	5.329107e+04	
37	1.850000e+00	6.621254e+04	
38	1.900000e+00	8.033289e+04	
39	1.950000e+00	9.527687e+04	
40	2.000000e+00	1.107620e+05	
41	2.050000e+00	1.265833e+05	
42	2.100000e+00	1.425939e+05	
43	2.150000e+00	1.586881e+05	
44	2.200000e+00	1.747895e+05	
45	2.250000e+00	1.908425e+05	
46	2.300000e+00	2.068065e+05	
47	2.350000e+00	2.226514e+05	
48	2.400000e+00	2.383552e+05	
49	2.450000e+00	2.539016e+05	
50	2.500000e+00	2.692789e+05	
51	2.550000e+00	2.844784e+05	
52	2.600000e+00	2.994942e+05	
53	2.650000e+00	3.143223e+05	
54	2.700000e+00	3.289601e+05	

Index   v-sweep         rds             
--------------------------------------------------------------------------------
55	2.750000e+00	3.434064e+05	
56	2.800000e+00	3.576607e+05	
57	2.850000e+00	3.717235e+05	
58	2.900000e+00	3.855954e+05	
59	2.950000e+00	3.992780e+05	
60	3.000000e+00	4.127728e+05	
61	3.050000e+00	4.260814e+05	
62	3.100000e+00	4.392054e+05	
63	3.150000e+00	4.521461e+05	
64	3.200000e+00	4.649039e+05	
65	3.250000e+00	4.774778e+05	
66	3.300000e+00	4.898648e+05	
Reset re-loads circuit ***************************

Circuit: ***************************

Note: No ".plot", ".print", or ".fourier" lines; no simulations run
