
Note: Compatibility modes selected: hs

Warning: m=xx on .subckt line will override multiplier m hierarchy!


Circuit: ***************************

Doing analysis at TEMP = 125.000000 and TNOM = 125.000000


No. of Data Rows : 67
                          ***************************
                          DC transfer characteristic  Mon Jan  9 13:57:20  2023
--------------------------------------------------------------------------------
Index   v-sweep         rds             
--------------------------------------------------------------------------------
0	0.000000e+00	8.152138e+05	
1	5.000000e-02	1.006034e+06	
2	1.000000e-01	1.311545e+06	
3	1.500000e-01	1.877579e+06	
4	2.000000e-01	3.250757e+06	
5	2.500000e-01	8.927967e+06	
6	3.000000e-01	4.287307e+07	
7	3.500000e-01	1.341422e+08	
8	4.000000e-01	2.389084e+08	
9	4.500000e-01	3.259357e+08	
10	5.000000e-01	3.948288e+08	
11	5.500000e-01	4.505094e+08	
12	6.000000e-01	4.967762e+08	
13	6.500000e-01	5.361123e+08	
14	7.000000e-01	5.701510e+08	
15	7.500000e-01	6.000094e+08	
16	8.000000e-01	6.264842e+08	
17	8.500000e-01	6.501644e+08	
18	9.000000e-01	6.714992e+08	
19	9.500000e-01	6.908395e+08	
20	1.000000e+00	7.084652e+08	
21	1.050000e+00	7.246035e+08	
22	1.100000e+00	7.394409e+08	
23	1.150000e+00	7.531331e+08	
24	1.200000e+00	7.658107e+08	
25	1.250000e+00	7.775847e+08	
26	1.300000e+00	7.885500e+08	
27	1.350000e+00	7.987884e+08	
28	1.400000e+00	8.083707e+08	
29	1.450000e+00	8.173588e+08	
30	1.500000e+00	8.258066e+08	
31	1.550000e+00	8.337619e+08	
32	1.600000e+00	8.412668e+08	
33	1.650000e+00	8.483585e+08	
34	1.700000e+00	8.550701e+08	
35	1.750000e+00	8.614313e+08	
36	1.800000e+00	8.674679e+08	
37	1.850000e+00	8.732033e+08	
38	1.900000e+00	8.786574e+08	
39	1.950000e+00	8.838476e+08	
40	2.000000e+00	8.887882e+08	
41	2.050000e+00	8.934902e+08	
42	2.100000e+00	8.979615e+08	
43	2.150000e+00	9.022057e+08	
44	2.200000e+00	9.062226e+08	
45	2.250000e+00	9.100067e+08	
46	2.300000e+00	9.135471e+08	
47	2.350000e+00	9.168267e+08	
48	2.400000e+00	9.198213e+08	
49	2.450000e+00	9.224993e+08	
50	2.500000e+00	9.248206e+08	
51	2.550000e+00	9.267361e+08	
52	2.600000e+00	9.281877e+08	
53	2.650000e+00	9.291076e+08	
54	2.700000e+00	9.294185e+08	

Index   v-sweep         rds             
--------------------------------------------------------------------------------
55	2.750000e+00	9.290344e+08	
56	2.800000e+00	9.278606e+08	
57	2.850000e+00	9.257960e+08	
58	2.900000e+00	9.227339e+08	
59	2.950000e+00	9.185654e+08	
60	3.000000e+00	9.131815e+08	
61	3.050000e+00	9.064773e+08	
62	3.100000e+00	8.983554e+08	
63	3.150000e+00	8.887308e+08	
64	3.200000e+00	8.775344e+08	
65	3.250000e+00	8.647183e+08	
66	3.300000e+00	8.502590e+08	
Reset re-loads circuit ***************************

Circuit: ***************************

Doing analysis at TEMP = 125.000000 and TNOM = 125.000000


No. of Data Rows : 67
                          ***************************
                          DC transfer characteristic  Mon Jan  9 13:57:20  2023
--------------------------------------------------------------------------------
Index   v-sweep         rds             
--------------------------------------------------------------------------------
0	0.000000e+00	3.174698e+05	
1	5.000000e-02	3.446664e+05	
2	1.000000e-01	3.768279e+05	
3	1.500000e-01	4.154493e+05	
4	2.000000e-01	4.626924e+05	
5	2.500000e-01	5.218030e+05	
6	3.000000e-01	5.978851e+05	
7	3.500000e-01	6.994450e+05	
8	4.000000e-01	8.417615e+05	
9	4.500000e-01	1.055151e+06	
10	5.000000e-01	1.408544e+06	
11	5.500000e-01	2.090815e+06	
12	6.000000e-01	3.744156e+06	
13	6.500000e-01	8.584141e+06	
14	7.000000e-01	2.019022e+07	
15	7.500000e-01	3.729738e+07	
16	8.000000e-01	5.534019e+07	
17	8.500000e-01	7.213413e+07	
18	9.000000e-01	8.731286e+07	
19	9.500000e-01	1.010262e+08	
20	1.000000e+00	1.134937e+08	
21	1.050000e+00	1.249060e+08	
22	1.100000e+00	1.354154e+08	
23	1.150000e+00	1.451421e+08	
24	1.200000e+00	1.541825e+08	
25	1.250000e+00	1.626153e+08	
26	1.300000e+00	1.705056e+08	
27	1.350000e+00	1.779084e+08	
28	1.400000e+00	1.848704e+08	
29	1.450000e+00	1.914321e+08	
30	1.500000e+00	1.976288e+08	
31	1.550000e+00	2.034912e+08	
32	1.600000e+00	2.090465e+08	
33	1.650000e+00	2.143191e+08	
34	1.700000e+00	2.193304e+08	
35	1.750000e+00	2.240999e+08	
36	1.800000e+00	2.286449e+08	
37	1.850000e+00	2.329812e+08	
38	1.900000e+00	2.371230e+08	
39	1.950000e+00	2.410833e+08	
40	2.000000e+00	2.448738e+08	
41	2.050000e+00	2.485052e+08	
42	2.100000e+00	2.519873e+08	
43	2.150000e+00	2.553289e+08	
44	2.200000e+00	2.585377e+08	
45	2.250000e+00	2.616209e+08	
46	2.300000e+00	2.645844e+08	
47	2.350000e+00	2.674329e+08	
48	2.400000e+00	2.701701e+08	
49	2.450000e+00	2.727980e+08	
50	2.500000e+00	2.753169e+08	
51	2.550000e+00	2.777248e+08	
52	2.600000e+00	2.800173e+08	
53	2.650000e+00	2.821868e+08	
54	2.700000e+00	2.842226e+08	

Index   v-sweep         rds             
--------------------------------------------------------------------------------
55	2.750000e+00	2.861097e+08	
56	2.800000e+00	2.878286e+08	
57	2.850000e+00	2.893551e+08	
58	2.900000e+00	2.906596e+08	
59	2.950000e+00	2.917071e+08	
60	3.000000e+00	2.924569e+08	
61	3.050000e+00	2.928630e+08	
62	3.100000e+00	2.928748e+08	
63	3.150000e+00	2.924376e+08	
64	3.200000e+00	2.914946e+08	
65	3.250000e+00	2.899882e+08	
66	3.300000e+00	2.878625e+08	
Reset re-loads circuit ***************************

Circuit: ***************************

Doing analysis at TEMP = 125.000000 and TNOM = 125.000000


No. of Data Rows : 67
                          ***************************
                          DC transfer characteristic  Mon Jan  9 13:57:20  2023
--------------------------------------------------------------------------------
Index   v-sweep         rds             
--------------------------------------------------------------------------------
0	0.000000e+00	2.042450e+05	
1	5.000000e-02	2.147282e+05	
2	1.000000e-01	2.263022e+05	
3	1.500000e-01	2.391467e+05	
4	2.000000e-01	2.534828e+05	
5	2.500000e-01	2.695864e+05	
6	3.000000e-01	2.878057e+05	
7	3.500000e-01	3.085866e+05	
8	4.000000e-01	3.325100e+05	
9	4.500000e-01	3.603464e+05	
10	5.000000e-01	3.931405e+05	
11	5.500000e-01	4.323444e+05	
12	6.000000e-01	4.800370e+05	
13	6.500000e-01	5.393021e+05	
14	7.000000e-01	6.149137e+05	
15	7.500000e-01	7.146630e+05	
16	8.000000e-01	8.521368e+05	
17	8.500000e-01	1.053107e+06	
18	9.000000e-01	1.371913e+06	
19	9.500000e-01	1.937919e+06	
20	1.000000e+00	3.085831e+06	
21	1.050000e+00	5.564621e+06	
22	1.100000e+00	1.015723e+07	
23	1.150000e+00	1.649808e+07	
24	1.200000e+00	2.350010e+07	
25	1.250000e+00	3.046104e+07	
26	1.300000e+00	3.712056e+07	
27	1.350000e+00	4.341730e+07	
28	1.400000e+00	4.935710e+07	
29	1.450000e+00	5.496461e+07	
30	1.500000e+00	6.026759e+07	
31	1.550000e+00	6.529218e+07	
32	1.600000e+00	7.006178e+07	
33	1.650000e+00	7.459709e+07	
34	1.700000e+00	7.891634e+07	
35	1.750000e+00	8.303571e+07	
36	1.800000e+00	8.696960e+07	
37	1.850000e+00	9.073091e+07	
38	1.900000e+00	9.433127e+07	
39	1.950000e+00	9.778117e+07	
40	2.000000e+00	1.010902e+08	
41	2.050000e+00	1.042670e+08	
42	2.100000e+00	1.073195e+08	
43	2.150000e+00	1.102551e+08	
44	2.200000e+00	1.130805e+08	
45	2.250000e+00	1.158018e+08	
46	2.300000e+00	1.184248e+08	
47	2.350000e+00	1.209548e+08	
48	2.400000e+00	1.233966e+08	
49	2.450000e+00	1.257547e+08	
50	2.500000e+00	1.280334e+08	
51	2.550000e+00	1.302364e+08	
52	2.600000e+00	1.323671e+08	
53	2.650000e+00	1.344285e+08	
54	2.700000e+00	1.364230e+08	

Index   v-sweep         rds             
--------------------------------------------------------------------------------
55	2.750000e+00	1.383525e+08	
56	2.800000e+00	1.402181e+08	
57	2.850000e+00	1.420199e+08	
58	2.900000e+00	1.437569e+08	
59	2.950000e+00	1.454267e+08	
60	3.000000e+00	1.470249e+08	
61	3.050000e+00	1.485453e+08	
62	3.100000e+00	1.499790e+08	
63	3.150000e+00	1.513143e+08	
64	3.200000e+00	1.525362e+08	
65	3.250000e+00	1.536262e+08	
66	3.300000e+00	1.545617e+08	
Reset re-loads circuit ***************************

Circuit: ***************************

Doing analysis at TEMP = 125.000000 and TNOM = 125.000000


No. of Data Rows : 67
                          ***************************
                          DC transfer characteristic  Mon Jan  9 13:57:20  2023
--------------------------------------------------------------------------------
Index   v-sweep         rds             
--------------------------------------------------------------------------------
0	0.000000e+00	1.557133e+05	
1	5.000000e-02	1.613285e+05	
2	1.000000e-01	1.673425e+05	
3	1.500000e-01	1.737994e+05	
4	2.000000e-01	1.807501e+05	
5	2.500000e-01	1.882533e+05	
6	3.000000e-01	1.963777e+05	
7	3.500000e-01	2.052036e+05	
8	4.000000e-01	2.148261e+05	
9	4.500000e-01	2.253581e+05	
10	5.000000e-01	2.369348e+05	
11	5.500000e-01	2.497197e+05	
12	6.000000e-01	2.639123e+05	
13	6.500000e-01	2.797586e+05	
14	7.000000e-01	2.975653e+05	
15	7.500000e-01	3.177199e+05	
16	8.000000e-01	3.407192e+05	
17	8.500000e-01	3.672106e+05	
18	9.000000e-01	3.980540e+05	
19	9.500000e-01	4.344155e+05	
20	1.000000e+00	4.779182e+05	
21	1.050000e+00	5.308873e+05	
22	1.100000e+00	5.967729e+05	
23	1.150000e+00	6.809140e+05	
24	1.200000e+00	7.920037e+05	
25	1.250000e+00	9.450970e+05	
26	1.300000e+00	1.168245e+06	
27	1.350000e+00	1.517976e+06	
28	1.400000e+00	2.114431e+06	
29	1.450000e+00	3.196663e+06	
30	1.500000e+00	5.087946e+06	
31	1.550000e+00	7.893071e+06	
32	1.600000e+00	1.133017e+07	
33	1.650000e+00	1.503301e+07	
34	1.700000e+00	1.877169e+07	
35	1.750000e+00	2.243910e+07	
36	1.800000e+00	2.599247e+07	
37	1.850000e+00	2.941770e+07	
38	1.900000e+00	3.271294e+07	
39	1.950000e+00	3.588143e+07	
40	2.000000e+00	3.892846e+07	
41	2.050000e+00	4.185998e+07	
42	2.100000e+00	4.468203e+07	
43	2.150000e+00	4.740043e+07	
44	2.200000e+00	5.002075e+07	
45	2.250000e+00	5.254818e+07	
46	2.300000e+00	5.498760e+07	
47	2.350000e+00	5.734356e+07	
48	2.400000e+00	5.962030e+07	
49	2.450000e+00	6.182178e+07	
50	2.500000e+00	6.395170e+07	
51	2.550000e+00	6.601352e+07	
52	2.600000e+00	6.801048e+07	
53	2.650000e+00	6.994560e+07	
54	2.700000e+00	7.182173e+07	

Index   v-sweep         rds             
--------------------------------------------------------------------------------
55	2.750000e+00	7.364153e+07	
56	2.800000e+00	7.540750e+07	
57	2.850000e+00	7.712198e+07	
58	2.900000e+00	7.878713e+07	
59	2.950000e+00	8.040497e+07	
60	3.000000e+00	8.197731e+07	
61	3.050000e+00	8.350574e+07	
62	3.100000e+00	8.499159e+07	
63	3.150000e+00	8.643582e+07	
64	3.200000e+00	8.783896e+07	
65	3.250000e+00	8.920094e+07	
66	3.300000e+00	9.052095e+07	
Reset re-loads circuit ***************************

Circuit: ***************************

Doing analysis at TEMP = 125.000000 and TNOM = 125.000000


No. of Data Rows : 67
                          ***************************
                          DC transfer characteristic  Mon Jan  9 13:57:21  2023
--------------------------------------------------------------------------------
Index   v-sweep         rds             
--------------------------------------------------------------------------------
0	0.000000e+00	1.295946e+05	
1	5.000000e-02	1.331450e+05	
2	1.000000e-01	1.368830e+05	
3	1.500000e-01	1.408237e+05	
4	2.000000e-01	1.449842e+05	
5	2.500000e-01	1.493834e+05	
6	3.000000e-01	1.540424e+05	
7	3.500000e-01	1.589850e+05	
8	4.000000e-01	1.642377e+05	
9	4.500000e-01	1.698308e+05	
10	5.000000e-01	1.757984e+05	
11	5.500000e-01	1.821794e+05	
12	6.000000e-01	1.890183e+05	
13	6.500000e-01	1.963662e+05	
14	7.000000e-01	2.042822e+05	
15	7.500000e-01	2.128346e+05	
16	8.000000e-01	2.221035e+05	
17	8.500000e-01	2.321828e+05	
18	9.000000e-01	2.431837e+05	
19	9.500000e-01	2.552383e+05	
20	1.000000e+00	2.685059e+05	
21	1.050000e+00	2.831790e+05	
22	1.100000e+00	2.994934e+05	
23	1.150000e+00	3.177406e+05	
24	1.200000e+00	3.382855e+05	
25	1.250000e+00	3.615908e+05	
26	1.300000e+00	3.882523e+05	
27	1.350000e+00	4.190502e+05	
28	1.400000e+00	4.550264e+05	
29	1.450000e+00	4.976029e+05	
30	1.500000e+00	5.487727e+05	
31	1.550000e+00	6.114136e+05	
32	1.600000e+00	6.898331e+05	
33	1.650000e+00	7.907559e+05	
34	1.700000e+00	9.252103e+05	
35	1.750000e+00	1.112306e+06	
36	1.800000e+00	1.386964e+06	
37	1.850000e+00	1.814578e+06	
38	1.900000e+00	2.509097e+06	
39	1.950000e+00	3.616784e+06	
40	2.000000e+00	5.211880e+06	
41	2.050000e+00	7.210257e+06	
42	2.100000e+00	9.447121e+06	
43	2.150000e+00	1.178562e+07	
44	2.200000e+00	1.414327e+07	
45	2.250000e+00	1.647650e+07	
46	2.300000e+00	1.876366e+07	
47	2.350000e+00	2.099448e+07	
48	2.400000e+00	2.316465e+07	
49	2.450000e+00	2.527295e+07	
50	2.500000e+00	2.731980e+07	
51	2.550000e+00	2.930649e+07	
52	2.600000e+00	3.123476e+07	
53	2.650000e+00	3.310659e+07	
54	2.700000e+00	3.492402e+07	

Index   v-sweep         rds             
--------------------------------------------------------------------------------
55	2.750000e+00	3.668914e+07	
56	2.800000e+00	3.840397e+07	
57	2.850000e+00	4.007051e+07	
58	2.900000e+00	4.169066e+07	
59	2.950000e+00	4.326625e+07	
60	3.000000e+00	4.479905e+07	
61	3.050000e+00	4.629072e+07	
62	3.100000e+00	4.774288e+07	
63	3.150000e+00	4.915703e+07	
64	3.200000e+00	5.053462e+07	
65	3.250000e+00	5.187703e+07	
66	3.300000e+00	5.318556e+07	
Reset re-loads circuit ***************************

Circuit: ***************************

Doing analysis at TEMP = 125.000000 and TNOM = 125.000000


No. of Data Rows : 67
                          ***************************
                          DC transfer characteristic  Mon Jan  9 13:57:21  2023
--------------------------------------------------------------------------------
Index   v-sweep         rds             
--------------------------------------------------------------------------------
0	0.000000e+00	1.138466e+05	
1	5.000000e-02	1.163270e+05	
2	1.000000e-01	1.189099e+05	
3	1.500000e-01	1.216016e+05	
4	2.000000e-01	1.244091e+05	
5	2.500000e-01	1.273402e+05	
6	3.000000e-01	1.304032e+05	
7	3.500000e-01	1.336071e+05	
8	4.000000e-01	1.369619e+05	
9	4.500000e-01	1.404785e+05	
10	5.000000e-01	1.441690e+05	
11	5.500000e-01	1.480464e+05	
12	6.000000e-01	1.521255e+05	
13	6.500000e-01	1.564222e+05	
14	7.000000e-01	1.609547e+05	
15	7.500000e-01	1.657426e+05	
16	8.000000e-01	1.708084e+05	
17	8.500000e-01	1.761768e+05	
18	9.000000e-01	1.818758e+05	
19	9.500000e-01	1.879370e+05	
20	1.000000e+00	1.943959e+05	
21	1.050000e+00	2.012931e+05	
22	1.100000e+00	2.086746e+05	
23	1.150000e+00	2.165934e+05	
24	1.200000e+00	2.251103e+05	
25	1.250000e+00	2.342957e+05	
26	1.300000e+00	2.442315e+05	
27	1.350000e+00	2.550135e+05	
28	1.400000e+00	2.667547e+05	
29	1.450000e+00	2.795888e+05	
30	1.500000e+00	2.936760e+05	
31	1.550000e+00	3.092091e+05	
32	1.600000e+00	3.264226e+05	
33	1.650000e+00	3.456047e+05	
34	1.700000e+00	3.671134e+05	
35	1.750000e+00	3.913990e+05	
36	1.800000e+00	4.190357e+05	
37	1.850000e+00	4.507679e+05	
38	1.900000e+00	4.875772e+05	
39	1.950000e+00	5.307852e+05	
40	2.000000e+00	5.822133e+05	
41	2.050000e+00	6.444406e+05	
42	2.100000e+00	7.212370e+05	
43	2.150000e+00	8.183156e+05	
44	2.200000e+00	9.446981e+05	
45	2.250000e+00	1.115249e+06	
46	2.300000e+00	1.355313e+06	
47	2.350000e+00	1.708043e+06	
48	2.400000e+00	2.240128e+06	
49	2.450000e+00	3.027685e+06	
50	2.500000e+00	4.107682e+06	
51	2.550000e+00	5.442397e+06	
52	2.600000e+00	6.949382e+06	
53	2.650000e+00	8.550505e+06	
54	2.700000e+00	1.019131e+07	

Index   v-sweep         rds             
--------------------------------------------------------------------------------
55	2.750000e+00	1.183856e+07	
56	2.800000e+00	1.347299e+07	
57	2.850000e+00	1.508371e+07	
58	2.900000e+00	1.666465e+07	
59	2.950000e+00	1.821259e+07	
60	3.000000e+00	1.972599e+07	
61	3.050000e+00	2.120428e+07	
62	3.100000e+00	2.264754e+07	
63	3.150000e+00	2.405620e+07	
64	3.200000e+00	2.543093e+07	
65	3.250000e+00	2.677252e+07	
66	3.300000e+00	2.808188e+07	
Reset re-loads circuit ***************************

Circuit: ***************************

Note: No ".plot", ".print", or ".fourier" lines; no simulations run
