
Note: Compatibility modes selected: hs

Warning: m=xx on .subckt line will override multiplier m hierarchy!


Circuit: ***************************

Doing analysis at TEMP = 25.000000 and TNOM = 25.000000


No. of Data Rows : 67
                          ***************************
                          DC transfer characteristic  Mon Jan  9 13:57:19  2023
--------------------------------------------------------------------------------
Index   v-sweep         rds             
--------------------------------------------------------------------------------
0	0.000000e+00	5.829519e+04	
1	5.000000e-02	8.602727e+04	
2	1.000000e-01	1.515116e+05	
3	1.500000e-01	3.571422e+05	
4	2.000000e-01	9.279344e+05	
5	2.500000e-01	1.768406e+06	
6	3.000000e-01	2.563176e+06	
7	3.500000e-01	3.231022e+06	
8	4.000000e-01	3.791543e+06	
9	4.500000e-01	4.270598e+06	
10	5.000000e-01	4.686866e+06	
11	5.500000e-01	5.053233e+06	
12	6.000000e-01	5.378856e+06	
13	6.500000e-01	5.670515e+06	
14	7.000000e-01	5.933402e+06	
15	7.500000e-01	6.171610e+06	
16	8.000000e-01	6.388435e+06	
17	8.500000e-01	6.586578e+06	
18	9.000000e-01	6.768285e+06	
19	9.500000e-01	6.935442e+06	
20	1.000000e+00	7.089652e+06	
21	1.050000e+00	7.232286e+06	
22	1.100000e+00	7.364523e+06	
23	1.150000e+00	7.487390e+06	
24	1.200000e+00	7.601779e+06	
25	1.250000e+00	7.708474e+06	
26	1.300000e+00	7.808164e+06	
27	1.350000e+00	7.901458e+06	
28	1.400000e+00	7.988898e+06	
29	1.450000e+00	8.070967e+06	
30	1.500000e+00	8.148093e+06	
31	1.550000e+00	8.220664e+06	
32	1.600000e+00	8.289024e+06	
33	1.650000e+00	8.353484e+06	
34	1.700000e+00	8.414319e+06	
35	1.750000e+00	8.471778e+06	
36	1.800000e+00	8.526077e+06	
37	1.850000e+00	8.577403e+06	
38	1.900000e+00	8.625913e+06	
39	1.950000e+00	8.671731e+06	
40	2.000000e+00	8.714946e+06	
41	2.050000e+00	8.755603e+06	
42	2.100000e+00	8.793707e+06	
43	2.150000e+00	8.829204e+06	
44	2.200000e+00	8.861987e+06	
45	2.250000e+00	8.891878e+06	
46	2.300000e+00	8.918626e+06	
47	2.350000e+00	8.941897e+06	
48	2.400000e+00	8.961268e+06	
49	2.450000e+00	8.976219e+06	
50	2.500000e+00	8.986130e+06	
51	2.550000e+00	8.990279e+06	
52	2.600000e+00	8.987841e+06	
53	2.650000e+00	8.977894e+06	
54	2.700000e+00	8.959429e+06	

Index   v-sweep         rds             
--------------------------------------------------------------------------------
55	2.750000e+00	8.931367e+06	
56	2.800000e+00	8.892576e+06	
57	2.850000e+00	8.841905e+06	
58	2.900000e+00	8.778214e+06	
59	2.950000e+00	8.700419e+06	
60	3.000000e+00	8.607537e+06	
61	3.050000e+00	8.498735e+06	
62	3.100000e+00	8.373382e+06	
63	3.150000e+00	8.231092e+06	
64	3.200000e+00	8.071774e+06	
65	3.250000e+00	7.895656e+06	
66	3.300000e+00	7.703309e+06	
Reset re-loads circuit ***************************

Circuit: ***************************

Doing analysis at TEMP = 25.000000 and TNOM = 25.000000


No. of Data Rows : 67
                          ***************************
                          DC transfer characteristic  Mon Jan  9 13:57:19  2023
--------------------------------------------------------------------------------
Index   v-sweep         rds             
--------------------------------------------------------------------------------
0	0.000000e+00	1.312297e+04	
1	5.000000e-02	1.465001e+04	
2	1.000000e-01	1.649168e+04	
3	1.500000e-01	1.875517e+04	
4	2.000000e-01	2.160197e+04	
5	2.500000e-01	2.528649e+04	
6	3.000000e-01	3.023068e+04	
7	3.500000e-01	3.717644e+04	
8	4.000000e-01	4.749942e+04	
9	4.500000e-01	6.377010e+04	
10	5.000000e-01	9.012270e+04	
11	5.500000e-01	1.303282e+05	
12	6.000000e-01	1.835054e+05	
13	6.500000e-01	2.445414e+05	
14	7.000000e-01	3.085999e+05	
15	7.500000e-01	3.728408e+05	
16	8.000000e-01	4.358805e+05	
17	8.500000e-01	4.970971e+05	
18	9.000000e-01	5.562371e+05	
19	9.500000e-01	6.132242e+05	
20	1.000000e+00	6.680694e+05	
21	1.050000e+00	7.208267e+05	
22	1.100000e+00	7.715712e+05	
23	1.150000e+00	8.203870e+05	
24	1.200000e+00	8.673616e+05	
25	1.250000e+00	9.125817e+05	
26	1.300000e+00	9.561321e+05	
27	1.350000e+00	9.980940e+05	
28	1.400000e+00	1.038545e+06	
29	1.450000e+00	1.077559e+06	
30	1.500000e+00	1.115206e+06	
31	1.550000e+00	1.151552e+06	
32	1.600000e+00	1.186658e+06	
33	1.650000e+00	1.220583e+06	
34	1.700000e+00	1.253383e+06	
35	1.750000e+00	1.285110e+06	
36	1.800000e+00	1.315812e+06	
37	1.850000e+00	1.345536e+06	
38	1.900000e+00	1.374325e+06	
39	1.950000e+00	1.402220e+06	
40	2.000000e+00	1.429257e+06	
41	2.050000e+00	1.455472e+06	
42	2.100000e+00	1.480894e+06	
43	2.150000e+00	1.505551e+06	
44	2.200000e+00	1.529462e+06	
45	2.250000e+00	1.552641e+06	
46	2.300000e+00	1.575092e+06	
47	2.350000e+00	1.596808e+06	
48	2.400000e+00	1.617767e+06	
49	2.450000e+00	1.637930e+06	
50	2.500000e+00	1.657234e+06	
51	2.550000e+00	1.675590e+06	
52	2.600000e+00	1.692878e+06	
53	2.650000e+00	1.708942e+06	
54	2.700000e+00	1.723586e+06	

Index   v-sweep         rds             
--------------------------------------------------------------------------------
55	2.750000e+00	1.736567e+06	
56	2.800000e+00	1.747596e+06	
57	2.850000e+00	1.756336e+06	
58	2.900000e+00	1.762404e+06	
59	2.950000e+00	1.765373e+06	
60	3.000000e+00	1.764787e+06	
61	3.050000e+00	1.760168e+06	
62	3.100000e+00	1.751043e+06	
63	3.150000e+00	1.736960e+06	
64	3.200000e+00	1.717524e+06	
65	3.250000e+00	1.692423e+06	
66	3.300000e+00	1.661458e+06	
Reset re-loads circuit ***************************

Circuit: ***************************

Doing analysis at TEMP = 25.000000 and TNOM = 25.000000


No. of Data Rows : 67
                          ***************************
                          DC transfer characteristic  Mon Jan  9 13:57:19  2023
--------------------------------------------------------------------------------
Index   v-sweep         rds             
--------------------------------------------------------------------------------
0	0.000000e+00	8.071124e+03	
1	5.000000e-02	8.661030e+03	
2	1.000000e-01	9.317807e+03	
3	1.500000e-01	1.005334e+04	
4	2.000000e-01	1.088251e+04	
5	2.500000e-01	1.182421e+04	
6	3.000000e-01	1.290281e+04	
7	3.500000e-01	1.415028e+04	
8	4.000000e-01	1.560943e+04	
9	4.500000e-01	1.733903e+04	
10	5.000000e-01	1.942207e+04	
11	5.500000e-01	2.197984e+04	
12	6.000000e-01	2.519693e+04	
13	6.500000e-01	2.936691e+04	
14	7.000000e-01	3.497235e+04	
15	7.500000e-01	4.279339e+04	
16	8.000000e-01	5.391748e+04	
17	8.500000e-01	6.933766e+04	
18	9.000000e-01	8.921141e+04	
19	9.500000e-01	1.126950e+05	
20	1.000000e+00	1.385636e+05	
21	1.050000e+00	1.657663e+05	
22	1.100000e+00	1.935733e+05	
23	1.150000e+00	2.215199e+05	
24	1.200000e+00	2.493190e+05	
25	1.250000e+00	2.767946e+05	
26	1.300000e+00	3.038398e+05	
27	1.350000e+00	3.303906e+05	
28	1.400000e+00	3.564101e+05	
29	1.450000e+00	3.818788e+05	
30	1.500000e+00	4.067889e+05	
31	1.550000e+00	4.311400e+05	
32	1.600000e+00	4.549367e+05	
33	1.650000e+00	4.781872e+05	
34	1.700000e+00	5.009016e+05	
35	1.750000e+00	5.230917e+05	
36	1.800000e+00	5.447701e+05	
37	1.850000e+00	5.659500e+05	
38	1.900000e+00	5.866447e+05	
39	1.950000e+00	6.068679e+05	
40	2.000000e+00	6.266327e+05	
41	2.050000e+00	6.459525e+05	
42	2.100000e+00	6.648401e+05	
43	2.150000e+00	6.833082e+05	
44	2.200000e+00	7.013687e+05	
45	2.250000e+00	7.190333e+05	
46	2.300000e+00	7.363126e+05	
47	2.350000e+00	7.532161e+05	
48	2.400000e+00	7.697519e+05	
49	2.450000e+00	7.859254e+05	
50	2.500000e+00	8.017393e+05	
51	2.550000e+00	8.171914e+05	
52	2.600000e+00	8.322737e+05	
53	2.650000e+00	8.469701e+05	
54	2.700000e+00	8.612537e+05	

Index   v-sweep         rds             
--------------------------------------------------------------------------------
55	2.750000e+00	8.750843e+05	
56	2.800000e+00	8.884052e+05	
57	2.850000e+00	9.011387e+05	
58	2.900000e+00	9.131833e+05	
59	2.950000e+00	9.244087e+05	
60	3.000000e+00	9.346532e+05	
61	3.050000e+00	9.437202e+05	
62	3.100000e+00	9.513765e+05	
63	3.150000e+00	9.573531e+05	
64	3.200000e+00	9.613479e+05	
65	3.250000e+00	9.630324e+05	
66	3.300000e+00	9.620623e+05	
Reset re-loads circuit ***************************

Circuit: ***************************

Doing analysis at TEMP = 25.000000 and TNOM = 25.000000


No. of Data Rows : 67
                          ***************************
                          DC transfer characteristic  Mon Jan  9 13:57:19  2023
--------------------------------------------------------------------------------
Index   v-sweep         rds             
--------------------------------------------------------------------------------
0	0.000000e+00	6.201052e+03	
1	5.000000e-02	6.544470e+03	
2	1.000000e-01	6.915194e+03	
3	1.500000e-01	7.316548e+03	
4	2.000000e-01	7.752415e+03	
5	2.500000e-01	8.227373e+03	
6	3.000000e-01	8.746849e+03	
7	3.500000e-01	9.317333e+03	
8	4.000000e-01	9.946655e+03	
9	4.500000e-01	1.064435e+04	
10	5.000000e-01	1.142219e+04	
11	5.500000e-01	1.229485e+04	
12	6.000000e-01	1.328097e+04	
13	6.500000e-01	1.440466e+04	
14	7.000000e-01	1.569785e+04	
15	7.500000e-01	1.720408e+04	
16	8.000000e-01	1.898504e+04	
17	8.500000e-01	2.113218e+04	
18	9.000000e-01	2.378765e+04	
19	9.500000e-01	2.718039e+04	
20	1.000000e+00	3.167423e+04	
21	1.050000e+00	3.778445e+04	
22	1.100000e+00	4.605669e+04	
23	1.150000e+00	5.678312e+04	
24	1.200000e+00	6.981130e+04	
25	1.250000e+00	8.466377e+04	
26	1.300000e+00	1.007911e+05	
27	1.350000e+00	1.177283e+05	
28	1.400000e+00	1.351316e+05	
29	1.450000e+00	1.527622e+05	
30	1.500000e+00	1.704573e+05	
31	1.550000e+00	1.881068e+05	
32	1.600000e+00	2.056362e+05	
33	1.650000e+00	2.229946e+05	
34	1.700000e+00	2.401475e+05	
35	1.750000e+00	2.570719e+05	
36	1.800000e+00	2.737525e+05	
37	1.850000e+00	2.901794e+05	
38	1.900000e+00	3.063469e+05	
39	1.950000e+00	3.222523e+05	
40	2.000000e+00	3.378947e+05	
41	2.050000e+00	3.532750e+05	
42	2.100000e+00	3.683951e+05	
43	2.150000e+00	3.832579e+05	
44	2.200000e+00	3.978668e+05	
45	2.250000e+00	4.122256e+05	
46	2.300000e+00	4.263385e+05	
47	2.350000e+00	4.402099e+05	
48	2.400000e+00	4.538443e+05	
49	2.450000e+00	4.672460e+05	
50	2.500000e+00	4.804196e+05	
51	2.550000e+00	4.933689e+05	
52	2.600000e+00	5.060975e+05	
53	2.650000e+00	5.186079e+05	
54	2.700000e+00	5.309012e+05	

Index   v-sweep         rds             
--------------------------------------------------------------------------------
55	2.750000e+00	5.429761e+05	
56	2.800000e+00	5.548285e+05	
57	2.850000e+00	5.664496e+05	
58	2.900000e+00	5.778243e+05	
59	2.950000e+00	5.889299e+05	
60	3.000000e+00	5.997328e+05	
61	3.050000e+00	6.101861e+05	
62	3.100000e+00	6.202266e+05	
63	3.150000e+00	6.297713e+05	
64	3.200000e+00	6.387138e+05	
65	3.250000e+00	6.469215e+05	
66	3.300000e+00	6.542330e+05	
Reset re-loads circuit ***************************

Circuit: ***************************

Doing analysis at TEMP = 25.000000 and TNOM = 25.000000


No. of Data Rows : 67
                          ***************************
                          DC transfer characteristic  Mon Jan  9 13:57:19  2023
--------------------------------------------------------------------------------
Index   v-sweep         rds             
--------------------------------------------------------------------------------
0	0.000000e+00	5.247730e+03	
1	5.000000e-02	5.485321e+03	
2	1.000000e-01	5.737581e+03	
3	1.500000e-01	6.005872e+03	
4	2.000000e-01	6.291733e+03	
5	2.500000e-01	6.596909e+03	
6	3.000000e-01	6.923384e+03	
7	3.500000e-01	7.273426e+03	
8	4.000000e-01	7.649642e+03	
9	4.500000e-01	8.055042e+03	
10	5.000000e-01	8.493122e+03	
11	5.500000e-01	8.967974e+03	
12	6.000000e-01	9.484417e+03	
13	6.500000e-01	1.004818e+04	
14	7.000000e-01	1.066615e+04	
15	7.500000e-01	1.134667e+04	
16	8.000000e-01	1.210006e+04	
17	8.500000e-01	1.293927e+04	
18	9.000000e-01	1.388093e+04	
19	9.500000e-01	1.494710e+04	
20	1.000000e+00	1.616805e+04	
21	1.050000e+00	1.758735e+04	
22	1.100000e+00	1.927074e+04	
23	1.150000e+00	2.132162e+04	
24	1.200000e+00	2.390491e+04	
25	1.250000e+00	2.727236e+04	
26	1.300000e+00	3.175814e+04	
27	1.350000e+00	3.769490e+04	
28	1.400000e+00	4.526156e+04	
29	1.450000e+00	5.439069e+04	
30	1.500000e+00	6.482386e+04	
31	1.550000e+00	7.623816e+04	
32	1.600000e+00	8.833790e+04	
33	1.650000e+00	1.008883e+05	
34	1.700000e+00	1.137154e+05	
35	1.750000e+00	1.266935e+05	
36	1.800000e+00	1.397333e+05	
37	1.850000e+00	1.527711e+05	
38	1.900000e+00	1.657611e+05	
39	1.950000e+00	1.786705e+05	
40	2.000000e+00	1.914758e+05	
41	2.050000e+00	2.041599e+05	
42	2.100000e+00	2.167105e+05	
43	2.150000e+00	2.291188e+05	
44	2.200000e+00	2.413790e+05	
45	2.250000e+00	2.534867e+05	
46	2.300000e+00	2.654396e+05	
47	2.350000e+00	2.772361e+05	
48	2.400000e+00	2.888756e+05	
49	2.450000e+00	3.003584e+05	
50	2.500000e+00	3.116850e+05	
51	2.550000e+00	3.228566e+05	
52	2.600000e+00	3.338744e+05	
53	2.650000e+00	3.447401e+05	
54	2.700000e+00	3.554552e+05	

Index   v-sweep         rds             
--------------------------------------------------------------------------------
55	2.750000e+00	3.660215e+05	
56	2.800000e+00	3.764404e+05	
57	2.850000e+00	3.867129e+05	
58	2.900000e+00	3.968394e+05	
59	2.950000e+00	4.068187e+05	
60	3.000000e+00	4.166482e+05	
61	3.050000e+00	4.263221e+05	
62	3.100000e+00	4.358307e+05	
63	3.150000e+00	4.451591e+05	
64	3.200000e+00	4.542849e+05	
65	3.250000e+00	4.631761e+05	
66	3.300000e+00	4.717891e+05	
Reset re-loads circuit ***************************

Circuit: ***************************

Doing analysis at TEMP = 25.000000 and TNOM = 25.000000


No. of Data Rows : 67
                          ***************************
                          DC transfer characteristic  Mon Jan  9 13:57:19  2023
--------------------------------------------------------------------------------
Index   v-sweep         rds             
--------------------------------------------------------------------------------
0	0.000000e+00	4.683226e+03	
1	5.000000e-02	4.863712e+03	
2	1.000000e-01	5.053341e+03	
3	1.500000e-01	5.252804e+03	
4	2.000000e-01	5.462862e+03	
5	2.500000e-01	5.684356e+03	
6	3.000000e-01	5.918223e+03	
7	3.500000e-01	6.165503e+03	
8	4.000000e-01	6.427357e+03	
9	4.500000e-01	6.705089e+03	
10	5.000000e-01	7.000162e+03	
11	5.500000e-01	7.314230e+03	
12	6.000000e-01	7.649164e+03	
13	6.500000e-01	8.007101e+03	
14	7.000000e-01	8.390484e+03	
15	7.500000e-01	8.802130e+03	
16	8.000000e-01	9.245308e+03	
17	8.500000e-01	9.723841e+03	
18	9.000000e-01	1.024225e+04	
19	9.500000e-01	1.080593e+04	
20	1.000000e+00	1.142145e+04	
21	1.050000e+00	1.209693e+04	
22	1.100000e+00	1.284264e+04	
23	1.150000e+00	1.367204e+04	
24	1.200000e+00	1.460336e+04	
25	1.250000e+00	1.566240e+04	
26	1.300000e+00	1.688741e+04	
27	1.350000e+00	1.833737e+04	
28	1.400000e+00	2.010494e+04	
29	1.450000e+00	2.233304e+04	
30	1.500000e+00	2.522477e+04	
31	1.550000e+00	2.902258e+04	
32	1.600000e+00	3.393724e+04	
33	1.650000e+00	4.005755e+04	
34	1.700000e+00	4.731552e+04	
35	1.750000e+00	5.553191e+04	
36	1.800000e+00	6.449058e+04	
37	1.850000e+00	7.399089e+04	
38	1.900000e+00	8.386867e+04	
39	1.950000e+00	9.399781e+04	
40	2.000000e+00	1.042843e+05	
41	2.050000e+00	1.146587e+05	
42	2.100000e+00	1.250701e+05	
43	2.150000e+00	1.354808e+05	
44	2.200000e+00	1.458629e+05	
45	2.250000e+00	1.561954e+05	
46	2.300000e+00	1.664629e+05	
47	2.350000e+00	1.766537e+05	
48	2.400000e+00	1.867590e+05	
49	2.450000e+00	1.967723e+05	
50	2.500000e+00	2.066887e+05	
51	2.550000e+00	2.165047e+05	
52	2.600000e+00	2.262179e+05	
53	2.650000e+00	2.358265e+05	
54	2.700000e+00	2.453295e+05	

Index   v-sweep         rds             
--------------------------------------------------------------------------------
55	2.750000e+00	2.547262e+05	
56	2.800000e+00	2.640165e+05	
57	2.850000e+00	2.732005e+05	
58	2.900000e+00	2.822785e+05	
59	2.950000e+00	2.912510e+05	
60	3.000000e+00	3.001183e+05	
61	3.050000e+00	3.088808e+05	
62	3.100000e+00	3.175382e+05	
63	3.150000e+00	3.260896e+05	
64	3.200000e+00	3.345329e+05	
65	3.250000e+00	3.428640e+05	
66	3.300000e+00	3.510762e+05	
Reset re-loads circuit ***************************

Circuit: ***************************

Note: No ".plot", ".print", or ".fourier" lines; no simulations run
