
Note: Compatibility modes selected: hs

Warning: m=xx on .subckt line will override multiplier m hierarchy!


Circuit: ***************************

Doing analysis at TEMP = 125.000000 and TNOM = 125.000000


No. of Data Rows : 67
                          ***************************
                          DC transfer characteristic  Mon Jan  9 13:57:21  2023
--------------------------------------------------------------------------------
Index   v-sweep         rds             
--------------------------------------------------------------------------------
0	0.000000e+00	4.302220e+04	
1	5.000000e-02	5.218260e+04	
2	1.000000e-01	6.512887e+04	
3	1.500000e-01	8.454462e+04	
4	2.000000e-01	1.156535e+05	
5	2.500000e-01	1.675286e+05	
6	3.000000e-01	2.483169e+05	
7	3.500000e-01	3.491198e+05	
8	4.000000e-01	4.471558e+05	
9	4.500000e-01	5.300960e+05	
10	5.000000e-01	5.975393e+05	
11	5.500000e-01	6.524825e+05	
12	6.000000e-01	6.977868e+05	
13	6.500000e-01	7.356127e+05	
14	7.000000e-01	7.675339e+05	
15	7.500000e-01	7.947096e+05	
16	8.000000e-01	8.180109e+05	
17	8.500000e-01	8.381071e+05	
18	9.000000e-01	8.555215e+05	
19	9.500000e-01	8.706703e+05	
20	1.000000e+00	8.838888e+05	
21	1.050000e+00	8.954505e+05	
22	1.100000e+00	9.055809e+05	
23	1.150000e+00	9.144673e+05	
24	1.200000e+00	9.222670e+05	
25	1.250000e+00	9.291128e+05	
26	1.300000e+00	9.351175e+05	
27	1.350000e+00	9.403777e+05	
28	1.400000e+00	9.449766e+05	
29	1.450000e+00	9.489858e+05	
30	1.500000e+00	9.524679e+05	
31	1.550000e+00	9.554772e+05	
32	1.600000e+00	9.580615e+05	
33	1.650000e+00	9.602627e+05	
34	1.700000e+00	9.621176e+05	
35	1.750000e+00	9.636591e+05	
36	1.800000e+00	9.649160e+05	
37	1.850000e+00	9.659137e+05	
38	1.900000e+00	9.666749e+05	
39	1.950000e+00	9.672193e+05	
40	2.000000e+00	9.675638e+05	
41	2.050000e+00	9.677228e+05	
42	2.100000e+00	9.677082e+05	
43	2.150000e+00	9.675288e+05	
44	2.200000e+00	9.671906e+05	
45	2.250000e+00	9.666962e+05	
46	2.300000e+00	9.660447e+05	
47	2.350000e+00	9.652310e+05	
48	2.400000e+00	9.642456e+05	
49	2.450000e+00	9.630742e+05	
50	2.500000e+00	9.616968e+05	
51	2.550000e+00	9.600877e+05	
52	2.600000e+00	9.582147e+05	
53	2.650000e+00	9.560389e+05	
54	2.700000e+00	9.535145e+05	

Index   v-sweep         rds             
--------------------------------------------------------------------------------
55	2.750000e+00	9.505883e+05	
56	2.800000e+00	9.472003e+05	
57	2.850000e+00	9.432834e+05	
58	2.900000e+00	9.387641e+05	
59	2.950000e+00	9.335636e+05	
60	3.000000e+00	9.275988e+05	
61	3.050000e+00	9.207836e+05	
62	3.100000e+00	9.130314e+05	
63	3.150000e+00	9.042568e+05	
64	3.200000e+00	8.943791e+05	
65	3.250000e+00	8.833243e+05	
66	3.300000e+00	8.710293e+05	
Reset re-loads circuit ***************************

Circuit: ***************************

Doing analysis at TEMP = 125.000000 and TNOM = 125.000000


No. of Data Rows : 67
                          ***************************
                          DC transfer characteristic  Mon Jan  9 13:57:21  2023
--------------------------------------------------------------------------------
Index   v-sweep         rds             
--------------------------------------------------------------------------------
0	0.000000e+00	1.764420e+04	
1	5.000000e-02	1.943575e+04	
2	1.000000e-01	2.150305e+04	
3	1.500000e-01	2.391325e+04	
4	2.000000e-01	2.675686e+04	
5	2.500000e-01	3.015842e+04	
6	3.000000e-01	3.429317e+04	
7	3.500000e-01	3.941306e+04	
8	4.000000e-01	4.588612e+04	
9	4.500000e-01	5.424826e+04	
10	5.000000e-01	6.523824e+04	
11	5.500000e-01	7.970005e+04	
12	6.000000e-01	9.815492e+04	
13	6.500000e-01	1.201750e+05	
14	7.000000e-01	1.443561e+05	
15	7.500000e-01	1.690957e+05	
16	8.000000e-01	1.932394e+05	
17	8.500000e-01	2.161664e+05	
18	9.000000e-01	2.376220e+05	
19	9.500000e-01	2.575529e+05	
20	1.000000e+00	2.760051e+05	
21	1.050000e+00	2.930687e+05	
22	1.100000e+00	3.088495e+05	
23	1.150000e+00	3.234551e+05	
24	1.200000e+00	3.369889e+05	
25	1.250000e+00	3.495466e+05	
26	1.300000e+00	3.612158e+05	
27	1.350000e+00	3.720756e+05	
28	1.400000e+00	3.821972e+05	
29	1.450000e+00	3.916449e+05	
30	1.500000e+00	4.004760e+05	
31	1.550000e+00	4.087422e+05	
32	1.600000e+00	4.164899e+05	
33	1.650000e+00	4.237608e+05	
34	1.700000e+00	4.305926e+05	
35	1.750000e+00	4.370192e+05	
36	1.800000e+00	4.430713e+05	
37	1.850000e+00	4.487768e+05	
38	1.900000e+00	4.541607e+05	
39	1.950000e+00	4.592461e+05	
40	2.000000e+00	4.640537e+05	
41	2.050000e+00	4.686025e+05	
42	2.100000e+00	4.729095e+05	
43	2.150000e+00	4.769904e+05	
44	2.200000e+00	4.808589e+05	
45	2.250000e+00	4.845272e+05	
46	2.300000e+00	4.880059e+05	
47	2.350000e+00	4.913036e+05	
48	2.400000e+00	4.944268e+05	
49	2.450000e+00	4.973798e+05	
50	2.500000e+00	5.001639e+05	
51	2.550000e+00	5.027775e+05	
52	2.600000e+00	5.052150e+05	
53	2.650000e+00	5.074667e+05	
54	2.700000e+00	5.095181e+05	

Index   v-sweep         rds             
--------------------------------------------------------------------------------
55	2.750000e+00	5.113490e+05	
56	2.800000e+00	5.129332e+05	
57	2.850000e+00	5.142379e+05	
58	2.900000e+00	5.152231e+05	
59	2.950000e+00	5.158413e+05	
60	3.000000e+00	5.160377e+05	
61	3.050000e+00	5.157497e+05	
62	3.100000e+00	5.149086e+05	
63	3.150000e+00	5.134394e+05	
64	3.200000e+00	5.112632e+05	
65	3.250000e+00	5.082988e+05	
66	3.300000e+00	5.044658e+05	
Reset re-loads circuit ***************************

Circuit: ***************************

Doing analysis at TEMP = 125.000000 and TNOM = 125.000000


No. of Data Rows : 67
                          ***************************
                          DC transfer characteristic  Mon Jan  9 13:57:21  2023
--------------------------------------------------------------------------------
Index   v-sweep         rds             
--------------------------------------------------------------------------------
0	0.000000e+00	1.198008e+04	
1	5.000000e-02	1.285112e+04	
2	1.000000e-01	1.380741e+04	
3	1.500000e-01	1.486167e+04	
4	2.000000e-01	1.602930e+04	
5	2.500000e-01	1.732909e+04	
6	3.000000e-01	1.878426e+04	
7	3.500000e-01	2.042383e+04	
8	4.000000e-01	2.228461e+04	
9	4.500000e-01	2.441401e+04	
10	5.000000e-01	2.687431e+04	
11	5.500000e-01	2.974910e+04	
12	6.000000e-01	3.315337e+04	
13	6.500000e-01	3.724870e+04	
14	7.000000e-01	4.226316e+04	
15	7.500000e-01	4.850430e+04	
16	8.000000e-01	5.632586e+04	
17	8.500000e-01	6.599268e+04	
18	9.000000e-01	7.748273e+04	
19	9.500000e-01	9.042198e+04	
20	1.000000e+00	1.042453e+05	
21	1.050000e+00	1.184129e+05	
22	1.100000e+00	1.325202e+05	
23	1.150000e+00	1.463055e+05	
24	1.200000e+00	1.596167e+05	
25	1.250000e+00	1.723751e+05	
26	1.300000e+00	1.845484e+05	
27	1.350000e+00	1.961318e+05	
28	1.400000e+00	2.071370e+05	
29	1.450000e+00	2.175850e+05	
30	1.500000e+00	2.275016e+05	
31	1.550000e+00	2.369145e+05	
32	1.600000e+00	2.458524e+05	
33	1.650000e+00	2.543433e+05	
34	1.700000e+00	2.624141e+05	
35	1.750000e+00	2.700906e+05	
36	1.800000e+00	2.773971e+05	
37	1.850000e+00	2.843564e+05	
38	1.900000e+00	2.909897e+05	
39	1.950000e+00	2.973170e+05	
40	2.000000e+00	3.033566e+05	
41	2.050000e+00	3.091257e+05	
42	2.100000e+00	3.146404e+05	
43	2.150000e+00	3.199154e+05	
44	2.200000e+00	3.249644e+05	
45	2.250000e+00	3.298003e+05	
46	2.300000e+00	3.344347e+05	
47	2.350000e+00	3.388784e+05	
48	2.400000e+00	3.431412e+05	
49	2.450000e+00	3.472319e+05	
50	2.500000e+00	3.511581e+05	
51	2.550000e+00	3.549258e+05	
52	2.600000e+00	3.585396e+05	
53	2.650000e+00	3.620024e+05	
54	2.700000e+00	3.653142e+05	

Index   v-sweep         rds             
--------------------------------------------------------------------------------
55	2.750000e+00	3.684727e+05	
56	2.800000e+00	3.714718e+05	
57	2.850000e+00	3.743016e+05	
58	2.900000e+00	3.769475e+05	
59	2.950000e+00	3.793891e+05	
60	3.000000e+00	3.816001e+05	
61	3.050000e+00	3.835474e+05	
62	3.100000e+00	3.851901e+05	
63	3.150000e+00	3.864797e+05	
64	3.200000e+00	3.873599e+05	
65	3.250000e+00	3.877662e+05	
66	3.300000e+00	3.876276e+05	
Reset re-loads circuit ***************************

Circuit: ***************************

Doing analysis at TEMP = 125.000000 and TNOM = 125.000000


No. of Data Rows : 67
                          ***************************
                          DC transfer characteristic  Mon Jan  9 13:57:21  2023
--------------------------------------------------------------------------------
Index   v-sweep         rds             
--------------------------------------------------------------------------------
0	0.000000e+00	9.475696e+03	
1	5.000000e-02	1.003128e+04	
2	1.000000e-01	1.062750e+04	
3	1.500000e-01	1.126879e+04	
4	2.000000e-01	1.196023e+04	
5	2.500000e-01	1.270773e+04	
6	3.000000e-01	1.351815e+04	
7	3.500000e-01	1.439959e+04	
8	4.000000e-01	1.536158e+04	
9	4.500000e-01	1.641553e+04	
10	5.000000e-01	1.757522e+04	
11	5.500000e-01	1.885746e+04	
12	6.000000e-01	2.028322e+04	
13	6.500000e-01	2.187906e+04	
14	7.000000e-01	2.367967e+04	
15	7.500000e-01	2.573173e+04	
16	8.000000e-01	2.810037e+04	
17	8.500000e-01	3.087927e+04	
18	9.000000e-01	3.420428e+04	
19	9.500000e-01	3.826419e+04	
20	1.000000e+00	4.328866e+04	
21	1.050000e+00	4.948510e+04	
22	1.100000e+00	5.693347e+04	
23	1.150000e+00	6.551930e+04	
24	1.200000e+00	7.497277e+04	
25	1.250000e+00	8.497262e+04	
26	1.300000e+00	9.523083e+04	
27	1.350000e+00	1.055269e+05	
28	1.400000e+00	1.157075e+05	
29	1.450000e+00	1.256727e+05	
30	1.500000e+00	1.353610e+05	
31	1.550000e+00	1.447373e+05	
32	1.600000e+00	1.537842e+05	
33	1.650000e+00	1.624960e+05	
34	1.700000e+00	1.708743e+05	
35	1.750000e+00	1.789257e+05	
36	1.800000e+00	1.866596e+05	
37	1.850000e+00	1.940873e+05	
38	1.900000e+00	2.012211e+05	
39	1.950000e+00	2.080736e+05	
40	2.000000e+00	2.146576e+05	
41	2.050000e+00	2.209854e+05	
42	2.100000e+00	2.270693e+05	
43	2.150000e+00	2.329209e+05	
44	2.200000e+00	2.385517e+05	
45	2.250000e+00	2.439721e+05	
46	2.300000e+00	2.491926e+05	
47	2.350000e+00	2.542226e+05	
48	2.400000e+00	2.590713e+05	
49	2.450000e+00	2.637472e+05	
50	2.500000e+00	2.682585e+05	
51	2.550000e+00	2.726124e+05	
52	2.600000e+00	2.768157e+05	
53	2.650000e+00	2.808745e+05	
54	2.700000e+00	2.847937e+05	

Index   v-sweep         rds             
--------------------------------------------------------------------------------
55	2.750000e+00	2.885773e+05	
56	2.800000e+00	2.922278e+05	
57	2.850000e+00	2.957458e+05	
58	2.900000e+00	2.991299e+05	
59	2.950000e+00	3.023756e+05	
60	3.000000e+00	3.054751e+05	
61	3.050000e+00	3.084164e+05	
62	3.100000e+00	3.111827e+05	
63	3.150000e+00	3.137513e+05	
64	3.200000e+00	3.160930e+05	
65	3.250000e+00	3.181713e+05	
66	3.300000e+00	3.199420e+05	
Reset re-loads circuit ***************************

Circuit: ***************************

Doing analysis at TEMP = 125.000000 and TNOM = 125.000000


No. of Data Rows : 67
                          ***************************
                          DC transfer characteristic  Mon Jan  9 13:57:21  2023
--------------------------------------------------------------------------------
Index   v-sweep         rds             
--------------------------------------------------------------------------------
0	0.000000e+00	8.050223e+03	
1	5.000000e-02	8.452647e+03	
2	1.000000e-01	8.878840e+03	
3	1.500000e-01	9.330847e+03	
4	2.000000e-01	9.810963e+03	
5	2.500000e-01	1.032177e+04	
6	3.000000e-01	1.086617e+04	
7	3.500000e-01	1.144746e+04	
8	4.000000e-01	1.206942e+04	
9	4.500000e-01	1.273634e+04	
10	5.000000e-01	1.345320e+04	
11	5.500000e-01	1.422578e+04	
12	6.000000e-01	1.506086e+04	
13	6.500000e-01	1.596649e+04	
14	7.000000e-01	1.695240e+04	
15	7.500000e-01	1.803050e+04	
16	8.000000e-01	1.921584e+04	
17	8.500000e-01	2.052793e+04	
18	9.000000e-01	2.199304e+04	
19	9.500000e-01	2.364791e+04	
20	1.000000e+00	2.554568e+04	
21	1.050000e+00	2.776450e+04	
22	1.100000e+00	3.041719e+04	
23	1.150000e+00	3.365479e+04	
24	1.200000e+00	3.764909e+04	
25	1.250000e+00	4.254226e+04	
26	1.300000e+00	4.838166e+04	
27	1.350000e+00	5.508835e+04	
28	1.400000e+00	6.248610e+04	
29	1.450000e+00	7.036228e+04	
30	1.500000e+00	7.851822e+04	
31	1.550000e+00	8.679286e+04	
32	1.600000e+00	9.506629e+04	
33	1.650000e+00	1.032539e+05	
34	1.700000e+00	1.112984e+05	
35	1.750000e+00	1.191624e+05	
36	1.800000e+00	1.268226e+05	
37	1.850000e+00	1.342657e+05	
38	1.900000e+00	1.414852e+05	
39	1.950000e+00	1.484794e+05	
40	2.000000e+00	1.552499e+05	
41	2.050000e+00	1.618004e+05	
42	2.100000e+00	1.681360e+05	
43	2.150000e+00	1.742630e+05	
44	2.200000e+00	1.801881e+05	
45	2.250000e+00	1.859182e+05	
46	2.300000e+00	1.914606e+05	
47	2.350000e+00	1.968223e+05	
48	2.400000e+00	2.020105e+05	
49	2.450000e+00	2.070319e+05	
50	2.500000e+00	2.118935e+05	
51	2.550000e+00	2.166014e+05	
52	2.600000e+00	2.211621e+05	
53	2.650000e+00	2.255813e+05	
54	2.700000e+00	2.298646e+05	

Index   v-sweep         rds             
--------------------------------------------------------------------------------
55	2.750000e+00	2.340170e+05	
56	2.800000e+00	2.380433e+05	
57	2.850000e+00	2.419473e+05	
58	2.900000e+00	2.457320e+05	
59	2.950000e+00	2.493996e+05	
60	3.000000e+00	2.529505e+05	
61	3.050000e+00	2.563832e+05	
62	3.100000e+00	2.596940e+05	
63	3.150000e+00	2.628761e+05	
64	3.200000e+00	2.659188e+05	
65	3.250000e+00	2.688070e+05	
66	3.300000e+00	2.715201e+05	
Reset re-loads circuit ***************************

Circuit: ***************************

Doing analysis at TEMP = 125.000000 and TNOM = 125.000000


No. of Data Rows : 67
                          ***************************
                          DC transfer characteristic  Mon Jan  9 13:57:21  2023
--------------------------------------------------------------------------------
Index   v-sweep         rds             
--------------------------------------------------------------------------------
0	0.000000e+00	7.120846e+03	
1	5.000000e-02	7.434331e+03	
2	1.000000e-01	7.763456e+03	
3	1.500000e-01	8.109341e+03	
4	2.000000e-01	8.473217e+03	
5	2.500000e-01	8.856442e+03	
6	3.000000e-01	9.260518e+03	
7	3.500000e-01	9.687112e+03	
8	4.000000e-01	1.013808e+04	
9	4.500000e-01	1.061549e+04	
10	5.000000e-01	1.112167e+04	
11	5.500000e-01	1.165925e+04	
12	6.000000e-01	1.223120e+04	
13	6.500000e-01	1.284092e+04	
14	7.000000e-01	1.349234e+04	
15	7.500000e-01	1.419003e+04	
16	8.000000e-01	1.493942e+04	
17	8.500000e-01	1.574701e+04	
18	9.000000e-01	1.662084e+04	
19	9.500000e-01	1.757108e+04	
20	1.000000e+00	1.861104e+04	
21	1.050000e+00	1.975884e+04	
22	1.100000e+00	2.103997e+04	
23	1.150000e+00	2.249148e+04	
24	1.200000e+00	2.416786e+04	
25	1.250000e+00	2.614817e+04	
26	1.300000e+00	2.854057e+04	
27	1.350000e+00	3.147633e+04	
28	1.400000e+00	3.508383e+04	
29	1.450000e+00	3.944519e+04	
30	1.500000e+00	4.455975e+04	
31	1.550000e+00	5.034134e+04	
32	1.600000e+00	5.664928e+04	
33	1.650000e+00	6.332825e+04	
34	1.700000e+00	7.023657e+04	
35	1.750000e+00	7.725852e+04	
36	1.800000e+00	8.430567e+04	
37	1.850000e+00	9.131333e+04	
38	1.900000e+00	9.823558e+04	
39	1.950000e+00	1.050407e+05	
40	2.000000e+00	1.117072e+05	
41	2.050000e+00	1.182216e+05	
42	2.100000e+00	1.245753e+05	
43	2.150000e+00	1.307643e+05	
44	2.200000e+00	1.367868e+05	
45	2.250000e+00	1.426434e+05	
46	2.300000e+00	1.483360e+05	
47	2.350000e+00	1.538676e+05	
48	2.400000e+00	1.592417e+05	
49	2.450000e+00	1.644624e+05	
50	2.500000e+00	1.695340e+05	
51	2.550000e+00	1.744611e+05	
52	2.600000e+00	1.792483e+05	
53	2.650000e+00	1.839002e+05	
54	2.700000e+00	1.884213e+05	

Index   v-sweep         rds             
--------------------------------------------------------------------------------
55	2.750000e+00	1.928161e+05	
56	2.800000e+00	1.970889e+05	
57	2.850000e+00	2.012439e+05	
58	2.900000e+00	2.052848e+05	
59	2.950000e+00	2.092152e+05	
60	3.000000e+00	2.130380e+05	
61	3.050000e+00	2.167556e+05	
62	3.100000e+00	2.203693e+05	
63	3.150000e+00	2.238793e+05	
64	3.200000e+00	2.272840e+05	
65	3.250000e+00	2.305797e+05	
66	3.300000e+00	2.337598e+05	
Reset re-loads circuit ***************************

Circuit: ***************************

Note: No ".plot", ".print", or ".fourier" lines; no simulations run
