
Note: Compatibility modes selected: hs

Warning: m=xx on .subckt line will override multiplier m hierarchy!


Circuit: ***************************

Doing analysis at TEMP = 25.000000 and TNOM = 25.000000


No. of Data Rows : 67
                          ***************************
                          DC transfer characteristic  Mon Jan  9 13:57:20  2023
--------------------------------------------------------------------------------
Index   v-sweep         rds             
--------------------------------------------------------------------------------
0	0.000000e+00	4.109141e+04	
1	5.000000e-02	5.534509e+04	
2	1.000000e-01	7.994792e+04	
3	1.500000e-01	1.269704e+05	
4	2.000000e-01	2.149397e+05	
5	2.500000e-01	3.386305e+05	
6	3.000000e-01	4.595942e+05	
7	3.500000e-01	5.570886e+05	
8	4.000000e-01	6.319062e+05	
9	4.500000e-01	6.895084e+05	
10	5.000000e-01	7.345130e+05	
11	5.500000e-01	7.701969e+05	
12	6.000000e-01	7.988411e+05	
13	6.500000e-01	8.220578e+05	
14	7.000000e-01	8.410129e+05	
15	7.500000e-01	8.565685e+05	
16	8.000000e-01	8.693749e+05	
17	8.500000e-01	8.799316e+05	
18	9.000000e-01	8.886284e+05	
19	9.500000e-01	8.957734e+05	
20	1.000000e+00	9.016136e+05	
21	1.050000e+00	9.063489e+05	
22	1.100000e+00	9.101425e+05	
23	1.150000e+00	9.131293e+05	
24	1.200000e+00	9.154214e+05	
25	1.250000e+00	9.171125e+05	
26	1.300000e+00	9.182817e+05	
27	1.350000e+00	9.189962e+05	
28	1.400000e+00	9.193131e+05	
29	1.450000e+00	9.192816e+05	
30	1.500000e+00	9.189439e+05	
31	1.550000e+00	9.183366e+05	
32	1.600000e+00	9.174913e+05	
33	1.650000e+00	9.164358e+05	
34	1.700000e+00	9.151941e+05	
35	1.750000e+00	9.137871e+05	
36	1.800000e+00	9.122333e+05	
37	1.850000e+00	9.105485e+05	
38	1.900000e+00	9.087460e+05	
39	1.950000e+00	9.068373e+05	
40	2.000000e+00	9.048316e+05	
41	2.050000e+00	9.027358e+05	
42	2.100000e+00	9.005544e+05	
43	2.150000e+00	8.982898e+05	
44	2.200000e+00	8.959412e+05	
45	2.250000e+00	8.935053e+05	
46	2.300000e+00	8.909751e+05	
47	2.350000e+00	8.883403e+05	
48	2.400000e+00	8.855865e+05	
49	2.450000e+00	8.826952e+05	
50	2.500000e+00	8.796432e+05	
51	2.550000e+00	8.764023e+05	
52	2.600000e+00	8.729394e+05	
53	2.650000e+00	8.692160e+05	
54	2.700000e+00	8.651884e+05	

Index   v-sweep         rds             
--------------------------------------------------------------------------------
55	2.750000e+00	8.608075e+05	
56	2.800000e+00	8.560195e+05	
57	2.850000e+00	8.507658e+05	
58	2.900000e+00	8.449843e+05	
59	2.950000e+00	8.386095e+05	
60	3.000000e+00	8.315746e+05	
61	3.050000e+00	8.238120e+05	
62	3.100000e+00	8.152558e+05	
63	3.150000e+00	8.058431e+05	
64	3.200000e+00	7.955164e+05	
65	3.250000e+00	7.842260e+05	
66	3.300000e+00	7.719319e+05	
Reset re-loads circuit ***************************

Circuit: ***************************

Doing analysis at TEMP = 25.000000 and TNOM = 25.000000


No. of Data Rows : 67
                          ***************************
                          DC transfer characteristic  Mon Jan  9 13:57:20  2023
--------------------------------------------------------------------------------
Index   v-sweep         rds             
--------------------------------------------------------------------------------
0	0.000000e+00	1.314361e+04	
1	5.000000e-02	1.484903e+04	
2	1.000000e-01	1.687794e+04	
3	1.500000e-01	1.932879e+04	
4	2.000000e-01	2.234400e+04	
5	2.500000e-01	2.613679e+04	
6	3.000000e-01	3.103786e+04	
7	3.500000e-01	3.757349e+04	
8	4.000000e-01	4.656318e+04	
9	4.500000e-01	5.908536e+04	
10	5.000000e-01	7.592617e+04	
11	5.500000e-01	9.664735e+04	
12	6.000000e-01	1.196057e+05	
13	6.500000e-01	1.430331e+05	
14	7.000000e-01	1.657394e+05	
15	7.500000e-01	1.871215e+05	
16	8.000000e-01	2.069521e+05	
17	8.500000e-01	2.252040e+05	
18	9.000000e-01	2.419461e+05	
19	9.500000e-01	2.572878e+05	
20	1.000000e+00	2.713507e+05	
21	1.050000e+00	2.842555e+05	
22	1.100000e+00	2.961155e+05	
23	1.150000e+00	3.070343e+05	
24	1.200000e+00	3.171049e+05	
25	1.250000e+00	3.264107e+05	
26	1.300000e+00	3.350257e+05	
27	1.350000e+00	3.430157e+05	
28	1.400000e+00	3.504390e+05	
29	1.450000e+00	3.573473e+05	
30	1.500000e+00	3.637869e+05	
31	1.550000e+00	3.697987e+05	
32	1.600000e+00	3.754195e+05	
33	1.650000e+00	3.806820e+05	
34	1.700000e+00	3.856155e+05	
35	1.750000e+00	3.902465e+05	
36	1.800000e+00	3.945986e+05	
37	1.850000e+00	3.986934e+05	
38	1.900000e+00	4.025500e+05	
39	1.950000e+00	4.061858e+05	
40	2.000000e+00	4.096165e+05	
41	2.050000e+00	4.128560e+05	
42	2.100000e+00	4.159169e+05	
43	2.150000e+00	4.188100e+05	
44	2.200000e+00	4.215444e+05	
45	2.250000e+00	4.241276e+05	
46	2.300000e+00	4.265651e+05	
47	2.350000e+00	4.288602e+05	
48	2.400000e+00	4.310137e+05	
49	2.450000e+00	4.330235e+05	
50	2.500000e+00	4.348842e+05	
51	2.550000e+00	4.365865e+05	
52	2.600000e+00	4.381171e+05	
53	2.650000e+00	4.394576e+05	
54	2.700000e+00	4.405844e+05	

Index   v-sweep         rds             
--------------------------------------------------------------------------------
55	2.750000e+00	4.414684e+05	
56	2.800000e+00	4.420743e+05	
57	2.850000e+00	4.423605e+05	
58	2.900000e+00	4.422794e+05	
59	2.950000e+00	4.417772e+05	
60	3.000000e+00	4.407949e+05	
61	3.050000e+00	4.392690e+05	
62	3.100000e+00	4.371332e+05	
63	3.150000e+00	4.343197e+05	
64	3.200000e+00	4.307622e+05	
65	3.250000e+00	4.263982e+05	
66	3.300000e+00	4.211723e+05	
Reset re-loads circuit ***************************

Circuit: ***************************

Doing analysis at TEMP = 25.000000 and TNOM = 25.000000


No. of Data Rows : 67
                          ***************************
                          DC transfer characteristic  Mon Jan  9 13:57:20  2023
--------------------------------------------------------------------------------
Index   v-sweep         rds             
--------------------------------------------------------------------------------
0	0.000000e+00	8.774157e+03	
1	5.000000e-02	9.556172e+03	
2	1.000000e-01	1.042690e+04	
3	1.500000e-01	1.140169e+04	
4	2.000000e-01	1.249978e+04	
5	2.500000e-01	1.374563e+04	
6	3.000000e-01	1.517099e+04	
7	3.500000e-01	1.681821e+04	
8	4.000000e-01	1.874565e+04	
9	4.500000e-01	2.103731e+04	
10	5.000000e-01	2.382030e+04	
11	5.500000e-01	2.729512e+04	
12	6.000000e-01	3.177725e+04	
13	6.500000e-01	3.771173e+04	
14	7.000000e-01	4.555660e+04	
15	7.500000e-01	5.549625e+04	
16	8.000000e-01	6.724443e+04	
17	8.500000e-01	8.019063e+04	
18	9.000000e-01	9.369612e+04	
19	9.500000e-01	1.072657e+05	
20	1.000000e+00	1.205737e+05	
21	1.050000e+00	1.334278e+05	
22	1.100000e+00	1.457266e+05	
23	1.150000e+00	1.574255e+05	
24	1.200000e+00	1.685148e+05	
25	1.250000e+00	1.790051e+05	
26	1.300000e+00	1.889184e+05	
27	1.350000e+00	1.982831e+05	
28	1.400000e+00	2.071299e+05	
29	1.450000e+00	2.154905e+05	
30	1.500000e+00	2.233960e+05	
31	1.550000e+00	2.308763e+05	
32	1.600000e+00	2.379596e+05	
33	1.650000e+00	2.446727e+05	
34	1.700000e+00	2.510402e+05	
35	1.750000e+00	2.570853e+05	
36	1.800000e+00	2.628293e+05	
37	1.850000e+00	2.682920e+05	
38	1.900000e+00	2.734915e+05	
39	1.950000e+00	2.784448e+05	
40	2.000000e+00	2.831674e+05	
41	2.050000e+00	2.876735e+05	
42	2.100000e+00	2.919765e+05	
43	2.150000e+00	2.960884e+05	
44	2.200000e+00	3.000204e+05	
45	2.250000e+00	3.037825e+05	
46	2.300000e+00	3.073836e+05	
47	2.350000e+00	3.108315e+05	
48	2.400000e+00	3.141327e+05	
49	2.450000e+00	3.172921e+05	
50	2.500000e+00	3.203129e+05	
51	2.550000e+00	3.231959e+05	
52	2.600000e+00	3.259396e+05	
53	2.650000e+00	3.285391e+05	
54	2.700000e+00	3.309862e+05	

Index   v-sweep         rds             
--------------------------------------------------------------------------------
55	2.750000e+00	3.332680e+05	
56	2.800000e+00	3.353670e+05	
57	2.850000e+00	3.372600e+05	
58	2.900000e+00	3.389177e+05	
59	2.950000e+00	3.403039e+05	
60	3.000000e+00	3.413758e+05	
61	3.050000e+00	3.420832e+05	
62	3.100000e+00	3.423690e+05	
63	3.150000e+00	3.421699e+05	
64	3.200000e+00	3.414178e+05	
65	3.250000e+00	3.400410e+05	
66	3.300000e+00	3.379671e+05	
Reset re-loads circuit ***************************

Circuit: ***************************

Doing analysis at TEMP = 25.000000 and TNOM = 25.000000


No. of Data Rows : 67
                          ***************************
                          DC transfer characteristic  Mon Jan  9 13:57:20  2023
--------------------------------------------------------------------------------
Index   v-sweep         rds             
--------------------------------------------------------------------------------
0	0.000000e+00	7.020418e+03	
1	5.000000e-02	7.513256e+03	
2	1.000000e-01	8.046800e+03	
3	1.500000e-01	8.626023e+03	
4	2.000000e-01	9.256773e+03	
5	2.500000e-01	9.945997e+03	
6	3.000000e-01	1.070203e+04	
7	3.500000e-01	1.153502e+04	
8	4.000000e-01	1.245753e+04	
9	4.500000e-01	1.348550e+04	
10	5.000000e-01	1.463976e+04	
11	5.500000e-01	1.594868e+04	
12	6.000000e-01	1.745279e+04	
13	6.500000e-01	1.921317e+04	
14	7.000000e-01	2.132607e+04	
15	7.500000e-01	2.394482e+04	
16	8.000000e-01	2.730084e+04	
17	8.500000e-01	3.169082e+04	
18	9.000000e-01	3.738404e+04	
19	9.500000e-01	4.447345e+04	
20	1.000000e+00	5.280364e+04	
21	1.050000e+00	6.204846e+04	
22	1.100000e+00	7.184635e+04	
23	1.150000e+00	8.188900e+04	
24	1.200000e+00	9.194804e+04	
25	1.250000e+00	1.018678e+05	
26	1.300000e+00	1.115486e+05	
27	1.350000e+00	1.209298e+05	
28	1.400000e+00	1.299781e+05	
29	1.450000e+00	1.386777e+05	
30	1.500000e+00	1.470249e+05	
31	1.550000e+00	1.550235e+05	
32	1.600000e+00	1.626820e+05	
33	1.650000e+00	1.700119e+05	
34	1.700000e+00	1.770264e+05	
35	1.750000e+00	1.837396e+05	
36	1.800000e+00	1.901658e+05	
37	1.850000e+00	1.963192e+05	
38	1.900000e+00	2.022137e+05	
39	1.950000e+00	2.078628e+05	
40	2.000000e+00	2.132793e+05	
41	2.050000e+00	2.184755e+05	
42	2.100000e+00	2.234629e+05	
43	2.150000e+00	2.282526e+05	
44	2.200000e+00	2.328548e+05	
45	2.250000e+00	2.372793e+05	
46	2.300000e+00	2.415351e+05	
47	2.350000e+00	2.456307e+05	
48	2.400000e+00	2.495737e+05	
49	2.450000e+00	2.533712e+05	
50	2.500000e+00	2.570293e+05	
51	2.550000e+00	2.605531e+05	
52	2.600000e+00	2.639465e+05	
53	2.650000e+00	2.672117e+05	
54	2.700000e+00	2.703492e+05	

Index   v-sweep         rds             
--------------------------------------------------------------------------------
55	2.750000e+00	2.733571e+05	
56	2.800000e+00	2.762303e+05	
57	2.850000e+00	2.789605e+05	
58	2.900000e+00	2.815349e+05	
59	2.950000e+00	2.839358e+05	
60	3.000000e+00	2.861397e+05	
61	3.050000e+00	2.881167e+05	
62	3.100000e+00	2.898298e+05	
63	3.150000e+00	2.912342e+05	
64	3.200000e+00	2.922776e+05	
65	3.250000e+00	2.929002e+05	
66	3.300000e+00	2.930350e+05	
Reset re-loads circuit ***************************

Circuit: ***************************

Doing analysis at TEMP = 25.000000 and TNOM = 25.000000


No. of Data Rows : 67
                          ***************************
                          DC transfer characteristic  Mon Jan  9 13:57:20  2023
--------------------------------------------------------------------------------
Index   v-sweep         rds             
--------------------------------------------------------------------------------
0	0.000000e+00	6.077651e+03	
1	5.000000e-02	6.434309e+03	
2	1.000000e-01	6.814360e+03	
3	1.500000e-01	7.220022e+03	
4	2.000000e-01	7.653816e+03	
5	2.500000e-01	8.118622e+03	
6	3.000000e-01	8.617756e+03	
7	3.500000e-01	9.155062e+03	
8	4.000000e-01	9.735050e+03	
9	4.500000e-01	1.036307e+04	
10	5.000000e-01	1.104558e+04	
11	5.500000e-01	1.179056e+04	
12	6.000000e-01	1.260811e+04	
13	6.500000e-01	1.351155e+04	
14	7.000000e-01	1.451916e+04	
15	7.500000e-01	1.565732e+04	
16	8.000000e-01	1.696595e+04	
17	8.500000e-01	1.850758e+04	
18	9.000000e-01	2.038075e+04	
19	9.500000e-01	2.273415e+04	
20	1.000000e+00	2.576716e+04	
21	1.050000e+00	2.969194e+04	
22	1.100000e+00	3.465156e+04	
23	1.150000e+00	4.064509e+04	
24	1.200000e+00	4.752540e+04	
25	1.250000e+00	5.506447e+04	
26	1.300000e+00	6.302615e+04	
27	1.350000e+00	7.120844e+04	
28	1.400000e+00	7.945609e+04	
29	1.450000e+00	8.765719e+04	
30	1.500000e+00	9.573446e+04	
31	1.550000e+00	1.036366e+05	
32	1.600000e+00	1.113307e+05	
33	1.650000e+00	1.187975e+05	
34	1.700000e+00	1.260265e+05	
35	1.750000e+00	1.330138e+05	
36	1.800000e+00	1.397600e+05	
37	1.850000e+00	1.462685e+05	
38	1.900000e+00	1.525450e+05	
39	1.950000e+00	1.585961e+05	
40	2.000000e+00	1.644295e+05	
41	2.050000e+00	1.700532e+05	
42	2.100000e+00	1.754756e+05	
43	2.150000e+00	1.807048e+05	
44	2.200000e+00	1.857490e+05	
45	2.250000e+00	1.906162e+05	
46	2.300000e+00	1.953142e+05	
47	2.350000e+00	1.998504e+05	
48	2.400000e+00	2.042319e+05	
49	2.450000e+00	2.084655e+05	
50	2.500000e+00	2.125576e+05	
51	2.550000e+00	2.165141e+05	
52	2.600000e+00	2.203404e+05	
53	2.650000e+00	2.240413e+05	
54	2.700000e+00	2.276208e+05	

Index   v-sweep         rds             
--------------------------------------------------------------------------------
55	2.750000e+00	2.310816e+05	
56	2.800000e+00	2.344254e+05	
57	2.850000e+00	2.376518e+05	
58	2.900000e+00	2.407584e+05	
59	2.950000e+00	2.437399e+05	
60	3.000000e+00	2.465875e+05	
61	3.050000e+00	2.492882e+05	
62	3.100000e+00	2.518239e+05	
63	3.150000e+00	2.541706e+05	
64	3.200000e+00	2.562976e+05	
65	3.250000e+00	2.581667e+05	
66	3.300000e+00	2.597317e+05	
Reset re-loads circuit ***************************

Circuit: ***************************

Doing analysis at TEMP = 25.000000 and TNOM = 25.000000


No. of Data Rows : 67
                          ***************************
                          DC transfer characteristic  Mon Jan  9 13:57:20  2023
--------------------------------------------------------------------------------
Index   v-sweep         rds             
--------------------------------------------------------------------------------
0	0.000000e+00	5.490677e+03	
1	5.000000e-02	5.769264e+03	
2	1.000000e-01	6.063090e+03	
3	1.500000e-01	6.373335e+03	
4	2.000000e-01	6.701316e+03	
5	2.500000e-01	7.048500e+03	
6	3.000000e-01	7.416532e+03	
7	3.500000e-01	7.807266e+03	
8	4.000000e-01	8.222804e+03	
9	4.500000e-01	8.665550e+03	
10	5.000000e-01	9.138278e+03	
11	5.500000e-01	9.644231e+03	
12	6.000000e-01	1.018726e+04	
13	6.500000e-01	1.077203e+04	
14	7.000000e-01	1.140436e+04	
15	7.500000e-01	1.209171e+04	
16	8.000000e-01	1.284404e+04	
17	8.500000e-01	1.367526e+04	
18	9.000000e-01	1.460562e+04	
19	9.500000e-01	1.566576e+04	
20	1.000000e+00	1.690320e+04	
21	1.050000e+00	1.839141e+04	
22	1.100000e+00	2.023948e+04	
23	1.150000e+00	2.259399e+04	
24	1.200000e+00	2.561908e+04	
25	1.250000e+00	2.944747e+04	
26	1.300000e+00	3.412485e+04	
27	1.350000e+00	3.958912e+04	
28	1.400000e+00	4.569810e+04	
29	1.450000e+00	5.227850e+04	
30	1.500000e+00	5.916475e+04	
31	1.550000e+00	6.621800e+04	
32	1.600000e+00	7.333041e+04	
33	1.650000e+00	8.042202e+04	
34	1.700000e+00	8.743549e+04	
35	1.750000e+00	9.433079e+04	
36	1.800000e+00	1.010808e+05	
37	1.850000e+00	1.076677e+05	
38	1.900000e+00	1.140807e+05	
39	1.950000e+00	1.203139e+05	
40	2.000000e+00	1.263650e+05	
41	2.050000e+00	1.322343e+05	
42	2.100000e+00	1.379238e+05	
43	2.150000e+00	1.434368e+05	
44	2.200000e+00	1.487777e+05	
45	2.250000e+00	1.539511e+05	
46	2.300000e+00	1.589622e+05	
47	2.350000e+00	1.638164e+05	
48	2.400000e+00	1.685191e+05	
49	2.450000e+00	1.730759e+05	
50	2.500000e+00	1.774920e+05	
51	2.550000e+00	1.817728e+05	
52	2.600000e+00	1.859233e+05	
53	2.650000e+00	1.899484e+05	
54	2.700000e+00	1.938527e+05	

Index   v-sweep         rds             
--------------------------------------------------------------------------------
55	2.750000e+00	1.976403e+05	
56	2.800000e+00	2.013151e+05	
57	2.850000e+00	2.048798e+05	
58	2.900000e+00	2.083367e+05	
59	2.950000e+00	2.116865e+05	
60	3.000000e+00	2.149283e+05	
61	3.050000e+00	2.180592e+05	
62	3.100000e+00	2.210734e+05	
63	3.150000e+00	2.239618e+05	
64	3.200000e+00	2.267109e+05	
65	3.250000e+00	2.293020e+05	
66	3.300000e+00	2.317105e+05	
Reset re-loads circuit ***************************

Circuit: ***************************

Note: No ".plot", ".print", or ".fourier" lines; no simulations run
