
Note: Compatibility modes selected: hs

Warning: m=xx on .subckt line will override multiplier m hierarchy!


Circuit: ***************************

Doing analysis at TEMP = -40.000000 and TNOM = -40.000000


No. of Data Rows : 67
                          ***************************
                          DC transfer characteristic  Mon Jan  9 13:57:20  2023
--------------------------------------------------------------------------------
Index   v-sweep         rds             
--------------------------------------------------------------------------------
0	0.000000e+00	3.180886e+03	
1	5.000000e-02	5.922532e+03	
2	1.000000e-01	1.412099e+04	
3	1.500000e-01	3.190519e+04	
4	2.000000e-01	5.038169e+04	
5	2.500000e-01	6.251537e+04	
6	3.000000e-01	6.953704e+04	
7	3.500000e-01	7.357844e+04	
8	4.000000e-01	7.592526e+04	
9	4.500000e-01	7.726874e+04	
10	5.000000e-01	7.798826e+04	
11	5.500000e-01	7.830233e+04	
12	6.000000e-01	7.834330e+04	
13	6.500000e-01	7.819499e+04	
14	7.000000e-01	7.791264e+04	
15	7.500000e-01	7.753384e+04	
16	8.000000e-01	7.708494e+04	
17	8.500000e-01	7.658481e+04	
18	9.000000e-01	7.604730e+04	
19	9.500000e-01	7.548271e+04	
20	1.000000e+00	7.489881e+04	
21	1.050000e+00	7.430158e+04	
22	1.100000e+00	7.369561e+04	
23	1.150000e+00	7.308452e+04	
24	1.200000e+00	7.247112e+04	
25	1.250000e+00	7.185766e+04	
26	1.300000e+00	7.124591e+04	
27	1.350000e+00	7.063729e+04	
28	1.400000e+00	7.003291e+04	
29	1.450000e+00	6.943367e+04	
30	1.500000e+00	6.884029e+04	
31	1.550000e+00	6.825332e+04	
32	1.600000e+00	6.767319e+04	
33	1.650000e+00	6.710024e+04	
34	1.700000e+00	6.653471e+04	
35	1.750000e+00	6.597675e+04	
36	1.800000e+00	6.542644e+04	
37	1.850000e+00	6.488382e+04	
38	1.900000e+00	6.434882e+04	
39	1.950000e+00	6.382132e+04	
40	2.000000e+00	6.330112e+04	
41	2.050000e+00	6.278791e+04	
42	2.100000e+00	6.228131e+04	
43	2.150000e+00	6.178082e+04	
44	2.200000e+00	6.128582e+04	
45	2.250000e+00	6.079554e+04	
46	2.300000e+00	6.030907e+04	
47	2.350000e+00	5.982534e+04	
48	2.400000e+00	5.934307e+04	
49	2.450000e+00	5.886081e+04	
50	2.500000e+00	5.837690e+04	
51	2.550000e+00	5.788946e+04	
52	2.600000e+00	5.739640e+04	
53	2.650000e+00	5.689539e+04	
54	2.700000e+00	5.638391e+04	

Index   v-sweep         rds             
--------------------------------------------------------------------------------
55	2.750000e+00	5.585922e+04	
56	2.800000e+00	5.531840e+04	
57	2.850000e+00	5.475837e+04	
58	2.900000e+00	5.417593e+04	
59	2.950000e+00	5.356780e+04	
60	3.000000e+00	5.293068e+04	
61	3.050000e+00	5.226130e+04	
62	3.100000e+00	5.155652e+04	
63	3.150000e+00	5.081338e+04	
64	3.200000e+00	5.002922e+04	
65	3.250000e+00	4.920175e+04	
66	3.300000e+00	4.832914e+04	
Reset re-loads circuit ***************************

Circuit: ***************************

Doing analysis at TEMP = -40.000000 and TNOM = -40.000000


No. of Data Rows : 67
                          ***************************
                          DC transfer characteristic  Mon Jan  9 13:57:20  2023
--------------------------------------------------------------------------------
Index   v-sweep         rds             
--------------------------------------------------------------------------------
0	0.000000e+00	5.595154e+02	
1	5.000000e-02	6.543286e+02	
2	1.000000e-01	7.729102e+02	
3	1.500000e-01	9.255745e+02	
4	2.000000e-01	1.130010e+03	
5	2.500000e-01	1.419039e+03	
6	3.000000e-01	1.856716e+03	
7	3.500000e-01	2.558716e+03	
8	4.000000e-01	3.666398e+03	
9	4.500000e-01	5.214869e+03	
10	5.000000e-01	7.051043e+03	
11	5.500000e-01	8.950651e+03	
12	6.000000e-01	1.074944e+04	
13	6.500000e-01	1.236870e+04	
14	7.000000e-01	1.378818e+04	
15	7.500000e-01	1.501718e+04	
16	8.000000e-01	1.607663e+04	
17	8.500000e-01	1.699005e+04	
18	9.000000e-01	1.777962e+04	
19	9.500000e-01	1.846477e+04	
20	1.000000e+00	1.906197e+04	
21	1.050000e+00	1.958495e+04	
22	1.100000e+00	2.004505e+04	
23	1.150000e+00	2.045164e+04	
24	1.200000e+00	2.081247e+04	
25	1.250000e+00	2.113397e+04	
26	1.300000e+00	2.142149e+04	
27	1.350000e+00	2.167950e+04	
28	1.400000e+00	2.191178e+04	
29	1.450000e+00	2.212149e+04	
30	1.500000e+00	2.231135e+04	
31	1.550000e+00	2.248365e+04	
32	1.600000e+00	2.264038e+04	
33	1.650000e+00	2.278322e+04	
34	1.700000e+00	2.291366e+04	
35	1.750000e+00	2.303297e+04	
36	1.800000e+00	2.314226e+04	
37	1.850000e+00	2.324249e+04	
38	1.900000e+00	2.333452e+04	
39	1.950000e+00	2.341907e+04	
40	2.000000e+00	2.349677e+04	
41	2.050000e+00	2.356815e+04	
42	2.100000e+00	2.363363e+04	
43	2.150000e+00	2.369356e+04	
44	2.200000e+00	2.374814e+04	
45	2.250000e+00	2.379748e+04	
46	2.300000e+00	2.384154e+04	
47	2.350000e+00	2.388015e+04	
48	2.400000e+00	2.391295e+04	
49	2.450000e+00	2.393938e+04	
50	2.500000e+00	2.395870e+04	
51	2.550000e+00	2.396988e+04	
52	2.600000e+00	2.397167e+04	
53	2.650000e+00	2.396251e+04	
54	2.700000e+00	2.394057e+04	

Index   v-sweep         rds             
--------------------------------------------------------------------------------
55	2.750000e+00	2.390371e+04	
56	2.800000e+00	2.384946e+04	
57	2.850000e+00	2.377512e+04	
58	2.900000e+00	2.367770e+04	
59	2.950000e+00	2.355402e+04	
60	3.000000e+00	2.340076e+04	
61	3.050000e+00	2.321456e+04	
62	3.100000e+00	2.299214e+04	
63	3.150000e+00	2.273041e+04	
64	3.200000e+00	2.242664e+04	
65	3.250000e+00	2.207859e+04	
66	3.300000e+00	2.168473e+04	
Reset re-loads circuit ***************************

Circuit: ***************************

Doing analysis at TEMP = -40.000000 and TNOM = -40.000000


No. of Data Rows : 67
                          ***************************
                          DC transfer characteristic  Mon Jan  9 13:57:20  2023
--------------------------------------------------------------------------------
Index   v-sweep         rds             
--------------------------------------------------------------------------------
0	0.000000e+00	3.696015e+02	
1	5.000000e-02	4.090339e+02	
2	1.000000e-01	4.537419e+02	
3	1.500000e-01	5.048515e+02	
4	2.000000e-01	5.638755e+02	
5	2.500000e-01	6.329251e+02	
6	3.000000e-01	7.150953e+02	
7	3.500000e-01	8.152103e+02	
8	4.000000e-01	9.413209e+02	
9	4.500000e-01	1.107674e+03	
10	5.000000e-01	1.339836e+03	
11	5.500000e-01	1.679847e+03	
12	6.000000e-01	2.180705e+03	
13	6.500000e-01	2.878225e+03	
14	7.000000e-01	3.760149e+03	
15	7.500000e-01	4.770197e+03	
16	8.000000e-01	5.838860e+03	
17	8.500000e-01	6.907788e+03	
18	9.000000e-01	7.937615e+03	
19	9.500000e-01	8.905984e+03	
20	1.000000e+00	9.802736e+03	
21	1.050000e+00	1.062546e+04	
22	1.100000e+00	1.137625e+04	
23	1.150000e+00	1.205955e+04	
24	1.200000e+00	1.268082e+04	
25	1.250000e+00	1.324584e+04	
26	1.300000e+00	1.376021e+04	
27	1.350000e+00	1.422917e+04	
28	1.400000e+00	1.465749e+04	
29	1.450000e+00	1.504949e+04	
30	1.500000e+00	1.540899e+04	
31	1.550000e+00	1.573939e+04	
32	1.600000e+00	1.604369e+04	
33	1.650000e+00	1.632454e+04	
34	1.700000e+00	1.658427e+04	
35	1.750000e+00	1.682496e+04	
36	1.800000e+00	1.704842e+04	
37	1.850000e+00	1.725627e+04	
38	1.900000e+00	1.744994e+04	
39	1.950000e+00	1.763070e+04	
40	2.000000e+00	1.779967e+04	
41	2.050000e+00	1.795785e+04	
42	2.100000e+00	1.810613e+04	
43	2.150000e+00	1.824529e+04	
44	2.200000e+00	1.837599e+04	
45	2.250000e+00	1.849881e+04	
46	2.300000e+00	1.861420e+04	
47	2.350000e+00	1.872251e+04	
48	2.400000e+00	1.882394e+04	
49	2.450000e+00	1.891857e+04	
50	2.500000e+00	1.900629e+04	
51	2.550000e+00	1.908678e+04	
52	2.600000e+00	1.915950e+04	
53	2.650000e+00	1.922367e+04	
54	2.700000e+00	1.927819e+04	

Index   v-sweep         rds             
--------------------------------------------------------------------------------
55	2.750000e+00	1.932163e+04	
56	2.800000e+00	1.935222e+04	
57	2.850000e+00	1.936781e+04	
58	2.900000e+00	1.936586e+04	
59	2.950000e+00	1.934347e+04	
60	3.000000e+00	1.929735e+04	
61	3.050000e+00	1.922394e+04	
62	3.100000e+00	1.911946e+04	
63	3.150000e+00	1.898002e+04	
64	3.200000e+00	1.880178e+04	
65	3.250000e+00	1.858117e+04	
66	3.300000e+00	1.831503e+04	
Reset re-loads circuit ***************************

Circuit: ***************************

Doing analysis at TEMP = -40.000000 and TNOM = -40.000000


No. of Data Rows : 67
                          ***************************
                          DC transfer characteristic  Mon Jan  9 13:57:20  2023
--------------------------------------------------------------------------------
Index   v-sweep         rds             
--------------------------------------------------------------------------------
0	0.000000e+00	3.048403e+02	
1	5.000000e-02	3.291772e+02	
2	1.000000e-01	3.557692e+02	
3	1.500000e-01	3.849344e+02	
4	2.000000e-01	4.170613e+02	
5	2.500000e-01	4.526331e+02	
6	3.000000e-01	4.922647e+02	
7	3.500000e-01	5.367636e+02	
8	4.000000e-01	5.872304e+02	
9	4.500000e-01	6.452387e+02	
10	5.000000e-01	7.131635e+02	
11	5.500000e-01	7.947988e+02	
12	6.000000e-01	8.965014e+02	
13	6.500000e-01	1.029146e+03	
14	7.000000e-01	1.210725e+03	
15	7.500000e-01	1.467550e+03	
16	8.000000e-01	1.829195e+03	
17	8.500000e-01	2.315016e+03	
18	9.000000e-01	2.921758e+03	
19	9.500000e-01	3.624479e+03	
20	1.000000e+00	4.388093e+03	
21	1.050000e+00	5.178584e+03	
22	1.100000e+00	5.968730e+03	
23	1.150000e+00	6.739292e+03	
24	1.200000e+00	7.478000e+03	
25	1.250000e+00	8.177901e+03	
26	1.300000e+00	8.835786e+03	
27	1.350000e+00	9.450947e+03	
28	1.400000e+00	1.002425e+04	
29	1.450000e+00	1.055752e+04	
30	1.500000e+00	1.105307e+04	
31	1.550000e+00	1.151346e+04	
32	1.600000e+00	1.194131e+04	
33	1.650000e+00	1.233916e+04	
34	1.700000e+00	1.270944e+04	
35	1.750000e+00	1.305444e+04	
36	1.800000e+00	1.337626e+04	
37	1.850000e+00	1.367684e+04	
38	1.900000e+00	1.395795e+04	
39	1.950000e+00	1.422119e+04	
40	2.000000e+00	1.446804e+04	
41	2.050000e+00	1.469981e+04	
42	2.100000e+00	1.491772e+04	
43	2.150000e+00	1.512285e+04	
44	2.200000e+00	1.531618e+04	
45	2.250000e+00	1.549860e+04	
46	2.300000e+00	1.567090e+04	
47	2.350000e+00	1.583377e+04	
48	2.400000e+00	1.598782e+04	
49	2.450000e+00	1.613355e+04	
50	2.500000e+00	1.627136e+04	
51	2.550000e+00	1.640151e+04	
52	2.600000e+00	1.652411e+04	
53	2.650000e+00	1.663910e+04	
54	2.700000e+00	1.674623e+04	

Index   v-sweep         rds             
--------------------------------------------------------------------------------
55	2.750000e+00	1.684498e+04	
56	2.800000e+00	1.693457e+04	
57	2.850000e+00	1.701387e+04	
58	2.900000e+00	1.708141e+04	
59	2.950000e+00	1.713530e+04	
60	3.000000e+00	1.717322e+04	
61	3.050000e+00	1.719241e+04	
62	3.100000e+00	1.718967e+04	
63	3.150000e+00	1.716136e+04	
64	3.200000e+00	1.710354e+04	
65	3.250000e+00	1.701198e+04	
66	3.300000e+00	1.688241e+04	
Reset re-loads circuit ***************************

Circuit: ***************************

Doing analysis at TEMP = -40.000000 and TNOM = -40.000000


No. of Data Rows : 67
                          ***************************
                          DC transfer characteristic  Mon Jan  9 13:57:20  2023
--------------------------------------------------------------------------------
Index   v-sweep         rds             
--------------------------------------------------------------------------------
0	0.000000e+00	2.737704e+02	
1	5.000000e-02	2.913108e+02	
2	1.000000e-01	3.101003e+02	
3	1.500000e-01	3.302702e+02	
4	2.000000e-01	3.519732e+02	
5	2.500000e-01	3.753879e+02	
6	3.000000e-01	4.007270e+02	
7	3.500000e-01	4.282467e+02	
8	4.000000e-01	4.582623e+02	
9	4.500000e-01	4.911717e+02	
10	5.000000e-01	5.274921e+02	
11	5.500000e-01	5.679213e+02	
12	6.000000e-01	6.134422e+02	
13	6.500000e-01	6.655058e+02	
14	7.000000e-01	7.263550e+02	
15	7.500000e-01	7.995935e+02	
16	8.000000e-01	8.911293e+02	
17	8.500000e-01	1.010521e+03	
18	9.000000e-01	1.172226e+03	
19	9.500000e-01	1.395108e+03	
20	1.000000e+00	1.697941e+03	
21	1.050000e+00	2.091561e+03	
22	1.100000e+00	2.573217e+03	
23	1.150000e+00	3.127753e+03	
24	1.200000e+00	3.733592e+03	
25	1.250000e+00	4.368706e+03	
26	1.300000e+00	5.014134e+03	
27	1.350000e+00	5.655209e+03	
28	1.400000e+00	6.281444e+03	
29	1.450000e+00	6.885856e+03	
30	1.500000e+00	7.464179e+03	
31	1.550000e+00	8.014138e+03	
32	1.600000e+00	8.534869e+03	
33	1.650000e+00	9.026470e+03	
34	1.700000e+00	9.489670e+03	
35	1.750000e+00	9.925598e+03	
36	1.800000e+00	1.033561e+04	
37	1.850000e+00	1.072118e+04	
38	1.900000e+00	1.108381e+04	
39	1.950000e+00	1.142500e+04	
40	2.000000e+00	1.174620e+04	
41	2.050000e+00	1.204880e+04	
42	2.100000e+00	1.233408e+04	
43	2.150000e+00	1.260329e+04	
44	2.200000e+00	1.285754e+04	
45	2.250000e+00	1.309790e+04	
46	2.300000e+00	1.332534e+04	
47	2.350000e+00	1.354074e+04	
48	2.400000e+00	1.374494e+04	
49	2.450000e+00	1.393868e+04	
50	2.500000e+00	1.412262e+04	
51	2.550000e+00	1.429736e+04	
52	2.600000e+00	1.446340e+04	
53	2.650000e+00	1.462115e+04	
54	2.700000e+00	1.477091e+04	

Index   v-sweep         rds             
--------------------------------------------------------------------------------
55	2.750000e+00	1.491282e+04	
56	2.800000e+00	1.504689e+04	
57	2.850000e+00	1.517290e+04	
58	2.900000e+00	1.529040e+04	
59	2.950000e+00	1.539866e+04	
60	3.000000e+00	1.549661e+04	
61	3.050000e+00	1.558282e+04	
62	3.100000e+00	1.565540e+04	
63	3.150000e+00	1.571201e+04	
64	3.200000e+00	1.574983e+04	
65	3.250000e+00	1.576552e+04	
66	3.300000e+00	1.575530e+04	
Reset re-loads circuit ***************************

Circuit: ***************************

Doing analysis at TEMP = -40.000000 and TNOM = -40.000000


No. of Data Rows : 67
                          ***************************
                          DC transfer characteristic  Mon Jan  9 13:57:20  2023
--------------------------------------------------------------------------------
Index   v-sweep         rds             
--------------------------------------------------------------------------------
0	0.000000e+00	2.565662e+02	
1	5.000000e-02	2.702876e+02	
2	1.000000e-01	2.848034e+02	
3	1.500000e-01	3.001802e+02	
4	2.000000e-01	3.164930e+02	
5	2.500000e-01	3.338264e+02	
6	3.000000e-01	3.522774e+02	
7	3.500000e-01	3.719573e+02	
8	4.000000e-01	3.929959e+02	
9	4.500000e-01	4.155461e+02	
10	5.000000e-01	4.397914e+02	
11	5.500000e-01	4.659563e+02	
12	6.000000e-01	4.943220e+02	
13	6.500000e-01	5.252523e+02	
14	7.000000e-01	5.592328e+02	
15	7.500000e-01	5.969381e+02	
16	8.000000e-01	6.393425e+02	
17	8.500000e-01	6.879088e+02	
18	9.000000e-01	7.449047e+02	
19	9.500000e-01	8.139144e+02	
20	1.000000e+00	9.005883e+02	
21	1.050000e+00	1.013509e+03	
22	1.100000e+00	1.164603e+03	
23	1.150000e+00	1.367965e+03	
24	1.200000e+00	1.636206e+03	
25	1.250000e+00	1.975630e+03	
26	1.300000e+00	2.383484e+03	
27	1.350000e+00	2.849131e+03	
28	1.400000e+00	3.357688e+03	
29	1.450000e+00	3.893608e+03	
30	1.500000e+00	4.442967e+03	
31	1.550000e+00	4.994424e+03	
32	1.600000e+00	5.539351e+03	
33	1.650000e+00	6.071541e+03	
34	1.700000e+00	6.586768e+03	
35	1.750000e+00	7.082356e+03	
36	1.800000e+00	7.556787e+03	
37	1.850000e+00	8.009395e+03	
38	1.900000e+00	8.440116e+03	
39	1.950000e+00	8.849307e+03	
40	2.000000e+00	9.237604e+03	
41	2.050000e+00	9.605823e+03	
42	2.100000e+00	9.954887e+03	
43	2.150000e+00	1.028577e+04	
44	2.200000e+00	1.059947e+04	
45	2.250000e+00	1.089696e+04	
46	2.300000e+00	1.117920e+04	
47	2.350000e+00	1.144712e+04	
48	2.400000e+00	1.170159e+04	
49	2.450000e+00	1.194345e+04	
50	2.500000e+00	1.217346e+04	
51	2.550000e+00	1.239236e+04	
52	2.600000e+00	1.260082e+04	
53	2.650000e+00	1.279945e+04	
54	2.700000e+00	1.298882e+04	

Index   v-sweep         rds             
--------------------------------------------------------------------------------
55	2.750000e+00	1.316941e+04	
56	2.800000e+00	1.334163e+04	
57	2.850000e+00	1.350578e+04	
58	2.900000e+00	1.366205e+04	
59	2.950000e+00	1.381049e+04	
60	3.000000e+00	1.395096e+04	
61	3.050000e+00	1.408310e+04	
62	3.100000e+00	1.420627e+04	
63	3.150000e+00	1.431952e+04	
64	3.200000e+00	1.442152e+04	
65	3.250000e+00	1.451051e+04	
66	3.300000e+00	1.458425e+04	
Reset re-loads circuit ***************************

Circuit: ***************************

Note: No ".plot", ".print", or ".fourier" lines; no simulations run
