
Note: Compatibility modes selected: hs

Warning: m=xx on .subckt line will override multiplier m hierarchy!


Circuit: ***************************

Doing analysis at TEMP = -40.000000 and TNOM = -40.000000


No. of Data Rows : 67
                          ***************************
                          DC transfer characteristic  Mon Jan  9 13:57:20  2023
--------------------------------------------------------------------------------
Index   v-sweep         rds             
--------------------------------------------------------------------------------
0	0.000000e+00	1.785745e+04	
1	5.000000e-02	3.301749e+04	
2	1.000000e-01	7.770295e+04	
3	1.500000e-01	1.715575e+05	
4	2.000000e-01	2.656672e+05	
5	2.500000e-01	3.266106e+05	
6	3.000000e-01	3.621446e+05	
7	3.500000e-01	3.829601e+05	
8	4.000000e-01	3.953145e+05	
9	4.500000e-01	4.025731e+05	
10	5.000000e-01	4.066044e+05	
11	5.500000e-01	4.085013e+05	
12	6.000000e-01	4.089368e+05	
13	6.500000e-01	4.083442e+05	
14	7.000000e-01	4.070130e+05	
15	7.500000e-01	4.051433e+05	
16	8.000000e-01	4.028771e+05	
17	8.500000e-01	4.003173e+05	
18	9.000000e-01	3.975399e+05	
19	9.500000e-01	3.946024e+05	
20	1.000000e+00	3.915484e+05	
21	1.050000e+00	3.884117e+05	
22	1.100000e+00	3.852184e+05	
23	1.150000e+00	3.819892e+05	
24	1.200000e+00	3.787405e+05	
25	1.250000e+00	3.754854e+05	
26	1.300000e+00	3.722341e+05	
27	1.350000e+00	3.689951e+05	
28	1.400000e+00	3.657750e+05	
29	1.450000e+00	3.625792e+05	
30	1.500000e+00	3.594119e+05	
31	1.550000e+00	3.562767e+05	
32	1.600000e+00	3.531761e+05	
33	1.650000e+00	3.501122e+05	
34	1.700000e+00	3.470867e+05	
35	1.750000e+00	3.441006e+05	
36	1.800000e+00	3.411545e+05	
37	1.850000e+00	3.382488e+05	
38	1.900000e+00	3.353834e+05	
39	1.950000e+00	3.325578e+05	
40	2.000000e+00	3.297710e+05	
41	2.050000e+00	3.270216e+05	
42	2.100000e+00	3.243079e+05	
43	2.150000e+00	3.216272e+05	
44	2.200000e+00	3.189766e+05	
45	2.250000e+00	3.163523e+05	
46	2.300000e+00	3.137495e+05	
47	2.350000e+00	3.111631e+05	
48	2.400000e+00	3.085865e+05	
49	2.450000e+00	3.060125e+05	
50	2.500000e+00	3.034327e+05	
51	2.550000e+00	3.008376e+05	
52	2.600000e+00	2.982167e+05	
53	2.650000e+00	2.955582e+05	
54	2.700000e+00	2.928495e+05	

Index   v-sweep         rds             
--------------------------------------------------------------------------------
55	2.750000e+00	2.900766e+05	
56	2.800000e+00	2.872249e+05	
57	2.850000e+00	2.842788e+05	
58	2.900000e+00	2.812219e+05	
59	2.950000e+00	2.780377e+05	
60	3.000000e+00	2.747094e+05	
61	3.050000e+00	2.712204e+05	
62	3.100000e+00	2.675545e+05	
63	3.150000e+00	2.636966e+05	
64	3.200000e+00	2.596329e+05	
65	3.250000e+00	2.553515e+05	
66	3.300000e+00	2.508427e+05	
Reset re-loads circuit ***************************

Circuit: ***************************

Doing analysis at TEMP = -40.000000 and TNOM = -40.000000


No. of Data Rows : 67
                          ***************************
                          DC transfer characteristic  Mon Jan  9 13:57:20  2023
--------------------------------------------------------------------------------
Index   v-sweep         rds             
--------------------------------------------------------------------------------
0	0.000000e+00	3.023212e+03	
1	5.000000e-02	3.510276e+03	
2	1.000000e-01	4.115806e+03	
3	1.500000e-01	4.888512e+03	
4	2.000000e-01	5.908776e+03	
5	2.500000e-01	7.318347e+03	
6	3.000000e-01	9.379932e+03	
7	3.500000e-01	1.255882e+04	
8	4.000000e-01	1.746092e+04	
9	4.500000e-01	2.433580e+04	
10	5.000000e-01	3.261809e+04	
11	5.500000e-01	4.132696e+04	
12	6.000000e-01	4.969265e+04	
13	6.500000e-01	5.732448e+04	
14	7.000000e-01	6.410226e+04	
15	7.500000e-01	7.004622e+04	
16	8.000000e-01	7.523478e+04	
17	8.500000e-01	7.976269e+04	
18	9.000000e-01	8.372228e+04	
19	9.500000e-01	8.719631e+04	
20	1.000000e+00	9.025613e+04	
21	1.050000e+00	9.296210e+04	
22	1.100000e+00	9.536489e+04	
23	1.150000e+00	9.750688e+04	
24	1.200000e+00	9.942354e+04	
25	1.250000e+00	1.011447e+05	
26	1.300000e+00	1.026953e+05	
27	1.350000e+00	1.040966e+05	
28	1.400000e+00	1.053666e+05	
29	1.450000e+00	1.065206e+05	
30	1.500000e+00	1.075718e+05	
31	1.550000e+00	1.085314e+05	
32	1.600000e+00	1.094093e+05	
33	1.650000e+00	1.102139e+05	
34	1.700000e+00	1.109527e+05	
35	1.750000e+00	1.116320e+05	
36	1.800000e+00	1.122575e+05	
37	1.850000e+00	1.128342e+05	
38	1.900000e+00	1.133665e+05	
39	1.950000e+00	1.138582e+05	
40	2.000000e+00	1.143125e+05	
41	2.050000e+00	1.147324e+05	
42	2.100000e+00	1.151202e+05	
43	2.150000e+00	1.154777e+05	
44	2.200000e+00	1.158065e+05	
45	2.250000e+00	1.161073e+05	
46	2.300000e+00	1.163804e+05	
47	2.350000e+00	1.166252e+05	
48	2.400000e+00	1.168405e+05	
49	2.450000e+00	1.170243e+05	
50	2.500000e+00	1.171732e+05	
51	2.550000e+00	1.172832e+05	
52	2.600000e+00	1.173487e+05	
53	2.650000e+00	1.173628e+05	
54	2.700000e+00	1.173175e+05	

Index   v-sweep         rds             
--------------------------------------------------------------------------------
55	2.750000e+00	1.172031e+05	
56	2.800000e+00	1.170086e+05	
57	2.850000e+00	1.167213e+05	
58	2.900000e+00	1.163275e+05	
59	2.950000e+00	1.158124e+05	
60	3.000000e+00	1.151602e+05	
61	3.050000e+00	1.143547e+05	
62	3.100000e+00	1.133799e+05	
63	3.150000e+00	1.122204e+05	
64	3.200000e+00	1.108619e+05	
65	3.250000e+00	1.092926e+05	
66	3.300000e+00	1.075030e+05	
Reset re-loads circuit ***************************

Circuit: ***************************

Doing analysis at TEMP = -40.000000 and TNOM = -40.000000


No. of Data Rows : 67
                          ***************************
                          DC transfer characteristic  Mon Jan  9 13:57:20  2023
--------------------------------------------------------------------------------
Index   v-sweep         rds             
--------------------------------------------------------------------------------
0	0.000000e+00	1.957581e+03	
1	5.000000e-02	2.156343e+03	
2	1.000000e-01	2.380984e+03	
3	1.500000e-01	2.636803e+03	
4	2.000000e-01	2.930778e+03	
5	2.500000e-01	3.272376e+03	
6	3.000000e-01	3.674971e+03	
7	3.500000e-01	4.158437e+03	
8	4.000000e-01	4.754182e+03	
9	4.500000e-01	5.514994e+03	
10	5.000000e-01	6.532807e+03	
11	5.500000e-01	7.961527e+03	
12	6.000000e-01	1.001501e+04	
13	6.500000e-01	1.288163e+04	
14	7.000000e-01	1.657951e+04	
15	7.500000e-01	2.091605e+04	
16	8.000000e-01	2.559920e+04	
17	8.500000e-01	3.036188e+04	
18	9.000000e-01	3.501445e+04	
19	9.500000e-01	3.944341e+04	
20	1.000000e+00	4.359172e+04	
21	1.050000e+00	4.743891e+04	
22	1.100000e+00	5.098631e+04	
23	1.150000e+00	5.424724e+04	
24	1.200000e+00	5.724094e+04	
25	1.250000e+00	5.998892e+04	
26	1.300000e+00	6.251293e+04	
27	1.350000e+00	6.483383e+04	
28	1.400000e+00	6.697104e+04	
29	1.450000e+00	6.894232e+04	
30	1.500000e+00	7.076370e+04	
31	1.550000e+00	7.244962e+04	
32	1.600000e+00	7.401295e+04	
33	1.650000e+00	7.546521e+04	
34	1.700000e+00	7.681665e+04	
35	1.750000e+00	7.807642e+04	
36	1.800000e+00	7.925268e+04	
37	1.850000e+00	8.035272e+04	
38	1.900000e+00	8.138306e+04	
39	1.950000e+00	8.234952e+04	
40	2.000000e+00	8.325733e+04	
41	2.050000e+00	8.411116e+04	
42	2.100000e+00	8.491519e+04	
43	2.150000e+00	8.567313e+04	
44	2.200000e+00	8.638824e+04	
45	2.250000e+00	8.706333e+04	
46	2.300000e+00	8.770079e+04	
47	2.350000e+00	8.830246e+04	
48	2.400000e+00	8.886966e+04	
49	2.450000e+00	8.940310e+04	
50	2.500000e+00	8.990273e+04	
51	2.550000e+00	9.036768e+04	
52	2.600000e+00	9.079610e+04	
53	2.650000e+00	9.118503e+04	
54	2.700000e+00	9.153021e+04	

Index   v-sweep         rds             
--------------------------------------------------------------------------------
55	2.750000e+00	9.182595e+04	
56	2.800000e+00	9.206499e+04	
57	2.850000e+00	9.223836e+04	
58	2.900000e+00	9.233531e+04	
59	2.950000e+00	9.234327e+04	
60	3.000000e+00	9.224791e+04	
61	3.050000e+00	9.203332e+04	
62	3.100000e+00	9.168229e+04	
63	3.150000e+00	9.117674e+04	
64	3.200000e+00	9.049833e+04	
65	3.250000e+00	8.962920e+04	
66	3.300000e+00	8.855293e+04	
Reset re-loads circuit ***************************

Circuit: ***************************

Doing analysis at TEMP = -40.000000 and TNOM = -40.000000


No. of Data Rows : 67
                          ***************************
                          DC transfer characteristic  Mon Jan  9 13:57:20  2023
--------------------------------------------------------------------------------
Index   v-sweep         rds             
--------------------------------------------------------------------------------
0	0.000000e+00	1.587500e+03	
1	5.000000e-02	1.708890e+03	
2	1.000000e-01	1.841271e+03	
3	1.500000e-01	1.986147e+03	
4	2.000000e-01	2.145332e+03	
5	2.500000e-01	2.321047e+03	
6	3.000000e-01	2.516067e+03	
7	3.500000e-01	2.733939e+03	
8	4.000000e-01	2.979347e+03	
9	4.500000e-01	3.258722e+03	
10	5.000000e-01	3.581343e+03	
11	5.500000e-01	3.961351e+03	
12	6.000000e-01	4.421487e+03	
13	6.500000e-01	4.999691e+03	
14	7.000000e-01	5.759007e+03	
15	7.500000e-01	6.796413e+03	
16	8.000000e-01	8.234765e+03	
17	8.500000e-01	1.017921e+04	
18	9.000000e-01	1.265569e+04	
19	9.500000e-01	1.558941e+04	
20	1.000000e+00	1.884192e+04	
21	1.050000e+00	2.226474e+04	
22	1.100000e+00	2.573278e+04	
23	1.150000e+00	2.915459e+04	
24	1.200000e+00	3.246966e+04	
25	1.250000e+00	3.564161e+04	
26	1.300000e+00	3.865130e+04	
27	1.350000e+00	4.149118e+04	
28	1.400000e+00	4.416128e+04	
29	1.450000e+00	4.666626e+04	
30	1.500000e+00	4.901355e+04	
31	1.550000e+00	5.121199e+04	
32	1.600000e+00	5.327107e+04	
33	1.650000e+00	5.520033e+04	
34	1.700000e+00	5.700911e+04	
35	1.750000e+00	5.870631e+04	
36	1.800000e+00	6.030028e+04	
37	1.850000e+00	6.179883e+04	
38	1.900000e+00	6.320917e+04	
39	1.950000e+00	6.453794e+04	
40	2.000000e+00	6.579125e+04	
41	2.050000e+00	6.697469e+04	
42	2.100000e+00	6.809338e+04	
43	2.150000e+00	6.915198e+04	
44	2.200000e+00	7.015477e+04	
45	2.250000e+00	7.110562e+04	
46	2.300000e+00	7.200805e+04	
47	2.350000e+00	7.286519e+04	
48	2.400000e+00	7.367982e+04	
49	2.450000e+00	7.445431e+04	
50	2.500000e+00	7.519063e+04	
51	2.550000e+00	7.589021e+04	
52	2.600000e+00	7.655391e+04	
53	2.650000e+00	7.718191e+04	
54	2.700000e+00	7.777355e+04	

Index   v-sweep         rds             
--------------------------------------------------------------------------------
55	2.750000e+00	7.832718e+04	
56	2.800000e+00	7.884003e+04	
57	2.850000e+00	7.930792e+04	
58	2.900000e+00	7.972519e+04	
59	2.950000e+00	8.008439e+04	
60	3.000000e+00	8.037621e+04	
61	3.050000e+00	8.058931e+04	
62	3.100000e+00	8.071027e+04	
63	3.150000e+00	8.072363e+04	
64	3.200000e+00	8.061209e+04	
65	3.250000e+00	8.035684e+04	
66	3.300000e+00	7.993810e+04	
Reset re-loads circuit ***************************

Circuit: ***************************

Doing analysis at TEMP = -40.000000 and TNOM = -40.000000


No. of Data Rows : 67
                          ***************************
                          DC transfer characteristic  Mon Jan  9 13:57:20  2023
--------------------------------------------------------------------------------
Index   v-sweep         rds             
--------------------------------------------------------------------------------
0	0.000000e+00	1.404602e+03	
1	5.000000e-02	1.491466e+03	
2	1.000000e-01	1.584401e+03	
3	1.500000e-01	1.684031e+03	
4	2.000000e-01	1.791075e+03	
5	2.500000e-01	1.906371e+03	
6	3.000000e-01	2.030899e+03	
7	3.500000e-01	2.165829e+03	
8	4.000000e-01	2.312575e+03	
9	4.500000e-01	2.472880e+03	
10	5.000000e-01	2.648951e+03	
11	5.500000e-01	2.843675e+03	
12	6.000000e-01	3.060973e+03	
13	6.500000e-01	3.306422e+03	
14	7.000000e-01	3.588333e+03	
15	7.500000e-01	3.919661e+03	
16	8.000000e-01	4.321243e+03	
17	8.500000e-01	4.826755e+03	
18	9.000000e-01	5.488507e+03	
19	9.500000e-01	6.379365e+03	
20	1.000000e+00	7.581483e+03	
21	1.050000e+00	9.157231e+03	
22	1.100000e+00	1.111809e+04	
23	1.150000e+00	1.341755e+04	
24	1.200000e+00	1.597146e+04	
25	1.250000e+00	1.868596e+04	
26	1.300000e+00	2.147669e+04	
27	1.350000e+00	2.427667e+04	
28	1.400000e+00	2.703697e+04	
29	1.450000e+00	2.972409e+04	
30	1.500000e+00	3.231659e+04	
31	1.550000e+00	3.480191e+04	
32	1.600000e+00	3.717384e+04	
33	1.650000e+00	3.943055e+04	
34	1.700000e+00	4.157319e+04	
35	1.750000e+00	4.360484e+04	
36	1.800000e+00	4.552976e+04	
37	1.850000e+00	4.735292e+04	
38	1.900000e+00	4.907966e+04	
39	1.950000e+00	5.071539e+04	
40	2.000000e+00	5.226548e+04	
41	2.050000e+00	5.373516e+04	
42	2.100000e+00	5.512944e+04	
43	2.150000e+00	5.645306e+04	
44	2.200000e+00	5.771050e+04	
45	2.250000e+00	5.890597e+04	
46	2.300000e+00	6.004337e+04	
47	2.350000e+00	6.112636e+04	
48	2.400000e+00	6.215833e+04	
49	2.450000e+00	6.314236e+04	
50	2.500000e+00	6.408131e+04	
51	2.550000e+00	6.497771e+04	
52	2.600000e+00	6.583380e+04	
53	2.650000e+00	6.665144e+04	
54	2.700000e+00	6.743208e+04	

Index   v-sweep         rds             
--------------------------------------------------------------------------------
55	2.750000e+00	6.817663e+04	
56	2.800000e+00	6.888539e+04	
57	2.850000e+00	6.955789e+04	
58	2.900000e+00	7.019271e+04	
59	2.950000e+00	7.078730e+04	
60	3.000000e+00	7.133778e+04	
61	3.050000e+00	7.183868e+04	
62	3.100000e+00	7.228275e+04	
63	3.150000e+00	7.266074e+04	
64	3.200000e+00	7.296122e+04	
65	3.250000e+00	7.317053e+04	
66	3.300000e+00	7.327273e+04	
Reset re-loads circuit ***************************

Circuit: ***************************

Doing analysis at TEMP = -40.000000 and TNOM = -40.000000


No. of Data Rows : 67
                          ***************************
                          DC transfer characteristic  Mon Jan  9 13:57:20  2023
--------------------------------------------------------------------------------
Index   v-sweep         rds             
--------------------------------------------------------------------------------
0	0.000000e+00	1.298772e+03	
1	5.000000e-02	1.366349e+03	
2	1.000000e-01	1.437783e+03	
3	1.500000e-01	1.513392e+03	
4	2.000000e-01	1.593532e+03	
5	2.500000e-01	1.678603e+03	
6	3.000000e-01	1.769061e+03	
7	3.500000e-01	1.865426e+03	
8	4.000000e-01	1.968295e+03	
9	4.500000e-01	2.078369e+03	
10	5.000000e-01	2.196471e+03	
11	5.500000e-01	2.323593e+03	
12	6.000000e-01	2.460954e+03	
13	6.500000e-01	2.610089e+03	
14	7.000000e-01	2.772997e+03	
15	7.500000e-01	2.952372e+03	
16	8.000000e-01	3.152000e+03	
17	8.500000e-01	3.377416e+03	
18	9.000000e-01	3.637019e+03	
19	9.500000e-01	3.943901e+03	
20	1.000000e+00	4.318635e+03	
21	1.050000e+00	4.792856e+03	
22	1.100000e+00	5.412064e+03	
23	1.150000e+00	6.233595e+03	
24	1.200000e+00	7.314880e+03	
25	1.250000e+00	8.693366e+03	
26	1.300000e+00	1.037018e+04	
27	1.350000e+00	1.230964e+04	
28	1.400000e+00	1.445284e+04	
29	1.450000e+00	1.673428e+04	
30	1.500000e+00	1.909348e+04	
31	1.550000e+00	2.148039e+04	
32	1.600000e+00	2.385644e+04	
33	1.650000e+00	2.619348e+04	
34	1.700000e+00	2.847188e+04	
35	1.750000e+00	3.067869e+04	
36	1.800000e+00	3.280598e+04	
37	1.850000e+00	3.484949e+04	
38	1.900000e+00	3.680760e+04	
39	1.950000e+00	3.868058e+04	
40	2.000000e+00	4.046997e+04	
41	2.050000e+00	4.217819e+04	
42	2.100000e+00	4.380821e+04	
43	2.150000e+00	4.536331e+04	
44	2.200000e+00	4.684695e+04	
45	2.250000e+00	4.826266e+04	
46	2.300000e+00	4.961393e+04	
47	2.350000e+00	5.090416e+04	
48	2.400000e+00	5.213666e+04	
49	2.450000e+00	5.331457e+04	
50	2.500000e+00	5.444092e+04	
51	2.550000e+00	5.551853e+04	
52	2.600000e+00	5.655006e+04	
53	2.650000e+00	5.753799e+04	
54	2.700000e+00	5.848456e+04	

Index   v-sweep         rds             
--------------------------------------------------------------------------------
55	2.750000e+00	5.939180e+04	
56	2.800000e+00	6.026142e+04	
57	2.850000e+00	6.109482e+04	
58	2.900000e+00	6.189292e+04	
59	2.950000e+00	6.265612e+04	
60	3.000000e+00	6.338411e+04	
61	3.050000e+00	6.407574e+04	
62	3.100000e+00	6.472879e+04	
63	3.150000e+00	6.533976e+04	
64	3.200000e+00	6.590362e+04	
65	3.250000e+00	6.641355e+04	
66	3.300000e+00	6.686072e+04	
Reset re-loads circuit ***************************

Circuit: ***************************

Note: No ".plot", ".print", or ".fourier" lines; no simulations run
