
Note: Compatibility modes selected: hs

Warning: m=xx on .subckt line will override multiplier m hierarchy!


Circuit: ***************************

Doing analysis at TEMP = 125.000000 and TNOM = 125.000000


No. of Data Rows : 67
                          ***************************
                          DC transfer characteristic  Mon Jan  9 13:57:20  2023
--------------------------------------------------------------------------------
Index   v-sweep         rds             
--------------------------------------------------------------------------------
0	0.000000e+00	5.137352e+03	
1	5.000000e-02	6.627679e+03	
2	1.000000e-01	9.150308e+03	
3	1.500000e-01	1.415225e+04	
4	2.000000e-01	2.629141e+04	
5	2.500000e-01	5.761051e+04	
6	3.000000e-01	1.163544e+05	
7	3.500000e-01	1.880593e+05	
8	4.000000e-01	2.568741e+05	
9	4.500000e-01	3.176792e+05	
10	5.000000e-01	3.704350e+05	
11	5.500000e-01	4.162907e+05	
12	6.000000e-01	4.564313e+05	
13	6.500000e-01	4.918456e+05	
14	7.000000e-01	5.233203e+05	
15	7.500000e-01	5.514780e+05	
16	8.000000e-01	5.768154e+05	
17	8.500000e-01	5.997331e+05	
18	9.000000e-01	6.205578e+05	
19	9.500000e-01	6.395587e+05	
20	1.000000e+00	6.569602e+05	
21	1.050000e+00	6.729509e+05	
22	1.100000e+00	6.876904e+05	
23	1.150000e+00	7.013150e+05	
24	1.200000e+00	7.139416e+05	
25	1.250000e+00	7.256715e+05	
26	1.300000e+00	7.365924e+05	
27	1.350000e+00	7.467810e+05	
28	1.400000e+00	7.563048e+05	
29	1.450000e+00	7.652228e+05	
30	1.500000e+00	7.735877e+05	
31	1.550000e+00	7.814459e+05	
32	1.600000e+00	7.888389e+05	
33	1.650000e+00	7.958034e+05	
34	1.700000e+00	8.023726e+05	
35	1.750000e+00	8.085754e+05	
36	1.800000e+00	8.144379e+05	
37	1.850000e+00	8.199824e+05	
38	1.900000e+00	8.252283e+05	
39	1.950000e+00	8.301911e+05	
40	2.000000e+00	8.348829e+05	
41	2.050000e+00	8.393113e+05	
42	2.100000e+00	8.434791e+05	
43	2.150000e+00	8.473836e+05	
44	2.200000e+00	8.510156e+05	
45	2.250000e+00	8.543587e+05	
46	2.300000e+00	8.573878e+05	
47	2.350000e+00	8.600686e+05	
48	2.400000e+00	8.623562e+05	
49	2.450000e+00	8.641943e+05	
50	2.500000e+00	8.655141e+05	
51	2.550000e+00	8.662345e+05	
52	2.600000e+00	8.662612e+05	
53	2.650000e+00	8.654877e+05	
54	2.700000e+00	8.637958e+05	

Index   v-sweep         rds             
--------------------------------------------------------------------------------
55	2.750000e+00	8.610578e+05	
56	2.800000e+00	8.571394e+05	
57	2.850000e+00	8.519025e+05	
58	2.900000e+00	8.452109e+05	
59	2.950000e+00	8.369352e+05	
60	3.000000e+00	8.269595e+05	
61	3.050000e+00	8.151879e+05	
62	3.100000e+00	8.015518e+05	
63	3.150000e+00	7.860158e+05	
64	3.200000e+00	7.685835e+05	
65	3.250000e+00	7.493014e+05	
66	3.300000e+00	7.282603e+05	
Reset re-loads circuit ***************************

Circuit: ***************************

Doing analysis at TEMP = 125.000000 and TNOM = 125.000000


No. of Data Rows : 67
                          ***************************
                          DC transfer characteristic  Mon Jan  9 13:57:20  2023
--------------------------------------------------------------------------------
Index   v-sweep         rds             
--------------------------------------------------------------------------------
0	0.000000e+00	1.591412e+03	
1	5.000000e-02	1.752641e+03	
2	1.000000e-01	1.942483e+03	
3	1.500000e-01	2.169226e+03	
4	2.000000e-01	2.444684e+03	
5	2.500000e-01	2.786281e+03	
6	3.000000e-01	3.220771e+03	
7	3.500000e-01	3.791250e+03	
8	4.000000e-01	4.571110e+03	
9	4.500000e-01	5.692869e+03	
10	5.000000e-01	7.405629e+03	
11	5.500000e-01	1.015926e+04	
12	6.000000e-01	1.458505e+04	
13	6.500000e-01	2.109704e+04	
14	7.000000e-01	2.943091e+04	
15	7.500000e-01	3.887543e+04	
16	8.000000e-01	4.877472e+04	
17	8.500000e-01	5.870492e+04	
18	9.000000e-01	6.843166e+04	
19	9.500000e-01	7.783640e+04	
20	1.000000e+00	8.686531e+04	
21	1.050000e+00	9.549973e+04	
22	1.100000e+00	1.037399e+05	
23	1.150000e+00	1.115964e+05	
24	1.200000e+00	1.190845e+05	
25	1.250000e+00	1.262224e+05	
26	1.300000e+00	1.330289e+05	
27	1.350000e+00	1.395226e+05	
28	1.400000e+00	1.457217e+05	
29	1.450000e+00	1.516437e+05	
30	1.500000e+00	1.573050e+05	
31	1.550000e+00	1.627210e+05	
32	1.600000e+00	1.679062e+05	
33	1.650000e+00	1.728740e+05	
34	1.700000e+00	1.776371e+05	
35	1.750000e+00	1.822070e+05	
36	1.800000e+00	1.865949e+05	
37	1.850000e+00	1.908106e+05	
38	1.900000e+00	1.948638e+05	
39	1.950000e+00	1.987631e+05	
40	2.000000e+00	2.025167e+05	
41	2.050000e+00	2.061320e+05	
42	2.100000e+00	2.096158e+05	
43	2.150000e+00	2.129741e+05	
44	2.200000e+00	2.162123e+05	
45	2.250000e+00	2.193345e+05	
46	2.300000e+00	2.223438e+05	
47	2.350000e+00	2.252417e+05	
48	2.400000e+00	2.280278e+05	
49	2.450000e+00	2.306993e+05	
50	2.500000e+00	2.332505e+05	
51	2.550000e+00	2.356720e+05	
52	2.600000e+00	2.379501e+05	
53	2.650000e+00	2.400660e+05	
54	2.700000e+00	2.419951e+05	

Index   v-sweep         rds             
--------------------------------------------------------------------------------
55	2.750000e+00	2.437062e+05	
56	2.800000e+00	2.451608e+05	
57	2.850000e+00	2.463131e+05	
58	2.900000e+00	2.471095e+05	
59	2.950000e+00	2.474895e+05	
60	3.000000e+00	2.473863e+05	
61	3.050000e+00	2.467289e+05	
62	3.100000e+00	2.454449e+05	
63	3.150000e+00	2.434634e+05	
64	3.200000e+00	2.407200e+05	
65	3.250000e+00	2.371614e+05	
66	3.300000e+00	2.327506e+05	
Reset re-loads circuit ***************************

Circuit: ***************************

Doing analysis at TEMP = 125.000000 and TNOM = 125.000000


No. of Data Rows : 67
                          ***************************
                          DC transfer characteristic  Mon Jan  9 13:57:20  2023
--------------------------------------------------------------------------------
Index   v-sweep         rds             
--------------------------------------------------------------------------------
0	0.000000e+00	1.021364e+03	
1	5.000000e-02	1.089186e+03	
2	1.000000e-01	1.164049e+03	
3	1.500000e-01	1.247095e+03	
4	2.000000e-01	1.339730e+03	
5	2.500000e-01	1.443699e+03	
6	3.000000e-01	1.561203e+03	
7	3.500000e-01	1.695055e+03	
8	4.000000e-01	1.848912e+03	
9	4.500000e-01	2.027622e+03	
10	5.000000e-01	2.237763e+03	
11	5.500000e-01	2.488506e+03	
12	6.000000e-01	2.793067e+03	
13	6.500000e-01	3.171266e+03	
14	7.000000e-01	3.654198e+03	
15	7.500000e-01	4.292876e+03	
16	8.000000e-01	5.172912e+03	
17	8.500000e-01	6.431589e+03	
18	9.000000e-01	8.250960e+03	
19	9.500000e-01	1.078348e+04	
20	1.000000e+00	1.404588e+04	
21	1.050000e+00	1.790797e+04	
22	1.100000e+00	2.218010e+04	
23	1.150000e+00	2.669046e+04	
24	1.200000e+00	3.131125e+04	
25	1.250000e+00	3.595554e+04	
26	1.300000e+00	4.056667e+04	
27	1.350000e+00	4.510856e+04	
28	1.400000e+00	4.955877e+04	
29	1.450000e+00	5.390378e+04	
30	1.500000e+00	5.813601e+04	
31	1.550000e+00	6.225176e+04	
32	1.600000e+00	6.624994e+04	
33	1.650000e+00	7.013118e+04	
34	1.700000e+00	7.389727e+04	
35	1.750000e+00	7.755077e+04	
36	1.800000e+00	8.109468e+04	
37	1.850000e+00	8.453231e+04	
38	1.900000e+00	8.786715e+04	
39	1.950000e+00	9.110272e+04	
40	2.000000e+00	9.424257e+04	
41	2.050000e+00	9.729020e+04	
42	2.100000e+00	1.002490e+05	
43	2.150000e+00	1.031224e+05	
44	2.200000e+00	1.059136e+05	
45	2.250000e+00	1.086256e+05	
46	2.300000e+00	1.112614e+05	
47	2.350000e+00	1.138237e+05	
48	2.400000e+00	1.163152e+05	
49	2.450000e+00	1.187379e+05	
50	2.500000e+00	1.210938e+05	
51	2.550000e+00	1.233841e+05	
52	2.600000e+00	1.256093e+05	
53	2.650000e+00	1.277691e+05	
54	2.700000e+00	1.298615e+05	

Index   v-sweep         rds             
--------------------------------------------------------------------------------
55	2.750000e+00	1.318831e+05	
56	2.800000e+00	1.338281e+05	
57	2.850000e+00	1.356878e+05	
58	2.900000e+00	1.374504e+05	
59	2.950000e+00	1.390999e+05	
60	3.000000e+00	1.406153e+05	
61	3.050000e+00	1.419705e+05	
62	3.100000e+00	1.431336e+05	
63	3.150000e+00	1.440663e+05	
64	3.200000e+00	1.447247e+05	
65	3.250000e+00	1.450592e+05	
66	3.300000e+00	1.450161e+05	
Reset re-loads circuit ***************************

Circuit: ***************************

Doing analysis at TEMP = 125.000000 and TNOM = 125.000000


No. of Data Rows : 67
                          ***************************
                          DC transfer characteristic  Mon Jan  9 13:57:20  2023
--------------------------------------------------------------------------------
Index   v-sweep         rds             
--------------------------------------------------------------------------------
0	0.000000e+00	7.961415e+02	
1	5.000000e-02	8.367425e+02	
2	1.000000e-01	8.803638e+02	
3	1.500000e-01	9.273493e+02	
4	2.000000e-01	9.780971e+02	
5	2.500000e-01	1.033071e+03	
6	3.000000e-01	1.092816e+03	
7	3.500000e-01	1.157974e+03	
8	4.000000e-01	1.229309e+03	
9	4.500000e-01	1.307739e+03	
10	5.000000e-01	1.394375e+03	
11	5.500000e-01	1.490579e+03	
12	6.000000e-01	1.598037e+03	
13	6.500000e-01	1.718874e+03	
14	7.000000e-01	1.855810e+03	
15	7.500000e-01	2.012403e+03	
16	8.000000e-01	2.193429e+03	
17	8.500000e-01	2.405516e+03	
18	9.000000e-01	2.658220e+03	
19	9.500000e-01	2.965958e+03	
20	1.000000e+00	3.351459e+03	
21	1.050000e+00	3.851514e+03	
22	1.100000e+00	4.524460e+03	
23	1.150000e+00	5.453036e+03	
24	1.200000e+00	6.727973e+03	
25	1.250000e+00	8.407531e+03	
26	1.300000e+00	1.048463e+04	
27	1.350000e+00	1.289528e+04	
28	1.400000e+00	1.555296e+04	
29	1.450000e+00	1.837617e+04	
30	1.500000e+00	2.129948e+04	
31	1.550000e+00	2.427428e+04	
32	1.600000e+00	2.726578e+04	
33	1.650000e+00	3.024949e+04	
34	1.700000e+00	3.320837e+04	
35	1.750000e+00	3.613062e+04	
36	1.800000e+00	3.900818e+04	
37	1.850000e+00	4.183566e+04	
38	1.900000e+00	4.460954e+04	
39	1.950000e+00	4.732769e+04	
40	2.000000e+00	4.998896e+04	
41	2.050000e+00	5.259291e+04	
42	2.100000e+00	5.513964e+04	
43	2.150000e+00	5.762962e+04	
44	2.200000e+00	6.006361e+04	
45	2.250000e+00	6.244255e+04	
46	2.300000e+00	6.476752e+04	
47	2.350000e+00	6.703973e+04	
48	2.400000e+00	6.926040e+04	
49	2.450000e+00	7.143083e+04	
50	2.500000e+00	7.355229e+04	
51	2.550000e+00	7.562607e+04	
52	2.600000e+00	7.765338e+04	
53	2.650000e+00	7.963539e+04	
54	2.700000e+00	8.157310e+04	

Index   v-sweep         rds             
--------------------------------------------------------------------------------
55	2.750000e+00	8.346730e+04	
56	2.800000e+00	8.531848e+04	
57	2.850000e+00	8.712663e+04	
58	2.900000e+00	8.889109e+04	
59	2.950000e+00	9.061026e+04	
60	3.000000e+00	9.228128e+04	
61	3.050000e+00	9.389964e+04	
62	3.100000e+00	9.545872e+04	
63	3.150000e+00	9.694921e+04	
64	3.200000e+00	9.835859e+04	
65	3.250000e+00	9.967047e+04	
66	3.300000e+00	1.008641e+05	
Reset re-loads circuit ***************************

Circuit: ***************************

Doing analysis at TEMP = 125.000000 and TNOM = 125.000000


No. of Data Rows : 67
                          ***************************
                          DC transfer characteristic  Mon Jan  9 13:57:20  2023
--------------------------------------------------------------------------------
Index   v-sweep         rds             
--------------------------------------------------------------------------------
0	0.000000e+00	6.783100e+02	
1	5.000000e-02	7.067632e+02	
2	1.000000e-01	7.368771e+02	
3	1.500000e-01	7.687979e+02	
4	2.000000e-01	8.026895e+02	
5	2.500000e-01	8.387367e+02	
6	3.000000e-01	8.771478e+02	
7	3.500000e-01	9.181597e+02	
8	4.000000e-01	9.620419e+02	
9	4.500000e-01	1.009103e+03	
10	5.000000e-01	1.059698e+03	
11	5.500000e-01	1.114238e+03	
12	6.000000e-01	1.173201e+03	
13	6.500000e-01	1.237149e+03	
14	7.000000e-01	1.306744e+03	
15	7.500000e-01	1.382777e+03	
16	8.000000e-01	1.466201e+03	
17	8.500000e-01	1.558182e+03	
18	9.000000e-01	1.660161e+03	
19	9.500000e-01	1.773962e+03	
20	1.000000e+00	1.901945e+03	
21	1.050000e+00	2.047249e+03	
22	1.100000e+00	2.214206e+03	
23	1.150000e+00	2.409039e+03	
24	1.200000e+00	2.641091e+03	
25	1.250000e+00	2.924917e+03	
26	1.300000e+00	3.283576e+03	
27	1.350000e+00	3.752637e+03	
28	1.400000e+00	4.381796e+03	
29	1.450000e+00	5.227578e+03	
30	1.500000e+00	6.333912e+03	
31	1.550000e+00	7.712094e+03	
32	1.600000e+00	9.337770e+03	
33	1.650000e+00	1.116501e+04	
34	1.700000e+00	1.314305e+04	
35	1.750000e+00	1.522645e+04	
36	1.800000e+00	1.737850e+04	
37	1.850000e+00	1.957108e+04	
38	1.900000e+00	2.178320e+04	
39	1.950000e+00	2.399936e+04	
40	2.000000e+00	2.620821e+04	
41	2.050000e+00	2.840146e+04	
42	2.100000e+00	3.057305e+04	
43	2.150000e+00	3.271861e+04	
44	2.200000e+00	3.483500e+04	
45	2.250000e+00	3.692001e+04	
46	2.300000e+00	3.897214e+04	
47	2.350000e+00	4.099040e+04	
48	2.400000e+00	4.297422e+04	
49	2.450000e+00	4.492334e+04	
50	2.500000e+00	4.683771e+04	
51	2.550000e+00	4.871749e+04	
52	2.600000e+00	5.056297e+04	
53	2.650000e+00	5.237453e+04	
54	2.700000e+00	5.415264e+04	

Index   v-sweep         rds             
--------------------------------------------------------------------------------
55	2.750000e+00	5.589782e+04	
56	2.800000e+00	5.761061e+04	
57	2.850000e+00	5.929157e+04	
58	2.900000e+00	6.094121e+04	
59	2.950000e+00	6.255997e+04	
60	3.000000e+00	6.414816e+04	
61	3.050000e+00	6.570585e+04	
62	3.100000e+00	6.723274e+04	
63	3.150000e+00	6.872802e+04	
64	3.200000e+00	7.019012e+04	
65	3.250000e+00	7.161643e+04	
66	3.300000e+00	7.300299e+04	
Reset re-loads circuit ***************************

Circuit: ***************************

Doing analysis at TEMP = 125.000000 and TNOM = 125.000000


No. of Data Rows : 67
                          ***************************
                          DC transfer characteristic  Mon Jan  9 13:57:20  2023
--------------------------------------------------------------------------------
Index   v-sweep         rds             
--------------------------------------------------------------------------------
0	0.000000e+00	6.076529e+02	
1	5.000000e-02	6.294230e+02	
2	1.000000e-01	6.522421e+02	
3	1.500000e-01	6.761857e+02	
4	2.000000e-01	7.013367e+02	
5	2.500000e-01	7.277866e+02	
6	3.000000e-01	7.556363e+02	
7	3.500000e-01	7.849975e+02	
8	4.000000e-01	8.159942e+02	
9	4.500000e-01	8.487647e+02	
10	5.000000e-01	8.834632e+02	
11	5.500000e-01	9.202629e+02	
12	6.000000e-01	9.593584e+02	
13	6.500000e-01	1.000970e+03	
14	7.000000e-01	1.045346e+03	
15	7.500000e-01	1.092773e+03	
16	8.000000e-01	1.143577e+03	
17	8.500000e-01	1.198134e+03	
18	9.000000e-01	1.256881e+03	
19	9.500000e-01	1.320333e+03	
20	1.000000e+00	1.389096e+03	
21	1.050000e+00	1.463897e+03	
22	1.100000e+00	1.545620e+03	
23	1.150000e+00	1.635356e+03	
24	1.200000e+00	1.734486e+03	
25	1.250000e+00	1.844802e+03	
26	1.300000e+00	1.968709e+03	
27	1.350000e+00	2.109552e+03	
28	1.400000e+00	2.272177e+03	
29	1.450000e+00	2.463873e+03	
30	1.500000e+00	2.695896e+03	
31	1.550000e+00	2.985668e+03	
32	1.600000e+00	3.359134e+03	
33	1.650000e+00	3.851213e+03	
34	1.700000e+00	4.500836e+03	
35	1.750000e+00	5.339277e+03	
36	1.800000e+00	6.378002e+03	
37	1.850000e+00	7.605417e+03	
38	1.900000e+00	8.993825e+03	
39	1.950000e+00	1.050955e+04	
40	2.000000e+00	1.212028e+04	
41	2.050000e+00	1.379844e+04	
42	2.100000e+00	1.552191e+04	
43	2.150000e+00	1.727350e+04	
44	2.200000e+00	1.904009e+04	
45	2.250000e+00	2.081170e+04	
46	2.300000e+00	2.258080e+04	
47	2.350000e+00	2.434168e+04	
48	2.400000e+00	2.609004e+04	
49	2.450000e+00	2.782265e+04	
50	2.500000e+00	2.953706e+04	
51	2.550000e+00	3.123147e+04	
52	2.600000e+00	3.290456e+04	
53	2.650000e+00	3.455536e+04	
54	2.700000e+00	3.618323e+04	

Index   v-sweep         rds             
--------------------------------------------------------------------------------
55	2.750000e+00	3.778773e+04	
56	2.800000e+00	3.936859e+04	
57	2.850000e+00	4.092573e+04	
58	2.900000e+00	4.245913e+04	
59	2.950000e+00	4.396888e+04	
60	3.000000e+00	4.545514e+04	
61	3.050000e+00	4.691811e+04	
62	3.100000e+00	4.835798e+04	
63	3.150000e+00	4.977497e+04	
64	3.200000e+00	5.116923e+04	
65	3.250000e+00	5.254078e+04	
66	3.300000e+00	5.388949e+04	
Reset re-loads circuit ***************************

Circuit: ***************************

Note: No ".plot", ".print", or ".fourier" lines; no simulations run
