
Note: Compatibility modes selected: hs

Warning: m=xx on .subckt line will override multiplier m hierarchy!


Circuit: ***************************

Doing analysis at TEMP = -40.000000 and TNOM = -40.000000


No. of Data Rows : 67
                          ***************************
                          DC transfer characteristic  Mon Jan  9 13:57:20  2023
--------------------------------------------------------------------------------
Index   v-sweep         rds             
--------------------------------------------------------------------------------
0	0.000000e+00	1.991762e+05	
1	5.000000e-02	3.465823e+05	
2	1.000000e-01	9.616143e+05	
3	1.500000e-01	4.615723e+06	
4	2.000000e-01	1.213355e+07	
5	2.500000e-01	1.912619e+07	
6	3.000000e-01	2.482097e+07	
7	3.500000e-01	2.955688e+07	
8	4.000000e-01	3.360006e+07	
9	4.500000e-01	3.711657e+07	
10	5.000000e-01	4.021541e+07	
11	5.500000e-01	4.297310e+07	
12	6.000000e-01	4.544630e+07	
13	6.500000e-01	4.767856e+07	
14	7.000000e-01	4.970434e+07	
15	7.500000e-01	5.155145e+07	
16	8.000000e-01	5.324272e+07	
17	8.500000e-01	5.479712e+07	
18	9.000000e-01	5.623059e+07	
19	9.500000e-01	5.755665e+07	
20	1.000000e+00	5.878683e+07	
21	1.050000e+00	5.993108e+07	
22	1.100000e+00	6.099797e+07	
23	1.150000e+00	6.199501e+07	
24	1.200000e+00	6.292872e+07	
25	1.250000e+00	6.380486e+07	
26	1.300000e+00	6.462850e+07	
27	1.350000e+00	6.540414e+07	
28	1.400000e+00	6.613577e+07	
29	1.450000e+00	6.682696e+07	
30	1.500000e+00	6.748089e+07	
31	1.550000e+00	6.810041e+07	
32	1.600000e+00	6.868809e+07	
33	1.650000e+00	6.924622e+07	
34	1.700000e+00	6.977684e+07	
35	1.750000e+00	7.028175e+07	
36	1.800000e+00	7.076254e+07	
37	1.850000e+00	7.122055e+07	
38	1.900000e+00	7.165689e+07	
39	1.950000e+00	7.207239e+07	
40	2.000000e+00	7.246762e+07	
41	2.050000e+00	7.284278e+07	
42	2.100000e+00	7.319774e+07	
43	2.150000e+00	7.353196e+07	
44	2.200000e+00	7.384441e+07	
45	2.250000e+00	7.413356e+07	
46	2.300000e+00	7.439730e+07	
47	2.350000e+00	7.463291e+07	
48	2.400000e+00	7.483697e+07	
49	2.450000e+00	7.500537e+07	
50	2.500000e+00	7.513324e+07	
51	2.550000e+00	7.521499e+07	
52	2.600000e+00	7.524428e+07	
53	2.650000e+00	7.521407e+07	
54	2.700000e+00	7.511674e+07	

Index   v-sweep         rds             
--------------------------------------------------------------------------------
55	2.750000e+00	7.494413e+07	
56	2.800000e+00	7.468779e+07	
57	2.850000e+00	7.433907e+07	
58	2.900000e+00	7.388947e+07	
59	2.950000e+00	7.333085e+07	
60	3.000000e+00	7.265579e+07	
61	3.050000e+00	7.185788e+07	
62	3.100000e+00	7.093211e+07	
63	3.150000e+00	6.987518e+07	
64	3.200000e+00	6.868576e+07	
65	3.250000e+00	6.736477e+07	
66	3.300000e+00	6.591549e+07	
Reset re-loads circuit ***************************

Circuit: ***************************

Doing analysis at TEMP = -40.000000 and TNOM = -40.000000


No. of Data Rows : 67
                          ***************************
                          DC transfer characteristic  Mon Jan  9 13:57:20  2023
--------------------------------------------------------------------------------
Index   v-sweep         rds             
--------------------------------------------------------------------------------
0	0.000000e+00	3.681314e+04	
1	5.000000e-02	4.144907e+04	
2	1.000000e-01	4.718175e+04	
3	1.500000e-01	5.444999e+04	
4	2.000000e-01	6.396161e+04	
5	2.500000e-01	7.693443e+04	
6	3.000000e-01	9.564446e+04	
7	3.500000e-01	1.248185e+05	
8	4.000000e-01	1.755011e+05	
9	4.500000e-01	2.744517e+05	
10	5.000000e-01	4.664359e+05	
11	5.500000e-01	7.629274e+05	
12	6.000000e-01	1.119662e+06	
13	6.500000e-01	1.495955e+06	
14	7.000000e-01	1.872468e+06	
15	7.500000e-01	2.241405e+06	
16	8.000000e-01	2.599731e+06	
17	8.500000e-01	2.946372e+06	
18	9.000000e-01	3.281102e+06	
19	9.500000e-01	3.604084e+06	
20	1.000000e+00	3.915662e+06	
21	1.050000e+00	4.216262e+06	
22	1.100000e+00	4.506341e+06	
23	1.150000e+00	4.786365e+06	
24	1.200000e+00	5.056790e+06	
25	1.250000e+00	5.318058e+06	
26	1.300000e+00	5.570593e+06	
27	1.350000e+00	5.814800e+06	
28	1.400000e+00	6.051064e+06	
29	1.450000e+00	6.279746e+06	
30	1.500000e+00	6.501192e+06	
31	1.550000e+00	6.715727e+06	
32	1.600000e+00	6.923658e+06	
33	1.650000e+00	7.125276e+06	
34	1.700000e+00	7.320855e+06	
35	1.750000e+00	7.510655e+06	
36	1.800000e+00	7.694920e+06	
37	1.850000e+00	7.873881e+06	
38	1.900000e+00	8.047754e+06	
39	1.950000e+00	8.216740e+06	
40	2.000000e+00	8.381024e+06	
41	2.050000e+00	8.540774e+06	
42	2.100000e+00	8.696134e+06	
43	2.150000e+00	8.847217e+06	
44	2.200000e+00	8.994105e+06	
45	2.250000e+00	9.136829e+06	
46	2.300000e+00	9.275362e+06	
47	2.350000e+00	9.409602e+06	
48	2.400000e+00	9.539350e+06	
49	2.450000e+00	9.664293e+06	
50	2.500000e+00	9.783975e+06	
51	2.550000e+00	9.897775e+06	
52	2.600000e+00	1.000488e+07	
53	2.650000e+00	1.010424e+07	
54	2.700000e+00	1.019459e+07	

Index   v-sweep         rds             
--------------------------------------------------------------------------------
55	2.750000e+00	1.027438e+07	
56	2.800000e+00	1.034179e+07	
57	2.850000e+00	1.039473e+07	
58	2.900000e+00	1.043087e+07	
59	2.950000e+00	1.044765e+07	
60	3.000000e+00	1.044237e+07	
61	3.050000e+00	1.041229e+07	
62	3.100000e+00	1.035471e+07	
63	3.150000e+00	1.026716e+07	
64	3.200000e+00	1.014756e+07	
65	3.250000e+00	9.994337e+06	
66	3.300000e+00	9.806680e+06	
Reset re-loads circuit ***************************

Circuit: ***************************

Doing analysis at TEMP = -40.000000 and TNOM = -40.000000


No. of Data Rows : 67
                          ***************************
                          DC transfer characteristic  Mon Jan  9 13:57:20  2023
--------------------------------------------------------------------------------
Index   v-sweep         rds             
--------------------------------------------------------------------------------
0	0.000000e+00	2.176509e+04	
1	5.000000e-02	2.339901e+04	
2	1.000000e-01	2.523229e+04	
3	1.500000e-01	2.730343e+04	
4	2.000000e-01	2.966152e+04	
5	2.500000e-01	3.237020e+04	
6	3.000000e-01	3.551349e+04	
7	3.500000e-01	3.920476e+04	
8	4.000000e-01	4.360085e+04	
9	4.500000e-01	4.892550e+04	
10	5.000000e-01	5.551025e+04	
11	5.500000e-01	6.387080e+04	
12	6.000000e-01	7.486228e+04	
13	6.500000e-01	9.002601e+04	
14	7.000000e-01	1.124063e+05	
15	7.500000e-01	1.481778e+05	
16	8.000000e-01	2.073274e+05	
17	8.500000e-01	2.971524e+05	
18	9.000000e-01	4.140003e+05	
19	9.500000e-01	5.481188e+05	
20	1.000000e+00	6.912903e+05	
21	1.050000e+00	8.384194e+05	
22	1.100000e+00	9.866011e+05	
23	1.150000e+00	1.134190e+06	
24	1.200000e+00	1.280240e+06	
25	1.250000e+00	1.424201e+06	
26	1.300000e+00	1.565755e+06	
27	1.350000e+00	1.704721e+06	
28	1.400000e+00	1.841007e+06	
29	1.450000e+00	1.974573e+06	
30	1.500000e+00	2.105418e+06	
31	1.550000e+00	2.233562e+06	
32	1.600000e+00	2.359042e+06	
33	1.650000e+00	2.481903e+06	
34	1.700000e+00	2.602200e+06	
35	1.750000e+00	2.719988e+06	
36	1.800000e+00	2.835329e+06	
37	1.850000e+00	2.948282e+06	
38	1.900000e+00	3.058909e+06	
39	1.950000e+00	3.167272e+06	
40	2.000000e+00	3.273430e+06	
41	2.050000e+00	3.377443e+06	
42	2.100000e+00	3.479368e+06	
43	2.150000e+00	3.579261e+06	
44	2.200000e+00	3.677176e+06	
45	2.250000e+00	3.773164e+06	
46	2.300000e+00	3.867269e+06	
47	2.350000e+00	3.959532e+06	
48	2.400000e+00	4.049983e+06	
49	2.450000e+00	4.138638e+06	
50	2.500000e+00	4.225497e+06	
51	2.550000e+00	4.310533e+06	
52	2.600000e+00	4.393685e+06	
53	2.650000e+00	4.474846e+06	
54	2.700000e+00	4.553851e+06	

Index   v-sweep         rds             
--------------------------------------------------------------------------------
55	2.750000e+00	4.630462e+06	
56	2.800000e+00	4.704347e+06	
57	2.850000e+00	4.775065e+06	
58	2.900000e+00	4.842045e+06	
59	2.950000e+00	4.904564e+06	
60	3.000000e+00	4.961733e+06	
61	3.050000e+00	5.012483e+06	
62	3.100000e+00	5.055557e+06	
63	3.150000e+00	5.089516e+06	
64	3.200000e+00	5.112761e+06	
65	3.250000e+00	5.123565e+06	
66	3.300000e+00	5.120134e+06	
Reset re-loads circuit ***************************

Circuit: ***************************

Doing analysis at TEMP = -40.000000 and TNOM = -40.000000


No. of Data Rows : 67
                          ***************************
                          DC transfer characteristic  Mon Jan  9 13:57:20  2023
--------------------------------------------------------------------------------
Index   v-sweep         rds             
--------------------------------------------------------------------------------
0	0.000000e+00	1.642222e+04	
1	5.000000e-02	1.733240e+04	
2	1.000000e-01	1.831773e+04	
3	1.500000e-01	1.938777e+04	
4	2.000000e-01	2.055375e+04	
5	2.500000e-01	2.182902e+04	
6	3.000000e-01	2.322951e+04	
7	3.500000e-01	2.477444e+04	
8	4.000000e-01	2.648719e+04	
9	4.500000e-01	2.839655e+04	
10	5.000000e-01	3.053834e+04	
11	5.500000e-01	3.295783e+04	
12	6.000000e-01	3.571316e+04	
13	6.500000e-01	3.888056e+04	
14	7.000000e-01	4.256254e+04	
15	7.500000e-01	4.690163e+04	
16	8.000000e-01	5.210529e+04	
17	8.500000e-01	5.849505e+04	
18	9.000000e-01	6.661285e+04	
19	9.500000e-01	7.746384e+04	
20	1.000000e+00	9.303012e+04	
21	1.050000e+00	1.169480e+05	
22	1.100000e+00	1.539624e+05	
23	1.150000e+00	2.066658e+05	
24	1.200000e+00	2.732819e+05	
25	1.250000e+00	3.497700e+05	
26	1.300000e+00	4.324109e+05	
27	1.350000e+00	5.185801e+05	
28	1.400000e+00	6.065822e+05	
29	1.450000e+00	6.953424e+05	
30	1.500000e+00	7.841738e+05	
31	1.550000e+00	8.726314e+05	
32	1.600000e+00	9.604223e+05	
33	1.650000e+00	1.047352e+06	
34	1.700000e+00	1.133291e+06	
35	1.750000e+00	1.218153e+06	
36	1.800000e+00	1.301882e+06	
37	1.850000e+00	1.384444e+06	
38	1.900000e+00	1.465820e+06	
39	1.950000e+00	1.546001e+06	
40	2.000000e+00	1.624986e+06	
41	2.050000e+00	1.702780e+06	
42	2.100000e+00	1.779393e+06	
43	2.150000e+00	1.854838e+06	
44	2.200000e+00	1.929129e+06	
45	2.250000e+00	2.002282e+06	
46	2.300000e+00	2.074316e+06	
47	2.350000e+00	2.145248e+06	
48	2.400000e+00	2.215098e+06	
49	2.450000e+00	2.283884e+06	
50	2.500000e+00	2.351625e+06	
51	2.550000e+00	2.418336e+06	
52	2.600000e+00	2.484031e+06	
53	2.650000e+00	2.548721e+06	
54	2.700000e+00	2.612407e+06	

Index   v-sweep         rds             
--------------------------------------------------------------------------------
55	2.750000e+00	2.675082e+06	
56	2.800000e+00	2.736723e+06	
57	2.850000e+00	2.797288e+06	
58	2.900000e+00	2.856703e+06	
59	2.950000e+00	2.914859e+06	
60	3.000000e+00	2.971598e+06	
61	3.050000e+00	3.026697e+06	
62	3.100000e+00	3.079858e+06	
63	3.150000e+00	3.130689e+06	
64	3.200000e+00	3.178689e+06	
65	3.250000e+00	3.223234e+06	
66	3.300000e+00	3.263559e+06	
Reset re-loads circuit ***************************

Circuit: ***************************

Doing analysis at TEMP = -40.000000 and TNOM = -40.000000


No. of Data Rows : 67
                          ***************************
                          DC transfer characteristic  Mon Jan  9 13:57:20  2023
--------------------------------------------------------------------------------
Index   v-sweep         rds             
--------------------------------------------------------------------------------
0	0.000000e+00	1.381130e+04	
1	5.000000e-02	1.442540e+04	
2	1.000000e-01	1.507776e+04	
3	1.500000e-01	1.577200e+04	
4	2.000000e-01	1.651218e+04	
5	2.500000e-01	1.730295e+04	
6	3.000000e-01	1.814955e+04	
7	3.500000e-01	1.905804e+04	
8	4.000000e-01	2.003536e+04	
9	4.500000e-01	2.108953e+04	
10	5.000000e-01	2.222989e+04	
11	5.500000e-01	2.346738e+04	
12	6.000000e-01	2.481489e+04	
13	6.500000e-01	2.628777e+04	
14	7.000000e-01	2.790439e+04	
15	7.500000e-01	2.968706e+04	
16	8.000000e-01	3.166319e+04	
17	8.500000e-01	3.386696e+04	
18	9.000000e-01	3.634194e+04	
19	9.500000e-01	3.914513e+04	
20	1.000000e+00	4.235390e+04	
21	1.050000e+00	4.607865e+04	
22	1.100000e+00	5.048791e+04	
23	1.150000e+00	5.586140e+04	
24	1.200000e+00	6.270515e+04	
25	1.250000e+00	7.198590e+04	
26	1.300000e+00	8.548268e+04	
27	1.350000e+00	1.058555e+05	
28	1.400000e+00	1.355691e+05	
29	1.450000e+00	1.751654e+05	
30	1.500000e+00	2.231035e+05	
31	1.550000e+00	2.770903e+05	
32	1.600000e+00	3.351007e+05	
33	1.650000e+00	3.956496e+05	
34	1.700000e+00	4.577186e+05	
35	1.750000e+00	5.206213e+05	
36	1.800000e+00	5.838932e+05	
37	1.850000e+00	6.472160e+05	
38	1.900000e+00	7.103686e+05	
39	1.950000e+00	7.731956e+05	
40	2.000000e+00	8.355866e+05	
41	2.050000e+00	8.974628e+05	
42	2.100000e+00	9.587679e+05	
43	2.150000e+00	1.019462e+06	
44	2.200000e+00	1.079516e+06	
45	2.250000e+00	1.138911e+06	
46	2.300000e+00	1.197635e+06	
47	2.350000e+00	1.255679e+06	
48	2.400000e+00	1.313041e+06	
49	2.450000e+00	1.369719e+06	
50	2.500000e+00	1.425715e+06	
51	2.550000e+00	1.481032e+06	
52	2.600000e+00	1.535676e+06	
53	2.650000e+00	1.589651e+06	
54	2.700000e+00	1.642964e+06	

Index   v-sweep         rds             
--------------------------------------------------------------------------------
55	2.750000e+00	1.695622e+06	
56	2.800000e+00	1.747631e+06	
57	2.850000e+00	1.798995e+06	
58	2.900000e+00	1.849717e+06	
59	2.950000e+00	1.899794e+06	
60	3.000000e+00	1.949218e+06	
61	3.050000e+00	1.997971e+06	
62	3.100000e+00	2.046020e+06	
63	3.150000e+00	2.093310e+06	
64	3.200000e+00	2.139762e+06	
65	3.250000e+00	2.185258e+06	
66	3.300000e+00	2.229635e+06	
Reset re-loads circuit ***************************

Circuit: ***************************

Doing analysis at TEMP = -40.000000 and TNOM = -40.000000


No. of Data Rows : 67
                          ***************************
                          DC transfer characteristic  Mon Jan  9 13:57:20  2023
--------------------------------------------------------------------------------
Index   v-sweep         rds             
--------------------------------------------------------------------------------
0	0.000000e+00	1.234675e+04	
1	5.000000e-02	1.280616e+04	
2	1.000000e-01	1.328848e+04	
3	1.500000e-01	1.379540e+04	
4	2.000000e-01	1.432880e+04	
5	2.500000e-01	1.489075e+04	
6	3.000000e-01	1.548356e+04	
7	3.500000e-01	1.610978e+04	
8	4.000000e-01	1.677226e+04	
9	4.500000e-01	1.747418e+04	
10	5.000000e-01	1.821910e+04	
11	5.500000e-01	1.901104e+04	
12	6.000000e-01	1.985454e+04	
13	6.500000e-01	2.075475e+04	
14	7.000000e-01	2.171753e+04	
15	7.500000e-01	2.274960e+04	
16	8.000000e-01	2.385872e+04	
17	8.500000e-01	2.505385e+04	
18	9.000000e-01	2.634549e+04	
19	9.500000e-01	2.774600e+04	
20	1.000000e+00	2.927010e+04	
21	1.050000e+00	3.093555e+04	
22	1.100000e+00	3.276417e+04	
23	1.150000e+00	3.478333e+04	
24	1.200000e+00	3.702843e+04	
25	1.250000e+00	3.954712e+04	
26	1.300000e+00	4.240702e+04	
27	1.350000e+00	4.571075e+04	
28	1.400000e+00	4.962635e+04	
29	1.450000e+00	5.444991e+04	
30	1.500000e+00	6.072759e+04	
31	1.550000e+00	6.944905e+04	
32	1.600000e+00	8.218709e+04	
33	1.650000e+00	1.007837e+05	
34	1.700000e+00	1.264003e+05	
35	1.750000e+00	1.588230e+05	
36	1.800000e+00	1.968192e+05	
37	1.850000e+00	2.389133e+05	
38	1.900000e+00	2.838422e+05	
39	1.950000e+00	3.306599e+05	
40	2.000000e+00	3.786939e+05	
41	2.050000e+00	4.274728e+05	
42	2.100000e+00	4.766651e+05	
43	2.150000e+00	5.260358e+05	
44	2.200000e+00	5.754160e+05	
45	2.250000e+00	6.246829e+05	
46	2.300000e+00	6.737464e+05	
47	2.350000e+00	7.225396e+05	
48	2.400000e+00	7.710129e+05	
49	2.450000e+00	8.191289e+05	
50	2.500000e+00	8.668600e+05	
51	2.550000e+00	9.141855e+05	
52	2.600000e+00	9.610902e+05	
53	2.650000e+00	1.007563e+06	
54	2.700000e+00	1.053597e+06	

Index   v-sweep         rds             
--------------------------------------------------------------------------------
55	2.750000e+00	1.099186e+06	
56	2.800000e+00	1.144327e+06	
57	2.850000e+00	1.189020e+06	
58	2.900000e+00	1.233264e+06	
59	2.950000e+00	1.277059e+06	
60	3.000000e+00	1.320408e+06	
61	3.050000e+00	1.363311e+06	
62	3.100000e+00	1.405769e+06	
63	3.150000e+00	1.447782e+06	
64	3.200000e+00	1.489347e+06	
65	3.250000e+00	1.530456e+06	
66	3.300000e+00	1.571094e+06	
Reset re-loads circuit ***************************

Circuit: ***************************

Note: No ".plot", ".print", or ".fourier" lines; no simulations run
