
Note: Compatibility modes selected: hs

Warning: m=xx on .subckt line will override multiplier m hierarchy!


Circuit: ***************************

Doing analysis at TEMP = -40.000000 and TNOM = -40.000000


No. of Data Rows : 67
                          ***************************
                          DC transfer characteristic  Mon Jan  9 13:57:20  2023
--------------------------------------------------------------------------------
Index   v-sweep         rds             
--------------------------------------------------------------------------------
0	0.000000e+00	5.282311e+04	
1	5.000000e-02	1.322947e+05	
2	1.000000e-01	5.846846e+05	
3	1.500000e-01	1.765805e+06	
4	2.000000e-01	2.988524e+06	
5	2.500000e-01	3.926794e+06	
6	3.000000e-01	4.632811e+06	
7	3.500000e-01	5.180328e+06	
8	4.000000e-01	5.617839e+06	
9	4.500000e-01	5.975822e+06	
10	5.000000e-01	6.274156e+06	
11	5.500000e-01	6.526398e+06	
12	6.000000e-01	6.742169e+06	
13	6.500000e-01	6.928521e+06	
14	7.000000e-01	7.090763e+06	
15	7.500000e-01	7.232982e+06	
16	8.000000e-01	7.358380e+06	
17	8.500000e-01	7.469506e+06	
18	9.000000e-01	7.568418e+06	
19	9.500000e-01	7.656796e+06	
20	1.000000e+00	7.736027e+06	
21	1.050000e+00	7.807265e+06	
22	1.100000e+00	7.871480e+06	
23	1.150000e+00	7.929491e+06	
24	1.200000e+00	7.981997e+06	
25	1.250000e+00	8.029596e+06	
26	1.300000e+00	8.072806e+06	
27	1.350000e+00	8.112072e+06	
28	1.400000e+00	8.147785e+06	
29	1.450000e+00	8.180286e+06	
30	1.500000e+00	8.209871e+06	
31	1.550000e+00	8.236805e+06	
32	1.600000e+00	8.261318e+06	
33	1.650000e+00	8.283612e+06	
34	1.700000e+00	8.303865e+06	
35	1.750000e+00	8.322230e+06	
36	1.800000e+00	8.338837e+06	
37	1.850000e+00	8.353792e+06	
38	1.900000e+00	8.367178e+06	
39	1.950000e+00	8.379052e+06	
40	2.000000e+00	8.389443e+06	
41	2.050000e+00	8.398349e+06	
42	2.100000e+00	8.405735e+06	
43	2.150000e+00	8.411526e+06	
44	2.200000e+00	8.415607e+06	
45	2.250000e+00	8.417818e+06	
46	2.300000e+00	8.417945e+06	
47	2.350000e+00	8.415723e+06	
48	2.400000e+00	8.410828e+06	
49	2.450000e+00	8.402878e+06	
50	2.500000e+00	8.391427e+06	
51	2.550000e+00	8.375968e+06	
52	2.600000e+00	8.355935e+06	
53	2.650000e+00	8.330706e+06	
54	2.700000e+00	8.299608e+06	

Index   v-sweep         rds             
--------------------------------------------------------------------------------
55	2.750000e+00	8.261929e+06	
56	2.800000e+00	8.216929e+06	
57	2.850000e+00	8.163855e+06	
58	2.900000e+00	8.101959e+06	
59	2.950000e+00	8.030522e+06	
60	3.000000e+00	7.948877e+06	
61	3.050000e+00	7.856434e+06	
62	3.100000e+00	7.752707e+06	
63	3.150000e+00	7.637341e+06	
64	3.200000e+00	7.510135e+06	
65	3.250000e+00	7.371064e+06	
66	3.300000e+00	7.220293e+06	
Reset re-loads circuit ***************************

Circuit: ***************************

Doing analysis at TEMP = -40.000000 and TNOM = -40.000000


No. of Data Rows : 67
                          ***************************
                          DC transfer characteristic  Mon Jan  9 13:57:20  2023
--------------------------------------------------------------------------------
Index   v-sweep         rds             
--------------------------------------------------------------------------------
0	0.000000e+00	5.373728e+03	
1	5.000000e-02	6.174011e+03	
2	1.000000e-01	7.183036e+03	
3	1.500000e-01	8.493419e+03	
4	2.000000e-01	1.026129e+04	
5	2.500000e-01	1.276957e+04	
6	3.000000e-01	1.657471e+04	
7	3.500000e-01	2.283955e+04	
8	4.000000e-01	3.382090e+04	
9	4.500000e-01	5.229188e+04	
10	5.000000e-01	7.865546e+04	
11	5.500000e-01	1.102491e+05	
12	6.000000e-01	1.441051e+05	
13	6.500000e-01	1.783406e+05	
14	7.000000e-01	2.119764e+05	
15	7.500000e-01	2.445439e+05	
16	8.000000e-01	2.758379e+05	
17	8.500000e-01	3.057877e+05	
18	9.000000e-01	3.343922e+05	
19	9.500000e-01	3.616855e+05	
20	1.000000e+00	3.877200e+05	
21	1.050000e+00	4.125561e+05	
22	1.100000e+00	4.362569e+05	
23	1.150000e+00	4.588856e+05	
24	1.200000e+00	4.805033e+05	
25	1.250000e+00	5.011685e+05	
26	1.300000e+00	5.209367e+05	
27	1.350000e+00	5.398599e+05	
28	1.400000e+00	5.579870e+05	
29	1.450000e+00	5.753636e+05	
30	1.500000e+00	5.920323e+05	
31	1.550000e+00	6.080329e+05	
32	1.600000e+00	6.234023e+05	
33	1.650000e+00	6.381752e+05	
34	1.700000e+00	6.523837e+05	
35	1.750000e+00	6.660578e+05	
36	1.800000e+00	6.792252e+05	
37	1.850000e+00	6.919120e+05	
38	1.900000e+00	7.041420e+05	
39	1.950000e+00	7.159367e+05	
40	2.000000e+00	7.273159e+05	
41	2.050000e+00	7.382962e+05	
42	2.100000e+00	7.488917e+05	
43	2.150000e+00	7.591123e+05	
44	2.200000e+00	7.689636e+05	
45	2.250000e+00	7.784454e+05	
46	2.300000e+00	7.875507e+05	
47	2.350000e+00	7.962634e+05	
48	2.400000e+00	8.045575e+05	
49	2.450000e+00	8.123943e+05	
50	2.500000e+00	8.197207e+05	
51	2.550000e+00	8.264672e+05	
52	2.600000e+00	8.325456e+05	
53	2.650000e+00	8.378475e+05	
54	2.700000e+00	8.422433e+05	

Index   v-sweep         rds             
--------------------------------------------------------------------------------
55	2.750000e+00	8.455815e+05	
56	2.800000e+00	8.476899e+05	
57	2.850000e+00	8.483777e+05	
58	2.900000e+00	8.474398e+05	
59	2.950000e+00	8.446626e+05	
60	3.000000e+00	8.398328e+05	
61	3.050000e+00	8.327477e+05	
62	3.100000e+00	8.232277e+05	
63	3.150000e+00	8.111300e+05	
64	3.200000e+00	7.963619e+05	
65	3.250000e+00	7.788930e+05	
66	3.300000e+00	7.587653e+05	
Reset re-loads circuit ***************************

Circuit: ***************************

Doing analysis at TEMP = -40.000000 and TNOM = -40.000000


No. of Data Rows : 67
                          ***************************
                          DC transfer characteristic  Mon Jan  9 13:57:20  2023
--------------------------------------------------------------------------------
Index   v-sweep         rds             
--------------------------------------------------------------------------------
0	0.000000e+00	3.171370e+03	
1	5.000000e-02	3.451117e+03	
2	1.000000e-01	3.767388e+03	
3	1.500000e-01	4.127701e+03	
4	2.000000e-01	4.541818e+03	
5	2.500000e-01	5.022663e+03	
6	3.000000e-01	5.587760e+03	
7	3.500000e-01	6.261573e+03	
8	4.000000e-01	7.079545e+03	
9	4.500000e-01	8.095531e+03	
10	5.000000e-01	9.396493e+03	
11	5.500000e-01	1.113299e+04	
12	6.000000e-01	1.358007e+04	
13	6.500000e-01	1.722524e+04	
14	7.000000e-01	2.275809e+04	
15	7.500000e-01	3.071973e+04	
16	8.000000e-01	4.105556e+04	
17	8.500000e-01	5.320300e+04	
18	9.000000e-01	6.650332e+04	
19	9.500000e-01	8.043364e+04	
20	1.000000e+00	9.463638e+04	
21	1.050000e+00	1.088803e+05	
22	1.100000e+00	1.230186e+05	
23	1.150000e+00	1.369591e+05	
24	1.200000e+00	1.506444e+05	
25	1.250000e+00	1.640396e+05	
26	1.300000e+00	1.771245e+05	
27	1.350000e+00	1.898888e+05	
28	1.400000e+00	2.023289e+05	
29	1.450000e+00	2.144453e+05	
30	1.500000e+00	2.262418e+05	
31	1.550000e+00	2.377240e+05	
32	1.600000e+00	2.488991e+05	
33	1.650000e+00	2.597747e+05	
34	1.700000e+00	2.703594e+05	
35	1.750000e+00	2.806619e+05	
36	1.800000e+00	2.906908e+05	
37	1.850000e+00	3.004550e+05	
38	1.900000e+00	3.099632e+05	
39	1.950000e+00	3.192238e+05	
40	2.000000e+00	3.282451e+05	
41	2.050000e+00	3.370351e+05	
42	2.100000e+00	3.456015e+05	
43	2.150000e+00	3.539514e+05	
44	2.200000e+00	3.620916e+05	
45	2.250000e+00	3.700279e+05	
46	2.300000e+00	3.777650e+05	
47	2.350000e+00	3.853065e+05	
48	2.400000e+00	3.926536e+05	
49	2.450000e+00	3.998049e+05	
50	2.500000e+00	4.067557e+05	
51	2.550000e+00	4.134960e+05	
52	2.600000e+00	4.200102e+05	
53	2.650000e+00	4.262750e+05	
54	2.700000e+00	4.322577e+05	

Index   v-sweep         rds             
--------------------------------------------------------------------------------
55	2.750000e+00	4.379143e+05	
56	2.800000e+00	4.431881e+05	
57	2.850000e+00	4.480071e+05	
58	2.900000e+00	4.522833e+05	
59	2.950000e+00	4.559111e+05	
60	3.000000e+00	4.587674e+05	
61	3.050000e+00	4.607126e+05	
62	3.100000e+00	4.615935e+05	
63	3.150000e+00	4.612473e+05	
64	3.200000e+00	4.595089e+05	
65	3.250000e+00	4.562196e+05	
66	3.300000e+00	4.512383e+05	
Reset re-loads circuit ***************************

Circuit: ***************************

Doing analysis at TEMP = -40.000000 and TNOM = -40.000000


No. of Data Rows : 67
                          ***************************
                          DC transfer characteristic  Mon Jan  9 13:57:20  2023
--------------------------------------------------------------------------------
Index   v-sweep         rds             
--------------------------------------------------------------------------------
0	0.000000e+00	2.450830e+03	
1	5.000000e-02	2.611075e+03	
2	1.000000e-01	2.785553e+03	
3	1.500000e-01	2.976192e+03	
4	2.000000e-01	3.185295e+03	
5	2.500000e-01	3.415629e+03	
6	3.000000e-01	3.670557e+03	
7	3.500000e-01	3.954214e+03	
8	4.000000e-01	4.271759e+03	
9	4.500000e-01	4.629735e+03	
10	5.000000e-01	5.036622e+03	
11	5.500000e-01	5.503724e+03	
12	6.000000e-01	6.046663e+03	
13	6.500000e-01	6.688087e+03	
14	7.000000e-01	7.462855e+03	
15	7.500000e-01	8.428362e+03	
16	8.000000e-01	9.684594e+03	
17	8.500000e-01	1.140714e+04	
18	9.000000e-01	1.387594e+04	
19	9.500000e-01	1.743219e+04	
20	1.000000e+00	2.231231e+04	
21	1.050000e+00	2.849811e+04	
22	1.100000e+00	3.575811e+04	
23	1.150000e+00	4.379469e+04	
24	1.200000e+00	5.234370e+04	
25	1.250000e+00	6.120354e+04	
26	1.300000e+00	7.022981e+04	
27	1.350000e+00	7.932156e+04	
28	1.400000e+00	8.840870e+04	
29	1.450000e+00	9.744259e+04	
30	1.500000e+00	1.063894e+05	
31	1.550000e+00	1.152258e+05	
32	1.600000e+00	1.239356e+05	
33	1.650000e+00	1.325081e+05	
34	1.700000e+00	1.409360e+05	
35	1.750000e+00	1.492150e+05	
36	1.800000e+00	1.573427e+05	
37	1.850000e+00	1.653184e+05	
38	1.900000e+00	1.731422e+05	
39	1.950000e+00	1.808151e+05	
40	2.000000e+00	1.883389e+05	
41	2.050000e+00	1.957155e+05	
42	2.100000e+00	2.029476e+05	
43	2.150000e+00	2.100376e+05	
44	2.200000e+00	2.169884e+05	
45	2.250000e+00	2.238029e+05	
46	2.300000e+00	2.304840e+05	
47	2.350000e+00	2.370345e+05	
48	2.400000e+00	2.434571e+05	
49	2.450000e+00	2.497543e+05	
50	2.500000e+00	2.559278e+05	
51	2.550000e+00	2.619788e+05	
52	2.600000e+00	2.679072e+05	
53	2.650000e+00	2.737112e+05	
54	2.700000e+00	2.793868e+05	

Index   v-sweep         rds             
--------------------------------------------------------------------------------
55	2.750000e+00	2.849265e+05	
56	2.800000e+00	2.903186e+05	
57	2.850000e+00	2.955461e+05	
58	2.900000e+00	3.005845e+05	
59	2.950000e+00	3.054011e+05	
60	3.000000e+00	3.099527e+05	
61	3.050000e+00	3.141840e+05	
62	3.100000e+00	3.180259e+05	
63	3.150000e+00	3.213947e+05	
64	3.200000e+00	3.241911e+05	
65	3.250000e+00	3.263009e+05	
66	3.300000e+00	3.275967e+05	
Reset re-loads circuit ***************************

Circuit: ***************************

Doing analysis at TEMP = -40.000000 and TNOM = -40.000000


No. of Data Rows : 67
                          ***************************
                          DC transfer characteristic  Mon Jan  9 13:57:20  2023
--------------------------------------------------------------------------------
Index   v-sweep         rds             
--------------------------------------------------------------------------------
0	0.000000e+00	2.107325e+03	
1	5.000000e-02	2.218177e+03	
2	1.000000e-01	2.336547e+03	
3	1.500000e-01	2.463198e+03	
4	2.000000e-01	2.599002e+03	
5	2.500000e-01	2.744960e+03	
6	3.000000e-01	2.902228e+03	
7	3.500000e-01	3.072148e+03	
8	4.000000e-01	3.256291e+03	
9	4.500000e-01	3.456511e+03	
10	5.000000e-01	3.675014e+03	
11	5.500000e-01	3.914458e+03	
12	6.000000e-01	4.178095e+03	
13	6.500000e-01	4.469969e+03	
14	7.000000e-01	4.795233e+03	
15	7.500000e-01	5.160653e+03	
16	8.000000e-01	5.575473e+03	
17	8.500000e-01	6.052953e+03	
18	9.000000e-01	6.613262e+03	
19	9.500000e-01	7.288947e+03	
20	1.000000e+00	8.135029e+03	
21	1.050000e+00	9.245315e+03	
22	1.100000e+00	1.076999e+04	
23	1.150000e+00	1.291097e+04	
24	1.200000e+00	1.586158e+04	
25	1.250000e+00	1.971115e+04	
26	1.300000e+00	2.440523e+04	
27	1.350000e+00	2.979379e+04	
28	1.400000e+00	3.570286e+04	
29	1.450000e+00	4.197771e+04	
30	1.500000e+00	4.849600e+04	
31	1.550000e+00	5.516602e+04	
32	1.600000e+00	6.192051e+04	
33	1.650000e+00	6.871049e+04	
34	1.700000e+00	7.550027e+04	
35	1.750000e+00	8.226376e+04	
36	1.800000e+00	8.898187e+04	
37	1.850000e+00	9.564058e+04	
38	1.900000e+00	1.022296e+05	
39	1.950000e+00	1.087416e+05	
40	2.000000e+00	1.151711e+05	
41	2.050000e+00	1.215143e+05	
42	2.100000e+00	1.277687e+05	
43	2.150000e+00	1.339327e+05	
44	2.200000e+00	1.400054e+05	
45	2.250000e+00	1.459864e+05	
46	2.300000e+00	1.518758e+05	
47	2.350000e+00	1.576741e+05	
48	2.400000e+00	1.633820e+05	
49	2.450000e+00	1.690003e+05	
50	2.500000e+00	1.745301e+05	
51	2.550000e+00	1.799725e+05	
52	2.600000e+00	1.853285e+05	
53	2.650000e+00	1.905990e+05	
54	2.700000e+00	1.957848e+05	

Index   v-sweep         rds             
--------------------------------------------------------------------------------
55	2.750000e+00	2.008860e+05	
56	2.800000e+00	2.059020e+05	
57	2.850000e+00	2.108310e+05	
58	2.900000e+00	2.156694e+05	
59	2.950000e+00	2.204112e+05	
60	3.000000e+00	2.250471e+05	
61	3.050000e+00	2.295633e+05	
62	3.100000e+00	2.339406e+05	
63	3.150000e+00	2.381524e+05	
64	3.200000e+00	2.421636e+05	
65	3.250000e+00	2.459289e+05	
66	3.300000e+00	2.493910e+05	
Reset re-loads circuit ***************************

Circuit: ***************************

Doing analysis at TEMP = -40.000000 and TNOM = -40.000000


No. of Data Rows : 67
                          ***************************
                          DC transfer characteristic  Mon Jan  9 13:57:20  2023
--------------------------------------------------------------------------------
Index   v-sweep         rds             
--------------------------------------------------------------------------------
0	0.000000e+00	1.915457e+03	
1	5.000000e-02	2.000016e+03	
2	1.000000e-01	2.089227e+03	
3	1.500000e-01	2.183467e+03	
4	2.000000e-01	2.283158e+03	
5	2.500000e-01	2.388768e+03	
6	3.000000e-01	2.500826e+03	
7	3.500000e-01	2.619922e+03	
8	4.000000e-01	2.746726e+03	
9	4.500000e-01	2.881998e+03	
10	5.000000e-01	3.026602e+03	
11	5.500000e-01	3.181533e+03	
12	6.000000e-01	3.347940e+03	
13	6.500000e-01	3.527162e+03	
14	7.000000e-01	3.720776e+03	
15	7.500000e-01	3.930660e+03	
16	8.000000e-01	4.159092e+03	
17	8.500000e-01	4.408883e+03	
18	9.000000e-01	4.683600e+03	
19	9.500000e-01	4.987917e+03	
20	1.000000e+00	5.328211e+03	
21	1.050000e+00	5.713618e+03	
22	1.100000e+00	6.157930e+03	
23	1.150000e+00	6.683043e+03	
24	1.200000e+00	7.324987e+03	
25	1.250000e+00	8.143386e+03	
26	1.300000e+00	9.232318e+03	
27	1.350000e+00	1.072247e+04	
28	1.400000e+00	1.275647e+04	
29	1.450000e+00	1.543513e+04	
30	1.500000e+00	1.877303e+04	
31	1.550000e+00	2.270258e+04	
32	1.600000e+00	2.711348e+04	
33	1.650000e+00	3.189043e+04	
34	1.700000e+00	3.693282e+04	
35	1.750000e+00	4.216014e+04	
36	1.800000e+00	4.751056e+04	
37	1.850000e+00	5.293745e+04	
38	1.900000e+00	5.840581e+04	
39	1.950000e+00	6.388936e+04	
40	2.000000e+00	6.936834e+04	
41	2.050000e+00	7.482779e+04	
42	2.100000e+00	8.025637e+04	
43	2.150000e+00	8.564549e+04	
44	2.200000e+00	9.098860e+04	
45	2.250000e+00	9.628075e+04	
46	2.300000e+00	1.015182e+05	
47	2.350000e+00	1.066982e+05	
48	2.400000e+00	1.118188e+05	
49	2.450000e+00	1.168785e+05	
50	2.500000e+00	1.218763e+05	
51	2.550000e+00	1.268118e+05	
52	2.600000e+00	1.316845e+05	
53	2.650000e+00	1.364945e+05	
54	2.700000e+00	1.412418e+05	

Index   v-sweep         rds             
--------------------------------------------------------------------------------
55	2.750000e+00	1.459268e+05	
56	2.800000e+00	1.505496e+05	
57	2.850000e+00	1.551106e+05	
58	2.900000e+00	1.596099e+05	
59	2.950000e+00	1.640471e+05	
60	3.000000e+00	1.684216e+05	
61	3.050000e+00	1.727316e+05	
62	3.100000e+00	1.769740e+05	
63	3.150000e+00	1.811441e+05	
64	3.200000e+00	1.852340e+05	
65	3.250000e+00	1.892327e+05	
66	3.300000e+00	1.931242e+05	
Reset re-loads circuit ***************************

Circuit: ***************************

Note: No ".plot", ".print", or ".fourier" lines; no simulations run
