
Note: Compatibility modes selected: hs

Warning: m=xx on .subckt line will override multiplier m hierarchy!


Circuit: ***************************

Doing analysis at TEMP = 25.000000 and TNOM = 25.000000


No. of Data Rows : 67
                          ***************************
                          DC transfer characteristic  Mon Jan  9 13:57:19  2023
--------------------------------------------------------------------------------
Index   v-sweep         rds             
--------------------------------------------------------------------------------
0	0.000000e+00	5.199294e+03	
1	5.000000e-02	8.071064e+03	
2	1.000000e-01	1.663515e+04	
3	1.500000e-01	6.314686e+04	
4	2.000000e-01	2.586964e+05	
5	2.500000e-01	5.651821e+05	
6	3.000000e-01	8.442486e+05	
7	3.500000e-01	1.063165e+06	
8	4.000000e-01	1.232494e+06	
9	4.500000e-01	1.365875e+06	
10	5.000000e-01	1.473356e+06	
11	5.500000e-01	1.561783e+06	
12	6.000000e-01	1.635834e+06	
13	6.500000e-01	1.698779e+06	
14	7.000000e-01	1.752963e+06	
15	7.500000e-01	1.800110e+06	
16	8.000000e-01	1.841516e+06	
17	8.500000e-01	1.878175e+06	
18	9.000000e-01	1.910862e+06	
19	9.500000e-01	1.940190e+06	
20	1.000000e+00	1.966653e+06	
21	1.050000e+00	1.990650e+06	
22	1.100000e+00	2.012510e+06	
23	1.150000e+00	2.032505e+06	
24	1.200000e+00	2.050864e+06	
25	1.250000e+00	2.067778e+06	
26	1.300000e+00	2.083411e+06	
27	1.350000e+00	2.097901e+06	
28	1.400000e+00	2.111369e+06	
29	1.450000e+00	2.123917e+06	
30	1.500000e+00	2.135637e+06	
31	1.550000e+00	2.146605e+06	
32	1.600000e+00	2.156891e+06	
33	1.650000e+00	2.166553e+06	
34	1.700000e+00	2.175644e+06	
35	1.750000e+00	2.184208e+06	
36	1.800000e+00	2.192282e+06	
37	1.850000e+00	2.199895e+06	
38	1.900000e+00	2.207071e+06	
39	1.950000e+00	2.213823e+06	
40	2.000000e+00	2.220157e+06	
41	2.050000e+00	2.226066e+06	
42	2.100000e+00	2.231534e+06	
43	2.150000e+00	2.236530e+06	
44	2.200000e+00	2.241006e+06	
45	2.250000e+00	2.244899e+06	
46	2.300000e+00	2.248127e+06	
47	2.350000e+00	2.250585e+06	
48	2.400000e+00	2.252146e+06	
49	2.450000e+00	2.252660e+06	
50	2.500000e+00	2.251951e+06	
51	2.550000e+00	2.249820e+06	
52	2.600000e+00	2.246043e+06	
53	2.650000e+00	2.240376e+06	
54	2.700000e+00	2.232554e+06	

Index   v-sweep         rds             
--------------------------------------------------------------------------------
55	2.750000e+00	2.222302e+06	
56	2.800000e+00	2.209334e+06	
57	2.850000e+00	2.193369e+06	
58	2.900000e+00	2.174134e+06	
59	2.950000e+00	2.151378e+06	
60	3.000000e+00	2.124882e+06	
61	3.050000e+00	2.094474e+06	
62	3.100000e+00	2.060038e+06	
63	3.150000e+00	2.021524e+06	
64	3.200000e+00	1.978958e+06	
65	3.250000e+00	1.932450e+06	
66	3.300000e+00	1.882190e+06	
Reset re-loads circuit ***************************

Circuit: ***************************

Doing analysis at TEMP = 25.000000 and TNOM = 25.000000


No. of Data Rows : 67
                          ***************************
                          DC transfer characteristic  Mon Jan  9 13:57:19  2023
--------------------------------------------------------------------------------
Index   v-sweep         rds             
--------------------------------------------------------------------------------
0	0.000000e+00	1.088417e+03	
1	5.000000e-02	1.211696e+03	
2	1.000000e-01	1.362016e+03	
3	1.500000e-01	1.549344e+03	
4	2.000000e-01	1.789222e+03	
5	2.500000e-01	2.107292e+03	
6	3.000000e-01	2.549015e+03	
7	3.500000e-01	3.202955e+03	
8	4.000000e-01	4.264090e+03	
9	4.500000e-01	6.225328e+03	
10	5.000000e-01	1.039734e+04	
11	5.500000e-01	1.929224e+04	
12	6.000000e-01	3.440433e+04	
13	6.500000e-01	5.406970e+04	
14	7.000000e-01	7.569194e+04	
15	7.500000e-01	9.751618e+04	
16	8.000000e-01	1.186416e+05	
17	8.500000e-01	1.386711e+05	
18	9.000000e-01	1.574667e+05	
19	9.500000e-01	1.750174e+05	
20	1.000000e+00	1.913723e+05	
21	1.050000e+00	2.066067e+05	
22	1.100000e+00	2.208045e+05	
23	1.150000e+00	2.340500e+05	
24	1.200000e+00	2.464237e+05	
25	1.250000e+00	2.580003e+05	
26	1.300000e+00	2.688485e+05	
27	1.350000e+00	2.790302e+05	
28	1.400000e+00	2.886019e+05	
29	1.450000e+00	2.976141e+05	
30	1.500000e+00	3.061125e+05	
31	1.550000e+00	3.141384e+05	
32	1.600000e+00	3.217288e+05	
33	1.650000e+00	3.289172e+05	
34	1.700000e+00	3.357340e+05	
35	1.750000e+00	3.422065e+05	
36	1.800000e+00	3.483596e+05	
37	1.850000e+00	3.542158e+05	
38	1.900000e+00	3.597955e+05	
39	1.950000e+00	3.651172e+05	
40	2.000000e+00	3.701976e+05	
41	2.050000e+00	3.750513e+05	
42	2.100000e+00	3.796914e+05	
43	2.150000e+00	3.841286e+05	
44	2.200000e+00	3.883714e+05	
45	2.250000e+00	3.924255e+05	
46	2.300000e+00	3.962934e+05	
47	2.350000e+00	3.999735e+05	
48	2.400000e+00	4.034593e+05	
49	2.450000e+00	4.067386e+05	
50	2.500000e+00	4.097921e+05	
51	2.550000e+00	4.125926e+05	
52	2.600000e+00	4.151033e+05	
53	2.650000e+00	4.172772e+05	
54	2.700000e+00	4.190558e+05	

Index   v-sweep         rds             
--------------------------------------------------------------------------------
55	2.750000e+00	4.203685e+05	
56	2.800000e+00	4.211327e+05	
57	2.850000e+00	4.212540e+05	
58	2.900000e+00	4.206280e+05	
59	2.950000e+00	4.191426e+05	
60	3.000000e+00	4.166821e+05	
61	3.050000e+00	4.131325e+05	
62	3.100000e+00	4.083879e+05	
63	3.150000e+00	4.023578e+05	
64	3.200000e+00	3.949757e+05	
65	3.250000e+00	3.862066e+05	
66	3.300000e+00	3.760535e+05	
Reset re-loads circuit ***************************

Circuit: ***************************

Doing analysis at TEMP = 25.000000 and TNOM = 25.000000


No. of Data Rows : 67
                          ***************************
                          DC transfer characteristic  Mon Jan  9 13:57:19  2023
--------------------------------------------------------------------------------
Index   v-sweep         rds             
--------------------------------------------------------------------------------
0	0.000000e+00	6.605261e+02	
1	5.000000e-02	7.046244e+02	
2	1.000000e-01	7.537967e+02	
3	1.500000e-01	8.089677e+02	
4	2.000000e-01	8.713022e+02	
5	2.500000e-01	9.422880e+02	
6	3.000000e-01	1.023858e+03	
7	3.500000e-01	1.118568e+03	
8	4.000000e-01	1.229880e+03	
9	4.500000e-01	1.362597e+03	
10	5.000000e-01	1.523605e+03	
11	5.500000e-01	1.723161e+03	
12	6.000000e-01	1.977315e+03	
13	6.500000e-01	2.312820e+03	
14	7.000000e-01	2.778014e+03	
15	7.500000e-01	3.468861e+03	
16	8.000000e-01	4.590192e+03	
17	8.500000e-01	6.556490e+03	
18	9.000000e-01	9.962343e+03	
19	9.500000e-01	1.516058e+04	
20	1.000000e+00	2.194101e+04	
21	1.050000e+00	2.979298e+04	
22	1.100000e+00	3.823476e+04	
23	1.150000e+00	4.691825e+04	
24	1.200000e+00	5.561641e+04	
25	1.250000e+00	6.418797e+04	
26	1.300000e+00	7.254799e+04	
27	1.350000e+00	8.064777e+04	
28	1.400000e+00	8.846165e+04	
29	1.450000e+00	9.597874e+04	
30	1.500000e+00	1.031975e+05	
31	1.550000e+00	1.101224e+05	
32	1.600000e+00	1.167613e+05	
33	1.650000e+00	1.231246e+05	
34	1.700000e+00	1.292236e+05	
35	1.750000e+00	1.350703e+05	
36	1.800000e+00	1.406768e+05	
37	1.850000e+00	1.460551e+05	
38	1.900000e+00	1.512168e+05	
39	1.950000e+00	1.561730e+05	
40	2.000000e+00	1.609345e+05	
41	2.050000e+00	1.655114e+05	
42	2.100000e+00	1.699134e+05	
43	2.150000e+00	1.741494e+05	
44	2.200000e+00	1.782281e+05	
45	2.250000e+00	1.821573e+05	
46	2.300000e+00	1.859445e+05	
47	2.350000e+00	1.895964e+05	
48	2.400000e+00	1.931190e+05	
49	2.450000e+00	1.965175e+05	
50	2.500000e+00	1.997958e+05	
51	2.550000e+00	2.029566e+05	
52	2.600000e+00	2.060007e+05	
53	2.650000e+00	2.089265e+05	
54	2.700000e+00	2.117295e+05	

Index   v-sweep         rds             
--------------------------------------------------------------------------------
55	2.750000e+00	2.144014e+05	
56	2.800000e+00	2.169290e+05	
57	2.850000e+00	2.192936e+05	
58	2.900000e+00	2.214698e+05	
59	2.950000e+00	2.234244e+05	
60	3.000000e+00	2.251155e+05	
61	3.050000e+00	2.264918e+05	
62	3.100000e+00	2.274923e+05	
63	3.150000e+00	2.280469e+05	
64	3.200000e+00	2.280774e+05	
65	3.250000e+00	2.274997e+05	
66	3.300000e+00	2.262274e+05	
Reset re-loads circuit ***************************

Circuit: ***************************

Doing analysis at TEMP = 25.000000 and TNOM = 25.000000


No. of Data Rows : 67
                          ***************************
                          DC transfer characteristic  Mon Jan  9 13:57:19  2023
--------------------------------------------------------------------------------
Index   v-sweep         rds             
--------------------------------------------------------------------------------
0	0.000000e+00	5.087173e+02	
1	5.000000e-02	5.333835e+02	
2	1.000000e-01	5.599767e+02	
3	1.500000e-01	5.887301e+02	
4	2.000000e-01	6.199160e+02	
5	2.500000e-01	6.538547e+02	
6	3.000000e-01	6.909255e+02	
7	3.500000e-01	7.315811e+02	
8	4.000000e-01	7.763664e+02	
9	4.500000e-01	8.259434e+02	
10	5.000000e-01	8.811249e+02	
11	5.500000e-01	9.429209e+02	
12	6.000000e-01	1.012603e+03	
13	6.500000e-01	1.091799e+03	
14	7.000000e-01	1.182629e+03	
15	7.500000e-01	1.287920e+03	
16	8.000000e-01	1.411543e+03	
17	8.500000e-01	1.558991e+03	
18	9.000000e-01	1.738407e+03	
19	9.500000e-01	1.962589e+03	
20	1.000000e+00	2.253160e+03	
21	1.050000e+00	2.649731e+03	
22	1.100000e+00	3.229580e+03	
23	1.150000e+00	4.141104e+03	
24	1.200000e+00	5.620879e+03	
25	1.250000e+00	7.908789e+03	
26	1.300000e+00	1.108457e+04	
27	1.350000e+00	1.503222e+04	
28	1.400000e+00	1.954756e+04	
29	1.450000e+00	2.443337e+04	
30	1.500000e+00	2.953372e+04	
31	1.550000e+00	3.473507e+04	
32	1.600000e+00	3.995767e+04	
33	1.650000e+00	4.514649e+04	
34	1.700000e+00	5.026409e+04	
35	1.750000e+00	5.528542e+04	
36	1.800000e+00	6.019412e+04	
37	1.850000e+00	6.497999e+04	
38	1.900000e+00	6.963719e+04	
39	1.950000e+00	7.416294e+04	
40	2.000000e+00	7.855668e+04	
41	2.050000e+00	8.281938e+04	
42	2.100000e+00	8.695309e+04	
43	2.150000e+00	9.096064e+04	
44	2.200000e+00	9.484531e+04	
45	2.250000e+00	9.861075e+04	
46	2.300000e+00	1.022608e+05	
47	2.350000e+00	1.057993e+05	
48	2.400000e+00	1.092303e+05	
49	2.450000e+00	1.125577e+05	
50	2.500000e+00	1.157853e+05	
51	2.550000e+00	1.189167e+05	
52	2.600000e+00	1.219557e+05	
53	2.650000e+00	1.249054e+05	
54	2.700000e+00	1.277689e+05	

Index   v-sweep         rds             
--------------------------------------------------------------------------------
55	2.750000e+00	1.305488e+05	
56	2.800000e+00	1.332469e+05	
57	2.850000e+00	1.358644e+05	
58	2.900000e+00	1.384011e+05	
59	2.950000e+00	1.408553e+05	
60	3.000000e+00	1.432231e+05	
61	3.050000e+00	1.454977e+05	
62	3.100000e+00	1.476687e+05	
63	3.150000e+00	1.497215e+05	
64	3.200000e+00	1.516358e+05	
65	3.250000e+00	1.533850e+05	
66	3.300000e+00	1.549353e+05	
Reset re-loads circuit ***************************

Circuit: ***************************

Doing analysis at TEMP = 25.000000 and TNOM = 25.000000


No. of Data Rows : 67
                          ***************************
                          DC transfer characteristic  Mon Jan  9 13:57:19  2023
--------------------------------------------------------------------------------
Index   v-sweep         rds             
--------------------------------------------------------------------------------
0	0.000000e+00	4.356064e+02	
1	5.000000e-02	4.522998e+02	
2	1.000000e-01	4.699784e+02	
3	1.500000e-01	4.887309e+02	
4	2.000000e-01	5.086573e+02	
5	2.500000e-01	5.298701e+02	
6	3.000000e-01	5.524971e+02	
7	3.500000e-01	5.766834e+02	
8	4.000000e-01	6.025947e+02	
9	4.500000e-01	6.304215e+02	
10	5.000000e-01	6.603831e+02	
11	5.500000e-01	6.927344e+02	
12	6.000000e-01	7.277726e+02	
13	6.500000e-01	7.658469e+02	
14	7.000000e-01	8.073708e+02	
15	7.500000e-01	8.528376e+02	
16	8.000000e-01	9.028414e+02	
17	8.500000e-01	9.581058e+02	
18	9.000000e-01	1.019523e+03	
19	9.500000e-01	1.088207e+03	
20	1.000000e+00	1.165579e+03	
21	1.050000e+00	1.253486e+03	
22	1.100000e+00	1.354399e+03	
23	1.150000e+00	1.471740e+03	
24	1.200000e+00	1.610468e+03	
25	1.250000e+00	1.778187e+03	
26	1.300000e+00	1.987368e+03	
27	1.350000e+00	2.259934e+03	
28	1.400000e+00	2.636408e+03	
29	1.450000e+00	3.191082e+03	
30	1.500000e+00	4.044422e+03	
31	1.550000e+00	5.341612e+03	
32	1.600000e+00	7.181587e+03	
33	1.650000e+00	9.562189e+03	
34	1.700000e+00	1.240006e+04	
35	1.750000e+00	1.558357e+04	
36	1.800000e+00	1.900819e+04	
37	1.850000e+00	2.258887e+04	
38	1.900000e+00	2.626061e+04	
39	1.950000e+00	2.997507e+04	
40	2.000000e+00	3.369681e+04	
41	2.050000e+00	3.740003e+04	
42	2.100000e+00	4.106607e+04	
43	2.150000e+00	4.468156e+04	
44	2.200000e+00	4.823703e+04	
45	2.250000e+00	5.172594e+04	
46	2.300000e+00	5.514390e+04	
47	2.350000e+00	5.848816e+04	
48	2.400000e+00	6.175721e+04	
49	2.450000e+00	6.495043e+04	
50	2.500000e+00	6.806792e+04	
51	2.550000e+00	7.111028e+04	
52	2.600000e+00	7.407851e+04	
53	2.650000e+00	7.697387e+04	
54	2.700000e+00	7.979784e+04	

Index   v-sweep         rds             
--------------------------------------------------------------------------------
55	2.750000e+00	8.255204e+04	
56	2.800000e+00	8.523818e+04	
57	2.850000e+00	8.785800e+04	
58	2.900000e+00	9.041326e+04	
59	2.950000e+00	9.290561e+04	
60	3.000000e+00	9.533662e+04	
61	3.050000e+00	9.770758e+04	
62	3.100000e+00	1.000194e+05	
63	3.150000e+00	1.022725e+05	
64	3.200000e+00	1.044662e+05	
65	3.250000e+00	1.065989e+05	
66	3.300000e+00	1.086673e+05	
Reset re-loads circuit ***************************

Circuit: ***************************

Doing analysis at TEMP = 25.000000 and TNOM = 25.000000


No. of Data Rows : 67
                          ***************************
                          DC transfer characteristic  Mon Jan  9 13:57:19  2023
--------------------------------------------------------------------------------
Index   v-sweep         rds             
--------------------------------------------------------------------------------
0	0.000000e+00	3.956860e+02	
1	5.000000e-02	4.082174e+02	
2	1.000000e-01	4.213408e+02	
3	1.500000e-01	4.350983e+02	
4	2.000000e-01	4.495366e+02	
5	2.500000e-01	4.647068e+02	
6	3.000000e-01	4.806652e+02	
7	3.500000e-01	4.974743e+02	
8	4.000000e-01	5.152033e+02	
9	4.500000e-01	5.339290e+02	
10	5.000000e-01	5.537374e+02	
11	5.500000e-01	5.747242e+02	
12	6.000000e-01	5.969974e+02	
13	6.500000e-01	6.206783e+02	
14	7.000000e-01	6.459041e+02	
15	7.500000e-01	6.728308e+02	
16	8.000000e-01	7.016364e+02	
17	8.500000e-01	7.325247e+02	
18	9.000000e-01	7.657308e+02	
19	9.500000e-01	8.015275e+02	
20	1.000000e+00	8.402330e+02	
21	1.050000e+00	8.822218e+02	
22	1.100000e+00	9.279383e+02	
23	1.150000e+00	9.779153e+02	
24	1.200000e+00	1.032799e+03	
25	1.250000e+00	1.093385e+03	
26	1.300000e+00	1.160670e+03	
27	1.350000e+00	1.235932e+03	
28	1.400000e+00	1.320852e+03	
29	1.450000e+00	1.417729e+03	
30	1.500000e+00	1.529840e+03	
31	1.550000e+00	1.662120e+03	
32	1.600000e+00	1.822454e+03	
33	1.650000e+00	2.024203e+03	
34	1.700000e+00	2.290982e+03	
35	1.750000e+00	2.664534e+03	
36	1.800000e+00	3.213111e+03	
37	1.850000e+00	4.028383e+03	
38	1.900000e+00	5.196000e+03	
39	1.950000e+00	6.754326e+03	
40	2.000000e+00	8.681670e+03	
41	2.050000e+00	1.091800e+04	
42	2.100000e+00	1.339260e+04	
43	2.150000e+00	1.604030e+04	
44	2.200000e+00	1.880719e+04	
45	2.250000e+00	2.165079e+04	
46	2.300000e+00	2.453848e+04	
47	2.350000e+00	2.744544e+04	
48	2.400000e+00	3.035290e+04	
49	2.450000e+00	3.324672e+04	
50	2.500000e+00	3.611629e+04	
51	2.550000e+00	3.895367e+04	
52	2.600000e+00	4.175298e+04	
53	2.650000e+00	4.450994e+04	
54	2.700000e+00	4.722147e+04	

Index   v-sweep         rds             
--------------------------------------------------------------------------------
55	2.750000e+00	4.988545e+04	
56	2.800000e+00	5.250048e+04	
57	2.850000e+00	5.506576e+04	
58	2.900000e+00	5.758091e+04	
59	2.950000e+00	6.004590e+04	
60	3.000000e+00	6.246099e+04	
61	3.050000e+00	6.482664e+04	
62	3.100000e+00	6.714345e+04	
63	3.150000e+00	6.941215e+04	
64	3.200000e+00	7.163354e+04	
65	3.250000e+00	7.380843e+04	
66	3.300000e+00	7.593758e+04	
Reset re-loads circuit ***************************

Circuit: ***************************

Note: No ".plot", ".print", or ".fourier" lines; no simulations run
