
Note: Compatibility modes selected: hs

Warning: m=xx on .subckt line will override multiplier m hierarchy!


Circuit: ***************************

Doing analysis at TEMP = -40.000000 and TNOM = -40.000000


No. of Data Rows : 67
                          ***************************
                          DC transfer characteristic  Mon Jan  9 13:57:20  2023
--------------------------------------------------------------------------------
Index   v-sweep         rds             
--------------------------------------------------------------------------------
0	0.000000e+00	9.989630e+04	
1	5.000000e-02	1.704628e+05	
2	1.000000e-01	3.975069e+05	
3	1.500000e-01	1.187474e+06	
4	2.000000e-01	2.569996e+06	
5	2.500000e-01	3.931340e+06	
6	3.000000e-01	5.084176e+06	
7	3.500000e-01	6.056229e+06	
8	4.000000e-01	6.889351e+06	
9	4.500000e-01	7.613994e+06	
10	5.000000e-01	8.251476e+06	
11	5.500000e-01	8.817242e+06	
12	6.000000e-01	9.322923e+06	
13	6.500000e-01	9.777562e+06	
14	7.000000e-01	1.018836e+07	
15	7.500000e-01	1.056117e+07	
16	8.000000e-01	1.090080e+07	
17	8.500000e-01	1.121127e+07	
18	9.000000e-01	1.149598e+07	
19	9.500000e-01	1.175779e+07	
20	1.000000e+00	1.199916e+07	
21	1.050000e+00	1.222222e+07	
22	1.100000e+00	1.242881e+07	
23	1.150000e+00	1.262052e+07	
24	1.200000e+00	1.279876e+07	
25	1.250000e+00	1.296476e+07	
26	1.300000e+00	1.311961e+07	
27	1.350000e+00	1.326428e+07	
28	1.400000e+00	1.339961e+07	
29	1.450000e+00	1.352638e+07	
30	1.500000e+00	1.364527e+07	
31	1.550000e+00	1.375690e+07	
32	1.600000e+00	1.386181e+07	
33	1.650000e+00	1.396049e+07	
34	1.700000e+00	1.405339e+07	
35	1.750000e+00	1.414089e+07	
36	1.800000e+00	1.422334e+07	
37	1.850000e+00	1.430104e+07	
38	1.900000e+00	1.437423e+07	
39	1.950000e+00	1.444309e+07	
40	2.000000e+00	1.450777e+07	
41	2.050000e+00	1.456833e+07	
42	2.100000e+00	1.462477e+07	
43	2.150000e+00	1.467701e+07	
44	2.200000e+00	1.472487e+07	
45	2.250000e+00	1.476807e+07	
46	2.300000e+00	1.480623e+07	
47	2.350000e+00	1.483883e+07	
48	2.400000e+00	1.486523e+07	
49	2.450000e+00	1.488466e+07	
50	2.500000e+00	1.489617e+07	
51	2.550000e+00	1.489870e+07	
52	2.600000e+00	1.489103e+07	
53	2.650000e+00	1.487180e+07	
54	2.700000e+00	1.483954e+07	

Index   v-sweep         rds             
--------------------------------------------------------------------------------
55	2.750000e+00	1.479266e+07	
56	2.800000e+00	1.472953e+07	
57	2.850000e+00	1.464845e+07	
58	2.900000e+00	1.454776e+07	
59	2.950000e+00	1.442588e+07	
60	3.000000e+00	1.428135e+07	
61	3.050000e+00	1.411290e+07	
62	3.100000e+00	1.391955e+07	
63	3.150000e+00	1.370064e+07	
64	3.200000e+00	1.345591e+07	
65	3.250000e+00	1.318554e+07	
66	3.300000e+00	1.289017e+07	
Reset re-loads circuit ***************************

Circuit: ***************************

Doing analysis at TEMP = -40.000000 and TNOM = -40.000000


No. of Data Rows : 67
                          ***************************
                          DC transfer characteristic  Mon Jan  9 13:57:20  2023
--------------------------------------------------------------------------------
Index   v-sweep         rds             
--------------------------------------------------------------------------------
0	0.000000e+00	1.871398e+04	
1	5.000000e-02	2.130833e+04	
2	1.000000e-01	2.449948e+04	
3	1.500000e-01	2.851635e+04	
4	2.000000e-01	3.372121e+04	
5	2.500000e-01	4.072082e+04	
6	3.000000e-01	5.060185e+04	
7	3.500000e-01	6.544199e+04	
8	4.000000e-01	8.923972e+04	
9	4.500000e-01	1.281910e+05	
10	5.000000e-01	1.865483e+05	
11	5.500000e-01	2.612045e+05	
12	6.000000e-01	3.451180e+05	
13	6.500000e-01	4.327357e+05	
14	7.000000e-01	5.208924e+05	
15	7.500000e-01	6.079562e+05	
16	8.000000e-01	6.931094e+05	
17	8.500000e-01	7.759545e+05	
18	9.000000e-01	8.563151e+05	
19	9.500000e-01	9.341348e+05	
20	1.000000e+00	1.009424e+06	
21	1.050000e+00	1.082230e+06	
22	1.100000e+00	1.152623e+06	
23	1.150000e+00	1.220681e+06	
24	1.200000e+00	1.286491e+06	
25	1.250000e+00	1.350139e+06	
26	1.300000e+00	1.411714e+06	
27	1.350000e+00	1.471299e+06	
28	1.400000e+00	1.528979e+06	
29	1.450000e+00	1.584833e+06	
30	1.500000e+00	1.638939e+06	
31	1.550000e+00	1.691368e+06	
32	1.600000e+00	1.742193e+06	
33	1.650000e+00	1.791479e+06	
34	1.700000e+00	1.839291e+06	
35	1.750000e+00	1.885688e+06	
36	1.800000e+00	1.930729e+06	
37	1.850000e+00	1.974466e+06	
38	1.900000e+00	2.016952e+06	
39	1.950000e+00	2.058233e+06	
40	2.000000e+00	2.098353e+06	
41	2.050000e+00	2.137349e+06	
42	2.100000e+00	2.175255e+06	
43	2.150000e+00	2.212092e+06	
44	2.200000e+00	2.247876e+06	
45	2.250000e+00	2.282606e+06	
46	2.300000e+00	2.316265e+06	
47	2.350000e+00	2.348816e+06	
48	2.400000e+00	2.380194e+06	
49	2.450000e+00	2.410301e+06	
50	2.500000e+00	2.439001e+06	
51	2.550000e+00	2.466111e+06	
52	2.600000e+00	2.491397e+06	
53	2.650000e+00	2.514565e+06	
54	2.700000e+00	2.535256e+06	

Index   v-sweep         rds             
--------------------------------------------------------------------------------
55	2.750000e+00	2.553043e+06	
56	2.800000e+00	2.567431e+06	
57	2.850000e+00	2.577858e+06	
58	2.900000e+00	2.583703e+06	
59	2.950000e+00	2.584301e+06	
60	3.000000e+00	2.578962e+06	
61	3.050000e+00	2.566999e+06	
62	3.100000e+00	2.547765e+06	
63	3.150000e+00	2.520689e+06	
64	3.200000e+00	2.485325e+06	
65	3.250000e+00	2.441389e+06	
66	3.300000e+00	2.388807e+06	
Reset re-loads circuit ***************************

Circuit: ***************************

Doing analysis at TEMP = -40.000000 and TNOM = -40.000000


No. of Data Rows : 67
                          ***************************
                          DC transfer characteristic  Mon Jan  9 13:57:20  2023
--------------------------------------------------------------------------------
Index   v-sweep         rds             
--------------------------------------------------------------------------------
0	0.000000e+00	1.154456e+04	
1	5.000000e-02	1.255691e+04	
2	1.000000e-01	1.369495e+04	
3	1.500000e-01	1.498304e+04	
4	2.000000e-01	1.645237e+04	
5	2.500000e-01	1.814361e+04	
6	3.000000e-01	2.011088e+04	
7	3.500000e-01	2.242823e+04	
8	4.000000e-01	2.520047e+04	
9	4.500000e-01	2.858297e+04	
10	5.000000e-01	3.282026e+04	
11	5.500000e-01	3.832638e+04	
12	6.000000e-01	4.584682e+04	
13	6.500000e-01	5.670116e+04	
14	7.000000e-01	7.278228e+04	
15	7.500000e-01	9.562206e+04	
16	8.000000e-01	1.251092e+05	
17	8.500000e-01	1.596915e+05	
18	9.000000e-01	1.975530e+05	
19	9.500000e-01	2.372752e+05	
20	1.000000e+00	2.779057e+05	
21	1.050000e+00	3.188360e+05	
22	1.100000e+00	3.596816e+05	
23	1.150000e+00	4.001986e+05	
24	1.200000e+00	4.402313e+05	
25	1.250000e+00	4.796805e+05	
26	1.300000e+00	5.184839e+05	
27	1.350000e+00	5.566036e+05	
28	1.400000e+00	5.940181e+05	
29	1.450000e+00	6.307174e+05	
30	1.500000e+00	6.666994e+05	
31	1.550000e+00	7.019675e+05	
32	1.600000e+00	7.365289e+05	
33	1.650000e+00	7.703936e+05	
34	1.700000e+00	8.035735e+05	
35	1.750000e+00	8.360819e+05	
36	1.800000e+00	8.679327e+05	
37	1.850000e+00	8.991406e+05	
38	1.900000e+00	9.297205e+05	
39	1.950000e+00	9.596873e+05	
40	2.000000e+00	9.890559e+05	
41	2.050000e+00	1.017841e+06	
42	2.100000e+00	1.046057e+06	
43	2.150000e+00	1.073717e+06	
44	2.200000e+00	1.100834e+06	
45	2.250000e+00	1.127419e+06	
46	2.300000e+00	1.153480e+06	
47	2.350000e+00	1.179022e+06	
48	2.400000e+00	1.204045e+06	
49	2.450000e+00	1.228543e+06	
50	2.500000e+00	1.252498e+06	
51	2.550000e+00	1.275881e+06	
52	2.600000e+00	1.298647e+06	
53	2.650000e+00	1.320728e+06	
54	2.700000e+00	1.342033e+06	

Index   v-sweep         rds             
--------------------------------------------------------------------------------
55	2.750000e+00	1.362435e+06	
56	2.800000e+00	1.381773e+06	
57	2.850000e+00	1.399841e+06	
58	2.900000e+00	1.416384e+06	
59	2.950000e+00	1.431094e+06	
60	3.000000e+00	1.443608e+06	
61	3.050000e+00	1.453509e+06	
62	3.100000e+00	1.460330e+06	
63	3.150000e+00	1.463568e+06	
64	3.200000e+00	1.462696e+06	
65	3.250000e+00	1.457190e+06	
66	3.300000e+00	1.446559e+06	
Reset re-loads circuit ***************************

Circuit: ***************************

Doing analysis at TEMP = -40.000000 and TNOM = -40.000000


No. of Data Rows : 67
                          ***************************
                          DC transfer characteristic  Mon Jan  9 13:57:20  2023
--------------------------------------------------------------------------------
Index   v-sweep         rds             
--------------------------------------------------------------------------------
0	0.000000e+00	8.965339e+03	
1	5.000000e-02	9.565057e+03	
2	1.000000e-01	1.021686e+04	
3	1.500000e-01	1.092758e+04	
4	2.000000e-01	1.170536e+04	
5	2.500000e-01	1.255989e+04	
6	3.000000e-01	1.350292e+04	
7	3.500000e-01	1.454882e+04	
8	4.000000e-01	1.571542e+04	
9	4.500000e-01	1.702521e+04	
10	5.000000e-01	1.850729e+04	
11	5.500000e-01	2.020046e+04	
12	6.000000e-01	2.215866e+04	
13	6.500000e-01	2.446123e+04	
14	7.000000e-01	2.723325e+04	
15	7.500000e-01	3.068691e+04	
16	8.000000e-01	3.519984e+04	
17	8.500000e-01	4.142697e+04	
18	9.000000e-01	5.033152e+04	
19	9.500000e-01	6.287923e+04	
20	1.000000e+00	7.944948e+04	
21	1.050000e+00	9.961886e+04	
22	1.100000e+00	1.225316e+05	
23	1.150000e+00	1.473285e+05	
24	1.200000e+00	1.733304e+05	
25	1.250000e+00	2.000506e+05	
26	1.300000e+00	2.271531e+05	
27	1.350000e+00	2.544072e+05	
28	1.400000e+00	2.816542e+05	
29	1.450000e+00	3.087839e+05	
30	1.500000e+00	3.357195e+05	
31	1.550000e+00	3.624068e+05	
32	1.600000e+00	3.888077e+05	
33	1.650000e+00	4.148958e+05	
34	1.700000e+00	4.406528e+05	
35	1.750000e+00	4.660663e+05	
36	1.800000e+00	4.911285e+05	
37	1.850000e+00	5.158351e+05	
38	1.900000e+00	5.401842e+05	
39	1.950000e+00	5.641757e+05	
40	2.000000e+00	5.878112e+05	
41	2.050000e+00	6.110931e+05	
42	2.100000e+00	6.340249e+05	
43	2.150000e+00	6.566107e+05	
44	2.200000e+00	6.788548e+05	
45	2.250000e+00	7.007622e+05	
46	2.300000e+00	7.223376e+05	
47	2.350000e+00	7.435858e+05	
48	2.400000e+00	7.645111e+05	
49	2.450000e+00	7.851169e+05	
50	2.500000e+00	8.054051e+05	
51	2.550000e+00	8.253753e+05	
52	2.600000e+00	8.450233e+05	
53	2.650000e+00	8.643399e+05	
54	2.700000e+00	8.833083e+05	

Index   v-sweep         rds             
--------------------------------------------------------------------------------
55	2.750000e+00	9.019019e+05	
56	2.800000e+00	9.200809e+05	
57	2.850000e+00	9.377879e+05	
58	2.900000e+00	9.549444e+05	
59	2.950000e+00	9.714450e+05	
60	3.000000e+00	9.871523e+05	
61	3.050000e+00	1.001892e+06	
62	3.100000e+00	1.015447e+06	
63	3.150000e+00	1.027554e+06	
64	3.200000e+00	1.037903e+06	
65	3.250000e+00	1.046137e+06	
66	3.300000e+00	1.051855e+06	
Reset re-loads circuit ***************************

Circuit: ***************************

Doing analysis at TEMP = -40.000000 and TNOM = -40.000000


No. of Data Rows : 67
                          ***************************
                          DC transfer characteristic  Mon Jan  9 13:57:20  2023
--------------------------------------------------------------------------------
Index   v-sweep         rds             
--------------------------------------------------------------------------------
0	0.000000e+00	7.664926e+03	
1	5.000000e-02	8.085569e+03	
2	1.000000e-01	8.534569e+03	
3	1.500000e-01	9.014756e+03	
4	2.000000e-01	9.529361e+03	
5	2.500000e-01	1.008208e+04	
6	3.000000e-01	1.067719e+04	
7	3.500000e-01	1.131964e+04	
8	4.000000e-01	1.201522e+04	
9	4.500000e-01	1.277075e+04	
10	5.000000e-01	1.359438e+04	
11	5.500000e-01	1.449595e+04	
12	6.000000e-01	1.548757e+04	
13	6.500000e-01	1.658450e+04	
14	7.000000e-01	1.780654e+04	
15	7.500000e-01	1.918049e+04	
16	8.000000e-01	2.074457e+04	
17	8.500000e-01	2.255690e+04	
18	9.000000e-01	2.471186e+04	
19	9.500000e-01	2.737118e+04	
20	1.000000e+00	3.081622e+04	
21	1.050000e+00	3.550849e+04	
22	1.100000e+00	4.208385e+04	
23	1.150000e+00	5.116145e+04	
24	1.200000e+00	6.302446e+04	
25	1.250000e+00	7.748626e+04	
26	1.300000e+00	9.405935e+04	
27	1.350000e+00	1.121966e+05	
28	1.400000e+00	1.314264e+05	
29	1.450000e+00	1.513866e+05	
30	1.500000e+00	1.718125e+05	
31	1.550000e+00	1.925135e+05	
32	1.600000e+00	2.133531e+05	
33	1.650000e+00	2.342326e+05	
34	1.700000e+00	2.550804e+05	
35	1.750000e+00	2.758438e+05	
36	1.800000e+00	2.964840e+05	
37	1.850000e+00	3.169725e+05	
38	1.900000e+00	3.372877e+05	
39	1.950000e+00	3.574140e+05	
40	2.000000e+00	3.773396e+05	
41	2.050000e+00	3.970562e+05	
42	2.100000e+00	4.165578e+05	
43	2.150000e+00	4.358402e+05	
44	2.200000e+00	4.549008e+05	
45	2.250000e+00	4.737383e+05	
46	2.300000e+00	4.923521e+05	
47	2.350000e+00	5.107424e+05	
48	2.400000e+00	5.289100e+05	
49	2.450000e+00	5.468561e+05	
50	2.500000e+00	5.645821e+05	
51	2.550000e+00	5.820893e+05	
52	2.600000e+00	5.993789e+05	
53	2.650000e+00	6.164514e+05	
54	2.700000e+00	6.333058e+05	

Index   v-sweep         rds             
--------------------------------------------------------------------------------
55	2.750000e+00	6.499395e+05	
56	2.800000e+00	6.663464e+05	
57	2.850000e+00	6.825157e+05	
58	2.900000e+00	6.984303e+05	
59	2.950000e+00	7.140638e+05	
60	3.000000e+00	7.293778e+05	
61	3.050000e+00	7.443183e+05	
62	3.100000e+00	7.588111e+05	
63	3.150000e+00	7.727581e+05	
64	3.200000e+00	7.860312e+05	
65	3.250000e+00	7.984685e+05	
66	3.300000e+00	8.098690e+05	
Reset re-loads circuit ***************************

Circuit: ***************************

Doing analysis at TEMP = -40.000000 and TNOM = -40.000000


No. of Data Rows : 67
                          ***************************
                          DC transfer characteristic  Mon Jan  9 13:57:20  2023
--------------------------------------------------------------------------------
Index   v-sweep         rds             
--------------------------------------------------------------------------------
0	0.000000e+00	6.899032e+03	
1	5.000000e-02	7.221820e+03	
2	1.000000e-01	7.562469e+03	
3	1.500000e-01	7.922419e+03	
4	2.000000e-01	8.303274e+03	
5	2.500000e-01	8.706825e+03	
6	3.000000e-01	9.135081e+03	
7	3.500000e-01	9.590300e+03	
8	4.000000e-01	1.007504e+04	
9	4.500000e-01	1.059219e+04	
10	5.000000e-01	1.114508e+04	
11	5.500000e-01	1.173753e+04	
12	6.000000e-01	1.237398e+04	
13	6.500000e-01	1.305965e+04	
14	7.000000e-01	1.380073e+04	
15	7.500000e-01	1.460478e+04	
16	8.000000e-01	1.548114e+04	
17	8.500000e-01	1.644182e+04	
18	9.000000e-01	1.750281e+04	
19	9.500000e-01	1.868651e+04	
20	1.000000e+00	2.002615e+04	
21	1.050000e+00	2.157393e+04	
22	1.100000e+00	2.341611e+04	
23	1.150000e+00	2.569896e+04	
24	1.200000e+00	2.866621e+04	
25	1.250000e+00	3.268954e+04	
26	1.300000e+00	3.823695e+04	
27	1.350000e+00	4.572533e+04	
28	1.400000e+00	5.532772e+04	
29	1.450000e+00	6.691170e+04	
30	1.500000e+00	8.014723e+04	
31	1.550000e+00	9.465400e+04	
32	1.600000e+00	1.100910e+05	
33	1.650000e+00	1.261853e+05	
34	1.700000e+00	1.427300e+05	
35	1.750000e+00	1.595712e+05	
36	1.800000e+00	1.765950e+05	
37	1.850000e+00	1.937173e+05	
38	1.900000e+00	2.108752e+05	
39	1.950000e+00	2.280216e+05	
40	2.000000e+00	2.451205e+05	
41	2.050000e+00	2.621450e+05	
42	2.100000e+00	2.790740e+05	
43	2.150000e+00	2.958916e+05	
44	2.200000e+00	3.125856e+05	
45	2.250000e+00	3.291464e+05	
46	2.300000e+00	3.455668e+05	
47	2.350000e+00	3.618414e+05	
48	2.400000e+00	3.779661e+05	
49	2.450000e+00	3.939380e+05	
50	2.500000e+00	4.097549e+05	
51	2.550000e+00	4.254156e+05	
52	2.600000e+00	4.409191e+05	
53	2.650000e+00	4.562652e+05	
54	2.700000e+00	4.714535e+05	

Index   v-sweep         rds             
--------------------------------------------------------------------------------
55	2.750000e+00	4.864841e+05	
56	2.800000e+00	5.013564e+05	
57	2.850000e+00	5.160695e+05	
58	2.900000e+00	5.306211e+05	
59	2.950000e+00	5.450071e+05	
60	3.000000e+00	5.592201e+05	
61	3.050000e+00	5.732484e+05	
62	3.100000e+00	5.870739e+05	
63	3.150000e+00	6.006696e+05	
64	3.200000e+00	6.139968e+05	
65	3.250000e+00	6.270019e+05	
66	3.300000e+00	6.396118e+05	
Reset re-loads circuit ***************************

Circuit: ***************************

Note: No ".plot", ".print", or ".fourier" lines; no simulations run
