
Note: Compatibility modes selected: hs

Warning: m=xx on .subckt line will override multiplier m hierarchy!


Circuit: ***************************

Doing analysis at TEMP = -40.000000 and TNOM = -40.000000


No. of Data Rows : 67
                          ***************************
                          DC transfer characteristic  Mon Jan  9 13:57:20  2023
--------------------------------------------------------------------------------
Index   v-sweep         rds             
--------------------------------------------------------------------------------
0	0.000000e+00	1.008182e+06	
1	5.000000e-02	1.930192e+06	
2	1.000000e-01	9.022106e+06	
3	1.500000e-01	1.055667e+08	
4	2.000000e-01	3.385978e+08	
5	2.500000e-01	5.393573e+08	
6	3.000000e-01	6.768846e+08	
7	3.500000e-01	7.729154e+08	
8	4.000000e-01	8.435946e+08	
9	4.500000e-01	8.980269e+08	
10	5.000000e-01	9.414295e+08	
11	5.500000e-01	9.769681e+08	
12	6.000000e-01	1.006676e+09	
13	6.500000e-01	1.031923e+09	
14	7.000000e-01	1.053671e+09	
15	7.500000e-01	1.072618e+09	
16	8.000000e-01	1.089282e+09	
17	8.500000e-01	1.104060e+09	
18	9.000000e-01	1.117259e+09	
19	9.500000e-01	1.129123e+09	
20	1.000000e+00	1.139846e+09	
21	1.050000e+00	1.149588e+09	
22	1.100000e+00	1.158477e+09	
23	1.150000e+00	1.166621e+09	
24	1.200000e+00	1.174112e+09	
25	1.250000e+00	1.181024e+09	
26	1.300000e+00	1.187422e+09	
27	1.350000e+00	1.193362e+09	
28	1.400000e+00	1.198892e+09	
29	1.450000e+00	1.204051e+09	
30	1.500000e+00	1.208877e+09	
31	1.550000e+00	1.213400e+09	
32	1.600000e+00	1.217647e+09	
33	1.650000e+00	1.221643e+09	
34	1.700000e+00	1.225408e+09	
35	1.750000e+00	1.228960e+09	
36	1.800000e+00	1.232314e+09	
37	1.850000e+00	1.235484e+09	
38	1.900000e+00	1.238480e+09	
39	1.950000e+00	1.241308e+09	
40	2.000000e+00	1.243975e+09	
41	2.050000e+00	1.246482e+09	
42	2.100000e+00	1.248826e+09	
43	2.150000e+00	1.251003e+09	
44	2.200000e+00	1.253004e+09	
45	2.250000e+00	1.254814e+09	
46	2.300000e+00	1.256415e+09	
47	2.350000e+00	1.257782e+09	
48	2.400000e+00	1.258887e+09	
49	2.450000e+00	1.259692e+09	
50	2.500000e+00	1.260157e+09	
51	2.550000e+00	1.260233e+09	
52	2.600000e+00	1.259866e+09	
53	2.650000e+00	1.258995e+09	
54	2.700000e+00	1.257553e+09	

Index   v-sweep         rds             
--------------------------------------------------------------------------------
55	2.750000e+00	1.255469e+09	
56	2.800000e+00	1.252665e+09	
57	2.850000e+00	1.249062e+09	
58	2.900000e+00	1.244576e+09	
59	2.950000e+00	1.239124e+09	
60	3.000000e+00	1.232623e+09	
61	3.050000e+00	1.224993e+09	
62	3.100000e+00	1.216157e+09	
63	3.150000e+00	1.206048e+09	
64	3.200000e+00	1.194605e+09	
65	3.250000e+00	1.181782e+09	
66	3.300000e+00	1.167543e+09	
Reset re-loads circuit ***************************

Circuit: ***************************

Doing analysis at TEMP = -40.000000 and TNOM = -40.000000


No. of Data Rows : 67
                          ***************************
                          DC transfer characteristic  Mon Jan  9 13:57:20  2023
--------------------------------------------------------------------------------
Index   v-sweep         rds             
--------------------------------------------------------------------------------
0	0.000000e+00	1.867454e+05	
1	5.000000e-02	2.099366e+05	
2	1.000000e-01	2.394699e+05	
3	1.500000e-01	2.783545e+05	
4	2.000000e-01	3.318540e+05	
5	2.500000e-01	4.100648e+05	
6	3.000000e-01	5.349955e+05	
7	3.500000e-01	7.644043e+05	
8	4.000000e-01	1.296556e+06	
9	4.500000e-01	3.012387e+06	
10	5.000000e-01	8.659568e+06	
11	5.500000e-01	1.948567e+07	
12	6.000000e-01	3.237367e+07	
13	6.500000e-01	4.491719e+07	
14	7.000000e-01	5.638707e+07	
15	7.500000e-01	6.671590e+07	
16	8.000000e-01	7.601029e+07	
17	8.500000e-01	8.440381e+07	
18	9.000000e-01	9.201912e+07	
19	9.500000e-01	9.896074e+07	
20	1.000000e+00	1.053161e+08	
21	1.050000e+00	1.111581e+08	
22	1.100000e+00	1.165480e+08	
23	1.150000e+00	1.215372e+08	
24	1.200000e+00	1.261698e+08	
25	1.250000e+00	1.304832e+08	
26	1.300000e+00	1.345099e+08	
27	1.350000e+00	1.382777e+08	
28	1.400000e+00	1.418113e+08	
29	1.450000e+00	1.451319e+08	
30	1.500000e+00	1.482584e+08	
31	1.550000e+00	1.512075e+08	
32	1.600000e+00	1.539939e+08	
33	1.650000e+00	1.566309e+08	
34	1.700000e+00	1.591301e+08	
35	1.750000e+00	1.615021e+08	
36	1.800000e+00	1.637565e+08	
37	1.850000e+00	1.659016e+08	
38	1.900000e+00	1.679453e+08	
39	1.950000e+00	1.698945e+08	
40	2.000000e+00	1.717552e+08	
41	2.050000e+00	1.735331e+08	
42	2.100000e+00	1.752330e+08	
43	2.150000e+00	1.768588e+08	
44	2.200000e+00	1.784140e+08	
45	2.250000e+00	1.799009e+08	
46	2.300000e+00	1.813210e+08	
47	2.350000e+00	1.826746e+08	
48	2.400000e+00	1.839606e+08	
49	2.450000e+00	1.851765e+08	
50	2.500000e+00	1.863178e+08	
51	2.550000e+00	1.873782e+08	
52	2.600000e+00	1.883490e+08	
53	2.650000e+00	1.892192e+08	
54	2.700000e+00	1.899748e+08	

Index   v-sweep         rds             
--------------------------------------------------------------------------------
55	2.750000e+00	1.905992e+08	
56	2.800000e+00	1.910727e+08	
57	2.850000e+00	1.913727e+08	
58	2.900000e+00	1.914737e+08	
59	2.950000e+00	1.913480e+08	
60	3.000000e+00	1.909657e+08	
61	3.050000e+00	1.902956e+08	
62	3.100000e+00	1.893062e+08	
63	3.150000e+00	1.879669e+08	
64	3.200000e+00	1.862491e+08	
65	3.250000e+00	1.841280e+08	
66	3.300000e+00	1.815839e+08	
Reset re-loads circuit ***************************

Circuit: ***************************

Doing analysis at TEMP = -40.000000 and TNOM = -40.000000


No. of Data Rows : 67
                          ***************************
                          DC transfer characteristic  Mon Jan  9 13:57:20  2023
--------------------------------------------------------------------------------
Index   v-sweep         rds             
--------------------------------------------------------------------------------
0	0.000000e+00	1.068794e+05	
1	5.000000e-02	1.138555e+05	
2	1.000000e-01	1.217503e+05	
3	1.500000e-01	1.307580e+05	
4	2.000000e-01	1.411318e+05	
5	2.500000e-01	1.532075e+05	
6	3.000000e-01	1.674412e+05	
7	3.500000e-01	1.844677e+05	
8	4.000000e-01	2.051974e+05	
9	4.500000e-01	2.309841e+05	
10	5.000000e-01	2.639310e+05	
11	5.500000e-01	3.074892e+05	
12	6.000000e-01	3.677294e+05	
13	6.500000e-01	4.563444e+05	
14	7.000000e-01	5.987013e+05	
15	7.500000e-01	8.585792e+05	
16	8.000000e-01	1.416857e+06	
17	8.500000e-01	2.717845e+06	
18	9.000000e-01	5.239128e+06	
19	9.500000e-01	8.798531e+06	
20	1.000000e+00	1.283653e+07	
21	1.050000e+00	1.696285e+07	
22	1.100000e+00	2.099324e+07	
23	1.150000e+00	2.485374e+07	
24	1.200000e+00	2.852013e+07	
25	1.250000e+00	3.198983e+07	
26	1.300000e+00	3.526949e+07	
27	1.350000e+00	3.836950e+07	
28	1.400000e+00	4.130147e+07	
29	1.450000e+00	4.407703e+07	
30	1.500000e+00	4.670734e+07	
31	1.550000e+00	4.920283e+07	
32	1.600000e+00	5.157316e+07	
33	1.650000e+00	5.382722e+07	
34	1.700000e+00	5.597314e+07	
35	1.750000e+00	5.801837e+07	
36	1.800000e+00	5.996971e+07	
37	1.850000e+00	6.183341e+07	
38	1.900000e+00	6.361518e+07	
39	1.950000e+00	6.532024e+07	
40	2.000000e+00	6.695342e+07	
41	2.050000e+00	6.851912e+07	
42	2.100000e+00	7.002141e+07	
43	2.150000e+00	7.146405e+07	
44	2.200000e+00	7.285048e+07	
45	2.250000e+00	7.418387e+07	
46	2.300000e+00	7.546713e+07	
47	2.350000e+00	7.670292e+07	
48	2.400000e+00	7.789362e+07	
49	2.450000e+00	7.904133e+07	
50	2.500000e+00	8.014782e+07	
51	2.550000e+00	8.121448e+07	
52	2.600000e+00	8.224227e+07	
53	2.650000e+00	8.323158e+07	
54	2.700000e+00	8.418215e+07	

Index   v-sweep         rds             
--------------------------------------------------------------------------------
55	2.750000e+00	8.509291e+07	
56	2.800000e+00	8.596182e+07	
57	2.850000e+00	8.678568e+07	
58	2.900000e+00	8.755996e+07	
59	2.950000e+00	8.827860e+07	
60	3.000000e+00	8.893378e+07	
61	3.050000e+00	8.951582e+07	
62	3.100000e+00	9.001298e+07	
63	3.150000e+00	9.041145e+07	
64	3.200000e+00	9.069535e+07	
65	3.250000e+00	9.084687e+07	
66	3.300000e+00	9.084660e+07	
Reset re-loads circuit ***************************

Circuit: ***************************

Doing analysis at TEMP = -40.000000 and TNOM = -40.000000


No. of Data Rows : 67
                          ***************************
                          DC transfer characteristic  Mon Jan  9 13:57:20  2023
--------------------------------------------------------------------------------
Index   v-sweep         rds             
--------------------------------------------------------------------------------
0	0.000000e+00	7.874603e+04	
1	5.000000e-02	8.219667e+04	
2	1.000000e-01	8.593931e+04	
3	1.500000e-01	9.001262e+04	
4	2.000000e-01	9.446242e+04	
5	2.500000e-01	9.934341e+04	
6	3.000000e-01	1.047214e+05	
7	3.500000e-01	1.106763e+05	
8	4.000000e-01	1.173063e+05	
9	4.500000e-01	1.247329e+05	
10	5.000000e-01	1.331088e+05	
11	5.500000e-01	1.426283e+05	
12	6.000000e-01	1.535429e+05	
13	6.500000e-01	1.661833e+05	
14	7.000000e-01	1.809938e+05	
15	7.500000e-01	1.985855e+05	
16	8.000000e-01	2.198226e+05	
17	8.500000e-01	2.459685e+05	
18	9.000000e-01	2.789453e+05	
19	9.500000e-01	3.218253e+05	
20	1.000000e+00	3.798309e+05	
21	1.050000e+00	4.625510e+05	
22	1.100000e+00	5.893241e+05	
23	1.150000e+00	8.030278e+05	
24	1.200000e+00	1.200742e+06	
25	1.250000e+00	1.955230e+06	
26	1.300000e+00	3.204525e+06	
27	1.350000e+00	4.891012e+06	
28	1.400000e+00	6.841948e+06	
29	1.450000e+00	8.910195e+06	
30	1.500000e+00	1.100564e+07	
31	1.550000e+00	1.307890e+07	
32	1.600000e+00	1.510415e+07	
33	1.650000e+00	1.706843e+07	
34	1.700000e+00	1.896589e+07	
35	1.750000e+00	2.079465e+07	
36	1.800000e+00	2.255500e+07	
37	1.850000e+00	2.424850e+07	
38	1.900000e+00	2.587738e+07	
39	1.950000e+00	2.744421e+07	
40	2.000000e+00	2.895172e+07	
41	2.050000e+00	3.040267e+07	
42	2.100000e+00	3.179977e+07	
43	2.150000e+00	3.314566e+07	
44	2.200000e+00	3.444286e+07	
45	2.250000e+00	3.569379e+07	
46	2.300000e+00	3.690073e+07	
47	2.350000e+00	3.806586e+07	
48	2.400000e+00	3.919121e+07	
49	2.450000e+00	4.027870e+07	
50	2.500000e+00	4.133016e+07	
51	2.550000e+00	4.234729e+07	
52	2.600000e+00	4.333169e+07	
53	2.650000e+00	4.428484e+07	
54	2.700000e+00	4.520815e+07	

Index   v-sweep         rds             
--------------------------------------------------------------------------------
55	2.750000e+00	4.610287e+07	
56	2.800000e+00	4.697014e+07	
57	2.850000e+00	4.781095e+07	
58	2.900000e+00	4.862607e+07	
59	2.950000e+00	4.941605e+07	
60	3.000000e+00	5.018111e+07	
61	3.050000e+00	5.092110e+07	
62	3.100000e+00	5.163535e+07	
63	3.150000e+00	5.232259e+07	
64	3.200000e+00	5.298077e+07	
65	3.250000e+00	5.360696e+07	
66	3.300000e+00	5.419713e+07	
Reset re-loads circuit ***************************

Circuit: ***************************

Doing analysis at TEMP = -40.000000 and TNOM = -40.000000


No. of Data Rows : 67
                          ***************************
                          DC transfer characteristic  Mon Jan  9 13:57:20  2023
--------------------------------------------------------------------------------
Index   v-sweep         rds             
--------------------------------------------------------------------------------
0	0.000000e+00	6.529194e+04	
1	5.000000e-02	6.742045e+04	
2	1.000000e-01	6.967892e+04	
3	1.500000e-01	7.207962e+04	
4	2.000000e-01	7.463639e+04	
5	2.500000e-01	7.736495e+04	
6	3.000000e-01	8.028321e+04	
7	3.500000e-01	8.341164e+04	
8	4.000000e-01	8.677378e+04	
9	4.500000e-01	9.039680e+04	
10	5.000000e-01	9.431229e+04	
11	5.500000e-01	9.855713e+04	
12	6.000000e-01	1.031747e+05	
13	6.500000e-01	1.082162e+05	
14	7.000000e-01	1.137430e+05	
15	7.500000e-01	1.198285e+05	
16	8.000000e-01	1.265620e+05	
17	8.500000e-01	1.340529e+05	
18	9.000000e-01	1.424365e+05	
19	9.500000e-01	1.518825e+05	
20	1.000000e+00	1.626066e+05	
21	1.050000e+00	1.748873e+05	
22	1.100000e+00	1.890903e+05	
23	1.150000e+00	2.057059e+05	
24	1.200000e+00	2.254073e+05	
25	1.250000e+00	2.491447e+05	
26	1.300000e+00	2.783051e+05	
27	1.350000e+00	3.149971e+05	
28	1.400000e+00	3.625909e+05	
29	1.450000e+00	4.268162e+05	
30	1.500000e+00	5.181542e+05	
31	1.550000e+00	6.572229e+05	
32	1.600000e+00	8.855717e+05	
33	1.650000e+00	1.276078e+06	
34	1.700000e+00	1.908388e+06	
35	1.750000e+00	2.801182e+06	
36	1.800000e+00	3.898529e+06	
37	1.850000e+00	5.123470e+06	
38	1.900000e+00	6.414643e+06	
39	1.950000e+00	7.731519e+06	
40	2.000000e+00	9.049064e+06	
41	2.050000e+00	1.035217e+07	
42	2.100000e+00	1.163186e+07	
43	2.150000e+00	1.288289e+07	
44	2.200000e+00	1.410236e+07	
45	2.250000e+00	1.528885e+07	
46	2.300000e+00	1.644185e+07	
47	2.350000e+00	1.756146e+07	
48	2.400000e+00	1.864818e+07	
49	2.450000e+00	1.970273e+07	
50	2.500000e+00	2.072600e+07	
51	2.550000e+00	2.171895e+07	
52	2.600000e+00	2.268260e+07	
53	2.650000e+00	2.361797e+07	
54	2.700000e+00	2.452611e+07	

Index   v-sweep         rds             
--------------------------------------------------------------------------------
55	2.750000e+00	2.540802e+07	
56	2.800000e+00	2.626471e+07	
57	2.850000e+00	2.709713e+07	
58	2.900000e+00	2.790621e+07	
59	2.950000e+00	2.869285e+07	
60	3.000000e+00	2.945790e+07	
61	3.050000e+00	3.020217e+07	
62	3.100000e+00	3.092643e+07	
63	3.150000e+00	3.163139e+07	
64	3.200000e+00	3.231768e+07	
65	3.250000e+00	3.298585e+07	
66	3.300000e+00	3.363632e+07	
Reset re-loads circuit ***************************

Circuit: ***************************

Doing analysis at TEMP = -40.000000 and TNOM = -40.000000


No. of Data Rows : 67
                          ***************************
                          DC transfer characteristic  Mon Jan  9 13:57:20  2023
--------------------------------------------------------------------------------
Index   v-sweep         rds             
--------------------------------------------------------------------------------
0	0.000000e+00	5.801674e+04	
1	5.000000e-02	5.950356e+04	
2	1.000000e-01	6.106007e+04	
3	1.500000e-01	6.269127e+04	
4	2.000000e-01	6.440266e+04	
5	2.500000e-01	6.620030e+04	
6	3.000000e-01	6.809087e+04	
7	3.500000e-01	7.008175e+04	
8	4.000000e-01	7.218114e+04	
9	4.500000e-01	7.439814e+04	
10	5.000000e-01	7.674292e+04	
11	5.500000e-01	7.922683e+04	
12	6.000000e-01	8.186263e+04	
13	6.500000e-01	8.466468e+04	
14	7.000000e-01	8.764920e+04	
15	7.500000e-01	9.083461e+04	
16	8.000000e-01	9.424188e+04	
17	8.500000e-01	9.789502e+04	
18	9.000000e-01	1.018216e+05	
19	9.500000e-01	1.060536e+05	
20	1.000000e+00	1.106279e+05	
21	1.050000e+00	1.155880e+05	
22	1.100000e+00	1.209846e+05	
23	1.150000e+00	1.268783e+05	
24	1.200000e+00	1.333408e+05	
25	1.250000e+00	1.404588e+05	
26	1.300000e+00	1.483375e+05	
27	1.350000e+00	1.571059e+05	
28	1.400000e+00	1.669237e+05	
29	1.450000e+00	1.779919e+05	
30	1.500000e+00	1.905664e+05	
31	1.550000e+00	2.049784e+05	
32	1.600000e+00	2.216645e+05	
33	1.650000e+00	2.412137e+05	
34	1.700000e+00	2.644400e+05	
35	1.750000e+00	2.925050e+05	
36	1.800000e+00	3.271290e+05	
37	1.850000e+00	3.709831e+05	
38	1.900000e+00	4.284553e+05	
39	1.950000e+00	5.072332e+05	
40	2.000000e+00	6.215507e+05	
41	2.050000e+00	7.977415e+05	
42	2.100000e+00	1.077847e+06	
43	2.150000e+00	1.506159e+06	
44	2.200000e+00	2.097770e+06	
45	2.250000e+00	2.828660e+06	
46	2.300000e+00	3.657710e+06	
47	2.350000e+00	4.547258e+06	
48	2.400000e+00	5.469516e+06	
49	2.450000e+00	6.405640e+06	
50	2.500000e+00	7.343235e+06	
51	2.550000e+00	8.274234e+06	
52	2.600000e+00	9.193412e+06	
53	2.650000e+00	1.009742e+07	
54	2.700000e+00	1.098414e+07	

Index   v-sweep         rds             
--------------------------------------------------------------------------------
55	2.750000e+00	1.185232e+07	
56	2.800000e+00	1.270124e+07	
57	2.850000e+00	1.353059e+07	
58	2.900000e+00	1.434033e+07	
59	2.950000e+00	1.513060e+07	
60	3.000000e+00	1.590168e+07	
61	3.050000e+00	1.665393e+07	
62	3.100000e+00	1.738777e+07	
63	3.150000e+00	1.810366e+07	
64	3.200000e+00	1.880208e+07	
65	3.250000e+00	1.948352e+07	
66	3.300000e+00	2.014847e+07	
Reset re-loads circuit ***************************

Circuit: ***************************

Note: No ".plot", ".print", or ".fourier" lines; no simulations run
