
Note: Compatibility modes selected: hs

Warning: m=xx on .subckt line will override multiplier m hierarchy!


Circuit: ***************************

Doing analysis at TEMP = 25.000000 and TNOM = 25.000000


No. of Data Rows : 67
                          ***************************
                          DC transfer characteristic  Mon Jan  9 13:57:19  2023
--------------------------------------------------------------------------------
Index   v-sweep         rds             
--------------------------------------------------------------------------------
0	0.000000e+00	1.728889e+05	
1	5.000000e-02	2.393861e+05	
2	1.000000e-01	3.793242e+05	
3	1.500000e-01	8.019938e+05	
4	2.000000e-01	2.590582e+06	
5	2.500000e-01	6.879549e+06	
6	3.000000e-01	1.155999e+07	
7	3.500000e-01	1.558171e+07	
8	4.000000e-01	1.903068e+07	
9	4.500000e-01	2.206061e+07	
10	5.000000e-01	2.477027e+07	
11	5.500000e-01	2.722227e+07	
12	6.000000e-01	2.945930e+07	
13	6.500000e-01	3.151255e+07	
14	7.000000e-01	3.340606e+07	
15	7.500000e-01	3.515906e+07	
16	8.000000e-01	3.678739e+07	
17	8.500000e-01	3.830432e+07	
18	9.000000e-01	3.972115e+07	
19	9.500000e-01	4.104759e+07	
20	1.000000e+00	4.229208e+07	
21	1.050000e+00	4.346201e+07	
22	1.100000e+00	4.456387e+07	
23	1.150000e+00	4.560340e+07	
24	1.200000e+00	4.658570e+07	
25	1.250000e+00	4.751535e+07	
26	1.300000e+00	4.839640e+07	
27	1.350000e+00	4.923254e+07	
28	1.400000e+00	5.002706e+07	
29	1.450000e+00	5.078294e+07	
30	1.500000e+00	5.150290e+07	
31	1.550000e+00	5.218939e+07	
32	1.600000e+00	5.284464e+07	
33	1.650000e+00	5.347066e+07	
34	1.700000e+00	5.406931e+07	
35	1.750000e+00	5.464223e+07	
36	1.800000e+00	5.519090e+07	
37	1.850000e+00	5.571660e+07	
38	1.900000e+00	5.622046e+07	
39	1.950000e+00	5.670335e+07	
40	2.000000e+00	5.716594e+07	
41	2.050000e+00	5.760860e+07	
42	2.100000e+00	5.803142e+07	
43	2.150000e+00	5.843410e+07	
44	2.200000e+00	5.881593e+07	
45	2.250000e+00	5.917572e+07	
46	2.300000e+00	5.951174e+07	
47	2.350000e+00	5.982164e+07	
48	2.400000e+00	6.010241e+07	
49	2.450000e+00	6.035029e+07	
50	2.500000e+00	6.056077e+07	
51	2.550000e+00	6.072852e+07	
52	2.600000e+00	6.084742e+07	
53	2.650000e+00	6.091055e+07	
54	2.700000e+00	6.091031e+07	

Index   v-sweep         rds             
--------------------------------------------------------------------------------
55	2.750000e+00	6.083848e+07	
56	2.800000e+00	6.068639e+07	
57	2.850000e+00	6.044518e+07	
58	2.900000e+00	6.010602e+07	
59	2.950000e+00	5.966048e+07	
60	3.000000e+00	5.910086e+07	
61	3.050000e+00	5.842062e+07	
62	3.100000e+00	5.761479e+07	
63	3.150000e+00	5.668032e+07	
64	3.200000e+00	5.561647e+07	
65	3.250000e+00	5.442501e+07	
66	3.300000e+00	5.311041e+07	
Reset re-loads circuit ***************************

Circuit: ***************************

Doing analysis at TEMP = 25.000000 and TNOM = 25.000000


No. of Data Rows : 67
                          ***************************
                          DC transfer characteristic  Mon Jan  9 13:57:20  2023
--------------------------------------------------------------------------------
Index   v-sweep         rds             
--------------------------------------------------------------------------------
0	0.000000e+00	4.679737e+04	
1	5.000000e-02	5.175439e+04	
2	1.000000e-01	5.770347e+04	
3	1.500000e-01	6.497399e+04	
4	2.000000e-01	7.405877e+04	
5	2.500000e-01	8.572884e+04	
6	3.000000e-01	1.012593e+05	
7	3.500000e-01	1.229095e+05	
8	4.000000e-01	1.550420e+05	
9	4.500000e-01	2.069412e+05	
10	5.000000e-01	2.996735e+05	
11	5.500000e-01	4.743342e+05	
12	6.000000e-01	7.653249e+05	
13	6.500000e-01	1.144409e+06	
14	7.000000e-01	1.558218e+06	
15	7.500000e-01	1.976691e+06	
16	8.000000e-01	2.388268e+06	
17	8.500000e-01	2.788949e+06	
18	9.000000e-01	3.177491e+06	
19	9.500000e-01	3.553691e+06	
20	1.000000e+00	3.917758e+06	
21	1.050000e+00	4.270069e+06	
22	1.100000e+00	4.611067e+06	
23	1.150000e+00	4.941213e+06	
24	1.200000e+00	5.260968e+06	
25	1.250000e+00	5.570777e+06	
26	1.300000e+00	5.871071e+06	
27	1.350000e+00	6.162259e+06	
28	1.400000e+00	6.444733e+06	
29	1.450000e+00	6.718862e+06	
30	1.500000e+00	6.985000e+06	
31	1.550000e+00	7.243480e+06	
32	1.600000e+00	7.494617e+06	
33	1.650000e+00	7.738712e+06	
34	1.700000e+00	7.976050e+06	
35	1.750000e+00	8.206899e+06	
36	1.800000e+00	8.431515e+06	
37	1.850000e+00	8.650141e+06	
38	1.900000e+00	8.863007e+06	
39	1.950000e+00	9.070329e+06	
40	2.000000e+00	9.272311e+06	
41	2.050000e+00	9.469139e+06	
42	2.100000e+00	9.660986e+06	
43	2.150000e+00	9.848002e+06	
44	2.200000e+00	1.003031e+07	
45	2.250000e+00	1.020799e+07	
46	2.300000e+00	1.038110e+07	
47	2.350000e+00	1.054960e+07	
48	2.400000e+00	1.071341e+07	
49	2.450000e+00	1.087232e+07	
50	2.500000e+00	1.102603e+07	
51	2.550000e+00	1.117405e+07	
52	2.600000e+00	1.131573e+07	
53	2.650000e+00	1.145020e+07	
54	2.700000e+00	1.157634e+07	

Index   v-sweep         rds             
--------------------------------------------------------------------------------
55	2.750000e+00	1.169275e+07	
56	2.800000e+00	1.179771e+07	
57	2.850000e+00	1.188920e+07	
58	2.900000e+00	1.196483e+07	
59	2.950000e+00	1.202192e+07	
60	3.000000e+00	1.205748e+07	
61	3.050000e+00	1.206832e+07	
62	3.100000e+00	1.205112e+07	
63	3.150000e+00	1.200254e+07	
64	3.200000e+00	1.191946e+07	
65	3.250000e+00	1.179909e+07	
66	3.300000e+00	1.163924e+07	
Reset re-loads circuit ***************************

Circuit: ***************************

Doing analysis at TEMP = 25.000000 and TNOM = 25.000000


No. of Data Rows : 67
                          ***************************
                          DC transfer characteristic  Mon Jan  9 13:57:20  2023
--------------------------------------------------------------------------------
Index   v-sweep         rds             
--------------------------------------------------------------------------------
0	0.000000e+00	2.866092e+04	
1	5.000000e-02	3.053811e+04	
2	1.000000e-01	3.262177e+04	
3	1.500000e-01	3.494767e+04	
4	2.000000e-01	3.756038e+04	
5	2.500000e-01	4.051609e+04	
6	3.000000e-01	4.388675e+04	
7	3.500000e-01	4.776592e+04	
8	4.000000e-01	5.227760e+04	
9	4.500000e-01	5.758971e+04	
10	5.000000e-01	6.393550e+04	
11	5.500000e-01	7.164877e+04	
12	6.000000e-01	8.122489e+04	
13	6.500000e-01	9.343226e+04	
14	7.000000e-01	1.095293e+05	
15	7.500000e-01	1.317121e+05	
16	8.000000e-01	1.640355e+05	
17	8.500000e-01	2.138612e+05	
18	9.000000e-01	2.915343e+05	
19	9.500000e-01	4.030792e+05	
20	1.000000e+00	5.430469e+05	
21	1.050000e+00	7.004260e+05	
22	1.100000e+00	8.664038e+05	
23	1.150000e+00	1.035722e+06	
24	1.200000e+00	1.205497e+06	
25	1.250000e+00	1.374162e+06	
26	1.300000e+00	1.540849e+06	
27	1.350000e+00	1.705075e+06	
28	1.400000e+00	1.866573e+06	
29	1.450000e+00	2.025202e+06	
30	1.500000e+00	2.180899e+06	
31	1.550000e+00	2.333647e+06	
32	1.600000e+00	2.483459e+06	
33	1.650000e+00	2.630369e+06	
34	1.700000e+00	2.774422e+06	
35	1.750000e+00	2.915671e+06	
36	1.800000e+00	3.054174e+06	
37	1.850000e+00	3.189993e+06	
38	1.900000e+00	3.323190e+06	
39	1.950000e+00	3.453829e+06	
40	2.000000e+00	3.581972e+06	
41	2.050000e+00	3.707683e+06	
42	2.100000e+00	3.831022e+06	
43	2.150000e+00	3.952051e+06	
44	2.200000e+00	4.070827e+06	
45	2.250000e+00	4.187407e+06	
46	2.300000e+00	4.301847e+06	
47	2.350000e+00	4.414195e+06	
48	2.400000e+00	4.524499e+06	
49	2.450000e+00	4.632796e+06	
50	2.500000e+00	4.739116e+06	
51	2.550000e+00	4.843471e+06	
52	2.600000e+00	4.945856e+06	
53	2.650000e+00	5.046233e+06	
54	2.700000e+00	5.144528e+06	

Index   v-sweep         rds             
--------------------------------------------------------------------------------
55	2.750000e+00	5.240613e+06	
56	2.800000e+00	5.334292e+06	
57	2.850000e+00	5.425285e+06	
58	2.900000e+00	5.513205e+06	
59	2.950000e+00	5.597536e+06	
60	3.000000e+00	5.677611e+06	
61	3.050000e+00	5.752586e+06	
62	3.100000e+00	5.821423e+06	
63	3.150000e+00	5.882870e+06	
64	3.200000e+00	5.935454e+06	
65	3.250000e+00	5.977486e+06	
66	3.300000e+00	6.007083e+06	
Reset re-loads circuit ***************************

Circuit: ***************************

Doing analysis at TEMP = 25.000000 and TNOM = 25.000000


No. of Data Rows : 67
                          ***************************
                          DC transfer characteristic  Mon Jan  9 13:57:20  2023
--------------------------------------------------------------------------------
Index   v-sweep         rds             
--------------------------------------------------------------------------------
0	0.000000e+00	2.167936e+04	
1	5.000000e-02	2.273750e+04	
2	1.000000e-01	2.387599e+04	
3	1.500000e-01	2.510421e+04	
4	2.000000e-01	2.643309e+04	
5	2.500000e-01	2.787541e+04	
6	3.000000e-01	2.944621e+04	
7	3.500000e-01	3.116329e+04	
8	4.000000e-01	3.304796e+04	
9	4.500000e-01	3.512585e+04	
10	5.000000e-01	3.742813e+04	
11	5.500000e-01	3.999307e+04	
12	6.000000e-01	4.286826e+04	
13	6.500000e-01	4.611359e+04	
14	7.000000e-01	4.980561e+04	
15	7.500000e-01	5.404395e+04	
16	8.000000e-01	5.896101e+04	
17	8.500000e-01	6.473739e+04	
18	9.000000e-01	7.162782e+04	
19	9.500000e-01	8.000733e+04	
20	1.000000e+00	9.046027e+04	
21	1.050000e+00	1.039620e+05	
22	1.100000e+00	1.222457e+05	
23	1.150000e+00	1.483862e+05	
24	1.200000e+00	1.869504e+05	
25	1.250000e+00	2.419639e+05	
26	1.300000e+00	3.135239e+05	
27	1.350000e+00	3.978973e+05	
28	1.400000e+00	4.905556e+05	
29	1.450000e+00	5.880009e+05	
30	1.500000e+00	6.879445e+05	
31	1.550000e+00	7.889643e+05	
32	1.600000e+00	8.901809e+05	
33	1.650000e+00	9.910434e+05	
34	1.700000e+00	1.091201e+06	
35	1.750000e+00	1.190429e+06	
36	1.800000e+00	1.288580e+06	
37	1.850000e+00	1.385560e+06	
38	1.900000e+00	1.481309e+06	
39	1.950000e+00	1.575791e+06	
40	2.000000e+00	1.668985e+06	
41	2.050000e+00	1.760885e+06	
42	2.100000e+00	1.851490e+06	
43	2.150000e+00	1.940807e+06	
44	2.200000e+00	2.028846e+06	
45	2.250000e+00	2.115620e+06	
46	2.300000e+00	2.201146e+06	
47	2.350000e+00	2.285441e+06	
48	2.400000e+00	2.368525e+06	
49	2.450000e+00	2.450415e+06	
50	2.500000e+00	2.531132e+06	
51	2.550000e+00	2.610696e+06	
52	2.600000e+00	2.689126e+06	
53	2.650000e+00	2.766440e+06	
54	2.700000e+00	2.842653e+06	

Index   v-sweep         rds             
--------------------------------------------------------------------------------
55	2.750000e+00	2.917778e+06	
56	2.800000e+00	2.991820e+06	
57	2.850000e+00	3.064777e+06	
58	2.900000e+00	3.136630e+06	
59	2.950000e+00	3.207346e+06	
60	3.000000e+00	3.276859e+06	
61	3.050000e+00	3.345072e+06	
62	3.100000e+00	3.411837e+06	
63	3.150000e+00	3.476946e+06	
64	3.200000e+00	3.540112e+06	
65	3.250000e+00	3.600957e+06	
66	3.300000e+00	3.658986e+06	
Reset re-loads circuit ***************************

Circuit: ***************************

Doing analysis at TEMP = 25.000000 and TNOM = 25.000000


No. of Data Rows : 67
                          ***************************
                          DC transfer characteristic  Mon Jan  9 13:57:20  2023
--------------------------------------------------------------------------------
Index   v-sweep         rds             
--------------------------------------------------------------------------------
0	0.000000e+00	1.810645e+04	
1	5.000000e-02	1.881915e+04	
2	1.000000e-01	1.957308e+04	
3	1.500000e-01	2.037187e+04	
4	2.000000e-01	2.121957e+04	
5	2.500000e-01	2.212075e+04	
6	3.000000e-01	2.308057e+04	
7	3.500000e-01	2.410487e+04	
8	4.000000e-01	2.520028e+04	
9	4.500000e-01	2.637442e+04	
10	5.000000e-01	2.763598e+04	
11	5.500000e-01	2.899504e+04	
12	6.000000e-01	3.046327e+04	
13	6.500000e-01	3.205429e+04	
14	7.000000e-01	3.378411e+04	
15	7.500000e-01	3.567168e+04	
16	8.000000e-01	3.773959e+04	
17	8.500000e-01	4.001505e+04	
18	9.000000e-01	4.253116e+04	
19	9.500000e-01	4.532865e+04	
20	1.000000e+00	4.845844e+04	
21	1.050000e+00	5.198526e+04	
22	1.100000e+00	5.599337e+04	
23	1.150000e+00	6.059566e+04	
24	1.200000e+00	6.594969e+04	
25	1.250000e+00	7.228714e+04	
26	1.300000e+00	7.997237e+04	
27	1.350000e+00	8.962069e+04	
28	1.400000e+00	1.023229e+05	
29	1.450000e+00	1.199577e+05	
30	1.500000e+00	1.452200e+05	
31	1.550000e+00	1.805952e+05	
32	1.600000e+00	2.266579e+05	
33	1.650000e+00	2.817794e+05	
34	1.700000e+00	3.434444e+05	
35	1.750000e+00	4.093972e+05	
36	1.800000e+00	4.779880e+05	
37	1.850000e+00	5.481015e+05	
38	1.900000e+00	6.190008e+05	
39	1.950000e+00	6.901977e+05	
40	2.000000e+00	7.613652e+05	
41	2.050000e+00	8.322810e+05	
42	2.100000e+00	9.027919e+05	
43	2.150000e+00	9.727914e+05	
44	2.200000e+00	1.042205e+06	
45	2.250000e+00	1.110980e+06	
46	2.300000e+00	1.179081e+06	
47	2.350000e+00	1.246483e+06	
48	2.400000e+00	1.313169e+06	
49	2.450000e+00	1.379130e+06	
50	2.500000e+00	1.444360e+06	
51	2.550000e+00	1.508856e+06	
52	2.600000e+00	1.572621e+06	
53	2.650000e+00	1.635658e+06	
54	2.700000e+00	1.697969e+06	

Index   v-sweep         rds             
--------------------------------------------------------------------------------
55	2.750000e+00	1.759563e+06	
56	2.800000e+00	1.820444e+06	
57	2.850000e+00	1.880621e+06	
58	2.900000e+00	1.940099e+06	
59	2.950000e+00	1.998887e+06	
60	3.000000e+00	2.056988e+06	
61	3.050000e+00	2.114406e+06	
62	3.100000e+00	2.171138e+06	
63	3.150000e+00	2.227177e+06	
64	3.200000e+00	2.282502e+06	
65	3.250000e+00	2.337079e+06	
66	3.300000e+00	2.390853e+06	
Reset re-loads circuit ***************************

Circuit: ***************************

Doing analysis at TEMP = 25.000000 and TNOM = 25.000000


No. of Data Rows : 67
                          ***************************
                          DC transfer characteristic  Mon Jan  9 13:57:20  2023
--------------------------------------------------------------------------------
Index   v-sweep         rds             
--------------------------------------------------------------------------------
0	0.000000e+00	1.601793e+04	
1	5.000000e-02	1.654816e+04	
2	1.000000e-01	1.710307e+04	
3	1.500000e-01	1.768440e+04	
4	2.000000e-01	1.829403e+04	
5	2.500000e-01	1.893404e+04	
6	3.000000e-01	1.960671e+04	
7	3.500000e-01	2.031457e+04	
8	4.000000e-01	2.106041e+04	
9	4.500000e-01	2.184731e+04	
10	5.000000e-01	2.267873e+04	
11	5.500000e-01	2.355848e+04	
12	6.000000e-01	2.449087e+04	
13	6.500000e-01	2.548071e+04	
14	7.000000e-01	2.653343e+04	
15	7.500000e-01	2.765516e+04	
16	8.000000e-01	2.885288e+04	
17	8.500000e-01	3.013453e+04	
18	9.000000e-01	3.150922e+04	
19	9.500000e-01	3.298744e+04	
20	1.000000e+00	3.458138e+04	
21	1.050000e+00	3.630522e+04	
22	1.100000e+00	3.817568e+04	
23	1.150000e+00	4.021256e+04	
24	1.200000e+00	4.243963e+04	
25	1.250000e+00	4.488577e+04	
26	1.300000e+00	4.758664e+04	
27	1.350000e+00	5.058726e+04	
28	1.400000e+00	5.394604e+04	
29	1.450000e+00	5.774168e+04	
30	1.500000e+00	6.208557e+04	
31	1.550000e+00	6.714517e+04	
32	1.600000e+00	7.318981e+04	
33	1.650000e+00	8.067898e+04	
34	1.700000e+00	9.041413e+04	
35	1.750000e+00	1.037172e+05	
36	1.800000e+00	1.223969e+05	
37	1.850000e+00	1.481218e+05	
38	1.900000e+00	1.814463e+05	
39	1.950000e+00	2.215449e+05	
40	2.000000e+00	2.668709e+05	
41	2.050000e+00	3.158802e+05	
42	2.100000e+00	3.673467e+05	
43	2.150000e+00	4.203876e+05	
44	2.200000e+00	4.743902e+05	
45	2.250000e+00	5.289323e+05	
46	2.300000e+00	5.837215e+05	
47	2.350000e+00	6.385527e+05	
48	2.400000e+00	6.932806e+05	
49	2.450000e+00	7.478007e+05	
50	2.500000e+00	8.020371e+05	
51	2.550000e+00	8.559344e+05	
52	2.600000e+00	9.094518e+05	
53	2.650000e+00	9.625595e+05	
54	2.700000e+00	1.015236e+06	

Index   v-sweep         rds             
--------------------------------------------------------------------------------
55	2.750000e+00	1.067464e+06	
56	2.800000e+00	1.119234e+06	
57	2.850000e+00	1.170537e+06	
58	2.900000e+00	1.221369e+06	
59	2.950000e+00	1.271726e+06	
60	3.000000e+00	1.321608e+06	
61	3.050000e+00	1.371014e+06	
62	3.100000e+00	1.419945e+06	
63	3.150000e+00	1.468404e+06	
64	3.200000e+00	1.516393e+06	
65	3.250000e+00	1.563912e+06	
66	3.300000e+00	1.610963e+06	
Reset re-loads circuit ***************************

Circuit: ***************************

Note: No ".plot", ".print", or ".fourier" lines; no simulations run
