
Note: Compatibility modes selected: hs

Warning: m=xx on .subckt line will override multiplier m hierarchy!


Circuit: ***************************

Doing analysis at TEMP = 125.000000 and TNOM = 125.000000


No. of Data Rows : 67
                          ***************************
                          DC transfer characteristic  Mon Jan  9 13:57:20  2023
--------------------------------------------------------------------------------
Index   v-sweep         rds             
--------------------------------------------------------------------------------
0	0.000000e+00	3.995615e+04	
1	5.000000e-02	5.125101e+04	
2	1.000000e-01	7.129015e+04	
3	1.500000e-01	1.161245e+05	
4	2.000000e-01	2.793327e+05	
5	2.500000e-01	1.417936e+06	
6	3.000000e-01	5.909343e+06	
7	3.500000e-01	1.217387e+07	
8	4.000000e-01	1.752511e+07	
9	4.500000e-01	2.163101e+07	
10	5.000000e-01	2.481546e+07	
11	5.500000e-01	2.736263e+07	
12	6.000000e-01	2.945840e+07	
13	6.500000e-01	3.122204e+07	
14	7.000000e-01	3.273259e+07	
15	7.500000e-01	3.404460e+07	
16	8.000000e-01	3.519716e+07	
17	8.500000e-01	3.621918e+07	
18	9.000000e-01	3.713264e+07	
19	9.500000e-01	3.795463e+07	
20	1.000000e+00	3.869868e+07	
21	1.050000e+00	3.937570e+07	
22	1.100000e+00	3.999456e+07	
23	1.150000e+00	4.056262e+07	
24	1.200000e+00	4.108599e+07	
25	1.250000e+00	4.156982e+07	
26	1.300000e+00	4.201850e+07	
27	1.350000e+00	4.243577e+07	
28	1.400000e+00	4.282484e+07	
29	1.450000e+00	4.318851e+07	
30	1.500000e+00	4.352920e+07	
31	1.550000e+00	4.384904e+07	
32	1.600000e+00	4.414988e+07	
33	1.650000e+00	4.443338e+07	
34	1.700000e+00	4.470097e+07	
35	1.750000e+00	4.495394e+07	
36	1.800000e+00	4.519341e+07	
37	1.850000e+00	4.542034e+07	
38	1.900000e+00	4.563557e+07	
39	1.950000e+00	4.583981e+07	
40	2.000000e+00	4.603359e+07	
41	2.050000e+00	4.621730e+07	
42	2.100000e+00	4.639117e+07	
43	2.150000e+00	4.655520e+07	
44	2.200000e+00	4.670921e+07	
45	2.250000e+00	4.685275e+07	
46	2.300000e+00	4.698511e+07	
47	2.350000e+00	4.710524e+07	
48	2.400000e+00	4.721180e+07	
49	2.450000e+00	4.730305e+07	
50	2.500000e+00	4.737684e+07	
51	2.550000e+00	4.743064e+07	
52	2.600000e+00	4.746146e+07	
53	2.650000e+00	4.746589e+07	
54	2.700000e+00	4.744010e+07	

Index   v-sweep         rds             
--------------------------------------------------------------------------------
55	2.750000e+00	4.737985e+07	
56	2.800000e+00	4.728059e+07	
57	2.850000e+00	4.713745e+07	
58	2.900000e+00	4.694540e+07	
59	2.950000e+00	4.669933e+07	
60	3.000000e+00	4.639423e+07	
61	3.050000e+00	4.602530e+07	
62	3.100000e+00	4.558817e+07	
63	3.150000e+00	4.507907e+07	
64	3.200000e+00	4.449505e+07	
65	3.250000e+00	4.383412e+07	
66	3.300000e+00	4.309546e+07	
Reset re-loads circuit ***************************

Circuit: ***************************

Doing analysis at TEMP = 125.000000 and TNOM = 125.000000


No. of Data Rows : 67
                          ***************************
                          DC transfer characteristic  Mon Jan  9 13:57:20  2023
--------------------------------------------------------------------------------
Index   v-sweep         rds             
--------------------------------------------------------------------------------
0	0.000000e+00	1.401404e+04	
1	5.000000e-02	1.530269e+04	
2	1.000000e-01	1.684628e+04	
3	1.500000e-01	1.872868e+04	
4	2.000000e-01	2.107511e+04	
5	2.500000e-01	2.408092e+04	
6	3.000000e-01	2.806866e+04	
7	3.500000e-01	3.361068e+04	
8	4.000000e-01	4.182479e+04	
9	4.500000e-01	5.520132e+04	
10	5.000000e-01	8.041056e+04	
11	5.500000e-01	1.400699e+05	
12	6.000000e-01	3.207387e+05	
13	6.500000e-01	8.166311e+05	
14	7.000000e-01	1.649217e+06	
15	7.500000e-01	2.583427e+06	
16	8.000000e-01	3.465451e+06	
17	8.500000e-01	4.257913e+06	
18	9.000000e-01	4.964804e+06	
19	9.500000e-01	5.598286e+06	
20	1.000000e+00	6.169975e+06	
21	1.050000e+00	6.689405e+06	
22	1.100000e+00	7.164179e+06	
23	1.150000e+00	7.600371e+06	
24	1.200000e+00	8.002899e+06	
25	1.250000e+00	8.375800e+06	
26	1.300000e+00	8.722431e+06	
27	1.350000e+00	9.045622e+06	
28	1.400000e+00	9.347779e+06	
29	1.450000e+00	9.630972e+06	
30	1.500000e+00	9.896990e+06	
31	1.550000e+00	1.014739e+07	
32	1.600000e+00	1.038356e+07	
33	1.650000e+00	1.060668e+07	
34	1.700000e+00	1.081784e+07	
35	1.750000e+00	1.101798e+07	
36	1.800000e+00	1.120797e+07	
37	1.850000e+00	1.138856e+07	
38	1.900000e+00	1.156043e+07	
39	1.950000e+00	1.172422e+07	
40	2.000000e+00	1.188048e+07	
41	2.050000e+00	1.202971e+07	
42	2.100000e+00	1.217237e+07	
43	2.150000e+00	1.230886e+07	
44	2.200000e+00	1.243954e+07	
45	2.250000e+00	1.256472e+07	
46	2.300000e+00	1.268465e+07	
47	2.350000e+00	1.279951e+07	
48	2.400000e+00	1.290943e+07	
49	2.450000e+00	1.301444e+07	
50	2.500000e+00	1.311448e+07	
51	2.550000e+00	1.320937e+07	
52	2.600000e+00	1.329878e+07	
53	2.650000e+00	1.338226e+07	
54	2.700000e+00	1.345915e+07	

Index   v-sweep         rds             
--------------------------------------------------------------------------------
55	2.750000e+00	1.352859e+07	
56	2.800000e+00	1.358950e+07	
57	2.850000e+00	1.364059e+07	
58	2.900000e+00	1.368029e+07	
59	2.950000e+00	1.370678e+07	
60	3.000000e+00	1.371802e+07	
61	3.050000e+00	1.371174e+07	
62	3.100000e+00	1.368549e+07	
63	3.150000e+00	1.363670e+07	
64	3.200000e+00	1.356277e+07	
65	3.250000e+00	1.346117e+07	
66	3.300000e+00	1.332952e+07	
Reset re-loads circuit ***************************

Circuit: ***************************

Doing analysis at TEMP = 125.000000 and TNOM = 125.000000


No. of Data Rows : 67
                          ***************************
                          DC transfer characteristic  Mon Jan  9 13:57:20  2023
--------------------------------------------------------------------------------
Index   v-sweep         rds             
--------------------------------------------------------------------------------
0	0.000000e+00	8.897729e+03	
1	5.000000e-02	9.374311e+03	
2	1.000000e-01	9.902971e+03	
3	1.500000e-01	1.049273e+04	
4	2.000000e-01	1.115484e+04	
5	2.500000e-01	1.190346e+04	
6	3.000000e-01	1.275674e+04	
7	3.500000e-01	1.373826e+04	
8	4.000000e-01	1.487926e+04	
9	4.500000e-01	1.622200e+04	
10	5.000000e-01	1.782513e+04	
11	5.500000e-01	1.977237e+04	
12	6.000000e-01	2.218758e+04	
13	6.500000e-01	2.526180e+04	
14	7.000000e-01	2.930551e+04	
15	7.500000e-01	3.485751e+04	
16	8.000000e-01	4.293439e+04	
17	8.500000e-01	5.567053e+04	
18	9.000000e-01	7.816227e+04	
19	9.500000e-01	1.239989e+05	
20	1.000000e+00	2.268559e+05	
21	1.050000e+00	4.324855e+05	
22	1.100000e+00	7.374375e+05	
23	1.150000e+00	1.087966e+06	
24	1.200000e+00	1.441570e+06	
25	1.250000e+00	1.780283e+06	
26	1.300000e+00	2.099024e+06	
27	1.350000e+00	2.397531e+06	
28	1.400000e+00	2.677059e+06	
29	1.450000e+00	2.939222e+06	
30	1.500000e+00	3.185601e+06	
31	1.550000e+00	3.417637e+06	
32	1.600000e+00	3.636608e+06	
33	1.650000e+00	3.843645e+06	
34	1.700000e+00	4.039743e+06	
35	1.750000e+00	4.225783e+06	
36	1.800000e+00	4.402550e+06	
37	1.850000e+00	4.570743e+06	
38	1.900000e+00	4.730988e+06	
39	1.950000e+00	4.883852e+06	
40	2.000000e+00	5.029842e+06	
41	2.050000e+00	5.169423e+06	
42	2.100000e+00	5.303014e+06	
43	2.150000e+00	5.430999e+06	
44	2.200000e+00	5.553727e+06	
45	2.250000e+00	5.671519e+06	
46	2.300000e+00	5.784671e+06	
47	2.350000e+00	5.893451e+06	
48	2.400000e+00	5.998108e+06	
49	2.450000e+00	6.098870e+06	
50	2.500000e+00	6.195941e+06	
51	2.550000e+00	6.289506e+06	
52	2.600000e+00	6.379729e+06	
53	2.650000e+00	6.466743e+06	
54	2.700000e+00	6.550653e+06	

Index   v-sweep         rds             
--------------------------------------------------------------------------------
55	2.750000e+00	6.631528e+06	
56	2.800000e+00	6.709388e+06	
57	2.850000e+00	6.784199e+06	
58	2.900000e+00	6.855858e+06	
59	2.950000e+00	6.924178e+06	
60	3.000000e+00	6.988874e+06	
61	3.050000e+00	7.049542e+06	
62	3.100000e+00	7.105647e+06	
63	3.150000e+00	7.156498e+06	
64	3.200000e+00	7.201242e+06	
65	3.250000e+00	7.238843e+06	
66	3.300000e+00	7.268084e+06	
Reset re-loads circuit ***************************

Circuit: ***************************

Doing analysis at TEMP = 125.000000 and TNOM = 125.000000


No. of Data Rows : 67
                          ***************************
                          DC transfer characteristic  Mon Jan  9 13:57:20  2023
--------------------------------------------------------------------------------
Index   v-sweep         rds             
--------------------------------------------------------------------------------
0	0.000000e+00	6.807635e+03	
1	5.000000e-02	7.060477e+03	
2	1.000000e-01	7.331938e+03	
3	1.500000e-01	7.624154e+03	
4	2.000000e-01	7.939598e+03	
5	2.500000e-01	8.281153e+03	
6	3.000000e-01	8.652201e+03	
7	3.500000e-01	9.056733e+03	
8	4.000000e-01	9.499494e+03	
9	4.500000e-01	9.986171e+03	
10	5.000000e-01	1.052363e+04	
11	5.500000e-01	1.112027e+04	
12	6.000000e-01	1.178642e+04	
13	6.500000e-01	1.253497e+04	
14	7.000000e-01	1.338220e+04	
15	7.500000e-01	1.434902e+04	
16	8.000000e-01	1.546261e+04	
17	8.500000e-01	1.675913e+04	
18	9.000000e-01	1.828759e+04	
19	9.500000e-01	2.011623e+04	
20	1.000000e+00	2.234280e+04	
21	1.050000e+00	2.511243e+04	
22	1.100000e+00	2.864978e+04	
23	1.150000e+00	3.332106e+04	
24	1.200000e+00	3.976187e+04	
25	1.250000e+00	4.916199e+04	
26	1.300000e+00	6.394467e+04	
27	1.350000e+00	8.939116e+04	
28	1.400000e+00	1.366290e+05	
29	1.450000e+00	2.226481e+05	
30	1.500000e+00	3.563758e+05	
31	1.550000e+00	5.260434e+05	
32	1.600000e+00	7.122017e+05	
33	1.650000e+00	9.014046e+05	
34	1.700000e+00	1.087022e+06	
35	1.750000e+00	1.266299e+06	
36	1.800000e+00	1.438290e+06	
37	1.850000e+00	1.602848e+06	
38	1.900000e+00	1.760164e+06	
39	1.950000e+00	1.910567e+06	
40	2.000000e+00	2.054435e+06	
41	2.050000e+00	2.192148e+06	
42	2.100000e+00	2.324075e+06	
43	2.150000e+00	2.450564e+06	
44	2.200000e+00	2.571942e+06	
45	2.250000e+00	2.688510e+06	
46	2.300000e+00	2.800548e+06	
47	2.350000e+00	2.908317e+06	
48	2.400000e+00	3.012056e+06	
49	2.450000e+00	3.111988e+06	
50	2.500000e+00	3.208321e+06	
51	2.550000e+00	3.301244e+06	
52	2.600000e+00	3.390938e+06	
53	2.650000e+00	3.477569e+06	
54	2.700000e+00	3.561290e+06	

Index   v-sweep         rds             
--------------------------------------------------------------------------------
55	2.750000e+00	3.642245e+06	
56	2.800000e+00	3.720569e+06	
57	2.850000e+00	3.796386e+06	
58	2.900000e+00	3.869810e+06	
59	2.950000e+00	3.940943e+06	
60	3.000000e+00	4.009876e+06	
61	3.050000e+00	4.076686e+06	
62	3.100000e+00	4.141431e+06	
63	3.150000e+00	4.204144e+06	
64	3.200000e+00	4.264834e+06	
65	3.250000e+00	4.323466e+06	
66	3.300000e+00	4.379963e+06	
Reset re-loads circuit ***************************

Circuit: ***************************

Doing analysis at TEMP = 125.000000 and TNOM = 125.000000


No. of Data Rows : 67
                          ***************************
                          DC transfer characteristic  Mon Jan  9 13:57:20  2023
--------------------------------------------------------------------------------
Index   v-sweep         rds             
--------------------------------------------------------------------------------
0	0.000000e+00	5.719119e+03	
1	5.000000e-02	5.879174e+03	
2	1.000000e-01	6.047934e+03	
3	1.500000e-01	6.226128e+03	
4	2.000000e-01	6.414570e+03	
5	2.500000e-01	6.614171e+03	
6	3.000000e-01	6.825950e+03	
7	3.500000e-01	7.051058e+03	
8	4.000000e-01	7.290793e+03	
9	4.500000e-01	7.546627e+03	
10	5.000000e-01	7.820240e+03	
11	5.500000e-01	8.113550e+03	
12	6.000000e-01	8.428762e+03	
13	6.500000e-01	8.768426e+03	
14	7.000000e-01	9.135498e+03	
15	7.500000e-01	9.533436e+03	
16	8.000000e-01	9.966303e+03	
17	8.500000e-01	1.043891e+04	
18	9.000000e-01	1.095698e+04	
19	9.500000e-01	1.152741e+04	
20	1.000000e+00	1.215856e+04	
21	1.050000e+00	1.286067e+04	
22	1.100000e+00	1.364639e+04	
23	1.150000e+00	1.453162e+04	
24	1.200000e+00	1.553651e+04	
25	1.250000e+00	1.668705e+04	
26	1.300000e+00	1.801736e+04	
27	1.350000e+00	1.957304e+04	
28	1.400000e+00	2.141652e+04	
29	1.450000e+00	2.363552e+04	
30	1.500000e+00	2.635711e+04	
31	1.550000e+00	2.977230e+04	
32	1.600000e+00	3.418085e+04	
33	1.650000e+00	4.007789e+04	
34	1.700000e+00	4.833015e+04	
35	1.750000e+00	6.054619e+04	
36	1.800000e+00	7.981624e+04	
37	1.850000e+00	1.117643e+05	
38	1.900000e+00	1.641825e+05	
39	1.950000e+00	2.419555e+05	
40	2.000000e+00	3.416624e+05	
41	2.050000e+00	4.547690e+05	
42	2.100000e+00	5.736900e+05	
43	2.150000e+00	6.936952e+05	
44	2.200000e+00	8.122487e+05	
45	2.250000e+00	9.280869e+05	
46	2.300000e+00	1.040623e+06	
47	2.350000e+00	1.149622e+06	
48	2.400000e+00	1.255033e+06	
49	2.450000e+00	1.356904e+06	
50	2.500000e+00	1.455329e+06	
51	2.550000e+00	1.550432e+06	
52	2.600000e+00	1.642344e+06	
53	2.650000e+00	1.731201e+06	
54	2.700000e+00	1.817138e+06	

Index   v-sweep         rds             
--------------------------------------------------------------------------------
55	2.750000e+00	1.900285e+06	
56	2.800000e+00	1.980768e+06	
57	2.850000e+00	2.058709e+06	
58	2.900000e+00	2.134221e+06	
59	2.950000e+00	2.207412e+06	
60	3.000000e+00	2.278387e+06	
61	3.050000e+00	2.347241e+06	
62	3.100000e+00	2.414068e+06	
63	3.150000e+00	2.478954e+06	
64	3.200000e+00	2.541981e+06	
65	3.250000e+00	2.603226e+06	
66	3.300000e+00	2.662761e+06	
Reset re-loads circuit ***************************

Circuit: ***************************

Doing analysis at TEMP = 125.000000 and TNOM = 125.000000


No. of Data Rows : 67
                          ***************************
                          DC transfer characteristic  Mon Jan  9 13:57:20  2023
--------------------------------------------------------------------------------
Index   v-sweep         rds             
--------------------------------------------------------------------------------
0	0.000000e+00	5.083472e+03	
1	5.000000e-02	5.195929e+03	
2	1.000000e-01	5.313145e+03	
3	1.500000e-01	5.435428e+03	
4	2.000000e-01	5.563113e+03	
5	2.500000e-01	5.696567e+03	
6	3.000000e-01	5.836189e+03	
7	3.500000e-01	5.982416e+03	
8	4.000000e-01	6.135730e+03	
9	4.500000e-01	6.296657e+03	
10	5.000000e-01	6.465778e+03	
11	5.500000e-01	6.643737e+03	
12	6.000000e-01	6.831243e+03	
13	6.500000e-01	7.029085e+03	
14	7.000000e-01	7.238144e+03	
15	7.500000e-01	7.459399e+03	
16	8.000000e-01	7.693950e+03	
17	8.500000e-01	7.943032e+03	
18	9.000000e-01	8.208039e+03	
19	9.500000e-01	8.490547e+03	
20	1.000000e+00	8.792349e+03	
21	1.050000e+00	9.115490e+03	
22	1.100000e+00	9.462317e+03	
23	1.150000e+00	9.835531e+03	
24	1.200000e+00	1.023826e+04	
25	1.250000e+00	1.067416e+04	
26	1.300000e+00	1.114748e+04	
27	1.350000e+00	1.166328e+04	
28	1.400000e+00	1.222753e+04	
29	1.450000e+00	1.284740e+04	
30	1.500000e+00	1.353152e+04	
31	1.550000e+00	1.429044e+04	
32	1.600000e+00	1.513711e+04	
33	1.650000e+00	1.608770e+04	
34	1.700000e+00	1.716256e+04	
35	1.750000e+00	1.838775e+04	
36	1.800000e+00	1.979712e+04	
37	1.850000e+00	2.143552e+04	
38	1.900000e+00	2.336356e+04	
39	1.950000e+00	2.566520e+04	
40	2.000000e+00	2.846004e+04	
41	2.050000e+00	3.192407e+04	
42	2.100000e+00	3.632631e+04	
43	2.150000e+00	4.209592e+04	
44	2.200000e+00	4.994940e+04	
45	2.250000e+00	6.112959e+04	
46	2.300000e+00	7.780303e+04	
47	2.350000e+00	1.034312e+05	
48	2.400000e+00	1.421702e+05	
49	2.450000e+00	1.963254e+05	
50	2.500000e+00	2.641848e+05	
51	2.550000e+00	3.414000e+05	
52	2.600000e+00	4.236917e+05	
53	2.650000e+00	5.080283e+05	
54	2.700000e+00	5.925497e+05	

Index   v-sweep         rds             
--------------------------------------------------------------------------------
55	2.750000e+00	6.761830e+05	
56	2.800000e+00	7.583292e+05	
57	2.850000e+00	8.386648e+05	
58	2.900000e+00	9.170264e+05	
59	2.950000e+00	9.933449e+05	
60	3.000000e+00	1.067607e+06	
61	3.050000e+00	1.139833e+06	
62	3.100000e+00	1.210062e+06	
63	3.150000e+00	1.278346e+06	
64	3.200000e+00	1.344743e+06	
65	3.250000e+00	1.409315e+06	
66	3.300000e+00	1.472123e+06	
Reset re-loads circuit ***************************

Circuit: ***************************

Note: No ".plot", ".print", or ".fourier" lines; no simulations run
