
Note: Compatibility modes selected: hs

Warning: m=xx on .subckt line will override multiplier m hierarchy!


Circuit: ***************************

Doing analysis at TEMP = 25.000000 and TNOM = 25.000000


No. of Data Rows : 67
                          ***************************
                          DC transfer characteristic  Mon Jan  9 13:57:19  2023
--------------------------------------------------------------------------------
Index   v-sweep         rds             
--------------------------------------------------------------------------------
0	0.000000e+00	1.420623e+04	
1	5.000000e-02	2.043710e+04	
2	1.000000e-01	3.298568e+04	
3	1.500000e-01	6.120277e+04	
4	2.000000e-01	1.141844e+05	
5	2.500000e-01	1.760404e+05	
6	3.000000e-01	2.254979e+05	
7	3.500000e-01	2.596993e+05	
8	4.000000e-01	2.828480e+05	
9	4.500000e-01	2.987568e+05	
10	5.000000e-01	3.099086e+05	
11	5.500000e-01	3.178429e+05	
12	6.000000e-01	3.235292e+05	
13	6.500000e-01	3.275974e+05	
14	7.000000e-01	3.304706e+05	
15	7.500000e-01	3.324416e+05	
16	8.000000e-01	3.337192e+05	
17	8.500000e-01	3.344552e+05	
18	9.000000e-01	3.347631e+05	
19	9.500000e-01	3.347286e+05	
20	1.000000e+00	3.344178e+05	
21	1.050000e+00	3.338827e+05	
22	1.100000e+00	3.331640e+05	
23	1.150000e+00	3.322946e+05	
24	1.200000e+00	3.313009e+05	
25	1.250000e+00	3.302047e+05	
26	1.300000e+00	3.290236e+05	
27	1.350000e+00	3.277723e+05	
28	1.400000e+00	3.264633e+05	
29	1.450000e+00	3.251066e+05	
30	1.500000e+00	3.237110e+05	
31	1.550000e+00	3.222838e+05	
32	1.600000e+00	3.208312e+05	
33	1.650000e+00	3.193585e+05	
34	1.700000e+00	3.178702e+05	
35	1.750000e+00	3.163700e+05	
36	1.800000e+00	3.148612e+05	
37	1.850000e+00	3.133464e+05	
38	1.900000e+00	3.118276e+05	
39	1.950000e+00	3.103065e+05	
40	2.000000e+00	3.087839e+05	
41	2.050000e+00	3.072603e+05	
42	2.100000e+00	3.057356e+05	
43	2.150000e+00	3.042089e+05	
44	2.200000e+00	3.026786e+05	
45	2.250000e+00	3.011423e+05	
46	2.300000e+00	2.995966e+05	
47	2.350000e+00	2.980370e+05	
48	2.400000e+00	2.964582e+05	
49	2.450000e+00	2.948534e+05	
50	2.500000e+00	2.932146e+05	
51	2.550000e+00	2.915324e+05	
52	2.600000e+00	2.897961e+05	
53	2.650000e+00	2.879935e+05	
54	2.700000e+00	2.861108e+05	

Index   v-sweep         rds             
--------------------------------------------------------------------------------
55	2.750000e+00	2.841331e+05	
56	2.800000e+00	2.820441e+05	
57	2.850000e+00	2.798260e+05	
58	2.900000e+00	2.774606e+05	
59	2.950000e+00	2.749285e+05	
60	3.000000e+00	2.722103e+05	
61	3.050000e+00	2.692864e+05	
62	3.100000e+00	2.661378e+05	
63	3.150000e+00	2.627465e+05	
64	3.200000e+00	2.590962e+05	
65	3.250000e+00	2.551725e+05	
66	3.300000e+00	2.509642e+05	
Reset re-loads circuit ***************************

Circuit: ***************************

Doing analysis at TEMP = 25.000000 and TNOM = 25.000000


No. of Data Rows : 67
                          ***************************
                          DC transfer characteristic  Mon Jan  9 13:57:19  2023
--------------------------------------------------------------------------------
Index   v-sweep         rds             
--------------------------------------------------------------------------------
0	0.000000e+00	3.715912e+03	
1	5.000000e-02	4.208229e+03	
2	1.000000e-01	4.800534e+03	
3	1.500000e-01	5.526092e+03	
4	2.000000e-01	6.434820e+03	
5	2.500000e-01	7.605016e+03	
6	3.000000e-01	9.165554e+03	
7	3.500000e-01	1.133656e+04	
8	4.000000e-01	1.448622e+04	
9	4.500000e-01	1.912512e+04	
10	5.000000e-01	2.562871e+04	
11	5.500000e-01	3.376752e+04	
12	6.000000e-01	4.273258e+04	
13	6.500000e-01	5.167940e+04	
14	7.000000e-01	6.007170e+04	
15	7.500000e-01	6.767654e+04	
16	8.000000e-01	7.444742e+04	
17	8.500000e-01	8.042847e+04	
18	9.000000e-01	8.569906e+04	
19	9.500000e-01	9.034636e+04	
20	1.000000e+00	9.445321e+04	
21	1.050000e+00	9.809358e+04	
22	1.100000e+00	1.013316e+05	
23	1.150000e+00	1.042219e+05	
24	1.200000e+00	1.068110e+05	
25	1.250000e+00	1.091382e+05	
26	1.300000e+00	1.112368e+05	
27	1.350000e+00	1.131349e+05	
28	1.400000e+00	1.148567e+05	
29	1.450000e+00	1.164227e+05	
30	1.500000e+00	1.178505e+05	
31	1.550000e+00	1.191552e+05	
32	1.600000e+00	1.203501e+05	
33	1.650000e+00	1.214465e+05	
34	1.700000e+00	1.224544e+05	
35	1.750000e+00	1.233823e+05	
36	1.800000e+00	1.242380e+05	
37	1.850000e+00	1.250282e+05	
38	1.900000e+00	1.257586e+05	
39	1.950000e+00	1.264347e+05	
40	2.000000e+00	1.270609e+05	
41	2.050000e+00	1.276413e+05	
42	2.100000e+00	1.281793e+05	
43	2.150000e+00	1.286780e+05	
44	2.200000e+00	1.291397e+05	
45	2.250000e+00	1.295664e+05	
46	2.300000e+00	1.299593e+05	
47	2.350000e+00	1.303190e+05	
48	2.400000e+00	1.306454e+05	
49	2.450000e+00	1.309374e+05	
50	2.500000e+00	1.311931e+05	
51	2.550000e+00	1.314094e+05	
52	2.600000e+00	1.315819e+05	
53	2.650000e+00	1.317051e+05	
54	2.700000e+00	1.317716e+05	

Index   v-sweep         rds             
--------------------------------------------------------------------------------
55	2.750000e+00	1.317727e+05	
56	2.800000e+00	1.316981e+05	
57	2.850000e+00	1.315355e+05	
58	2.900000e+00	1.312712e+05	
59	2.950000e+00	1.308898e+05	
60	3.000000e+00	1.303745e+05	
61	3.050000e+00	1.297075e+05	
62	3.100000e+00	1.288702e+05	
63	3.150000e+00	1.278440e+05	
64	3.200000e+00	1.266107e+05	
65	3.250000e+00	1.251533e+05	
66	3.300000e+00	1.234572e+05	
Reset re-loads circuit ***************************

Circuit: ***************************

Doing analysis at TEMP = 25.000000 and TNOM = 25.000000


No. of Data Rows : 67
                          ***************************
                          DC transfer characteristic  Mon Jan  9 13:57:19  2023
--------------------------------------------------------------------------------
Index   v-sweep         rds             
--------------------------------------------------------------------------------
0	0.000000e+00	2.443057e+03	
1	5.000000e-02	2.656141e+03	
2	1.000000e-01	2.893943e+03	
3	1.500000e-01	3.160909e+03	
4	2.000000e-01	3.462661e+03	
5	2.500000e-01	3.806434e+03	
6	3.000000e-01	4.201760e+03	
7	3.500000e-01	4.661552e+03	
8	4.000000e-01	5.203950e+03	
9	4.500000e-01	5.855577e+03	
10	5.000000e-01	6.657490e+03	
11	5.500000e-01	7.675792e+03	
12	6.000000e-01	9.017900e+03	
13	6.500000e-01	1.084618e+04	
14	7.000000e-01	1.335616e+04	
15	7.500000e-01	1.668194e+04	
16	8.000000e-01	2.078263e+04	
17	8.500000e-01	2.544087e+04	
18	9.000000e-01	3.037385e+04	
19	9.500000e-01	3.533635e+04	
20	1.000000e+00	4.015898e+04	
21	1.050000e+00	4.474251e+04	
22	1.100000e+00	4.903851e+04	
23	1.150000e+00	5.303115e+04	
24	1.200000e+00	5.672380e+04	
25	1.250000e+00	6.013037e+04	
26	1.300000e+00	6.326986e+04	
27	1.350000e+00	6.616320e+04	
28	1.400000e+00	6.883146e+04	
29	1.450000e+00	7.129479e+04	
30	1.500000e+00	7.357202e+04	
31	1.550000e+00	7.568037e+04	
32	1.600000e+00	7.763550e+04	
33	1.650000e+00	7.945151e+04	
34	1.700000e+00	8.114108e+04	
35	1.750000e+00	8.271556e+04	
36	1.800000e+00	8.418515e+04	
37	1.850000e+00	8.555896e+04	
38	1.900000e+00	8.684515e+04	
39	1.950000e+00	8.805106e+04	
40	2.000000e+00	8.918327e+04	
41	2.050000e+00	9.024770e+04	
42	2.100000e+00	9.124966e+04	
43	2.150000e+00	9.219393e+04	
44	2.200000e+00	9.308480e+04	
45	2.250000e+00	9.392606e+04	
46	2.300000e+00	9.472108e+04	
47	2.350000e+00	9.547275e+04	
48	2.400000e+00	9.618350e+04	
49	2.450000e+00	9.685519e+04	
50	2.500000e+00	9.748914e+04	
51	2.550000e+00	9.808594e+04	
52	2.600000e+00	9.864542e+04	
53	2.650000e+00	9.916648e+04	
54	2.700000e+00	9.964693e+04	

Index   v-sweep         rds             
--------------------------------------------------------------------------------
55	2.750000e+00	1.000833e+05	
56	2.800000e+00	1.004709e+05	
57	2.850000e+00	1.008032e+05	
58	2.900000e+00	1.010720e+05	
59	2.950000e+00	1.012673e+05	
60	3.000000e+00	1.013771e+05	
61	3.050000e+00	1.013875e+05	
62	3.100000e+00	1.012824e+05	
63	3.150000e+00	1.010443e+05	
64	3.200000e+00	1.006541e+05	
65	3.250000e+00	1.000920e+05	
66	3.300000e+00	9.933773e+04	
Reset re-loads circuit ***************************

Circuit: ***************************

Doing analysis at TEMP = 25.000000 and TNOM = 25.000000


No. of Data Rows : 67
                          ***************************
                          DC transfer characteristic  Mon Jan  9 13:57:19  2023
--------------------------------------------------------------------------------
Index   v-sweep         rds             
--------------------------------------------------------------------------------
0	0.000000e+00	1.963264e+03	
1	5.000000e-02	2.094987e+03	
2	1.000000e-01	2.237599e+03	
3	1.500000e-01	2.392452e+03	
4	2.000000e-01	2.561141e+03	
5	2.500000e-01	2.745567e+03	
6	3.000000e-01	2.948017e+03	
7	3.500000e-01	3.171287e+03	
8	4.000000e-01	3.418846e+03	
9	4.500000e-01	3.695097e+03	
10	5.000000e-01	4.005780e+03	
11	5.500000e-01	4.358638e+03	
12	6.000000e-01	4.764561e+03	
13	6.500000e-01	5.239593e+03	
14	7.000000e-01	5.808462e+03	
15	7.500000e-01	6.510439e+03	
16	8.000000e-01	7.407502e+03	
17	8.500000e-01	8.590628e+03	
18	9.000000e-01	1.017145e+04	
19	9.500000e-01	1.224487e+04	
20	1.000000e+00	1.483581e+04	
21	1.050000e+00	1.787654e+04	
22	1.100000e+00	2.123611e+04	
23	1.150000e+00	2.476973e+04	
24	1.200000e+00	2.835300e+04	
25	1.250000e+00	3.189374e+04	
26	1.300000e+00	3.533048e+04	
27	1.350000e+00	3.862592e+04	
28	1.400000e+00	4.176012e+04	
29	1.450000e+00	4.472488e+04	
30	1.500000e+00	4.751964e+04	
31	1.550000e+00	5.014857e+04	
32	1.600000e+00	5.261864e+04	
33	1.650000e+00	5.493831e+04	
34	1.700000e+00	5.711673e+04	
35	1.750000e+00	5.916319e+04	
36	1.800000e+00	6.108678e+04	
37	1.850000e+00	6.289624e+04	
38	1.900000e+00	6.459980e+04	
39	1.950000e+00	6.620515e+04	
40	2.000000e+00	6.771945e+04	
41	2.050000e+00	6.914930e+04	
42	2.100000e+00	7.050079e+04	
43	2.150000e+00	7.177953e+04	
44	2.200000e+00	7.299064e+04	
45	2.250000e+00	7.413885e+04	
46	2.300000e+00	7.522846e+04	
47	2.350000e+00	7.626340e+04	
48	2.400000e+00	7.724725e+04	
49	2.450000e+00	7.818323e+04	
50	2.500000e+00	7.907418e+04	
51	2.550000e+00	7.992257e+04	
52	2.600000e+00	8.073044e+04	
53	2.650000e+00	8.149933e+04	
54	2.700000e+00	8.223018e+04	

Index   v-sweep         rds             
--------------------------------------------------------------------------------
55	2.750000e+00	8.292326e+04	
56	2.800000e+00	8.357802e+04	
57	2.850000e+00	8.419288e+04	
58	2.900000e+00	8.476511e+04	
59	2.950000e+00	8.529059e+04	
60	3.000000e+00	8.576364e+04	
61	3.050000e+00	8.617676e+04	
62	3.100000e+00	8.652050e+04	
63	3.150000e+00	8.678329e+04	
64	3.200000e+00	8.695134e+04	
65	3.250000e+00	8.700871e+04	
66	3.300000e+00	8.693740e+04	
Reset re-loads circuit ***************************

Circuit: ***************************

Doing analysis at TEMP = 25.000000 and TNOM = 25.000000


No. of Data Rows : 67
                          ***************************
                          DC transfer characteristic  Mon Jan  9 13:57:19  2023
--------------------------------------------------------------------------------
Index   v-sweep         rds             
--------------------------------------------------------------------------------
0	0.000000e+00	1.715825e+03	
1	5.000000e-02	1.810365e+03	
2	1.000000e-01	1.911023e+03	
3	1.500000e-01	2.018381e+03	
4	2.000000e-01	2.133101e+03	
5	2.500000e-01	2.255940e+03	
6	3.000000e-01	2.387766e+03	
7	3.500000e-01	2.529589e+03	
8	4.000000e-01	2.682586e+03	
9	4.500000e-01	2.848154e+03	
10	5.000000e-01	3.027965e+03	
11	5.500000e-01	3.224058e+03	
12	6.000000e-01	3.438978e+03	
13	6.500000e-01	3.675980e+03	
14	7.000000e-01	3.939373e+03	
15	7.500000e-01	4.235083e+03	
16	8.000000e-01	4.571605e+03	
17	8.500000e-01	4.961626e+03	
18	9.000000e-01	5.424693e+03	
19	9.500000e-01	5.991230e+03	
20	1.000000e+00	6.707329e+03	
21	1.050000e+00	7.637134e+03	
22	1.100000e+00	8.855839e+03	
23	1.150000e+00	1.042756e+04	
24	1.200000e+00	1.237612e+04	
25	1.250000e+00	1.467074e+04	
26	1.300000e+00	1.723783e+04	
27	1.350000e+00	1.998663e+04	
28	1.400000e+00	2.283087e+04	
29	1.450000e+00	2.569973e+04	
30	1.500000e+00	2.854033e+04	
31	1.550000e+00	3.131587e+04	
32	1.600000e+00	3.400234e+04	
33	1.650000e+00	3.658526e+04	
34	1.700000e+00	3.905701e+04	
35	1.750000e+00	4.141475e+04	
36	1.800000e+00	4.365881e+04	
37	1.850000e+00	4.579169e+04	
38	1.900000e+00	4.781719e+04	
39	1.950000e+00	4.973995e+04	
40	2.000000e+00	5.156499e+04	
41	2.050000e+00	5.329753e+04	
42	2.100000e+00	5.494278e+04	
43	2.150000e+00	5.650582e+04	
44	2.200000e+00	5.799157e+04	
45	2.250000e+00	5.940470e+04	
46	2.300000e+00	6.074965e+04	
47	2.350000e+00	6.203058e+04	
48	2.400000e+00	6.325140e+04	
49	2.450000e+00	6.441576e+04	
50	2.500000e+00	6.552705e+04	
51	2.550000e+00	6.658840e+04	
52	2.600000e+00	6.760270e+04	
53	2.650000e+00	6.857255e+04	
54	2.700000e+00	6.950026e+04	

Index   v-sweep         rds             
--------------------------------------------------------------------------------
55	2.750000e+00	7.038781e+04	
56	2.800000e+00	7.123678e+04	
57	2.850000e+00	7.204827e+04	
58	2.900000e+00	7.282280e+04	
59	2.950000e+00	7.356017e+04	
60	3.000000e+00	7.425931e+04	
61	3.050000e+00	7.491807e+04	
62	3.100000e+00	7.553300e+04	
63	3.150000e+00	7.609918e+04	
64	3.200000e+00	7.660990e+04	
65	3.250000e+00	7.705650e+04	
66	3.300000e+00	7.742814e+04	
Reset re-loads circuit ***************************

Circuit: ***************************

Doing analysis at TEMP = 25.000000 and TNOM = 25.000000


No. of Data Rows : 67
                          ***************************
                          DC transfer characteristic  Mon Jan  9 13:57:19  2023
--------------------------------------------------------------------------------
Index   v-sweep         rds             
--------------------------------------------------------------------------------
0	0.000000e+00	1.567673e+03	
1	5.000000e-02	1.641245e+03	
2	1.000000e-01	1.718744e+03	
3	1.500000e-01	1.800473e+03	
4	2.000000e-01	1.886768e+03	
5	2.500000e-01	1.978006e+03	
6	3.000000e-01	2.074604e+03	
7	3.500000e-01	2.177036e+03	
8	4.000000e-01	2.285835e+03	
9	4.500000e-01	2.401606e+03	
10	5.000000e-01	2.525045e+03	
11	5.500000e-01	2.656956e+03	
12	6.000000e-01	2.798281e+03	
13	6.500000e-01	2.950136e+03	
14	7.000000e-01	3.113872e+03	
15	7.500000e-01	3.291155e+03	
16	8.000000e-01	3.484096e+03	
17	8.500000e-01	3.695455e+03	
18	9.000000e-01	3.928965e+03	
19	9.500000e-01	4.189875e+03	
20	1.000000e+00	4.485825e+03	
21	1.050000e+00	4.828267e+03	
22	1.100000e+00	5.234630e+03	
23	1.150000e+00	5.731222e+03	
24	1.200000e+00	6.356026e+03	
25	1.250000e+00	7.158825e+03	
26	1.300000e+00	8.194498e+03	
27	1.350000e+00	9.507618e+03	
28	1.400000e+00	1.111471e+04	
29	1.450000e+00	1.299625e+04	
30	1.500000e+00	1.510366e+04	
31	1.550000e+00	1.737458e+04	
32	1.600000e+00	1.974675e+04	
33	1.650000e+00	2.216619e+04	
34	1.700000e+00	2.459004e+04	
35	1.750000e+00	2.698634e+04	
36	1.800000e+00	2.933239e+04	
37	1.850000e+00	3.161287e+04	
38	1.900000e+00	3.381803e+04	
39	1.950000e+00	3.594228e+04	
40	2.000000e+00	3.798297e+04	
41	2.050000e+00	3.993960e+04	
42	2.100000e+00	4.181314e+04	
43	2.150000e+00	4.360553e+04	
44	2.200000e+00	4.531939e+04	
45	2.250000e+00	4.695774e+04	
46	2.300000e+00	4.852381e+04	
47	2.350000e+00	5.002096e+04	
48	2.400000e+00	5.145253e+04	
49	2.450000e+00	5.282183e+04	
50	2.500000e+00	5.413208e+04	
51	2.550000e+00	5.538637e+04	
52	2.600000e+00	5.658767e+04	
53	2.650000e+00	5.773879e+04	
54	2.700000e+00	5.884237e+04	

Index   v-sweep         rds             
--------------------------------------------------------------------------------
55	2.750000e+00	5.990090e+04	
56	2.800000e+00	6.091666e+04	
57	2.850000e+00	6.189174e+04	
58	2.900000e+00	6.282795e+04	
59	2.950000e+00	6.372683e+04	
60	3.000000e+00	6.458952e+04	
61	3.050000e+00	6.541669e+04	
62	3.100000e+00	6.620841e+04	
63	3.150000e+00	6.696399e+04	
64	3.200000e+00	6.768181e+04	
65	3.250000e+00	6.835908e+04	
66	3.300000e+00	6.899163e+04	
Reset re-loads circuit ***************************

Circuit: ***************************

Note: No ".plot", ".print", or ".fourier" lines; no simulations run
