
Note: Compatibility modes selected: hs

Warning: m=xx on .subckt line will override multiplier m hierarchy!


Circuit: ***************************

Doing analysis at TEMP = -40.000000 and TNOM = -40.000000


No. of Data Rows : 67
                          ***************************
                          DC transfer characteristic  Mon Jan  9 13:57:20  2023
--------------------------------------------------------------------------------
Index   v-sweep         rds             
--------------------------------------------------------------------------------
0	0.000000e+00	5.273794e+05	
1	5.000000e-02	1.288728e+06	
2	1.000000e-01	1.616944e+07	
3	1.500000e-01	1.610118e+08	
4	2.000000e-01	3.790810e+08	
5	2.500000e-01	5.270431e+08	
6	3.000000e-01	6.145301e+08	
7	3.500000e-01	6.691319e+08	
8	4.000000e-01	7.059063e+08	
9	4.500000e-01	7.323073e+08	
10	5.000000e-01	7.522157e+08	
11	5.500000e-01	7.678022e+08	
12	6.000000e-01	7.803647e+08	
13	6.500000e-01	7.907247e+08	
14	7.000000e-01	7.994276e+08	
15	7.500000e-01	8.068501e+08	
16	8.000000e-01	8.132611e+08	
17	8.500000e-01	8.188582e+08	
18	9.000000e-01	8.237896e+08	
19	9.500000e-01	8.281694e+08	
20	1.000000e+00	8.320865e+08	
21	1.050000e+00	8.356115e+08	
22	1.100000e+00	8.388011e+08	
23	1.150000e+00	8.417014e+08	
24	1.200000e+00	8.443505e+08	
25	1.250000e+00	8.467798e+08	
26	1.300000e+00	8.490158e+08	
27	1.350000e+00	8.510809e+08	
28	1.400000e+00	8.529939e+08	
29	1.450000e+00	8.547711e+08	
30	1.500000e+00	8.564265e+08	
31	1.550000e+00	8.579720e+08	
32	1.600000e+00	8.594183e+08	
33	1.650000e+00	8.607742e+08	
34	1.700000e+00	8.620476e+08	
35	1.750000e+00	8.632452e+08	
36	1.800000e+00	8.643727e+08	
37	1.850000e+00	8.654345e+08	
38	1.900000e+00	8.664343e+08	
39	1.950000e+00	8.673747e+08	
40	2.000000e+00	8.682571e+08	
41	2.050000e+00	8.690817e+08	
42	2.100000e+00	8.698476e+08	
43	2.150000e+00	8.705520e+08	
44	2.200000e+00	8.711912e+08	
45	2.250000e+00	8.717592e+08	
46	2.300000e+00	8.722484e+08	
47	2.350000e+00	8.726494e+08	
48	2.400000e+00	8.729503e+08	
49	2.450000e+00	8.731371e+08	
50	2.500000e+00	8.731937e+08	
51	2.550000e+00	8.731013e+08	
52	2.600000e+00	8.728387e+08	
53	2.650000e+00	8.723824e+08	
54	2.700000e+00	8.717065e+08	

Index   v-sweep         rds             
--------------------------------------------------------------------------------
55	2.750000e+00	8.707826e+08	
56	2.800000e+00	8.695805e+08	
57	2.850000e+00	8.680679e+08	
58	2.900000e+00	8.662110e+08	
59	2.950000e+00	8.639747e+08	
60	3.000000e+00	8.613231e+08	
61	3.050000e+00	8.582200e+08	
62	3.100000e+00	8.546294e+08	
63	3.150000e+00	8.505161e+08	
64	3.200000e+00	8.458465e+08	
65	3.250000e+00	8.405892e+08	
66	3.300000e+00	8.347155e+08	
Reset re-loads circuit ***************************

Circuit: ***************************

Doing analysis at TEMP = -40.000000 and TNOM = -40.000000


No. of Data Rows : 67
                          ***************************
                          DC transfer characteristic  Mon Jan  9 13:57:20  2023
--------------------------------------------------------------------------------
Index   v-sweep         rds             
--------------------------------------------------------------------------------
0	0.000000e+00	8.075104e+04	
1	5.000000e-02	9.166338e+04	
2	1.000000e-01	1.059299e+05	
3	1.500000e-01	1.253751e+05	
4	2.000000e-01	1.534331e+05	
5	2.500000e-01	1.974015e+05	
6	3.000000e-01	2.758033e+05	
7	3.500000e-01	4.504530e+05	
8	4.000000e-01	1.023434e+06	
9	4.500000e-01	3.569738e+06	
10	5.000000e-01	1.089830e+07	
11	5.500000e-01	2.178494e+07	
12	6.000000e-01	3.290102e+07	
13	6.500000e-01	4.272058e+07	
14	7.000000e-01	5.103448e+07	
15	7.500000e-01	5.803876e+07	
16	8.000000e-01	6.398300e+07	
17	8.500000e-01	6.908116e+07	
18	9.000000e-01	7.350071e+07	
19	9.500000e-01	7.736998e+07	
20	1.000000e+00	8.078746e+07	
21	1.050000e+00	8.382949e+07	
22	1.100000e+00	8.655603e+07	
23	1.150000e+00	8.901474e+07	
24	1.200000e+00	9.124402e+07	
25	1.250000e+00	9.327515e+07	
26	1.300000e+00	9.513386e+07	
27	1.350000e+00	9.684158e+07	
28	1.400000e+00	9.841624e+07	
29	1.450000e+00	9.987302e+07	
30	1.500000e+00	1.012248e+08	
31	1.550000e+00	1.024828e+08	
32	1.600000e+00	1.036564e+08	
33	1.650000e+00	1.047540e+08	
34	1.700000e+00	1.057827e+08	
35	1.750000e+00	1.067489e+08	
36	1.800000e+00	1.076582e+08	
37	1.850000e+00	1.085154e+08	
38	1.900000e+00	1.093249e+08	
39	1.950000e+00	1.100904e+08	
40	2.000000e+00	1.108154e+08	
41	2.050000e+00	1.115028e+08	
42	2.100000e+00	1.121550e+08	
43	2.150000e+00	1.127742e+08	
44	2.200000e+00	1.133620e+08	
45	2.250000e+00	1.139196e+08	
46	2.300000e+00	1.144478e+08	
47	2.350000e+00	1.149466e+08	
48	2.400000e+00	1.154157e+08	
49	2.450000e+00	1.158537e+08	
50	2.500000e+00	1.162588e+08	
51	2.550000e+00	1.166280e+08	
52	2.600000e+00	1.169575e+08	
53	2.650000e+00	1.172426e+08	
54	2.700000e+00	1.174771e+08	

Index   v-sweep         rds             
--------------------------------------------------------------------------------
55	2.750000e+00	1.176540e+08	
56	2.800000e+00	1.177648e+08	
57	2.850000e+00	1.178002e+08	
58	2.900000e+00	1.177493e+08	
59	2.950000e+00	1.176004e+08	
60	3.000000e+00	1.173410e+08	
61	3.050000e+00	1.169577e+08	
62	3.100000e+00	1.164369e+08	
63	3.150000e+00	1.157649e+08	
64	3.200000e+00	1.149285e+08	
65	3.250000e+00	1.139154e+08	
66	3.300000e+00	1.127147e+08	
Reset re-loads circuit ***************************

Circuit: ***************************

Doing analysis at TEMP = -40.000000 and TNOM = -40.000000


No. of Data Rows : 67
                          ***************************
                          DC transfer characteristic  Mon Jan  9 13:57:20  2023
--------------------------------------------------------------------------------
Index   v-sweep         rds             
--------------------------------------------------------------------------------
0	0.000000e+00	4.551165e+04	
1	5.000000e-02	4.859562e+04	
2	1.000000e-01	5.211618e+04	
3	1.500000e-01	5.617308e+04	
4	2.000000e-01	6.089895e+04	
5	2.500000e-01	6.647402e+04	
6	3.000000e-01	7.314966e+04	
7	3.500000e-01	8.128714e+04	
8	4.000000e-01	9.142500e+04	
9	4.500000e-01	1.044026e+05	
10	5.000000e-01	1.216030e+05	
11	5.500000e-01	1.454729e+05	
12	6.000000e-01	1.807672e+05	
13	6.500000e-01	2.379708e+05	
14	7.000000e-01	3.444866e+05	
15	7.500000e-01	5.872831e+05	
16	8.000000e-01	1.254330e+06	
17	8.500000e-01	2.914690e+06	
18	9.000000e-01	5.752117e+06	
19	9.500000e-01	9.244348e+06	
20	1.000000e+00	1.284489e+07	
21	1.050000e+00	1.627470e+07	
22	1.100000e+00	1.943722e+07	
23	1.150000e+00	2.231835e+07	
24	1.200000e+00	2.493499e+07	
25	1.250000e+00	2.731336e+07	
26	1.300000e+00	2.948059e+07	
27	1.350000e+00	3.146169e+07	
28	1.400000e+00	3.327874e+07	
29	1.450000e+00	3.495089e+07	
30	1.500000e+00	3.649463e+07	
31	1.550000e+00	3.792413e+07	
32	1.600000e+00	3.925161e+07	
33	1.650000e+00	4.048764e+07	
34	1.700000e+00	4.164138e+07	
35	1.750000e+00	4.272081e+07	
36	1.800000e+00	4.373292e+07	
37	1.850000e+00	4.468385e+07	
38	1.900000e+00	4.557900e+07	
39	1.950000e+00	4.642316e+07	
40	2.000000e+00	4.722059e+07	
41	2.050000e+00	4.797508e+07	
42	2.100000e+00	4.869001e+07	
43	2.150000e+00	4.936841e+07	
44	2.200000e+00	5.001302e+07	
45	2.250000e+00	5.062628e+07	
46	2.300000e+00	5.121037e+07	
47	2.350000e+00	5.176726e+07	
48	2.400000e+00	5.229866e+07	
49	2.450000e+00	5.280607e+07	
50	2.500000e+00	5.329074e+07	
51	2.550000e+00	5.375367e+07	
52	2.600000e+00	5.419555e+07	
53	2.650000e+00	5.461677e+07	
54	2.700000e+00	5.501730e+07	

Index   v-sweep         rds             
--------------------------------------------------------------------------------
55	2.750000e+00	5.539669e+07	
56	2.800000e+00	5.575400e+07	
57	2.850000e+00	5.608767e+07	
58	2.900000e+00	5.639551e+07	
59	2.950000e+00	5.667458e+07	
60	3.000000e+00	5.692115e+07	
61	3.050000e+00	5.713061e+07	
62	3.100000e+00	5.729745e+07	
63	3.150000e+00	5.741525e+07	
64	3.200000e+00	5.747667e+07	
65	3.250000e+00	5.747355e+07	
66	3.300000e+00	5.739703e+07	
Reset re-loads circuit ***************************

Circuit: ***************************

Doing analysis at TEMP = -40.000000 and TNOM = -40.000000


No. of Data Rows : 67
                          ***************************
                          DC transfer characteristic  Mon Jan  9 13:57:20  2023
--------------------------------------------------------------------------------
Index   v-sweep         rds             
--------------------------------------------------------------------------------
0	0.000000e+00	3.357690e+04	
1	5.000000e-02	3.506349e+04	
2	1.000000e-01	3.668289e+04	
3	1.500000e-01	3.845373e+04	
4	2.000000e-01	4.039829e+04	
5	2.500000e-01	4.254345e+04	
6	3.000000e-01	4.492191e+04	
7	3.500000e-01	4.757394e+04	
8	4.000000e-01	5.054959e+04	
9	4.500000e-01	5.391193e+04	
10	5.000000e-01	5.774154e+04	
11	5.500000e-01	6.214307e+04	
12	6.000000e-01	6.725491e+04	
13	6.500000e-01	7.326397e+04	
14	7.000000e-01	8.042897e+04	
15	7.500000e-01	8.911846e+04	
16	8.000000e-01	9.987591e+04	
17	8.500000e-01	1.135367e+05	
18	9.000000e-01	1.314526e+05	
19	9.500000e-01	1.559565e+05	
20	1.000000e+00	1.914185e+05	
21	1.050000e+00	2.469197e+05	
22	1.100000e+00	3.437915e+05	
23	1.150000e+00	5.373949e+05	
24	1.200000e+00	9.613765e+05	
25	1.250000e+00	1.811261e+06	
26	1.300000e+00	3.143446e+06	
27	1.350000e+00	4.802049e+06	
28	1.400000e+00	6.594080e+06	
29	1.450000e+00	8.392172e+06	
30	1.500000e+00	1.013107e+07	
31	1.550000e+00	1.178246e+07	
32	1.600000e+00	1.333704e+07	
33	1.650000e+00	1.479470e+07	
34	1.700000e+00	1.615960e+07	
35	1.750000e+00	1.743762e+07	
36	1.800000e+00	1.863519e+07	
37	1.850000e+00	1.975866e+07	
38	1.900000e+00	2.081408e+07	
39	1.950000e+00	2.180703e+07	
40	2.000000e+00	2.274261e+07	
41	2.050000e+00	2.362547e+07	
42	2.100000e+00	2.445980e+07	
43	2.150000e+00	2.524942e+07	
44	2.200000e+00	2.599775e+07	
45	2.250000e+00	2.670790e+07	
46	2.300000e+00	2.738268e+07	
47	2.350000e+00	2.802464e+07	
48	2.400000e+00	2.863611e+07	
49	2.450000e+00	2.921917e+07	
50	2.500000e+00	2.977576e+07	
51	2.550000e+00	3.030762e+07	
52	2.600000e+00	3.081635e+07	
53	2.650000e+00	3.130338e+07	
54	2.700000e+00	3.177005e+07	

Index   v-sweep         rds             
--------------------------------------------------------------------------------
55	2.750000e+00	3.221752e+07	
56	2.800000e+00	3.264685e+07	
57	2.850000e+00	3.305894e+07	
58	2.900000e+00	3.345452e+07	
59	2.950000e+00	3.383416e+07	
60	3.000000e+00	3.419821e+07	
61	3.050000e+00	3.454676e+07	
62	3.100000e+00	3.487960e+07	
63	3.150000e+00	3.519617e+07	
64	3.200000e+00	3.549548e+07	
65	3.250000e+00	3.577607e+07	
66	3.300000e+00	3.603592e+07	
Reset re-loads circuit ***************************

Circuit: ***************************

Doing analysis at TEMP = -40.000000 and TNOM = -40.000000


No. of Data Rows : 67
                          ***************************
                          DC transfer characteristic  Mon Jan  9 13:57:20  2023
--------------------------------------------------------------------------------
Index   v-sweep         rds             
--------------------------------------------------------------------------------
0	0.000000e+00	2.801260e+04	
1	5.000000e-02	2.891644e+04	
2	1.000000e-01	2.987787e+04	
3	1.500000e-01	3.090260e+04	
4	2.000000e-01	3.199707e+04	
5	2.500000e-01	3.316866e+04	
6	3.000000e-01	3.442582e+04	
7	3.500000e-01	3.577827e+04	
8	4.000000e-01	3.723728e+04	
9	4.500000e-01	3.881594e+04	
10	5.000000e-01	4.052962e+04	
11	5.500000e-01	4.239638e+04	
12	6.000000e-01	4.443772e+04	
13	6.500000e-01	4.667930e+04	
14	7.000000e-01	4.915211e+04	
15	7.500000e-01	5.189387e+04	
16	8.000000e-01	5.495096e+04	
17	8.500000e-01	5.838110e+04	
18	9.000000e-01	6.225698e+04	
19	9.500000e-01	6.667149e+04	
20	1.000000e+00	7.174525e+04	
21	1.050000e+00	7.763776e+04	
22	1.100000e+00	8.456446e+04	
23	1.150000e+00	9.282348e+04	
24	1.200000e+00	1.028395e+05	
25	1.250000e+00	1.152383e+05	
26	1.300000e+00	1.309810e+05	
27	1.350000e+00	1.516195e+05	
28	1.400000e+00	1.798197e+05	
29	1.450000e+00	2.205174e+05	
30	1.500000e+00	2.836765e+05	
31	1.550000e+00	3.910278e+05	
32	1.600000e+00	5.899359e+05	
33	1.650000e+00	9.629070e+05	
34	1.700000e+00	1.584719e+06	
35	1.750000e+00	2.446870e+06	
36	1.800000e+00	3.470579e+06	
37	1.850000e+00	4.572453e+06	
38	1.900000e+00	5.694179e+06	
39	1.950000e+00	6.801427e+06	
40	2.000000e+00	7.875770e+06	
41	2.050000e+00	8.908175e+06	
42	2.100000e+00	9.894923e+06	
43	2.150000e+00	1.083526e+07	
44	2.200000e+00	1.173004e+07	
45	2.250000e+00	1.258098e+07	
46	2.300000e+00	1.339021e+07	
47	2.350000e+00	1.416004e+07	
48	2.400000e+00	1.489278e+07	
49	2.450000e+00	1.559071e+07	
50	2.500000e+00	1.625601e+07	
51	2.550000e+00	1.689072e+07	
52	2.600000e+00	1.749677e+07	
53	2.650000e+00	1.807595e+07	
54	2.700000e+00	1.862993e+07	

Index   v-sweep         rds             
--------------------------------------------------------------------------------
55	2.750000e+00	1.916025e+07	
56	2.800000e+00	1.966835e+07	
57	2.850000e+00	2.015556e+07	
58	2.900000e+00	2.062310e+07	
59	2.950000e+00	2.107212e+07	
60	3.000000e+00	2.150367e+07	
61	3.050000e+00	2.191871e+07	
62	3.100000e+00	2.231815e+07	
63	3.150000e+00	2.270280e+07	
64	3.200000e+00	2.307338e+07	
65	3.250000e+00	2.343054e+07	
66	3.300000e+00	2.377480e+07	
Reset re-loads circuit ***************************

Circuit: ***************************

Doing analysis at TEMP = -40.000000 and TNOM = -40.000000


No. of Data Rows : 67
                          ***************************
                          DC transfer characteristic  Mon Jan  9 13:57:20  2023
--------------------------------------------------------------------------------
Index   v-sweep         rds             
--------------------------------------------------------------------------------
0	0.000000e+00	2.508630e+04	
1	5.000000e-02	2.571185e+04	
2	1.000000e-01	2.636774e+04	
3	1.500000e-01	2.705624e+04	
4	2.000000e-01	2.777983e+04	
5	2.500000e-01	2.854127e+04	
6	3.000000e-01	2.934360e+04	
7	3.500000e-01	3.019021e+04	
8	4.000000e-01	3.108488e+04	
9	4.500000e-01	3.203180e+04	
10	5.000000e-01	3.303570e+04	
11	5.500000e-01	3.410187e+04	
12	6.000000e-01	3.523629e+04	
13	6.500000e-01	3.644574e+04	
14	7.000000e-01	3.773791e+04	
15	7.500000e-01	3.912158e+04	
16	8.000000e-01	4.060683e+04	
17	8.500000e-01	4.220526e+04	
18	9.000000e-01	4.393034e+04	
19	9.500000e-01	4.579772e+04	
20	1.000000e+00	4.782577e+04	
21	1.050000e+00	5.003615e+04	
22	1.100000e+00	5.245462e+04	
23	1.150000e+00	5.511199e+04	
24	1.200000e+00	5.804551e+04	
25	1.250000e+00	6.130058e+04	
26	1.300000e+00	6.493313e+04	
27	1.350000e+00	6.901284e+04	
28	1.400000e+00	7.362770e+04	
29	1.450000e+00	7.889037e+04	
30	1.500000e+00	8.494754e+04	
31	1.550000e+00	9.199376e+04	
32	1.600000e+00	1.002927e+05	
33	1.650000e+00	1.102107e+05	
34	1.700000e+00	1.222721e+05	
35	1.750000e+00	1.372540e+05	
36	1.800000e+00	1.563567e+05	
37	1.850000e+00	1.815308e+05	
38	1.900000e+00	2.161384e+05	
39	1.950000e+00	2.663698e+05	
40	2.000000e+00	3.443034e+05	
41	2.050000e+00	4.736807e+05	
42	2.100000e+00	6.953102e+05	
43	2.150000e+00	1.055871e+06	
44	2.200000e+00	1.573116e+06	
45	2.250000e+00	2.220802e+06	
46	2.300000e+00	2.952782e+06	
47	2.350000e+00	3.727662e+06	
48	2.400000e+00	4.516353e+06	
49	2.450000e+00	5.300525e+06	
50	2.500000e+00	6.069280e+06	
51	2.550000e+00	6.816450e+06	
52	2.600000e+00	7.538788e+06	
53	2.650000e+00	8.234835e+06	
54	2.700000e+00	8.904222e+06	

Index   v-sweep         rds             
--------------------------------------------------------------------------------
55	2.750000e+00	9.547238e+06	
56	2.800000e+00	1.016456e+07	
57	2.850000e+00	1.075711e+07	
58	2.900000e+00	1.132589e+07	
59	2.950000e+00	1.187200e+07	
60	3.000000e+00	1.239650e+07	
61	3.050000e+00	1.290049e+07	
62	3.100000e+00	1.338500e+07	
63	3.150000e+00	1.385101e+07	
64	3.200000e+00	1.429950e+07	
65	3.250000e+00	1.473135e+07	
66	3.300000e+00	1.514742e+07	
Reset re-loads circuit ***************************

Circuit: ***************************

Note: No ".plot", ".print", or ".fourier" lines; no simulations run
