
Note: Compatibility modes selected: hs

Warning: m=xx on .subckt line will override multiplier m hierarchy!


Circuit: ***************************

Doing analysis at TEMP = 125.000000 and TNOM = 125.000000


No. of Data Rows : 67
                          ***************************
                          DC transfer characteristic  Mon Jan  9 13:57:20  2023
--------------------------------------------------------------------------------
Index   v-sweep         rds             
--------------------------------------------------------------------------------
0	0.000000e+00	4.633332e+03	
1	5.000000e-02	5.887195e+03	
2	1.000000e-01	8.001806e+03	
3	1.500000e-01	1.225923e+04	
4	2.000000e-01	2.386634e+04	
5	2.500000e-01	6.771466e+04	
6	3.000000e-01	1.947546e+05	
7	3.500000e-01	3.825375e+05	
8	4.000000e-01	5.672615e+05	
9	4.500000e-01	7.260130e+05	
10	5.000000e-01	8.587848e+05	
11	5.500000e-01	9.702907e+05	
12	6.000000e-01	1.065023e+06	
13	6.500000e-01	1.146490e+06	
14	7.000000e-01	1.217331e+06	
15	7.500000e-01	1.279531e+06	
16	8.000000e-01	1.334610e+06	
17	8.500000e-01	1.383744e+06	
18	9.000000e-01	1.427860e+06	
19	9.500000e-01	1.467698e+06	
20	1.000000e+00	1.503857e+06	
21	1.050000e+00	1.536830e+06	
22	1.100000e+00	1.567022e+06	
23	1.150000e+00	1.594771e+06	
24	1.200000e+00	1.620365e+06	
25	1.250000e+00	1.644044e+06	
26	1.300000e+00	1.666017e+06	
27	1.350000e+00	1.686461e+06	
28	1.400000e+00	1.705529e+06	
29	1.450000e+00	1.723357e+06	
30	1.500000e+00	1.740061e+06	
31	1.550000e+00	1.755743e+06	
32	1.600000e+00	1.770493e+06	
33	1.650000e+00	1.784391e+06	
34	1.700000e+00	1.797508e+06	
35	1.750000e+00	1.809904e+06	
36	1.800000e+00	1.821635e+06	
37	1.850000e+00	1.832745e+06	
38	1.900000e+00	1.843274e+06	
39	1.950000e+00	1.853253e+06	
40	2.000000e+00	1.862702e+06	
41	2.050000e+00	1.871634e+06	
42	2.100000e+00	1.880050e+06	
43	2.150000e+00	1.887935e+06	
44	2.200000e+00	1.895264e+06	
45	2.250000e+00	1.901988e+06	
46	2.300000e+00	1.908043e+06	
47	2.350000e+00	1.913340e+06	
48	2.400000e+00	1.917765e+06	
49	2.450000e+00	1.921176e+06	
50	2.500000e+00	1.923403e+06	
51	2.550000e+00	1.924244e+06	
52	2.600000e+00	1.923469e+06	
53	2.650000e+00	1.920818e+06	
54	2.700000e+00	1.916004e+06	

Index   v-sweep         rds             
--------------------------------------------------------------------------------
55	2.750000e+00	1.908720e+06	
56	2.800000e+00	1.898647e+06	
57	2.850000e+00	1.885460e+06	
58	2.900000e+00	1.868842e+06	
59	2.950000e+00	1.848501e+06	
60	3.000000e+00	1.824182e+06	
61	3.050000e+00	1.795684e+06	
62	3.100000e+00	1.762878e+06	
63	3.150000e+00	1.725722e+06	
64	3.200000e+00	1.684271e+06	
65	3.250000e+00	1.638683e+06	
66	3.300000e+00	1.589223e+06	
Reset re-loads circuit ***************************

Circuit: ***************************

Doing analysis at TEMP = 125.000000 and TNOM = 125.000000


No. of Data Rows : 67
                          ***************************
                          DC transfer characteristic  Mon Jan  9 13:57:20  2023
--------------------------------------------------------------------------------
Index   v-sweep         rds             
--------------------------------------------------------------------------------
0	0.000000e+00	1.493868e+03	
1	5.000000e-02	1.629356e+03	
2	1.000000e-01	1.788655e+03	
3	1.500000e-01	1.978630e+03	
4	2.000000e-01	2.209061e+03	
5	2.500000e-01	2.494369e+03	
6	3.000000e-01	2.856726e+03	
7	3.500000e-01	3.332018e+03	
8	4.000000e-01	3.982199e+03	
9	4.500000e-01	4.923323e+03	
10	5.000000e-01	6.395872e+03	
11	5.500000e-01	8.954925e+03	
12	6.000000e-01	1.393602e+04	
13	6.500000e-01	2.388463e+04	
14	7.000000e-01	4.082374e+04	
15	7.500000e-01	6.348780e+04	
16	8.000000e-01	8.890922e+04	
17	8.500000e-01	1.148604e+05	
18	9.000000e-01	1.401737e+05	
19	9.500000e-01	1.643343e+05	
20	1.000000e+00	1.871566e+05	
21	1.050000e+00	2.086121e+05	
22	1.100000e+00	2.287443e+05	
23	1.150000e+00	2.476278e+05	
24	1.200000e+00	2.653483e+05	
25	1.250000e+00	2.819930e+05	
26	1.300000e+00	2.976456e+05	
27	1.350000e+00	3.123845e+05	
28	1.400000e+00	3.262822e+05	
29	1.450000e+00	3.394047e+05	
30	1.500000e+00	3.518123e+05	
31	1.550000e+00	3.635598e+05	
32	1.600000e+00	3.746967e+05	
33	1.650000e+00	3.852682e+05	
34	1.700000e+00	3.953153e+05	
35	1.750000e+00	4.048751e+05	
36	1.800000e+00	4.139817e+05	
37	1.850000e+00	4.226659e+05	
38	1.900000e+00	4.309559e+05	
39	1.950000e+00	4.388775e+05	
40	2.000000e+00	4.464543e+05	
41	2.050000e+00	4.537075e+05	
42	2.100000e+00	4.606565e+05	
43	2.150000e+00	4.673187e+05	
44	2.200000e+00	4.737092e+05	
45	2.250000e+00	4.798409e+05	
46	2.300000e+00	4.857235e+05	
47	2.350000e+00	4.913638e+05	
48	2.400000e+00	4.967641e+05	
49	2.450000e+00	5.019219e+05	
50	2.500000e+00	5.068281e+05	
51	2.550000e+00	5.114661e+05	
52	2.600000e+00	5.158102e+05	
53	2.650000e+00	5.198235e+05	
54	2.700000e+00	5.234567e+05	

Index   v-sweep         rds             
--------------------------------------------------------------------------------
55	2.750000e+00	5.266460e+05	
56	2.800000e+00	5.293121e+05	
57	2.850000e+00	5.313589e+05	
58	2.900000e+00	5.326731e+05	
59	2.950000e+00	5.331253e+05	
60	3.000000e+00	5.325717e+05	
61	3.050000e+00	5.308578e+05	
62	3.100000e+00	5.278240e+05	
63	3.150000e+00	5.233133e+05	
64	3.200000e+00	5.171805e+05	
65	3.250000e+00	5.093034e+05	
66	3.300000e+00	4.995942e+05	
Reset re-loads circuit ***************************

Circuit: ***************************

Doing analysis at TEMP = 125.000000 and TNOM = 125.000000


No. of Data Rows : 67
                          ***************************
                          DC transfer characteristic  Mon Jan  9 13:57:20  2023
--------------------------------------------------------------------------------
Index   v-sweep         rds             
--------------------------------------------------------------------------------
0	0.000000e+00	9.487551e+02	
1	5.000000e-02	1.002545e+03	
2	1.000000e-01	1.061745e+03	
3	1.500000e-01	1.127212e+03	
4	2.000000e-01	1.199993e+03	
5	2.500000e-01	1.281383e+03	
6	3.000000e-01	1.373002e+03	
7	3.500000e-01	1.476902e+03	
8	4.000000e-01	1.595728e+03	
9	4.500000e-01	1.732942e+03	
10	5.000000e-01	1.893169e+03	
11	5.500000e-01	2.082733e+03	
12	6.000000e-01	2.310518e+03	
13	6.500000e-01	2.589420e+03	
14	7.000000e-01	2.938913e+03	
15	7.500000e-01	3.389869e+03	
16	8.000000e-01	3.994239e+03	
17	8.500000e-01	4.845790e+03	
18	9.000000e-01	6.125610e+03	
19	9.500000e-01	8.189643e+03	
20	1.000000e+00	1.164529e+04	
21	1.050000e+00	1.714374e+04	
22	1.100000e+00	2.483284e+04	
23	1.150000e+00	3.423303e+04	
24	1.200000e+00	4.466993e+04	
25	1.250000e+00	5.559493e+04	
26	1.300000e+00	6.664304e+04	
27	1.350000e+00	7.759085e+04	
28	1.400000e+00	8.830747e+04	
29	1.450000e+00	9.871936e+04	
30	1.500000e+00	1.087881e+05	
31	1.550000e+00	1.184967e+05	
32	1.600000e+00	1.278415e+05	
33	1.650000e+00	1.368267e+05	
34	1.700000e+00	1.454615e+05	
35	1.750000e+00	1.537578e+05	
36	1.800000e+00	1.617291e+05	
37	1.850000e+00	1.693896e+05	
38	1.900000e+00	1.767536e+05	
39	1.950000e+00	1.838354e+05	
40	2.000000e+00	1.906487e+05	
41	2.050000e+00	1.972069e+05	
42	2.100000e+00	2.035226e+05	
43	2.150000e+00	2.096079e+05	
44	2.200000e+00	2.154744e+05	
45	2.250000e+00	2.211329e+05	
46	2.300000e+00	2.265935e+05	
47	2.350000e+00	2.318660e+05	
48	2.400000e+00	2.369591e+05	
49	2.450000e+00	2.418811e+05	
50	2.500000e+00	2.466396e+05	
51	2.550000e+00	2.512411e+05	
52	2.600000e+00	2.556910e+05	
53	2.650000e+00	2.599931e+05	
54	2.700000e+00	2.641495e+05	

Index   v-sweep         rds             
--------------------------------------------------------------------------------
55	2.750000e+00	2.681596e+05	
56	2.800000e+00	2.720195e+05	
57	2.850000e+00	2.757210e+05	
58	2.900000e+00	2.792508e+05	
59	2.950000e+00	2.825885e+05	
60	3.000000e+00	2.857062e+05	
61	3.050000e+00	2.885661e+05	
62	3.100000e+00	2.911200e+05	
63	3.150000e+00	2.933072e+05	
64	3.200000e+00	2.950546e+05	
65	3.250000e+00	2.962758e+05	
66	3.300000e+00	2.968724e+05	
Reset re-loads circuit ***************************

Circuit: ***************************

Doing analysis at TEMP = 125.000000 and TNOM = 125.000000


No. of Data Rows : 67
                          ***************************
                          DC transfer characteristic  Mon Jan  9 13:57:20  2023
--------------------------------------------------------------------------------
Index   v-sweep         rds             
--------------------------------------------------------------------------------
0	0.000000e+00	7.311494e+02	
1	5.000000e-02	7.618695e+02	
2	1.000000e-01	7.947535e+02	
3	1.500000e-01	8.300371e+02	
4	2.000000e-01	8.679915e+02	
5	2.500000e-01	9.089302e+02	
6	3.000000e-01	9.532181e+02	
7	3.500000e-01	1.001282e+03	
8	4.000000e-01	1.053625e+03	
9	4.500000e-01	1.110844e+03	
10	5.000000e-01	1.173651e+03	
11	5.500000e-01	1.242905e+03	
12	6.000000e-01	1.319654e+03	
13	6.500000e-01	1.405184e+03	
14	7.000000e-01	1.501094e+03	
15	7.500000e-01	1.609405e+03	
16	8.000000e-01	1.732699e+03	
17	8.500000e-01	1.874343e+03	
18	9.000000e-01	2.038814e+03	
19	9.500000e-01	2.232217e+03	
20	1.000000e+00	2.463126e+03	
21	1.050000e+00	2.744046e+03	
22	1.100000e+00	3.094068e+03	
23	1.150000e+00	3.544041e+03	
24	1.200000e+00	4.147010e+03	
25	1.250000e+00	4.998949e+03	
26	1.300000e+00	6.272491e+03	
27	1.350000e+00	8.237649e+03	
28	1.400000e+00	1.118559e+04	
29	1.450000e+00	1.524333e+04	
30	1.500000e+00	2.028950e+04	
31	1.550000e+00	2.606480e+04	
32	1.600000e+00	3.230683e+04	
33	1.650000e+00	3.880819e+04	
34	1.700000e+00	4.542121e+04	
35	1.750000e+00	5.204540e+04	
36	1.800000e+00	5.861392e+04	
37	1.850000e+00	6.508293e+04	
38	1.900000e+00	7.142426e+04	
39	1.950000e+00	7.762033e+04	
40	2.000000e+00	8.366080e+04	
41	2.050000e+00	8.954032e+04	
42	2.100000e+00	9.525694e+04	
43	2.150000e+00	1.008111e+05	
44	2.200000e+00	1.062047e+05	
45	2.250000e+00	1.114411e+05	
46	2.300000e+00	1.165239e+05	
47	2.350000e+00	1.214576e+05	
48	2.400000e+00	1.262466e+05	
49	2.450000e+00	1.308958e+05	
50	2.500000e+00	1.354100e+05	
51	2.550000e+00	1.397939e+05	
52	2.600000e+00	1.440522e+05	
53	2.650000e+00	1.481895e+05	
54	2.700000e+00	1.522101e+05	

Index   v-sweep         rds             
--------------------------------------------------------------------------------
55	2.750000e+00	1.561184e+05	
56	2.800000e+00	1.599183e+05	
57	2.850000e+00	1.636133e+05	
58	2.900000e+00	1.672064e+05	
59	2.950000e+00	1.707002e+05	
60	3.000000e+00	1.740958e+05	
61	3.050000e+00	1.773932e+05	
62	3.100000e+00	1.805905e+05	
63	3.150000e+00	1.836831e+05	
64	3.200000e+00	1.866631e+05	
65	3.250000e+00	1.895182e+05	
66	3.300000e+00	1.922307e+05	
Reset re-loads circuit ***************************

Circuit: ***************************

Doing analysis at TEMP = 125.000000 and TNOM = 125.000000


No. of Data Rows : 67
                          ***************************
                          DC transfer characteristic  Mon Jan  9 13:57:20  2023
--------------------------------------------------------------------------------
Index   v-sweep         rds             
--------------------------------------------------------------------------------
0	0.000000e+00	6.181467e+02	
1	5.000000e-02	6.389298e+02	
2	1.000000e-01	6.608369e+02	
3	1.500000e-01	6.839610e+02	
4	2.000000e-01	7.084057e+02	
5	2.500000e-01	7.342865e+02	
6	3.000000e-01	7.617329e+02	
7	3.500000e-01	7.908906e+02	
8	4.000000e-01	8.219240e+02	
9	4.500000e-01	8.550190e+02	
10	5.000000e-01	8.903872e+02	
11	5.500000e-01	9.282703e+02	
12	6.000000e-01	9.689454e+02	
13	6.500000e-01	1.012732e+03	
14	7.000000e-01	1.060002e+03	
15	7.500000e-01	1.111185e+03	
16	8.000000e-01	1.166791e+03	
17	8.500000e-01	1.227418e+03	
18	9.000000e-01	1.293780e+03	
19	9.500000e-01	1.366735e+03	
20	1.000000e+00	1.447324e+03	
21	1.050000e+00	1.536823e+03	
22	1.100000e+00	1.636815e+03	
23	1.150000e+00	1.749298e+03	
24	1.200000e+00	1.876831e+03	
25	1.250000e+00	2.022765e+03	
26	1.300000e+00	2.191602e+03	
27	1.350000e+00	2.389586e+03	
28	1.400000e+00	2.625735e+03	
29	1.450000e+00	2.913731e+03	
30	1.500000e+00	3.275525e+03	
31	1.550000e+00	3.748313e+03	
32	1.600000e+00	4.397016e+03	
33	1.650000e+00	5.331015e+03	
34	1.700000e+00	6.708085e+03	
35	1.750000e+00	8.690110e+03	
36	1.800000e+00	1.135659e+04	
37	1.850000e+00	1.466275e+04	
38	1.900000e+00	1.848172e+04	
39	1.950000e+00	2.266858e+04	
40	2.000000e+00	2.709692e+04	
41	2.050000e+00	3.166866e+04	
42	2.100000e+00	3.631173e+04	
43	2.150000e+00	4.097442e+04	
44	2.200000e+00	4.562008e+04	
45	2.250000e+00	5.022293e+04	
46	2.300000e+00	5.476495e+04	
47	2.350000e+00	5.923374e+04	
48	2.400000e+00	6.362089e+04	
49	2.450000e+00	6.792097e+04	
50	2.500000e+00	7.213064e+04	
51	2.550000e+00	7.624815e+04	
52	2.600000e+00	8.027288e+04	
53	2.650000e+00	8.420506e+04	
54	2.700000e+00	8.804555e+04	

Index   v-sweep         rds             
--------------------------------------------------------------------------------
55	2.750000e+00	9.179565e+04	
56	2.800000e+00	9.545697e+04	
57	2.850000e+00	9.903138e+04	
58	2.900000e+00	1.025209e+05	
59	2.950000e+00	1.059276e+05	
60	3.000000e+00	1.092536e+05	
61	3.050000e+00	1.125011e+05	
62	3.100000e+00	1.156722e+05	
63	3.150000e+00	1.187689e+05	
64	3.200000e+00	1.217930e+05	
65	3.250000e+00	1.247458e+05	
66	3.300000e+00	1.276283e+05	
Reset re-loads circuit ***************************

Circuit: ***************************

Doing analysis at TEMP = 125.000000 and TNOM = 125.000000


No. of Data Rows : 67
                          ***************************
                          DC transfer characteristic  Mon Jan  9 13:57:20  2023
--------------------------------------------------------------------------------
Index   v-sweep         rds             
--------------------------------------------------------------------------------
0	0.000000e+00	5.516388e+02	
1	5.000000e-02	5.671267e+02	
2	1.000000e-01	5.832923e+02	
3	1.500000e-01	6.001806e+02	
4	2.000000e-01	6.178407e+02	
5	2.500000e-01	6.363261e+02	
6	3.000000e-01	6.556958e+02	
7	3.500000e-01	6.760140e+02	
8	4.000000e-01	6.973516e+02	
9	4.500000e-01	7.197869e+02	
10	5.000000e-01	7.434062e+02	
11	5.500000e-01	7.683051e+02	
12	6.000000e-01	7.945899e+02	
13	6.500000e-01	8.223791e+02	
14	7.000000e-01	8.518050e+02	
15	7.500000e-01	8.830160e+02	
16	8.000000e-01	9.161792e+02	
17	8.500000e-01	9.514830e+02	
18	9.000000e-01	9.891414e+02	
19	9.500000e-01	1.029398e+03	
20	1.000000e+00	1.072531e+03	
21	1.050000e+00	1.118860e+03	
22	1.100000e+00	1.168756e+03	
23	1.150000e+00	1.222649e+03	
24	1.200000e+00	1.281042e+03	
25	1.250000e+00	1.344529e+03	
26	1.300000e+00	1.413817e+03	
27	1.350000e+00	1.489751e+03	
28	1.400000e+00	1.573360e+03	
29	1.450000e+00	1.665906e+03	
30	1.500000e+00	1.768965e+03	
31	1.550000e+00	1.884543e+03	
32	1.600000e+00	2.015248e+03	
33	1.650000e+00	2.164574e+03	
34	1.700000e+00	2.337374e+03	
35	1.750000e+00	2.540684e+03	
36	1.800000e+00	2.785235e+03	
37	1.850000e+00	3.088250e+03	
38	1.900000e+00	3.478516e+03	
39	1.950000e+00	4.004512e+03	
40	2.000000e+00	4.743320e+03	
41	2.050000e+00	5.799207e+03	
42	2.100000e+00	7.275258e+03	
43	2.150000e+00	9.225812e+03	
44	2.200000e+00	1.163251e+04	
45	2.250000e+00	1.442368e+04	
46	2.300000e+00	1.750936e+04	
47	2.350000e+00	2.080520e+04	
48	2.400000e+00	2.424166e+04	
49	2.450000e+00	2.776488e+04	
50	2.500000e+00	3.133435e+04	
51	2.550000e+00	3.491998e+04	
52	2.600000e+00	3.849961e+04	
53	2.650000e+00	4.205695e+04	
54	2.700000e+00	4.558007e+04	

Index   v-sweep         rds             
--------------------------------------------------------------------------------
55	2.750000e+00	4.906031e+04	
56	2.800000e+00	5.249141e+04	
57	2.850000e+00	5.586895e+04	
58	2.900000e+00	5.918991e+04	
59	2.950000e+00	6.245227e+04	
60	3.000000e+00	6.565486e+04	
61	3.050000e+00	6.879709e+04	
62	3.100000e+00	7.187883e+04	
63	3.150000e+00	7.490034e+04	
64	3.200000e+00	7.786212e+04	
65	3.250000e+00	8.076490e+04	
66	3.300000e+00	8.360955e+04	
Reset re-loads circuit ***************************

Circuit: ***************************

Note: No ".plot", ".print", or ".fourier" lines; no simulations run
