
Note: Compatibility modes selected: hs

Warning: m=xx on .subckt line will override multiplier m hierarchy!


Circuit: ***************************

Doing analysis at TEMP = 125.000000 and TNOM = 125.000000


No. of Data Rows : 67
                          ***************************
                          DC transfer characteristic  Mon Jan  9 13:57:20  2023
--------------------------------------------------------------------------------
Index   v-sweep         rds             
--------------------------------------------------------------------------------
0	0.000000e+00	9.068721e+04	
1	5.000000e-02	1.130796e+05	
2	1.000000e-01	1.491482e+05	
3	1.500000e-01	2.162603e+05	
4	2.000000e-01	3.752094e+05	
5	2.500000e-01	8.947087e+05	
6	3.000000e-01	2.473192e+06	
7	3.500000e-01	4.946085e+06	
8	4.000000e-01	7.353975e+06	
9	4.500000e-01	9.433224e+06	
10	5.000000e-01	1.123262e+07	
11	5.500000e-01	1.281947e+07	
12	6.000000e-01	1.424088e+07	
13	6.500000e-01	1.552844e+07	
14	7.000000e-01	1.670429e+07	
15	7.500000e-01	1.778477e+07	
16	8.000000e-01	1.878244e+07	
17	8.500000e-01	1.970737e+07	
18	9.000000e-01	2.056777e+07	
19	9.500000e-01	2.137051e+07	
20	1.000000e+00	2.212142e+07	
21	1.050000e+00	2.282552e+07	
22	1.100000e+00	2.348713e+07	
23	1.150000e+00	2.411005e+07	
24	1.200000e+00	2.469760e+07	
25	1.250000e+00	2.525274e+07	
26	1.300000e+00	2.577808e+07	
27	1.350000e+00	2.627597e+07	
28	1.400000e+00	2.674849e+07	
29	1.450000e+00	2.719754e+07	
30	1.500000e+00	2.762480e+07	
31	1.550000e+00	2.803182e+07	
32	1.600000e+00	2.841998e+07	
33	1.650000e+00	2.879056e+07	
34	1.700000e+00	2.914469e+07	
35	1.750000e+00	2.948341e+07	
36	1.800000e+00	2.980766e+07	
37	1.850000e+00	3.011826e+07	
38	1.900000e+00	3.041593e+07	
39	1.950000e+00	3.070128e+07	
40	2.000000e+00	3.097477e+07	
41	2.050000e+00	3.123675e+07	
42	2.100000e+00	3.148736e+07	
43	2.150000e+00	3.172654e+07	
44	2.200000e+00	3.195401e+07	
45	2.250000e+00	3.216918e+07	
46	2.300000e+00	3.237114e+07	
47	2.350000e+00	3.255860e+07	
48	2.400000e+00	3.272984e+07	
49	2.450000e+00	3.288269e+07	
50	2.500000e+00	3.301444e+07	
51	2.550000e+00	3.312183e+07	
52	2.600000e+00	3.320106e+07	
53	2.650000e+00	3.324778e+07	
54	2.700000e+00	3.325708e+07	

Index   v-sweep         rds             
--------------------------------------------------------------------------------
55	2.750000e+00	3.322363e+07	
56	2.800000e+00	3.314173e+07	
57	2.850000e+00	3.300547e+07	
58	2.900000e+00	3.280893e+07	
59	2.950000e+00	3.254642e+07	
60	3.000000e+00	3.221276e+07	
61	3.050000e+00	3.180354e+07	
62	3.100000e+00	3.131550e+07	
63	3.150000e+00	3.074678e+07	
64	3.200000e+00	3.009716e+07	
65	3.250000e+00	2.936829e+07	
66	3.300000e+00	2.856375e+07	
Reset re-loads circuit ***************************

Circuit: ***************************

Doing analysis at TEMP = 125.000000 and TNOM = 125.000000


No. of Data Rows : 67
                          ***************************
                          DC transfer characteristic  Mon Jan  9 13:57:20  2023
--------------------------------------------------------------------------------
Index   v-sweep         rds             
--------------------------------------------------------------------------------
0	0.000000e+00	3.178036e+04	
1	5.000000e-02	3.460530e+04	
2	1.000000e-01	3.792029e+04	
3	1.500000e-01	4.186455e+04	
4	2.000000e-01	4.663546e+04	
5	2.500000e-01	5.252218e+04	
6	3.000000e-01	5.996563e+04	
7	3.500000e-01	6.967168e+04	
8	4.000000e-01	8.284021e+04	
9	4.500000e-01	1.016681e+05	
10	5.000000e-01	1.305512e+05	
11	5.500000e-01	1.791025e+05	
12	6.000000e-01	2.687305e+05	
13	6.500000e-01	4.357802e+05	
14	7.000000e-01	6.986445e+05	
15	7.500000e-01	1.022986e+06	
16	8.000000e-01	1.365060e+06	
17	8.500000e-01	1.703193e+06	
18	9.000000e-01	2.030201e+06	
19	9.500000e-01	2.344344e+06	
20	1.000000e+00	2.645637e+06	
21	1.050000e+00	2.934624e+06	
22	1.100000e+00	3.211979e+06	
23	1.150000e+00	3.478382e+06	
24	1.200000e+00	3.734474e+06	
25	1.250000e+00	3.980852e+06	
26	1.300000e+00	4.218069e+06	
27	1.350000e+00	4.446632e+06	
28	1.400000e+00	4.667010e+06	
29	1.450000e+00	4.879638e+06	
30	1.500000e+00	5.084919e+06	
31	1.550000e+00	5.283228e+06	
32	1.600000e+00	5.474913e+06	
33	1.650000e+00	5.660299e+06	
34	1.700000e+00	5.839692e+06	
35	1.750000e+00	6.013374e+06	
36	1.800000e+00	6.181613e+06	
37	1.850000e+00	6.344658e+06	
38	1.900000e+00	6.502743e+06	
39	1.950000e+00	6.656090e+06	
40	2.000000e+00	6.804904e+06	
41	2.050000e+00	6.949377e+06	
42	2.100000e+00	7.089688e+06	
43	2.150000e+00	7.226001e+06	
44	2.200000e+00	7.358460e+06	
45	2.250000e+00	7.487189e+06	
46	2.300000e+00	7.612286e+06	
47	2.350000e+00	7.733809e+06	
48	2.400000e+00	7.851775e+06	
49	2.450000e+00	7.966140e+06	
50	2.500000e+00	8.076784e+06	
51	2.550000e+00	8.183491e+06	
52	2.600000e+00	8.285928e+06	
53	2.650000e+00	8.383620e+06	
54	2.700000e+00	8.475920e+06	

Index   v-sweep         rds             
--------------------------------------------------------------------------------
55	2.750000e+00	8.561983e+06	
56	2.800000e+00	8.640739e+06	
57	2.850000e+00	8.710872e+06	
58	2.900000e+00	8.770799e+06	
59	2.950000e+00	8.818664e+06	
60	3.000000e+00	8.852352e+06	
61	3.050000e+00	8.869510e+06	
62	3.100000e+00	8.867606e+06	
63	3.150000e+00	8.844007e+06	
64	3.200000e+00	8.796095e+06	
65	3.250000e+00	8.721405e+06	
66	3.300000e+00	8.617798e+06	
Reset re-loads circuit ***************************

Circuit: ***************************

Doing analysis at TEMP = 125.000000 and TNOM = 125.000000


No. of Data Rows : 67
                          ***************************
                          DC transfer characteristic  Mon Jan  9 13:57:20  2023
--------------------------------------------------------------------------------
Index   v-sweep         rds             
--------------------------------------------------------------------------------
0	0.000000e+00	2.019913e+04	
1	5.000000e-02	2.133147e+04	
2	1.000000e-01	2.257755e+04	
3	1.500000e-01	2.395533e+04	
4	2.000000e-01	2.548681e+04	
5	2.500000e-01	2.719914e+04	
6	3.000000e-01	2.912625e+04	
7	3.500000e-01	3.131115e+04	
8	4.000000e-01	3.380914e+04	
9	4.500000e-01	3.669249e+04	
10	5.000000e-01	4.005758e+04	
11	5.500000e-01	4.403571e+04	
12	6.000000e-01	4.881050e+04	
13	6.500000e-01	5.464652e+04	
14	7.000000e-01	6.193884e+04	
15	7.500000e-01	7.130256e+04	
16	8.000000e-01	8.374325e+04	
17	8.500000e-01	1.009931e+05	
18	9.000000e-01	1.261643e+05	
19	9.500000e-01	1.647658e+05	
20	1.000000e+00	2.248887e+05	
21	1.050000e+00	3.129090e+05	
22	1.100000e+00	4.265601e+05	
23	1.150000e+00	5.567492e+05	
24	1.200000e+00	6.948929e+05	
25	1.250000e+00	8.356451e+05	
26	1.300000e+00	9.761483e+05	
27	1.350000e+00	1.114940e+06	
28	1.400000e+00	1.251278e+06	
29	1.450000e+00	1.384798e+06	
30	1.500000e+00	1.515332e+06	
31	1.550000e+00	1.642823e+06	
32	1.600000e+00	1.767276e+06	
33	1.650000e+00	1.888729e+06	
34	1.700000e+00	2.007245e+06	
35	1.750000e+00	2.122894e+06	
36	1.800000e+00	2.235757e+06	
37	1.850000e+00	2.345913e+06	
38	1.900000e+00	2.453445e+06	
39	1.950000e+00	2.558435e+06	
40	2.000000e+00	2.660964e+06	
41	2.050000e+00	2.761109e+06	
42	2.100000e+00	2.858948e+06	
43	2.150000e+00	2.954555e+06	
44	2.200000e+00	3.048000e+06	
45	2.250000e+00	3.139352e+06	
46	2.300000e+00	3.228679e+06	
47	2.350000e+00	3.316042e+06	
48	2.400000e+00	3.401503e+06	
49	2.450000e+00	3.485117e+06	
50	2.500000e+00	3.566935e+06	
51	2.550000e+00	3.647003e+06	
52	2.600000e+00	3.725355e+06	
53	2.650000e+00	3.802013e+06	
54	2.700000e+00	3.876982e+06	

Index   v-sweep         rds             
--------------------------------------------------------------------------------
55	2.750000e+00	3.950241e+06	
56	2.800000e+00	4.021736e+06	
57	2.850000e+00	4.091368e+06	
58	2.900000e+00	4.158981e+06	
59	2.950000e+00	4.224344e+06	
60	3.000000e+00	4.287137e+06	
61	3.050000e+00	4.346930e+06	
62	3.100000e+00	4.403160e+06	
63	3.150000e+00	4.455120e+06	
64	3.200000e+00	4.501931e+06	
65	3.250000e+00	4.542539e+06	
66	3.300000e+00	4.575703e+06	
Reset re-loads circuit ***************************

Circuit: ***************************

Doing analysis at TEMP = 125.000000 and TNOM = 125.000000


No. of Data Rows : 67
                          ***************************
                          DC transfer characteristic  Mon Jan  9 13:57:20  2023
--------------------------------------------------------------------------------
Index   v-sweep         rds             
--------------------------------------------------------------------------------
0	0.000000e+00	1.537855e+04	
1	5.000000e-02	1.601924e+04	
2	1.000000e-01	1.670505e+04	
3	1.500000e-01	1.744090e+04	
4	2.000000e-01	1.823245e+04	
5	2.500000e-01	1.908623e+04	
6	3.000000e-01	2.000985e+04	
7	3.500000e-01	2.101220e+04	
8	4.000000e-01	2.210378e+04	
9	4.500000e-01	2.329699e+04	
10	5.000000e-01	2.460668e+04	
11	5.500000e-01	2.605074e+04	
12	6.000000e-01	2.765091e+04	
13	6.500000e-01	2.943390e+04	
14	7.000000e-01	3.143287e+04	
15	7.500000e-01	3.368954e+04	
16	8.000000e-01	3.625715e+04	
17	8.500000e-01	3.920470e+04	
18	9.000000e-01	4.262332e+04	
19	9.500000e-01	4.663595e+04	
20	1.000000e+00	5.141266e+04	
21	1.050000e+00	5.719584e+04	
22	1.100000e+00	6.434330e+04	
23	1.150000e+00	7.340548e+04	
24	1.200000e+00	8.526708e+04	
25	1.250000e+00	1.013973e+05	
26	1.300000e+00	1.241900e+05	
27	1.350000e+00	1.569850e+05	
28	1.400000e+00	2.027574e+05	
29	1.450000e+00	2.617825e+05	
30	1.500000e+00	3.313064e+05	
31	1.550000e+00	4.076294e+05	
32	1.600000e+00	4.877402e+05	
33	1.650000e+00	5.696331e+05	
34	1.700000e+00	6.520690e+05	
35	1.750000e+00	7.342975e+05	
36	1.800000e+00	8.158635e+05	
37	1.850000e+00	8.964897e+05	
38	1.900000e+00	9.760069e+05	
39	1.950000e+00	1.054314e+06	
40	2.000000e+00	1.131353e+06	
41	2.050000e+00	1.207094e+06	
42	2.100000e+00	1.281526e+06	
43	2.150000e+00	1.354649e+06	
44	2.200000e+00	1.426474e+06	
45	2.250000e+00	1.497015e+06	
46	2.300000e+00	1.566293e+06	
47	2.350000e+00	1.634330e+06	
48	2.400000e+00	1.701149e+06	
49	2.450000e+00	1.766775e+06	
50	2.500000e+00	1.831234e+06	
51	2.550000e+00	1.894551e+06	
52	2.600000e+00	1.956752e+06	
53	2.650000e+00	2.017862e+06	
54	2.700000e+00	2.077907e+06	

Index   v-sweep         rds             
--------------------------------------------------------------------------------
55	2.750000e+00	2.136910e+06	
56	2.800000e+00	2.194893e+06	
57	2.850000e+00	2.251877e+06	
58	2.900000e+00	2.307878e+06	
59	2.950000e+00	2.362906e+06	
60	3.000000e+00	2.416964e+06	
61	3.050000e+00	2.470042e+06	
62	3.100000e+00	2.522112e+06	
63	3.150000e+00	2.573124e+06	
64	3.200000e+00	2.622993e+06	
65	3.250000e+00	2.671595e+06	
66	3.300000e+00	2.718748e+06	
Reset re-loads circuit ***************************

Circuit: ***************************

Doing analysis at TEMP = 125.000000 and TNOM = 125.000000


No. of Data Rows : 67
                          ***************************
                          DC transfer characteristic  Mon Jan  9 13:57:20  2023
--------------------------------------------------------------------------------
Index   v-sweep         rds             
--------------------------------------------------------------------------------
0	0.000000e+00	1.279160e+04	
1	5.000000e-02	1.321911e+04	
2	1.000000e-01	1.366970e+04	
3	1.500000e-01	1.414528e+04	
4	2.000000e-01	1.464798e+04	
5	2.500000e-01	1.518016e+04	
6	3.000000e-01	1.574447e+04	
7	3.500000e-01	1.634391e+04	
8	4.000000e-01	1.698183e+04	
9	4.500000e-01	1.766205e+04	
10	5.000000e-01	1.838889e+04	
11	5.500000e-01	1.916729e+04	
12	6.000000e-01	2.000293e+04	
13	6.500000e-01	2.090232e+04	
14	7.000000e-01	2.187302e+04	
15	7.500000e-01	2.292386e+04	
16	8.000000e-01	2.406514e+04	
17	8.500000e-01	2.530906e+04	
18	9.000000e-01	2.667008e+04	
19	9.500000e-01	2.816556e+04	
20	1.000000e+00	2.981647e+04	
21	1.050000e+00	3.164840e+04	
22	1.100000e+00	3.369296e+04	
23	1.150000e+00	3.598965e+04	
24	1.200000e+00	3.858858e+04	
25	1.250000e+00	4.155441e+04	
26	1.300000e+00	4.497224e+04	
27	1.350000e+00	4.895691e+04	
28	1.400000e+00	5.366815e+04	
29	1.450000e+00	5.933647e+04	
30	1.500000e+00	6.630962e+04	
31	1.550000e+00	7.513624e+04	
32	1.600000e+00	8.670649e+04	
33	1.650000e+00	1.024204e+05	
34	1.700000e+00	1.241583e+05	
35	1.750000e+00	1.536262e+05	
36	1.800000e+00	1.912625e+05	
37	1.850000e+00	2.359307e+05	
38	1.900000e+00	2.857312e+05	
39	1.950000e+00	3.388689e+05	
40	2.000000e+00	3.939896e+05	
41	2.050000e+00	4.501658e+05	
42	2.100000e+00	5.067846e+05	
43	2.150000e+00	5.634436e+05	
44	2.200000e+00	6.198777e+05	
45	2.250000e+00	6.759106e+05	
46	2.300000e+00	7.314246e+05	
47	2.350000e+00	7.863410e+05	
48	2.400000e+00	8.406074e+05	
49	2.450000e+00	8.941898e+05	
50	2.500000e+00	9.470670e+05	
51	2.550000e+00	9.992269e+05	
52	2.600000e+00	1.050664e+06	
53	2.650000e+00	1.101377e+06	
54	2.700000e+00	1.151369e+06	

Index   v-sweep         rds             
--------------------------------------------------------------------------------
55	2.750000e+00	1.200646e+06	
56	2.800000e+00	1.249213e+06	
57	2.850000e+00	1.297081e+06	
58	2.900000e+00	1.344258e+06	
59	2.950000e+00	1.390754e+06	
60	3.000000e+00	1.436580e+06	
61	3.050000e+00	1.481747e+06	
62	3.100000e+00	1.526265e+06	
63	3.150000e+00	1.570144e+06	
64	3.200000e+00	1.613392e+06	
65	3.250000e+00	1.656014e+06	
66	3.300000e+00	1.698013e+06	
Reset re-loads circuit ***************************

Circuit: ***************************

Doing analysis at TEMP = 125.000000 and TNOM = 125.000000


No. of Data Rows : 67
                          ***************************
                          DC transfer characteristic  Mon Jan  9 13:57:20  2023
--------------------------------------------------------------------------------
Index   v-sweep         rds             
--------------------------------------------------------------------------------
0	0.000000e+00	1.121427e+04	
1	5.000000e-02	1.152820e+04	
2	1.000000e-01	1.185580e+04	
3	1.500000e-01	1.219800e+04	
4	2.000000e-01	1.255576e+04	
5	2.500000e-01	1.293018e+04	
6	3.000000e-01	1.332242e+04	
7	3.500000e-01	1.373378e+04	
8	4.000000e-01	1.416569e+04	
9	4.500000e-01	1.461970e+04	
10	5.000000e-01	1.509756e+04	
11	5.500000e-01	1.560116e+04	
12	6.000000e-01	1.613265e+04	
13	6.500000e-01	1.669438e+04	
14	7.000000e-01	1.728900e+04	
15	7.500000e-01	1.791947e+04	
16	8.000000e-01	1.858912e+04	
17	8.500000e-01	1.930169e+04	
18	9.000000e-01	2.006145e+04	
19	9.500000e-01	2.087323e+04	
20	1.000000e+00	2.174253e+04	
21	1.050000e+00	2.267569e+04	
22	1.100000e+00	2.368000e+04	
23	1.150000e+00	2.476393e+04	
24	1.200000e+00	2.593734e+04	
25	1.250000e+00	2.721181e+04	
26	1.300000e+00	2.860104e+04	
27	1.350000e+00	3.012136e+04	
28	1.400000e+00	3.179241e+04	
29	1.450000e+00	3.363808e+04	
30	1.500000e+00	3.568777e+04	
31	1.550000e+00	3.797823e+04	
32	1.600000e+00	4.055616e+04	
33	1.650000e+00	4.348228e+04	
34	1.700000e+00	4.683776e+04	
35	1.750000e+00	5.073490e+04	
36	1.800000e+00	5.533588e+04	
37	1.850000e+00	6.088615e+04	
38	1.900000e+00	6.777328e+04	
39	1.950000e+00	7.661853e+04	
40	2.000000e+00	8.836971e+04	
41	2.050000e+00	1.042535e+05	
42	2.100000e+00	1.253808e+05	
43	2.150000e+00	1.521407e+05	
44	2.200000e+00	1.839846e+05	
45	2.250000e+00	2.198062e+05	
46	2.300000e+00	2.584419e+05	
47	2.350000e+00	2.989333e+05	
48	2.400000e+00	3.405745e+05	
49	2.450000e+00	3.828701e+05	
50	2.500000e+00	4.254780e+05	
51	2.550000e+00	4.681619e+05	
52	2.600000e+00	5.107580e+05	
53	2.650000e+00	5.531516e+05	
54	2.700000e+00	5.952618e+05	

Index   v-sweep         rds             
--------------------------------------------------------------------------------
55	2.750000e+00	6.370313e+05	
56	2.800000e+00	6.784197e+05	
57	2.850000e+00	7.193983e+05	
58	2.900000e+00	7.599474e+05	
59	2.950000e+00	8.000535e+05	
60	3.000000e+00	8.397079e+05	
61	3.050000e+00	8.789055e+05	
62	3.100000e+00	9.176440e+05	
63	3.150000e+00	9.559230e+05	
64	3.200000e+00	9.937438e+05	
65	3.250000e+00	1.031109e+06	
66	3.300000e+00	1.068022e+06	
Reset re-loads circuit ***************************

Circuit: ***************************

Note: No ".plot", ".print", or ".fourier" lines; no simulations run
