
Note: Compatibility modes selected: hs

Warning: m=xx on .subckt line will override multiplier m hierarchy!


Circuit: ***************************

Doing analysis at TEMP = 25.000000 and TNOM = 25.000000


No. of Data Rows : 67
                          ***************************
                          DC transfer characteristic  Mon Jan  9 13:57:19  2023
--------------------------------------------------------------------------------
Index   v-sweep         rds             
--------------------------------------------------------------------------------
0	0.000000e+00	2.023445e+04	
1	5.000000e-02	3.150368e+04	
2	1.000000e-01	6.866108e+04	
3	1.500000e-01	4.109331e+05	
4	2.000000e-01	2.900454e+06	
5	2.500000e-01	7.159339e+06	
6	3.000000e-01	1.070812e+07	
7	3.500000e-01	1.323748e+07	
8	4.000000e-01	1.506726e+07	
9	4.500000e-01	1.644785e+07	
10	5.000000e-01	1.753004e+07	
11	5.500000e-01	1.840442e+07	
12	6.000000e-01	1.912786e+07	
13	6.500000e-01	1.973776e+07	
14	7.000000e-01	2.025980e+07	
15	7.500000e-01	2.071227e+07	
16	8.000000e-01	2.110857e+07	
17	8.500000e-01	2.145880e+07	
18	9.000000e-01	2.177070e+07	
19	9.500000e-01	2.205036e+07	
20	1.000000e+00	2.230260e+07	
21	1.050000e+00	2.253131e+07	
22	1.100000e+00	2.273969e+07	
23	1.150000e+00	2.293035e+07	
24	1.200000e+00	2.310548e+07	
25	1.250000e+00	2.326691e+07	
26	1.300000e+00	2.341621e+07	
27	1.350000e+00	2.355468e+07	
28	1.400000e+00	2.368349e+07	
29	1.450000e+00	2.380360e+07	
30	1.500000e+00	2.391587e+07	
31	1.550000e+00	2.402103e+07	
32	1.600000e+00	2.411975e+07	
33	1.650000e+00	2.421258e+07	
34	1.700000e+00	2.430002e+07	
35	1.750000e+00	2.438250e+07	
36	1.800000e+00	2.446039e+07	
37	1.850000e+00	2.453401e+07	
38	1.900000e+00	2.460359e+07	
39	1.950000e+00	2.466934e+07	
40	2.000000e+00	2.473138e+07	
41	2.050000e+00	2.478977e+07	
42	2.100000e+00	2.484450e+07	
43	2.150000e+00	2.489544e+07	
44	2.200000e+00	2.494241e+07	
45	2.250000e+00	2.498510e+07	
46	2.300000e+00	2.502308e+07	
47	2.350000e+00	2.505579e+07	
48	2.400000e+00	2.508256e+07	
49	2.450000e+00	2.510255e+07	
50	2.500000e+00	2.511477e+07	
51	2.550000e+00	2.511808e+07	
52	2.600000e+00	2.511118e+07	
53	2.650000e+00	2.509262e+07	
54	2.700000e+00	2.506078e+07	

Index   v-sweep         rds             
--------------------------------------------------------------------------------
55	2.750000e+00	2.501395e+07	
56	2.800000e+00	2.495026e+07	
57	2.850000e+00	2.486780e+07	
58	2.900000e+00	2.476456e+07	
59	2.950000e+00	2.463854e+07	
60	3.000000e+00	2.448780e+07	
61	3.050000e+00	2.431044e+07	
62	3.100000e+00	2.410475e+07	
63	3.150000e+00	2.386920e+07	
64	3.200000e+00	2.360254e+07	
65	3.250000e+00	2.330387e+07	
66	3.300000e+00	2.297265e+07	
Reset re-loads circuit ***************************

Circuit: ***************************

Doing analysis at TEMP = 25.000000 and TNOM = 25.000000


No. of Data Rows : 67
                          ***************************
                          DC transfer characteristic  Mon Jan  9 13:57:19  2023
--------------------------------------------------------------------------------
Index   v-sweep         rds             
--------------------------------------------------------------------------------
0	0.000000e+00	4.848828e+03	
1	5.000000e-02	5.394412e+03	
2	1.000000e-01	6.074270e+03	
3	1.500000e-01	6.944863e+03	
4	2.000000e-01	8.099383e+03	
5	2.500000e-01	9.703241e+03	
6	3.000000e-01	1.207996e+04	
7	3.500000e-01	1.595389e+04	
8	4.000000e-01	2.329597e+04	
9	4.500000e-01	4.112795e+04	
10	5.000000e-01	9.966334e+04	
11	5.500000e-01	2.764583e+05	
12	6.000000e-01	5.867910e+05	
13	6.500000e-01	9.423140e+05	
14	7.000000e-01	1.282517e+06	
15	7.500000e-01	1.590091e+06	
16	8.000000e-01	1.864490e+06	
17	8.500000e-01	2.109423e+06	
18	9.000000e-01	2.329072e+06	
19	9.500000e-01	2.527142e+06	
20	1.000000e+00	2.706723e+06	
21	1.050000e+00	2.870359e+06	
22	1.100000e+00	3.020144e+06	
23	1.150000e+00	3.157814e+06	
24	1.200000e+00	3.284819e+06	
25	1.250000e+00	3.402380e+06	
26	1.300000e+00	3.511533e+06	
27	1.350000e+00	3.613165e+06	
28	1.400000e+00	3.708041e+06	
29	1.450000e+00	3.796821e+06	
30	1.500000e+00	3.880082e+06	
31	1.550000e+00	3.958328e+06	
32	1.600000e+00	4.032003e+06	
33	1.650000e+00	4.101500e+06	
34	1.700000e+00	4.167167e+06	
35	1.750000e+00	4.229314e+06	
36	1.800000e+00	4.288217e+06	
37	1.850000e+00	4.344126e+06	
38	1.900000e+00	4.397262e+06	
39	1.950000e+00	4.447825e+06	
40	2.000000e+00	4.495994e+06	
41	2.050000e+00	4.541928e+06	
42	2.100000e+00	4.585767e+06	
43	2.150000e+00	4.627633e+06	
44	2.200000e+00	4.667627e+06	
45	2.250000e+00	4.705826e+06	
46	2.300000e+00	4.742286e+06	
47	2.350000e+00	4.777030e+06	
48	2.400000e+00	4.810052e+06	
49	2.450000e+00	4.841306e+06	
50	2.500000e+00	4.870699e+06	
51	2.550000e+00	4.898090e+06	
52	2.600000e+00	4.923279e+06	
53	2.650000e+00	4.946000e+06	
54	2.700000e+00	4.965916e+06	

Index   v-sweep         rds             
--------------------------------------------------------------------------------
55	2.750000e+00	4.982615e+06	
56	2.800000e+00	4.995602e+06	
57	2.850000e+00	5.004302e+06	
58	2.900000e+00	5.008060e+06	
59	2.950000e+00	5.006148e+06	
60	3.000000e+00	4.997772e+06	
61	3.050000e+00	4.982097e+06	
62	3.100000e+00	4.958262e+06	
63	3.150000e+00	4.925413e+06	
64	3.200000e+00	4.882741e+06	
65	3.250000e+00	4.829516e+06	
66	3.300000e+00	4.765139e+06	
Reset re-loads circuit ***************************

Circuit: ***************************

Doing analysis at TEMP = 25.000000 and TNOM = 25.000000


No. of Data Rows : 67
                          ***************************
                          DC transfer characteristic  Mon Jan  9 13:57:19  2023
--------------------------------------------------------------------------------
Index   v-sweep         rds             
--------------------------------------------------------------------------------
0	0.000000e+00	2.899928e+03	
1	5.000000e-02	3.076801e+03	
2	1.000000e-01	3.275607e+03	
3	1.500000e-01	3.500695e+03	
4	2.000000e-01	3.757642e+03	
5	2.500000e-01	4.053725e+03	
6	3.000000e-01	4.398616e+03	
7	3.500000e-01	4.805460e+03	
8	4.000000e-01	5.292581e+03	
9	4.500000e-01	5.886310e+03	
10	5.000000e-01	6.625877e+03	
11	5.500000e-01	7.572378e+03	
12	6.000000e-01	8.826338e+03	
13	6.500000e-01	1.056514e+04	
14	7.000000e-01	1.313147e+04	
15	7.500000e-01	1.727033e+04	
16	8.000000e-01	2.485165e+04	
17	8.500000e-01	4.113763e+04	
18	9.000000e-01	7.903856e+04	
19	9.500000e-01	1.530828e+05	
20	1.000000e+00	2.586853e+05	
21	1.050000e+00	3.786598e+05	
22	1.100000e+00	5.005576e+05	
23	1.150000e+00	6.186016e+05	
24	1.200000e+00	7.306464e+05	
25	1.250000e+00	8.361389e+05	
26	1.300000e+00	9.351788e+05	
27	1.350000e+00	1.028117e+06	
28	1.400000e+00	1.115386e+06	
29	1.450000e+00	1.197429e+06	
30	1.500000e+00	1.274667e+06	
31	1.550000e+00	1.347491e+06	
32	1.600000e+00	1.416258e+06	
33	1.650000e+00	1.481291e+06	
34	1.700000e+00	1.542882e+06	
35	1.750000e+00	1.601295e+06	
36	1.800000e+00	1.656767e+06	
37	1.850000e+00	1.709515e+06	
38	1.900000e+00	1.759733e+06	
39	1.950000e+00	1.807599e+06	
40	2.000000e+00	1.853274e+06	
41	2.050000e+00	1.896905e+06	
42	2.100000e+00	1.938625e+06	
43	2.150000e+00	1.978558e+06	
44	2.200000e+00	2.016815e+06	
45	2.250000e+00	2.053500e+06	
46	2.300000e+00	2.088706e+06	
47	2.350000e+00	2.122518e+06	
48	2.400000e+00	2.155015e+06	
49	2.450000e+00	2.186266e+06	
50	2.500000e+00	2.216331e+06	
51	2.550000e+00	2.245261e+06	
52	2.600000e+00	2.273097e+06	
53	2.650000e+00	2.299863e+06	
54	2.700000e+00	2.325569e+06	

Index   v-sweep         rds             
--------------------------------------------------------------------------------
55	2.750000e+00	2.350206e+06	
56	2.800000e+00	2.373739e+06	
57	2.850000e+00	2.396105e+06	
58	2.900000e+00	2.417208e+06	
59	2.950000e+00	2.436910e+06	
60	3.000000e+00	2.455032e+06	
61	3.050000e+00	2.471339e+06	
62	3.100000e+00	2.485546e+06	
63	3.150000e+00	2.497305e+06	
64	3.200000e+00	2.506212e+06	
65	3.250000e+00	2.511801e+06	
66	3.300000e+00	2.513557e+06	
Reset re-loads circuit ***************************

Circuit: ***************************

Doing analysis at TEMP = 25.000000 and TNOM = 25.000000


No. of Data Rows : 67
                          ***************************
                          DC transfer characteristic  Mon Jan  9 13:57:19  2023
--------------------------------------------------------------------------------
Index   v-sweep         rds             
--------------------------------------------------------------------------------
0	0.000000e+00	2.187286e+03	
1	5.000000e-02	2.277466e+03	
2	1.000000e-01	2.374936e+03	
3	1.500000e-01	2.480616e+03	
4	2.000000e-01	2.595588e+03	
5	2.500000e-01	2.721135e+03	
6	3.000000e-01	2.858784e+03	
7	3.500000e-01	3.010374e+03	
8	4.000000e-01	3.178135e+03	
9	4.500000e-01	3.364798e+03	
10	5.000000e-01	3.573748e+03	
11	5.500000e-01	3.809228e+03	
12	6.000000e-01	4.076632e+03	
13	6.500000e-01	4.382920e+03	
14	7.000000e-01	4.737234e+03	
15	7.500000e-01	5.151822e+03	
16	8.000000e-01	5.643480e+03	
17	8.500000e-01	6.235874e+03	
18	9.000000e-01	6.963436e+03	
19	9.500000e-01	7.878243e+03	
20	1.000000e+00	9.062855e+03	
21	1.050000e+00	1.065603e+04	
22	1.100000e+00	1.290848e+04	
23	1.150000e+00	1.631474e+04	
24	1.200000e+00	2.194561e+04	
25	1.250000e+00	3.223118e+04	
26	1.300000e+00	5.194113e+04	
27	1.350000e+00	8.629593e+04	
28	1.400000e+00	1.353055e+05	
29	1.450000e+00	1.938424e+05	
30	1.500000e+00	2.566380e+05	
31	1.550000e+00	3.203305e+05	
32	1.600000e+00	3.831203e+05	
33	1.650000e+00	4.441180e+05	
34	1.700000e+00	5.029189e+05	
35	1.750000e+00	5.593714e+05	
36	1.800000e+00	6.134565e+05	
37	1.850000e+00	6.652241e+05	
38	1.900000e+00	7.147591e+05	
39	1.950000e+00	7.621631e+05	
40	2.000000e+00	8.075439e+05	
41	2.050000e+00	8.510097e+05	
42	2.100000e+00	8.926660e+05	
43	2.150000e+00	9.326140e+05	
44	2.200000e+00	9.709497e+05	
45	2.250000e+00	1.007764e+06	
46	2.300000e+00	1.043140e+06	
47	2.350000e+00	1.077160e+06	
48	2.400000e+00	1.109896e+06	
49	2.450000e+00	1.141418e+06	
50	2.500000e+00	1.171791e+06	
51	2.550000e+00	1.201075e+06	
52	2.600000e+00	1.229326e+06	
53	2.650000e+00	1.256598e+06	
54	2.700000e+00	1.282939e+06	

Index   v-sweep         rds             
--------------------------------------------------------------------------------
55	2.750000e+00	1.308393e+06	
56	2.800000e+00	1.333003e+06	
57	2.850000e+00	1.356805e+06	
58	2.900000e+00	1.379830e+06	
59	2.950000e+00	1.402106e+06	
60	3.000000e+00	1.423651e+06	
61	3.050000e+00	1.444476e+06	
62	3.100000e+00	1.464578e+06	
63	3.150000e+00	1.483941e+06	
64	3.200000e+00	1.502532e+06	
65	3.250000e+00	1.520295e+06	
66	3.300000e+00	1.537147e+06	
Reset re-loads circuit ***************************

Circuit: ***************************

Doing analysis at TEMP = 25.000000 and TNOM = 25.000000


No. of Data Rows : 67
                          ***************************
                          DC transfer characteristic  Mon Jan  9 13:57:19  2023
--------------------------------------------------------------------------------
Index   v-sweep         rds             
--------------------------------------------------------------------------------
0	0.000000e+00	1.841223e+03	
1	5.000000e-02	1.897739e+03	
2	1.000000e-01	1.957573e+03	
3	1.500000e-01	2.021025e+03	
4	2.000000e-01	2.088435e+03	
5	2.500000e-01	2.160184e+03	
6	3.000000e-01	2.236704e+03	
7	3.500000e-01	2.318487e+03	
8	4.000000e-01	2.406096e+03	
9	4.500000e-01	2.500177e+03	
10	5.000000e-01	2.601472e+03	
11	5.500000e-01	2.710845e+03	
12	6.000000e-01	2.829301e+03	
13	6.500000e-01	2.958022e+03	
14	7.000000e-01	3.098401e+03	
15	7.500000e-01	3.252096e+03	
16	8.000000e-01	3.421096e+03	
17	8.500000e-01	3.607806e+03	
18	9.000000e-01	3.815164e+03	
19	9.500000e-01	4.046794e+03	
20	1.000000e+00	4.307223e+03	
21	1.050000e+00	4.602176e+03	
22	1.100000e+00	4.939005e+03	
23	1.150000e+00	5.327309e+03	
24	1.200000e+00	5.779863e+03	
25	1.250000e+00	6.314050e+03	
26	1.300000e+00	6.954141e+03	
27	1.350000e+00	7.735078e+03	
28	1.400000e+00	8.709030e+03	
29	1.450000e+00	9.957392e+03	
30	1.500000e+00	1.161411e+04	
31	1.550000e+00	1.391404e+04	
32	1.600000e+00	1.729844e+04	
33	1.650000e+00	2.264160e+04	
34	1.700000e+00	3.162692e+04	
35	1.750000e+00	4.680325e+04	
36	1.800000e+00	7.014832e+04	
37	1.850000e+00	1.011708e+05	
38	1.900000e+00	1.375182e+05	
39	1.950000e+00	1.767716e+05	
40	2.000000e+00	2.172122e+05	
41	2.050000e+00	2.577801e+05	
42	2.100000e+00	2.978576e+05	
43	2.150000e+00	3.370958e+05	
44	2.200000e+00	3.753046e+05	
45	2.250000e+00	4.123886e+05	
46	2.300000e+00	4.483088e+05	
47	2.350000e+00	4.830602e+05	
48	2.400000e+00	5.166584e+05	
49	2.450000e+00	5.491313e+05	
50	2.500000e+00	5.805141e+05	
51	2.550000e+00	6.108456e+05	
52	2.600000e+00	6.401665e+05	
53	2.650000e+00	6.685180e+05	
54	2.700000e+00	6.959408e+05	

Index   v-sweep         rds             
--------------------------------------------------------------------------------
55	2.750000e+00	7.224748e+05	
56	2.800000e+00	7.481583e+05	
57	2.850000e+00	7.730285e+05	
58	2.900000e+00	7.971208e+05	
59	2.950000e+00	8.204690e+05	
60	3.000000e+00	8.431052e+05	
61	3.050000e+00	8.650601e+05	
62	3.100000e+00	8.863624e+05	
63	3.150000e+00	9.070391e+05	
64	3.200000e+00	9.271155e+05	
65	3.250000e+00	9.466145e+05	
66	3.300000e+00	9.655563e+05	
Reset re-loads circuit ***************************

Circuit: ***************************

Doing analysis at TEMP = 25.000000 and TNOM = 25.000000


No. of Data Rows : 67
                          ***************************
                          DC transfer characteristic  Mon Jan  9 13:57:19  2023
--------------------------------------------------------------------------------
Index   v-sweep         rds             
--------------------------------------------------------------------------------
0	0.000000e+00	1.652508e+03	
1	5.000000e-02	1.692333e+03	
2	1.000000e-01	1.733959e+03	
3	1.500000e-01	1.777511e+03	
4	2.000000e-01	1.823126e+03	
5	2.500000e-01	1.870954e+03	
6	3.000000e-01	1.921160e+03	
7	3.500000e-01	1.973925e+03	
8	4.000000e-01	2.029450e+03	
9	4.500000e-01	2.087958e+03	
10	5.000000e-01	2.149695e+03	
11	5.500000e-01	2.214936e+03	
12	6.000000e-01	2.283987e+03	
13	6.500000e-01	2.357194e+03	
14	7.000000e-01	2.434941e+03	
15	7.500000e-01	2.517665e+03	
16	8.000000e-01	2.605859e+03	
17	8.500000e-01	2.700084e+03	
18	9.000000e-01	2.800981e+03	
19	9.500000e-01	2.909284e+03	
20	1.000000e+00	3.025838e+03	
21	1.050000e+00	3.151625e+03	
22	1.100000e+00	3.287787e+03	
23	1.150000e+00	3.435661e+03	
24	1.200000e+00	3.596826e+03	
25	1.250000e+00	3.773160e+03	
26	1.300000e+00	3.966910e+03	
27	1.350000e+00	4.180789e+03	
28	1.400000e+00	4.418109e+03	
29	1.450000e+00	4.682946e+03	
30	1.500000e+00	4.980385e+03	
31	1.550000e+00	5.316844e+03	
32	1.600000e+00	5.700551e+03	
33	1.650000e+00	6.142224e+03	
34	1.700000e+00	6.656097e+03	
35	1.750000e+00	7.261496e+03	
36	1.800000e+00	7.985348e+03	
37	1.850000e+00	8.866336e+03	
38	1.900000e+00	9.962102e+03	
39	1.950000e+00	1.136237e+04	
40	2.000000e+00	1.321416e+04	
41	2.050000e+00	1.577208e+04	
42	2.100000e+00	1.949749e+04	
43	2.150000e+00	2.522103e+04	
44	2.200000e+00	3.424397e+04	
45	2.250000e+00	4.794066e+04	
46	2.300000e+00	6.679023e+04	
47	2.350000e+00	9.000786e+04	
48	2.400000e+00	1.162254e+05	
49	2.450000e+00	1.441901e+05	
50	2.500000e+00	1.729933e+05	
51	2.550000e+00	2.020360e+05	
52	2.600000e+00	2.309384e+05	
53	2.650000e+00	2.594644e+05	
54	2.700000e+00	2.874690e+05	

Index   v-sweep         rds             
--------------------------------------------------------------------------------
55	2.750000e+00	3.148660e+05	
56	2.800000e+00	3.416067e+05	
57	2.850000e+00	3.676668e+05	
58	2.900000e+00	3.930381e+05	
59	2.950000e+00	4.177228e+05	
60	3.000000e+00	4.417304e+05	
61	3.050000e+00	4.650744e+05	
62	3.100000e+00	4.877716e+05	
63	3.150000e+00	5.098403e+05	
64	3.200000e+00	5.313000e+05	
65	3.250000e+00	5.521705e+05	
66	3.300000e+00	5.724717e+05	
Reset re-loads circuit ***************************

Circuit: ***************************

Note: No ".plot", ".print", or ".fourier" lines; no simulations run
