
Note: Compatibility modes selected: hs

Warning: m=xx on .subckt line will override multiplier m hierarchy!


Circuit: ***************************

Doing analysis at TEMP = 125.000000 and TNOM = 125.000000


No. of Data Rows : 67
                          ***************************
                          DC transfer characteristic  Mon Jan  9 13:57:21  2023
--------------------------------------------------------------------------------
Index   v-sweep         rds             
--------------------------------------------------------------------------------
0	0.000000e+00	1.641729e+05	
1	5.000000e-02	1.999173e+05	
2	1.000000e-01	2.539497e+05	
3	1.500000e-01	3.446891e+05	
4	2.000000e-01	5.248161e+05	
5	2.500000e-01	9.869409e+05	
6	3.000000e-01	2.391079e+06	
7	3.500000e-01	5.240552e+06	
8	4.000000e-01	8.419018e+06	
9	4.500000e-01	1.123947e+07	
10	5.000000e-01	1.371427e+07	
11	5.500000e-01	1.593743e+07	
12	6.000000e-01	1.797149e+07	
13	6.500000e-01	1.985435e+07	
14	7.000000e-01	2.161034e+07	
15	7.500000e-01	2.325639e+07	
16	8.000000e-01	2.480510e+07	
17	8.500000e-01	2.626642e+07	
18	9.000000e-01	2.764846e+07	
19	9.500000e-01	2.895811e+07	
20	1.000000e+00	3.020126e+07	
21	1.050000e+00	3.138309e+07	
22	1.100000e+00	3.250817e+07	
23	1.150000e+00	3.358058e+07	
24	1.200000e+00	3.460399e+07	
25	1.250000e+00	3.558171e+07	
26	1.300000e+00	3.651673e+07	
27	1.350000e+00	3.741179e+07	
28	1.400000e+00	3.826940e+07	
29	1.450000e+00	3.909185e+07	
30	1.500000e+00	3.988122e+07	
31	1.550000e+00	4.063947e+07	
32	1.600000e+00	4.136837e+07	
33	1.650000e+00	4.206957e+07	
34	1.700000e+00	4.274458e+07	
35	1.750000e+00	4.339481e+07	
36	1.800000e+00	4.402153e+07	
37	1.850000e+00	4.462590e+07	
38	1.900000e+00	4.520896e+07	
39	1.950000e+00	4.577160e+07	
40	2.000000e+00	4.631458e+07	
41	2.050000e+00	4.683845e+07	
42	2.100000e+00	4.734355e+07	
43	2.150000e+00	4.782995e+07	
44	2.200000e+00	4.829742e+07	
45	2.250000e+00	4.874534e+07	
46	2.300000e+00	4.917262e+07	
47	2.350000e+00	4.957767e+07	
48	2.400000e+00	4.995828e+07	
49	2.450000e+00	5.031156e+07	
50	2.500000e+00	5.063384e+07	
51	2.550000e+00	5.092063e+07	
52	2.600000e+00	5.116656e+07	
53	2.650000e+00	5.136535e+07	
54	2.700000e+00	5.150985e+07	

Index   v-sweep         rds             
--------------------------------------------------------------------------------
55	2.750000e+00	5.159204e+07	
56	2.800000e+00	5.160318e+07	
57	2.850000e+00	5.153399e+07	
58	2.900000e+00	5.137489e+07	
59	2.950000e+00	5.111630e+07	
60	3.000000e+00	5.074907e+07	
61	3.050000e+00	5.026492e+07	
62	3.100000e+00	4.965693e+07	
63	3.150000e+00	4.892004e+07	
64	3.200000e+00	4.805154e+07	
65	3.250000e+00	4.705145e+07	
66	3.300000e+00	4.592280e+07	
Reset re-loads circuit ***************************

Circuit: ***************************

Doing analysis at TEMP = 125.000000 and TNOM = 125.000000


No. of Data Rows : 67
                          ***************************
                          DC transfer characteristic  Mon Jan  9 13:57:21  2023
--------------------------------------------------------------------------------
Index   v-sweep         rds             
--------------------------------------------------------------------------------
0	0.000000e+00	6.187877e+04	
1	5.000000e-02	6.717741e+04	
2	1.000000e-01	7.333435e+04	
3	1.500000e-01	8.057574e+04	
4	2.000000e-01	8.921462e+04	
5	2.500000e-01	9.969694e+04	
6	3.000000e-01	1.126799e+05	
7	3.500000e-01	1.291722e+05	
8	4.000000e-01	1.508011e+05	
9	4.500000e-01	1.803547e+05	
10	5.000000e-01	2.229672e+05	
11	5.500000e-01	2.888592e+05	
12	6.000000e-01	3.993814e+05	
13	6.500000e-01	5.944807e+05	
14	7.000000e-01	9.138750e+05	
15	7.500000e-01	1.337903e+06	
16	8.000000e-01	1.804910e+06	
17	8.500000e-01	2.275885e+06	
18	9.000000e-01	2.737260e+06	
19	9.500000e-01	3.185599e+06	
20	1.000000e+00	3.620474e+06	
21	1.050000e+00	4.042273e+06	
22	1.100000e+00	4.451564e+06	
23	1.150000e+00	4.848930e+06	
24	1.200000e+00	5.234924e+06	
25	1.250000e+00	5.610054e+06	
26	1.300000e+00	5.974794e+06	
27	1.350000e+00	6.329583e+06	
28	1.400000e+00	6.674831e+06	
29	1.450000e+00	7.010921e+06	
30	1.500000e+00	7.338216e+06	
31	1.550000e+00	7.657056e+06	
32	1.600000e+00	7.967762e+06	
33	1.650000e+00	8.270639e+06	
34	1.700000e+00	8.565977e+06	
35	1.750000e+00	8.854049e+06	
36	1.800000e+00	9.135117e+06	
37	1.850000e+00	9.409430e+06	
38	1.900000e+00	9.677224e+06	
39	1.950000e+00	9.938724e+06	
40	2.000000e+00	1.019414e+07	
41	2.050000e+00	1.044369e+07	
42	2.100000e+00	1.068755e+07	
43	2.150000e+00	1.092590e+07	
44	2.200000e+00	1.115890e+07	
45	2.250000e+00	1.138670e+07	
46	2.300000e+00	1.160941e+07	
47	2.350000e+00	1.182710e+07	
48	2.400000e+00	1.203981e+07	
49	2.450000e+00	1.224749e+07	
50	2.500000e+00	1.245002e+07	
51	2.550000e+00	1.264717e+07	
52	2.600000e+00	1.283855e+07	
53	2.650000e+00	1.302362e+07	
54	2.700000e+00	1.320160e+07	

Index   v-sweep         rds             
--------------------------------------------------------------------------------
55	2.750000e+00	1.337147e+07	
56	2.800000e+00	1.353190e+07	
57	2.850000e+00	1.368122e+07	
58	2.900000e+00	1.381740e+07	
59	2.950000e+00	1.393797e+07	
60	3.000000e+00	1.404007e+07	
61	3.050000e+00	1.412040e+07	
62	3.100000e+00	1.417530e+07	
63	3.150000e+00	1.420082e+07	
64	3.200000e+00	1.419279e+07	
65	3.250000e+00	1.414704e+07	
66	3.300000e+00	1.405955e+07	
Reset re-loads circuit ***************************

Circuit: ***************************

Doing analysis at TEMP = 125.000000 and TNOM = 125.000000


No. of Data Rows : 67
                          ***************************
                          DC transfer characteristic  Mon Jan  9 13:57:21  2023
--------------------------------------------------------------------------------
Index   v-sweep         rds             
--------------------------------------------------------------------------------
0	0.000000e+00	3.993672e+04	
1	5.000000e-02	4.215769e+04	
2	1.000000e-01	4.459205e+04	
3	1.500000e-01	4.727194e+04	
4	2.000000e-01	5.023629e+04	
5	2.500000e-01	5.353271e+04	
6	3.000000e-01	5.722007e+04	
7	3.500000e-01	6.137202e+04	
8	4.000000e-01	6.608192e+04	
9	4.500000e-01	7.146991e+04	
10	5.000000e-01	7.769324e+04	
11	5.500000e-01	8.496172e+04	
12	6.000000e-01	9.356159e+04	
13	6.500000e-01	1.038935e+05	
14	7.000000e-01	1.165354e+05	
15	7.500000e-01	1.323508e+05	
16	8.000000e-01	1.526828e+05	
17	8.500000e-01	1.797161e+05	
18	9.000000e-01	2.171498e+05	
19	9.500000e-01	2.712925e+05	
20	1.000000e+00	3.518118e+05	
21	1.050000e+00	4.685078e+05	
22	1.100000e+00	6.222904e+05	
23	1.150000e+00	8.028120e+05	
24	1.200000e+00	9.976597e+05	
25	1.250000e+00	1.198459e+06	
26	1.300000e+00	1.400670e+06	
27	1.350000e+00	1.601975e+06	
28	1.400000e+00	1.801187e+06	
29	1.450000e+00	1.997694e+06	
30	1.500000e+00	2.191178e+06	
31	1.550000e+00	2.381483e+06	
32	1.600000e+00	2.568544e+06	
33	1.650000e+00	2.752347e+06	
34	1.700000e+00	2.932913e+06	
35	1.750000e+00	3.110279e+06	
36	1.800000e+00	3.284497e+06	
37	1.850000e+00	3.455624e+06	
38	1.900000e+00	3.623722e+06	
39	1.950000e+00	3.788856e+06	
40	2.000000e+00	3.951090e+06	
41	2.050000e+00	4.110492e+06	
42	2.100000e+00	4.267126e+06	
43	2.150000e+00	4.421057e+06	
44	2.200000e+00	4.572348e+06	
45	2.250000e+00	4.721061e+06	
46	2.300000e+00	4.867257e+06	
47	2.350000e+00	5.010996e+06	
48	2.400000e+00	5.152332e+06	
49	2.450000e+00	5.291321e+06	
50	2.500000e+00	5.428012e+06	
51	2.550000e+00	5.562447e+06	
52	2.600000e+00	5.694663e+06	
53	2.650000e+00	5.824680e+06	
54	2.700000e+00	5.952501e+06	

Index   v-sweep         rds             
--------------------------------------------------------------------------------
55	2.750000e+00	6.078103e+06	
56	2.800000e+00	6.201425e+06	
57	2.850000e+00	6.322354e+06	
58	2.900000e+00	6.440714e+06	
59	2.950000e+00	6.556238e+06	
60	3.000000e+00	6.668553e+06	
61	3.050000e+00	6.777148e+06	
62	3.100000e+00	6.881349e+06	
63	3.150000e+00	6.980289e+06	
64	3.200000e+00	7.072876e+06	
65	3.250000e+00	7.157773e+06	
66	3.300000e+00	7.233373e+06	
Reset re-loads circuit ***************************

Circuit: ***************************

Doing analysis at TEMP = 125.000000 and TNOM = 125.000000


No. of Data Rows : 67
                          ***************************
                          DC transfer characteristic  Mon Jan  9 13:57:21  2023
--------------------------------------------------------------------------------
Index   v-sweep         rds             
--------------------------------------------------------------------------------
0	0.000000e+00	3.054907e+04	
1	5.000000e-02	3.183414e+04	
2	1.000000e-01	3.320683e+04	
3	1.500000e-01	3.467633e+04	
4	2.000000e-01	3.625318e+04	
5	2.500000e-01	3.794950e+04	
6	3.000000e-01	3.977931e+04	
7	3.500000e-01	4.175891e+04	
8	4.000000e-01	4.390736e+04	
9	4.500000e-01	4.624712e+04	
10	5.000000e-01	4.880482e+04	
11	5.500000e-01	5.161224e+04	
12	6.000000e-01	5.470769e+04	
13	6.500000e-01	5.813775e+04	
14	7.000000e-01	6.195959e+04	
15	7.500000e-01	6.624426e+04	
16	8.000000e-01	7.108110e+04	
17	8.500000e-01	7.658407e+04	
18	9.000000e-01	8.290100e+04	
19	9.500000e-01	9.022718e+04	
20	1.000000e+00	9.882639e+04	
21	1.050000e+00	1.090643e+05	
22	1.100000e+00	1.214637e+05	
23	1.150000e+00	1.368005e+05	
24	1.200000e+00	1.562753e+05	
25	1.250000e+00	1.818142e+05	
26	1.300000e+00	2.165034e+05	
27	1.350000e+00	2.647472e+05	
28	1.400000e+00	3.308623e+05	
29	1.450000e+00	4.158792e+05	
30	1.500000e+00	5.163869e+05	
31	1.550000e+00	6.271933e+05	
32	1.600000e+00	7.439294e+05	
33	1.650000e+00	8.636855e+05	
34	1.700000e+00	9.846860e+05	
35	1.750000e+00	1.105869e+06	
36	1.800000e+00	1.226593e+06	
37	1.850000e+00	1.346468e+06	
38	1.900000e+00	1.465249e+06	
39	1.950000e+00	1.582784e+06	
40	2.000000e+00	1.698979e+06	
41	2.050000e+00	1.813775e+06	
42	2.100000e+00	1.927141e+06	
43	2.150000e+00	2.039061e+06	
44	2.200000e+00	2.149529e+06	
45	2.250000e+00	2.258550e+06	
46	2.300000e+00	2.366131e+06	
47	2.350000e+00	2.472288e+06	
48	2.400000e+00	2.577035e+06	
49	2.450000e+00	2.680390e+06	
50	2.500000e+00	2.782373e+06	
51	2.550000e+00	2.883005e+06	
52	2.600000e+00	2.982306e+06	
53	2.650000e+00	3.080297e+06	
54	2.700000e+00	3.177000e+06	

Index   v-sweep         rds             
--------------------------------------------------------------------------------
55	2.750000e+00	3.272435e+06	
56	2.800000e+00	3.366621e+06	
57	2.850000e+00	3.459576e+06	
58	2.900000e+00	3.551313e+06	
59	2.950000e+00	3.641840e+06	
60	3.000000e+00	3.731155e+06	
61	3.050000e+00	3.819244e+06	
62	3.100000e+00	3.906070e+06	
63	3.150000e+00	3.991571e+06	
64	3.200000e+00	4.075647e+06	
65	3.250000e+00	4.158144e+06	
66	3.300000e+00	4.238845e+06	
Reset re-loads circuit ***************************

Circuit: ***************************

Doing analysis at TEMP = 125.000000 and TNOM = 125.000000


No. of Data Rows : 67
                          ***************************
                          DC transfer characteristic  Mon Jan  9 13:57:21  2023
--------------------------------------------------------------------------------
Index   v-sweep         rds             
--------------------------------------------------------------------------------
0	0.000000e+00	2.542562e+04	
1	5.000000e-02	2.629483e+04	
2	1.000000e-01	2.720984e+04	
3	1.500000e-01	2.817431e+04	
4	2.000000e-01	2.919233e+04	
5	2.500000e-01	3.026842e+04	
6	3.000000e-01	3.140765e+04	
7	3.500000e-01	3.261569e+04	
8	4.000000e-01	3.389892e+04	
9	4.500000e-01	3.526453e+04	
10	5.000000e-01	3.672064e+04	
11	5.500000e-01	3.827650e+04	
12	6.000000e-01	3.994265e+04	
13	6.500000e-01	4.173118e+04	
14	7.000000e-01	4.365602e+04	
15	7.500000e-01	4.573328e+04	
16	8.000000e-01	4.798176e+04	
17	8.500000e-01	5.042344e+04	
18	9.000000e-01	5.308429e+04	
19	9.500000e-01	5.599516e+04	
20	1.000000e+00	5.919299e+04	
21	1.050000e+00	6.272247e+04	
22	1.100000e+00	6.663815e+04	
23	1.150000e+00	7.100746e+04	
24	1.200000e+00	7.591479e+04	
25	1.250000e+00	8.146755e+04	
26	1.300000e+00	8.780499e+04	
27	1.350000e+00	9.511199e+04	
28	1.400000e+00	1.036415e+05	
29	1.450000e+00	1.137529e+05	
30	1.500000e+00	1.259810e+05	
31	1.550000e+00	1.411608e+05	
32	1.600000e+00	1.606364e+05	
33	1.650000e+00	1.864990e+05	
34	1.700000e+00	2.214871e+05	
35	1.750000e+00	2.679253e+05	
36	1.800000e+00	3.261357e+05	
37	1.850000e+00	3.941986e+05	
38	1.900000e+00	4.692863e+05	
39	1.950000e+00	5.488793e+05	
40	2.000000e+00	6.311529e+05	
41	2.050000e+00	7.148936e+05	
42	2.100000e+00	7.993165e+05	
43	2.150000e+00	8.839137e+05	
44	2.200000e+00	9.683529e+05	
45	2.250000e+00	1.052413e+06	
46	2.300000e+00	1.135947e+06	
47	2.350000e+00	1.218852e+06	
48	2.400000e+00	1.301060e+06	
49	2.450000e+00	1.382524e+06	
50	2.500000e+00	1.463213e+06	
51	2.550000e+00	1.543106e+06	
52	2.600000e+00	1.622190e+06	
53	2.650000e+00	1.700459e+06	
54	2.700000e+00	1.777908e+06	

Index   v-sweep         rds             
--------------------------------------------------------------------------------
55	2.750000e+00	1.854540e+06	
56	2.800000e+00	1.930357e+06	
57	2.850000e+00	2.005363e+06	
58	2.900000e+00	2.079566e+06	
59	2.950000e+00	2.152970e+06	
60	3.000000e+00	2.225586e+06	
61	3.050000e+00	2.297420e+06	
62	3.100000e+00	2.368480e+06	
63	3.150000e+00	2.438775e+06	
64	3.200000e+00	2.508308e+06	
65	3.250000e+00	2.577083e+06	
66	3.300000e+00	2.645098e+06	
Reset re-loads circuit ***************************

Circuit: ***************************

Doing analysis at TEMP = 125.000000 and TNOM = 125.000000


No. of Data Rows : 67
                          ***************************
                          DC transfer characteristic  Mon Jan  9 13:57:21  2023
--------------------------------------------------------------------------------
Index   v-sweep         rds             
--------------------------------------------------------------------------------
0	0.000000e+00	2.225646e+04	
1	5.000000e-02	2.290050e+04	
2	1.000000e-01	2.357209e+04	
3	1.500000e-01	2.427300e+04	
4	2.000000e-01	2.500517e+04	
5	2.500000e-01	2.577070e+04	
6	3.000000e-01	2.657189e+04	
7	3.500000e-01	2.741128e+04	
8	4.000000e-01	2.829161e+04	
9	4.500000e-01	2.921592e+04	
10	5.000000e-01	3.018756e+04	
11	5.500000e-01	3.121023e+04	
12	6.000000e-01	3.228800e+04	
13	6.500000e-01	3.342541e+04	
14	7.000000e-01	3.462752e+04	
15	7.500000e-01	3.589997e+04	
16	8.000000e-01	3.724906e+04	
17	8.500000e-01	3.868189e+04	
18	9.000000e-01	4.020646e+04	
19	9.500000e-01	4.183183e+04	
20	1.000000e+00	4.356829e+04	
21	1.050000e+00	4.542759e+04	
22	1.100000e+00	4.742321e+04	
23	1.150000e+00	4.957071e+04	
24	1.200000e+00	5.188808e+04	
25	1.250000e+00	5.439637e+04	
26	1.300000e+00	5.712026e+04	
27	1.350000e+00	6.008900e+04	
28	1.400000e+00	6.333752e+04	
29	1.450000e+00	6.690798e+04	
30	1.500000e+00	7.085188e+04	
31	1.550000e+00	7.523315e+04	
32	1.600000e+00	8.013258e+04	
33	1.650000e+00	8.565484e+04	
34	1.700000e+00	9.193983e+04	
35	1.750000e+00	9.918224e+04	
36	1.800000e+00	1.076665e+05	
37	1.850000e+00	1.178304e+05	
38	1.900000e+00	1.303749e+05	
39	1.950000e+00	1.464178e+05	
40	2.000000e+00	1.675861e+05	
41	2.050000e+00	1.957426e+05	
42	2.100000e+00	2.321516e+05	
43	2.150000e+00	2.766943e+05	
44	2.200000e+00	3.280124e+05	
45	2.250000e+00	3.843109e+05	
46	2.300000e+00	4.439850e+05	
47	2.350000e+00	5.058253e+05	
48	2.400000e+00	5.689867e+05	
49	2.450000e+00	6.328950e+05	
50	2.500000e+00	6.971610e+05	
51	2.550000e+00	7.615192e+05	
52	2.600000e+00	8.257859e+05	
53	2.650000e+00	8.898328e+05	
54	2.700000e+00	9.535689e+05	

Index   v-sweep         rds             
--------------------------------------------------------------------------------
55	2.750000e+00	1.016929e+06	
56	2.800000e+00	1.079867e+06	
57	2.850000e+00	1.142348e+06	
58	2.900000e+00	1.204349e+06	
59	2.950000e+00	1.265852e+06	
60	3.000000e+00	1.326845e+06	
61	3.050000e+00	1.387320e+06	
62	3.100000e+00	1.447272e+06	
63	3.150000e+00	1.506699e+06	
64	3.200000e+00	1.565599e+06	
65	3.250000e+00	1.623972e+06	
66	3.300000e+00	1.681821e+06	
Reset re-loads circuit ***************************

Circuit: ***************************

Note: No ".plot", ".print", or ".fourier" lines; no simulations run
