
Note: Compatibility modes selected: hs

Warning: m=xx on .subckt line will override multiplier m hierarchy!


Circuit: ***************************

Doing analysis at TEMP = 25.000000 and TNOM = 25.000000


No. of Data Rows : 67
                          ***************************
                          DC transfer characteristic  Mon Jan  9 13:57:19  2023
--------------------------------------------------------------------------------
Index   v-sweep         rds             
--------------------------------------------------------------------------------
0	0.000000e+00	8.962726e+05	
1	5.000000e-02	1.382255e+06	
2	1.000000e-01	2.946975e+06	
3	1.500000e-01	1.780781e+07	
4	2.000000e-01	1.556168e+08	
5	2.500000e-01	4.453530e+08	
6	3.000000e-01	7.007859e+08	
7	3.500000e-01	8.734963e+08	
8	4.000000e-01	9.886204e+08	
9	4.500000e-01	1.069050e+09	
10	5.000000e-01	1.128174e+09	
11	5.500000e-01	1.173532e+09	
12	6.000000e-01	1.209527e+09	
13	6.500000e-01	1.238864e+09	
14	7.000000e-01	1.263289e+09	
15	7.500000e-01	1.283976e+09	
16	8.000000e-01	1.301749e+09	
17	8.500000e-01	1.317199e+09	
18	9.000000e-01	1.330765e+09	
19	9.500000e-01	1.342782e+09	
20	1.000000e+00	1.353504e+09	
21	1.050000e+00	1.363136e+09	
22	1.100000e+00	1.371839e+09	
23	1.150000e+00	1.379742e+09	
24	1.200000e+00	1.386953e+09	
25	1.250000e+00	1.393560e+09	
26	1.300000e+00	1.399638e+09	
27	1.350000e+00	1.405246e+09	
28	1.400000e+00	1.410440e+09	
29	1.450000e+00	1.415263e+09	
30	1.500000e+00	1.419753e+09	
31	1.550000e+00	1.423945e+09	
32	1.600000e+00	1.427867e+09	
33	1.650000e+00	1.431544e+09	
34	1.700000e+00	1.434998e+09	
35	1.750000e+00	1.438247e+09	
36	1.800000e+00	1.441308e+09	
37	1.850000e+00	1.444194e+09	
38	1.900000e+00	1.446917e+09	
39	1.950000e+00	1.449485e+09	
40	2.000000e+00	1.451904e+09	
41	2.050000e+00	1.454177e+09	
42	2.100000e+00	1.456303e+09	
43	2.150000e+00	1.458281e+09	
44	2.200000e+00	1.460103e+09	
45	2.250000e+00	1.461757e+09	
46	2.300000e+00	1.463229e+09	
47	2.350000e+00	1.464497e+09	
48	2.400000e+00	1.465536e+09	
49	2.450000e+00	1.466314e+09	
50	2.500000e+00	1.466795e+09	
51	2.550000e+00	1.466935e+09	
52	2.600000e+00	1.466683e+09	
53	2.650000e+00	1.465985e+09	
54	2.700000e+00	1.464778e+09	

Index   v-sweep         rds             
--------------------------------------------------------------------------------
55	2.750000e+00	1.462993e+09	
56	2.800000e+00	1.460559e+09	
57	2.850000e+00	1.457396e+09	
58	2.900000e+00	1.453423e+09	
59	2.950000e+00	1.448555e+09	
60	3.000000e+00	1.442706e+09	
61	3.050000e+00	1.435791e+09	
62	3.100000e+00	1.427727e+09	
63	3.150000e+00	1.418432e+09	
64	3.200000e+00	1.407834e+09	
65	3.250000e+00	1.395868e+09	
66	3.300000e+00	1.382477e+09	
Reset re-loads circuit ***************************

Circuit: ***************************

Doing analysis at TEMP = 25.000000 and TNOM = 25.000000


No. of Data Rows : 67
                          ***************************
                          DC transfer characteristic  Mon Jan  9 13:57:19  2023
--------------------------------------------------------------------------------
Index   v-sweep         rds             
--------------------------------------------------------------------------------
0	0.000000e+00	2.237583e+05	
1	5.000000e-02	2.492137e+05	
2	1.000000e-01	2.811188e+05	
3	1.500000e-01	3.222778e+05	
4	2.000000e-01	3.773914e+05	
5	2.500000e-01	4.549779e+05	
6	3.000000e-01	5.721859e+05	
7	3.500000e-01	7.690994e+05	
8	4.000000e-01	1.162673e+06	
9	4.500000e-01	2.222366e+06	
10	5.000000e-01	6.325598e+06	
11	5.500000e-01	2.042680e+07	
12	6.000000e-01	4.672544e+07	
13	6.500000e-01	7.703321e+07	
14	7.000000e-01	1.049966e+08	
15	7.500000e-01	1.289230e+08	
16	8.000000e-01	1.490734e+08	
17	8.500000e-01	1.661237e+08	
18	9.000000e-01	1.807047e+08	
19	9.500000e-01	1.933175e+08	
20	1.000000e+00	2.043445e+08	
21	1.050000e+00	2.140766e+08	
22	1.100000e+00	2.227372e+08	
23	1.150000e+00	2.305003e+08	
24	1.200000e+00	2.375033e+08	
25	1.250000e+00	2.438561e+08	
26	1.300000e+00	2.496479e+08	
27	1.350000e+00	2.549518e+08	
28	1.400000e+00	2.598285e+08	
29	1.450000e+00	2.643288e+08	
30	1.500000e+00	2.684955e+08	
31	1.550000e+00	2.723651e+08	
32	1.600000e+00	2.759687e+08	
33	1.650000e+00	2.793334e+08	
34	1.700000e+00	2.824823e+08	
35	1.750000e+00	2.854360e+08	
36	1.800000e+00	2.882121e+08	
37	1.850000e+00	2.908265e+08	
38	1.900000e+00	2.932928e+08	
39	1.950000e+00	2.956233e+08	
40	2.000000e+00	2.978289e+08	
41	2.050000e+00	2.999189e+08	
42	2.100000e+00	3.019018e+08	
43	2.150000e+00	3.037846e+08	
44	2.200000e+00	3.055734e+08	
45	2.250000e+00	3.072730e+08	
46	2.300000e+00	3.088868e+08	
47	2.350000e+00	3.104170e+08	
48	2.400000e+00	3.118641e+08	
49	2.450000e+00	3.132267e+08	
50	2.500000e+00	3.145016e+08	
51	2.550000e+00	3.156830e+08	
52	2.600000e+00	3.167629e+08	
53	2.650000e+00	3.177301e+08	
54	2.700000e+00	3.185705e+08	

Index   v-sweep         rds             
--------------------------------------------------------------------------------
55	2.750000e+00	3.192666e+08	
56	2.800000e+00	3.197975e+08	
57	2.850000e+00	3.201385e+08	
58	2.900000e+00	3.202614e+08	
59	2.950000e+00	3.201346e+08	
60	3.000000e+00	3.197231e+08	
61	3.050000e+00	3.189895e+08	
62	3.100000e+00	3.178942e+08	
63	3.150000e+00	3.163966e+08	
64	3.200000e+00	3.144560e+08	
65	3.250000e+00	3.120335e+08	
66	3.300000e+00	3.090929e+08	
Reset re-loads circuit ***************************

Circuit: ***************************

Doing analysis at TEMP = 25.000000 and TNOM = 25.000000


No. of Data Rows : 67
                          ***************************
                          DC transfer characteristic  Mon Jan  9 13:57:19  2023
--------------------------------------------------------------------------------
Index   v-sweep         rds             
--------------------------------------------------------------------------------
0	0.000000e+00	1.323037e+05	
1	5.000000e-02	1.404181e+05	
2	1.000000e-01	1.495711e+05	
3	1.500000e-01	1.599760e+05	
4	2.000000e-01	1.719083e+05	
5	2.500000e-01	1.857307e+05	
6	3.000000e-01	2.019309e+05	
7	3.500000e-01	2.211796e+05	
8	4.000000e-01	2.444259e+05	
9	4.500000e-01	2.730578e+05	
10	5.000000e-01	3.091877e+05	
11	5.500000e-01	3.561939e+05	
12	6.000000e-01	4.198262e+05	
13	6.500000e-01	5.106897e+05	
14	7.000000e-01	6.505437e+05	
15	7.500000e-01	8.908623e+05	
16	8.000000e-01	1.377218e+06	
17	8.500000e-01	2.584597e+06	
18	9.000000e-01	5.818520e+06	
19	9.500000e-01	1.256658e+07	
20	1.000000e+00	2.223209e+07	
21	1.050000e+00	3.291411e+07	
22	1.100000e+00	4.331315e+07	
23	1.150000e+00	5.291922e+07	
24	1.200000e+00	6.162749e+07	
25	1.250000e+00	6.948538e+07	
26	1.300000e+00	7.658404e+07	
27	1.350000e+00	8.301842e+07	
28	1.400000e+00	8.887454e+07	
29	1.450000e+00	9.422669e+07	
30	1.500000e+00	9.913786e+07	
31	1.550000e+00	1.036613e+08	
32	1.600000e+00	1.078422e+08	
33	1.650000e+00	1.117187e+08	
34	1.700000e+00	1.153236e+08	
35	1.750000e+00	1.186851e+08	
36	1.800000e+00	1.218275e+08	
37	1.850000e+00	1.247718e+08	
38	1.900000e+00	1.275366e+08	
39	1.950000e+00	1.301381e+08	
40	2.000000e+00	1.325904e+08	
41	2.050000e+00	1.349062e+08	
42	2.100000e+00	1.370967e+08	
43	2.150000e+00	1.391720e+08	
44	2.200000e+00	1.411409e+08	
45	2.250000e+00	1.430115e+08	
46	2.300000e+00	1.447909e+08	
47	2.350000e+00	1.464857e+08	
48	2.400000e+00	1.481015e+08	
49	2.450000e+00	1.496435e+08	
50	2.500000e+00	1.511160e+08	
51	2.550000e+00	1.525230e+08	
52	2.600000e+00	1.538673e+08	
53	2.650000e+00	1.551513e+08	
54	2.700000e+00	1.563763e+08	

Index   v-sweep         rds             
--------------------------------------------------------------------------------
55	2.750000e+00	1.575425e+08	
56	2.800000e+00	1.586490e+08	
57	2.850000e+00	1.596933e+08	
58	2.900000e+00	1.606715e+08	
59	2.950000e+00	1.615775e+08	
60	3.000000e+00	1.624033e+08	
61	3.050000e+00	1.631385e+08	
62	3.100000e+00	1.637700e+08	
63	3.150000e+00	1.642824e+08	
64	3.200000e+00	1.646569e+08	
65	3.250000e+00	1.648726e+08	
66	3.300000e+00	1.649055e+08	
Reset re-loads circuit ***************************

Circuit: ***************************

Doing analysis at TEMP = 25.000000 and TNOM = 25.000000


No. of Data Rows : 67
                          ***************************
                          DC transfer characteristic  Mon Jan  9 13:57:19  2023
--------------------------------------------------------------------------------
Index   v-sweep         rds             
--------------------------------------------------------------------------------
0	0.000000e+00	9.813965e+04	
1	5.000000e-02	1.021744e+05	
2	1.000000e-01	1.065456e+05	
3	1.500000e-01	1.112970e+05	
4	2.000000e-01	1.164807e+05	
5	2.500000e-01	1.221582e+05	
6	3.000000e-01	1.284038e+05	
7	3.500000e-01	1.353072e+05	
8	4.000000e-01	1.429780e+05	
9	4.500000e-01	1.515517e+05	
10	5.000000e-01	1.611977e+05	
11	5.500000e-01	1.721304e+05	
12	6.000000e-01	1.846255e+05	
13	6.500000e-01	1.990437e+05	
14	7.000000e-01	2.158654e+05	
15	7.500000e-01	2.357456e+05	
16	8.000000e-01	2.596007e+05	
17	8.500000e-01	2.887524e+05	
18	9.000000e-01	3.251787e+05	
19	9.500000e-01	3.719751e+05	
20	1.000000e+00	4.342614e+05	
21	1.050000e+00	5.211125e+05	
22	1.100000e+00	6.500854e+05	
23	1.150000e+00	8.590211e+05	
24	1.200000e+00	1.239560e+06	
25	1.250000e+00	2.027136e+06	
26	1.300000e+00	3.727603e+06	
27	1.350000e+00	6.888725e+06	
28	1.400000e+00	1.143284e+07	
29	1.450000e+00	1.673434e+07	
30	1.500000e+00	2.221857e+07	
31	1.550000e+00	2.756374e+07	
32	1.600000e+00	3.263125e+07	
33	1.650000e+00	3.737737e+07	
34	1.700000e+00	4.180131e+07	
35	1.750000e+00	4.592003e+07	
36	1.800000e+00	4.975664e+07	
37	1.850000e+00	5.333541e+07	
38	1.900000e+00	5.667952e+07	
39	1.950000e+00	5.981031e+07	
40	2.000000e+00	6.274707e+07	
41	2.050000e+00	6.550704e+07	
42	2.100000e+00	6.810563e+07	
43	2.150000e+00	7.055656e+07	
44	2.200000e+00	7.287208e+07	
45	2.250000e+00	7.506316e+07	
46	2.300000e+00	7.713959e+07	
47	2.350000e+00	7.911020e+07	
48	2.400000e+00	8.098290e+07	
49	2.450000e+00	8.276485e+07	
50	2.500000e+00	8.446253e+07	
51	2.550000e+00	8.608179e+07	
52	2.600000e+00	8.762797e+07	
53	2.650000e+00	8.910589e+07	
54	2.700000e+00	9.051997e+07	

Index   v-sweep         rds             
--------------------------------------------------------------------------------
55	2.750000e+00	9.187418e+07	
56	2.800000e+00	9.317213e+07	
57	2.850000e+00	9.441701e+07	
58	2.900000e+00	9.561164e+07	
59	2.950000e+00	9.675838e+07	
60	3.000000e+00	9.785910e+07	
61	3.050000e+00	9.891510e+07	
62	3.100000e+00	9.992703e+07	
63	3.150000e+00	1.008947e+08	
64	3.200000e+00	1.018170e+08	
65	3.250000e+00	1.026916e+08	
66	3.300000e+00	1.035149e+08	
Reset re-loads circuit ***************************

Circuit: ***************************

Doing analysis at TEMP = 25.000000 and TNOM = 25.000000


No. of Data Rows : 67
                          ***************************
                          DC transfer characteristic  Mon Jan  9 13:57:19  2023
--------------------------------------------------------------------------------
Index   v-sweep         rds             
--------------------------------------------------------------------------------
0	0.000000e+00	8.122419e+04	
1	5.000000e-02	8.369038e+04	
2	1.000000e-01	8.630568e+04	
3	1.500000e-01	8.908405e+04	
4	2.000000e-01	9.204121e+04	
5	2.500000e-01	9.519499e+04	
6	3.000000e-01	9.856569e+04	
7	3.500000e-01	1.021765e+05	
8	4.000000e-01	1.060539e+05	
9	4.500000e-01	1.102287e+05	
10	5.000000e-01	1.147364e+05	
11	5.500000e-01	1.196185e+05	
12	6.000000e-01	1.249236e+05	
13	6.500000e-01	1.307092e+05	
14	7.000000e-01	1.370436e+05	
15	7.500000e-01	1.440088e+05	
16	8.000000e-01	1.517040e+05	
17	8.500000e-01	1.602502e+05	
18	9.000000e-01	1.697968e+05	
19	9.500000e-01	1.805304e+05	
20	1.000000e+00	1.926867e+05	
21	1.050000e+00	2.065686e+05	
22	1.100000e+00	2.225712e+05	
23	1.150000e+00	2.412203e+05	
24	1.200000e+00	2.632302e+05	
25	1.250000e+00	2.895975e+05	
26	1.300000e+00	3.217537e+05	
27	1.350000e+00	3.618301e+05	
28	1.400000e+00	4.131384e+05	
29	1.450000e+00	4.810986e+05	
30	1.500000e+00	5.751608e+05	
31	1.550000e+00	7.130960e+05	
32	1.600000e+00	9.312144e+05	
33	1.650000e+00	1.308685e+06	
34	1.700000e+00	2.012996e+06	
35	1.750000e+00	3.313514e+06	
36	1.800000e+00	5.411258e+06	
37	1.850000e+00	8.216890e+06	
38	1.900000e+00	1.144507e+07	
39	1.950000e+00	1.483180e+07	
40	2.000000e+00	1.821017e+07	
41	2.050000e+00	2.149225e+07	
42	2.100000e+00	2.463743e+07	
43	2.150000e+00	2.763052e+07	
44	2.200000e+00	3.046935e+07	
45	2.250000e+00	3.315820e+07	
46	2.300000e+00	3.570430e+07	
47	2.350000e+00	3.811610e+07	
48	2.400000e+00	4.040231e+07	
49	2.450000e+00	4.257146e+07	
50	2.500000e+00	4.463163e+07	
51	2.550000e+00	4.659038e+07	
52	2.600000e+00	4.845472e+07	
53	2.650000e+00	5.023109e+07	
54	2.700000e+00	5.192544e+07	

Index   v-sweep         rds             
--------------------------------------------------------------------------------
55	2.750000e+00	5.354321e+07	
56	2.800000e+00	5.508940e+07	
57	2.850000e+00	5.656862e+07	
58	2.900000e+00	5.798508e+07	
59	2.950000e+00	5.934266e+07	
60	3.000000e+00	6.064492e+07	
61	3.050000e+00	6.189517e+07	
62	3.100000e+00	6.309642e+07	
63	3.150000e+00	6.425145e+07	
64	3.200000e+00	6.536280e+07	
65	3.250000e+00	6.643276e+07	
66	3.300000e+00	6.746339e+07	
Reset re-loads circuit ***************************

Circuit: ***************************

Doing analysis at TEMP = 25.000000 and TNOM = 25.000000


No. of Data Rows : 67
                          ***************************
                          DC transfer characteristic  Mon Jan  9 13:57:19  2023
--------------------------------------------------------------------------------
Index   v-sweep         rds             
--------------------------------------------------------------------------------
0	0.000000e+00	7.176563e+04	
1	5.000000e-02	7.346430e+04	
2	1.000000e-01	7.524197e+04	
3	1.500000e-01	7.710428e+04	
4	2.000000e-01	7.905743e+04	
5	2.500000e-01	8.110823e+04	
6	3.000000e-01	8.326418e+04	
7	3.500000e-01	8.553359e+04	
8	4.000000e-01	8.792566e+04	
9	4.500000e-01	9.045059e+04	
10	5.000000e-01	9.311978e+04	
11	5.500000e-01	9.594595e+04	
12	6.000000e-01	9.894337e+04	
13	6.500000e-01	1.021281e+05	
14	7.000000e-01	1.055182e+05	
15	7.500000e-01	1.091343e+05	
16	8.000000e-01	1.129996e+05	
17	8.500000e-01	1.171410e+05	
18	9.000000e-01	1.215890e+05	
19	9.500000e-01	1.263791e+05	
20	1.000000e+00	1.315522e+05	
21	1.050000e+00	1.371562e+05	
22	1.100000e+00	1.432473e+05	
23	1.150000e+00	1.498918e+05	
24	1.200000e+00	1.571687e+05	
25	1.250000e+00	1.651728e+05	
26	1.300000e+00	1.740189e+05	
27	1.350000e+00	1.838470e+05	
28	1.400000e+00	1.948303e+05	
29	1.450000e+00	2.071851e+05	
30	1.500000e+00	2.211851e+05	
31	1.550000e+00	2.371822e+05	
32	1.600000e+00	2.556360e+05	
33	1.650000e+00	2.771586e+05	
34	1.700000e+00	3.025832e+05	
35	1.750000e+00	3.330733e+05	
36	1.800000e+00	3.703028e+05	
37	1.850000e+00	4.167662e+05	
38	1.900000e+00	4.763400e+05	
39	1.950000e+00	5.553547e+05	
40	2.000000e+00	6.647630e+05	
41	2.050000e+00	8.247310e+05	
42	2.100000e+00	1.074374e+06	
43	2.150000e+00	1.489574e+06	
44	2.200000e+00	2.198438e+06	
45	2.250000e+00	3.343980e+06	
46	2.300000e+00	4.973080e+06	
47	2.350000e+00	6.989789e+06	
48	2.400000e+00	9.238137e+06	
49	2.450000e+00	1.158516e+07	
50	2.500000e+00	1.394319e+07	
51	2.550000e+00	1.626125e+07	
52	2.600000e+00	1.851192e+07	
53	2.650000e+00	2.068177e+07	
54	2.700000e+00	2.276537e+07	

Index   v-sweep         rds             
--------------------------------------------------------------------------------
55	2.750000e+00	2.476178e+07	
56	2.800000e+00	2.667259e+07	
57	2.850000e+00	2.850073e+07	
58	2.900000e+00	3.024981e+07	
59	2.950000e+00	3.192372e+07	
60	3.000000e+00	3.352643e+07	
61	3.050000e+00	3.506182e+07	
62	3.100000e+00	3.653366e+07	
63	3.150000e+00	3.794551e+07	
64	3.200000e+00	3.930075e+07	
65	3.250000e+00	4.060255e+07	
66	3.300000e+00	4.185388e+07	
Reset re-loads circuit ***************************

Circuit: ***************************

Note: No ".plot", ".print", or ".fourier" lines; no simulations run
