
Note: Compatibility modes selected: hs

Warning: m=xx on .subckt line will override multiplier m hierarchy!


Circuit: ***************************

Doing analysis at TEMP = -40.000000 and TNOM = -40.000000


No. of Data Rows : 67
                          ***************************
                          DC transfer characteristic  Mon Jan  9 13:57:20  2023
--------------------------------------------------------------------------------
Index   v-sweep         rds             
--------------------------------------------------------------------------------
0	0.000000e+00	2.017391e+06	
1	5.000000e-02	3.930508e+06	
2	1.000000e-01	2.064811e+07	
3	1.500000e-01	2.912661e+08	
4	2.000000e-01	1.017923e+09	
5	2.500000e-01	1.656720e+09	
6	3.000000e-01	2.062881e+09	
7	3.500000e-01	2.319813e+09	
8	4.000000e-01	2.492722e+09	
9	4.500000e-01	2.616446e+09	
10	5.000000e-01	2.709457e+09	
11	5.500000e-01	2.782103e+09	
12	6.000000e-01	2.840553e+09	
13	6.500000e-01	2.888694e+09	
14	7.000000e-01	2.929098e+09	
15	7.500000e-01	2.963536e+09	
16	8.000000e-01	2.993266e+09	
17	8.500000e-01	3.019213e+09	
18	9.000000e-01	3.042069e+09	
19	9.500000e-01	3.062365e+09	
20	1.000000e+00	3.080514e+09	
21	1.050000e+00	3.096845e+09	
22	1.100000e+00	3.111622e+09	
23	1.150000e+00	3.125058e+09	
24	1.200000e+00	3.137331e+09	
25	1.250000e+00	3.148585e+09	
26	1.300000e+00	3.158945e+09	
27	1.350000e+00	3.168512e+09	
28	1.400000e+00	3.177376e+09	
29	1.450000e+00	3.185611e+09	
30	1.500000e+00	3.193282e+09	
31	1.550000e+00	3.200444e+09	
32	1.600000e+00	3.207148e+09	
33	1.650000e+00	3.213433e+09	
34	1.700000e+00	3.219338e+09	
35	1.750000e+00	3.224892e+09	
36	1.800000e+00	3.230124e+09	
37	1.850000e+00	3.235054e+09	
38	1.900000e+00	3.239701e+09	
39	1.950000e+00	3.244078e+09	
40	2.000000e+00	3.248193e+09	
41	2.050000e+00	3.252049e+09	
42	2.100000e+00	3.255644e+09	
43	2.150000e+00	3.258969e+09	
44	2.200000e+00	3.262010e+09	
45	2.250000e+00	3.264743e+09	
46	2.300000e+00	3.267139e+09	
47	2.350000e+00	3.269158e+09	
48	2.400000e+00	3.270752e+09	
49	2.450000e+00	3.271864e+09	
50	2.500000e+00	3.272424e+09	
51	2.550000e+00	3.272356e+09	
52	2.600000e+00	3.271570e+09	
53	2.650000e+00	3.269965e+09	
54	2.700000e+00	3.267433e+09	

Index   v-sweep         rds             
--------------------------------------------------------------------------------
55	2.750000e+00	3.263853e+09	
56	2.800000e+00	3.259096e+09	
57	2.850000e+00	3.253024e+09	
58	2.900000e+00	3.245495e+09	
59	2.950000e+00	3.236358e+09	
60	3.000000e+00	3.225461e+09	
61	3.050000e+00	3.212652e+09	
62	3.100000e+00	3.197780e+09	
63	3.150000e+00	3.180697e+09	
64	3.200000e+00	3.161265e+09	
65	3.250000e+00	3.139357e+09	
66	3.300000e+00	3.114858e+09	
Reset re-loads circuit ***************************

Circuit: ***************************

Doing analysis at TEMP = -40.000000 and TNOM = -40.000000


No. of Data Rows : 67
                          ***************************
                          DC transfer characteristic  Mon Jan  9 13:57:20  2023
--------------------------------------------------------------------------------
Index   v-sweep         rds             
--------------------------------------------------------------------------------
0	0.000000e+00	3.745947e+05	
1	5.000000e-02	4.215819e+05	
2	1.000000e-01	4.818082e+05	
3	1.500000e-01	5.617781e+05	
4	2.000000e-01	6.730760e+05	
5	2.500000e-01	8.384842e+05	
6	3.000000e-01	1.109530e+06	
7	3.500000e-01	1.629715e+06	
8	4.000000e-01	2.945829e+06	
9	4.500000e-01	7.920701e+06	
10	5.000000e-01	2.700750e+07	
11	5.500000e-01	6.689982e+07	
12	6.000000e-01	1.157291e+08	
13	6.500000e-01	1.621574e+08	
14	7.000000e-01	2.025542e+08	
15	7.500000e-01	2.369193e+08	
16	8.000000e-01	2.661762e+08	
17	8.500000e-01	2.912881e+08	
18	9.000000e-01	3.130556e+08	
19	9.500000e-01	3.321059e+08	
20	1.000000e+00	3.489249e+08	
21	1.050000e+00	3.638905e+08	
22	1.100000e+00	3.772995e+08	
23	1.150000e+00	3.893881e+08	
24	1.200000e+00	4.003462e+08	
25	1.250000e+00	4.103284e+08	
26	1.300000e+00	4.194619e+08	
27	1.350000e+00	4.278523e+08	
28	1.400000e+00	4.355882e+08	
29	1.450000e+00	4.427444e+08	
30	1.500000e+00	4.493845e+08	
31	1.550000e+00	4.555631e+08	
32	1.600000e+00	4.613272e+08	
33	1.650000e+00	4.667175e+08	
34	1.700000e+00	4.717697e+08	
35	1.750000e+00	4.765147e+08	
36	1.800000e+00	4.809800e+08	
37	1.850000e+00	4.851896e+08	
38	1.900000e+00	4.891649e+08	
39	1.950000e+00	4.929247e+08	
40	2.000000e+00	4.964857e+08	
41	2.050000e+00	4.998625e+08	
42	2.100000e+00	5.030677e+08	
43	2.150000e+00	5.061123e+08	
44	2.200000e+00	5.090050e+08	
45	2.250000e+00	5.117526e+08	
46	2.300000e+00	5.143598e+08	
47	2.350000e+00	5.168288e+08	
48	2.400000e+00	5.191589e+08	
49	2.450000e+00	5.213464e+08	
50	2.500000e+00	5.233843e+08	
51	2.550000e+00	5.252615e+08	
52	2.600000e+00	5.269627e+08	
53	2.650000e+00	5.284679e+08	
54	2.700000e+00	5.297519e+08	

Index   v-sweep         rds             
--------------------------------------------------------------------------------
55	2.750000e+00	5.307844e+08	
56	2.800000e+00	5.315293e+08	
57	2.850000e+00	5.319449e+08	
58	2.900000e+00	5.319842e+08	
59	2.950000e+00	5.315947e+08	
60	3.000000e+00	5.307195e+08	
61	3.050000e+00	5.292981e+08	
62	3.100000e+00	5.272675e+08	
63	3.150000e+00	5.245638e+08	
64	3.200000e+00	5.211241e+08	
65	3.250000e+00	5.168889e+08	
66	3.300000e+00	5.118043e+08	
Reset re-loads circuit ***************************

Circuit: ***************************

Doing analysis at TEMP = -40.000000 and TNOM = -40.000000


No. of Data Rows : 67
                          ***************************
                          DC transfer characteristic  Mon Jan  9 13:57:20  2023
--------------------------------------------------------------------------------
Index   v-sweep         rds             
--------------------------------------------------------------------------------
0	0.000000e+00	2.136151e+05	
1	5.000000e-02	2.274851e+05	
2	1.000000e-01	2.432265e+05	
3	1.500000e-01	2.612453e+05	
4	2.000000e-01	2.820743e+05	
5	2.500000e-01	3.064261e+05	
6	3.000000e-01	3.352765e+05	
7	3.500000e-01	3.699979e+05	
8	4.000000e-01	4.125835e+05	
9	4.500000e-01	4.660417e+05	
10	5.000000e-01	5.351342e+05	
11	5.500000e-01	6.278610e+05	
12	6.000000e-01	7.587367e+05	
13	6.500000e-01	9.569178e+05	
14	7.000000e-01	1.289571e+06	
15	7.500000e-01	1.941449e+06	
16	8.000000e-01	3.511705e+06	
17	8.500000e-01	7.749438e+06	
18	9.000000e-01	1.699540e+07	
19	9.500000e-01	3.084552e+07	
20	1.000000e+00	4.670251e+07	
21	1.050000e+00	6.257250e+07	
22	1.100000e+00	7.754953e+07	
23	1.150000e+00	9.134985e+07	
24	1.200000e+00	1.039570e+08	
25	1.250000e+00	1.154529e+08	
26	1.300000e+00	1.259477e+08	
27	1.350000e+00	1.355520e+08	
28	1.400000e+00	1.443675e+08	
29	1.450000e+00	1.524840e+08	
30	1.500000e+00	1.599798e+08	
31	1.550000e+00	1.669227e+08	
32	1.600000e+00	1.733715e+08	
33	1.650000e+00	1.793770e+08	
34	1.700000e+00	1.849834e+08	
35	1.750000e+00	1.902294e+08	
36	1.800000e+00	1.951487e+08	
37	1.850000e+00	1.997711e+08	
38	1.900000e+00	2.041227e+08	
39	1.950000e+00	2.082267e+08	
40	2.000000e+00	2.121038e+08	
41	2.050000e+00	2.157723e+08	
42	2.100000e+00	2.192487e+08	
43	2.150000e+00	2.225477e+08	
44	2.200000e+00	2.256826e+08	
45	2.250000e+00	2.286652e+08	
46	2.300000e+00	2.315063e+08	
47	2.350000e+00	2.342155e+08	
48	2.400000e+00	2.368012e+08	
49	2.450000e+00	2.392711e+08	
50	2.500000e+00	2.416316e+08	
51	2.550000e+00	2.438880e+08	
52	2.600000e+00	2.460444e+08	
53	2.650000e+00	2.481035e+08	
54	2.700000e+00	2.500665e+08	

Index   v-sweep         rds             
--------------------------------------------------------------------------------
55	2.750000e+00	2.519326e+08	
56	2.800000e+00	2.536990e+08	
57	2.850000e+00	2.553602e+08	
58	2.900000e+00	2.569081e+08	
59	2.950000e+00	2.583314e+08	
60	3.000000e+00	2.596151e+08	
61	3.050000e+00	2.607406e+08	
62	3.100000e+00	2.616849e+08	
63	3.150000e+00	2.624209e+08	
64	3.200000e+00	2.629173e+08	
65	3.250000e+00	2.631385e+08	
66	3.300000e+00	2.630452e+08	
Reset re-loads circuit ***************************

Circuit: ***************************

Doing analysis at TEMP = -40.000000 and TNOM = -40.000000


No. of Data Rows : 67
                          ***************************
                          DC transfer characteristic  Mon Jan  9 13:57:20  2023
--------------------------------------------------------------------------------
Index   v-sweep         rds             
--------------------------------------------------------------------------------
0	0.000000e+00	1.569425e+05	
1	5.000000e-02	1.636936e+05	
2	1.000000e-01	1.710281e+05	
3	1.500000e-01	1.790250e+05	
4	2.000000e-01	1.877781e+05	
5	2.500000e-01	1.974002e+05	
6	3.000000e-01	2.080273e+05	
7	3.500000e-01	2.198255e+05	
8	4.000000e-01	2.329996e+05	
9	4.500000e-01	2.478051e+05	
10	5.000000e-01	2.645651e+05	
11	5.500000e-01	2.836937e+05	
12	6.000000e-01	3.057310e+05	
13	6.500000e-01	3.313946e+05	
14	7.000000e-01	3.616592e+05	
15	7.500000e-01	3.978826e+05	
16	8.000000e-01	4.420140e+05	
17	8.500000e-01	4.969541e+05	
18	9.000000e-01	5.672121e+05	
19	9.500000e-01	6.601865e+05	
20	1.000000e+00	7.888704e+05	
21	1.050000e+00	9.781355e+05	
22	1.100000e+00	1.280995e+06	
23	1.150000e+00	1.824671e+06	
24	1.200000e+00	2.935104e+06	
25	1.250000e+00	5.316223e+06	
26	1.300000e+00	9.744802e+06	
27	1.350000e+00	1.616606e+07	
28	1.400000e+00	2.378216e+07	
29	1.450000e+00	3.182004e+07	
30	1.500000e+00	3.980758e+07	
31	1.550000e+00	4.750934e+07	
32	1.600000e+00	5.482478e+07	
33	1.650000e+00	6.172244e+07	
34	1.700000e+00	6.820465e+07	
35	1.750000e+00	7.428938e+07	
36	1.800000e+00	8.000121e+07	
37	1.850000e+00	8.536672e+07	
38	1.900000e+00	9.041230e+07	
39	1.950000e+00	9.516299e+07	
40	2.000000e+00	9.964210e+07	
41	2.050000e+00	1.038711e+08	
42	2.100000e+00	1.078694e+08	
43	2.150000e+00	1.116548e+08	
44	2.200000e+00	1.152435e+08	
45	2.250000e+00	1.186501e+08	
46	2.300000e+00	1.218879e+08	
47	2.350000e+00	1.249689e+08	
48	2.400000e+00	1.279042e+08	
49	2.450000e+00	1.307036e+08	
50	2.500000e+00	1.333764e+08	
51	2.550000e+00	1.359309e+08	
52	2.600000e+00	1.383747e+08	
53	2.650000e+00	1.407147e+08	
54	2.700000e+00	1.429572e+08	

Index   v-sweep         rds             
--------------------------------------------------------------------------------
55	2.750000e+00	1.451080e+08	
56	2.800000e+00	1.471723e+08	
57	2.850000e+00	1.491545e+08	
58	2.900000e+00	1.510584e+08	
59	2.950000e+00	1.528874e+08	
60	3.000000e+00	1.546435e+08	
61	3.050000e+00	1.563280e+08	
62	3.100000e+00	1.579410e+08	
63	3.150000e+00	1.594810e+08	
64	3.200000e+00	1.609450e+08	
65	3.250000e+00	1.623276e+08	
66	3.300000e+00	1.636216e+08	
Reset re-loads circuit ***************************

Circuit: ***************************

Doing analysis at TEMP = -40.000000 and TNOM = -40.000000


No. of Data Rows : 67
                          ***************************
                          DC transfer characteristic  Mon Jan  9 13:57:20  2023
--------------------------------------------------------------------------------
Index   v-sweep         rds             
--------------------------------------------------------------------------------
0	0.000000e+00	1.299071e+05	
1	5.000000e-02	1.340175e+05	
2	1.000000e-01	1.383835e+05	
3	1.500000e-01	1.430298e+05	
4	2.000000e-01	1.479842e+05	
5	2.500000e-01	1.532784e+05	
6	3.000000e-01	1.589487e+05	
7	3.500000e-01	1.650366e+05	
8	4.000000e-01	1.715899e+05	
9	4.500000e-01	1.786641e+05	
10	5.000000e-01	1.863239e+05	
11	5.500000e-01	1.946451e+05	
12	6.000000e-01	2.037173e+05	
13	6.500000e-01	2.136469e+05	
14	7.000000e-01	2.245615e+05	
15	7.500000e-01	2.366151e+05	
16	8.000000e-01	2.499960e+05	
17	8.500000e-01	2.649360e+05	
18	9.000000e-01	2.817245e+05	
19	9.500000e-01	3.007270e+05	
20	1.000000e+00	3.224123e+05	
21	1.050000e+00	3.473914e+05	
22	1.100000e+00	3.764761e+05	
23	1.150000e+00	4.107683e+05	
24	1.200000e+00	4.518027e+05	
25	1.250000e+00	5.017808e+05	
26	1.300000e+00	5.639756e+05	
27	1.350000e+00	6.434671e+05	
28	1.400000e+00	7.485654e+05	
29	1.450000e+00	8.937699e+05	
30	1.500000e+00	1.106418e+06	
31	1.550000e+00	1.442612e+06	
32	1.600000e+00	2.024808e+06	
33	1.650000e+00	3.107018e+06	
34	1.700000e+00	5.070916e+06	
35	1.750000e+00	8.158913e+06	
36	1.800000e+00	1.222302e+07	
37	1.850000e+00	1.689473e+07	
38	1.900000e+00	2.183930e+07	
39	1.950000e+00	2.683410e+07	
40	2.000000e+00	3.174977e+07	
41	2.050000e+00	3.651682e+07	
42	2.100000e+00	4.110105e+07	
43	2.150000e+00	4.548844e+07	
44	2.200000e+00	4.967632e+07	
45	2.250000e+00	5.366838e+07	
46	2.300000e+00	5.747167e+07	
47	2.350000e+00	6.109498e+07	
48	2.400000e+00	6.454782e+07	
49	2.450000e+00	6.783983e+07	
50	2.500000e+00	7.098048e+07	
51	2.550000e+00	7.397886e+07	
52	2.600000e+00	7.684359e+07	
53	2.650000e+00	7.958278e+07	
54	2.700000e+00	8.220403e+07	

Index   v-sweep         rds             
--------------------------------------------------------------------------------
55	2.750000e+00	8.471442e+07	
56	2.800000e+00	8.712055e+07	
57	2.850000e+00	8.942854e+07	
58	2.900000e+00	9.164409e+07	
59	2.950000e+00	9.377250e+07	
60	3.000000e+00	9.581866e+07	
61	3.050000e+00	9.778712e+07	
62	3.100000e+00	9.968208e+07	
63	3.150000e+00	1.015074e+08	
64	3.200000e+00	1.032666e+08	
65	3.250000e+00	1.049627e+08	
66	3.300000e+00	1.065986e+08	
Reset re-loads circuit ***************************

Circuit: ***************************

Doing analysis at TEMP = -40.000000 and TNOM = -40.000000


No. of Data Rows : 67
                          ***************************
                          DC transfer characteristic  Mon Jan  9 13:57:20  2023
--------------------------------------------------------------------------------
Index   v-sweep         rds             
--------------------------------------------------------------------------------
0	0.000000e+00	1.153538e+05	
1	5.000000e-02	1.181957e+05	
2	1.000000e-01	1.211731e+05	
3	1.500000e-01	1.242958e+05	
4	2.000000e-01	1.275749e+05	
5	2.500000e-01	1.310223e+05	
6	3.000000e-01	1.346513e+05	
7	3.500000e-01	1.384766e+05	
8	4.000000e-01	1.425147e+05	
9	4.500000e-01	1.467838e+05	
10	5.000000e-01	1.513042e+05	
11	5.500000e-01	1.560989e+05	
12	6.000000e-01	1.611936e+05	
13	6.500000e-01	1.666173e+05	
14	7.000000e-01	1.724029e+05	
15	7.500000e-01	1.785880e+05	
16	8.000000e-01	1.852154e+05	
17	8.500000e-01	1.923343e+05	
18	9.000000e-01	2.000014e+05	
19	9.500000e-01	2.082826e+05	
20	1.000000e+00	2.172547e+05	
21	1.050000e+00	2.270080e+05	
22	1.100000e+00	2.376491e+05	
23	1.150000e+00	2.493050e+05	
24	1.200000e+00	2.621281e+05	
25	1.250000e+00	2.763031e+05	
26	1.300000e+00	2.920555e+05	
27	1.350000e+00	3.096641e+05	
28	1.400000e+00	3.294776e+05	
29	1.450000e+00	3.519378e+05	
30	1.500000e+00	3.776131e+05	
31	1.550000e+00	4.072467e+05	
32	1.600000e+00	4.418307e+05	
33	1.650000e+00	4.827183e+05	
34	1.700000e+00	5.318049e+05	
35	1.750000e+00	5.918285e+05	
36	1.800000e+00	6.668931e+05	
37	1.850000e+00	7.634276e+05	
38	1.900000e+00	8.920502e+05	
39	1.950000e+00	1.071412e+06	
40	2.000000e+00	1.336459e+06	
41	2.050000e+00	1.755710e+06	
42	2.100000e+00	2.459182e+06	
43	2.150000e+00	3.645609e+06	
44	2.200000e+00	5.489883e+06	
45	2.250000e+00	7.998112e+06	
46	2.300000e+00	1.101283e+07	
47	2.350000e+00	1.433529e+07	
48	2.400000e+00	1.780430e+07	
49	2.450000e+00	2.131046e+07	
50	2.500000e+00	2.478537e+07	
51	2.550000e+00	2.818822e+07	
52	2.600000e+00	3.149576e+07	
53	2.650000e+00	3.469568e+07	
54	2.700000e+00	3.778248e+07	

Index   v-sweep         rds             
--------------------------------------------------------------------------------
55	2.750000e+00	4.075481e+07	
56	2.800000e+00	4.361394e+07	
57	2.850000e+00	4.636266e+07	
58	2.900000e+00	4.900471e+07	
59	2.950000e+00	5.154429e+07	
60	3.000000e+00	5.398586e+07	
61	3.050000e+00	5.633393e+07	
62	3.100000e+00	5.859295e+07	
63	3.150000e+00	6.076726e+07	
64	3.200000e+00	6.286105e+07	
65	3.250000e+00	6.487831e+07	
66	3.300000e+00	6.682285e+07	
Reset re-loads circuit ***************************

Circuit: ***************************

Note: No ".plot", ".print", or ".fourier" lines; no simulations run
