
Note: Compatibility modes selected: hs

Warning: m=xx on .subckt line will override multiplier m hierarchy!


Circuit: ***************************

Doing analysis at TEMP = -40.000000 and TNOM = -40.000000


No. of Data Rows : 67
                          ***************************
                          DC transfer characteristic  Mon Jan  9 13:57:20  2023
--------------------------------------------------------------------------------
Index   v-sweep         rds             
--------------------------------------------------------------------------------
0	0.000000e+00	1.092409e+06	
1	5.000000e-02	2.546411e+06	
2	1.000000e-01	2.746758e+07	
3	1.500000e-01	3.017974e+08	
4	2.000000e-01	7.592229e+08	
5	2.500000e-01	1.080935e+09	
6	3.000000e-01	1.270982e+09	
7	3.500000e-01	1.388347e+09	
8	4.000000e-01	1.466527e+09	
9	4.500000e-01	1.522130e+09	
10	5.000000e-01	1.563743e+09	
11	5.500000e-01	1.596124e+09	
12	6.000000e-01	1.622097e+09	
13	6.500000e-01	1.643431e+09	
14	7.000000e-01	1.661295e+09	
15	7.500000e-01	1.676490e+09	
16	8.000000e-01	1.689585e+09	
17	8.500000e-01	1.700995e+09	
18	9.000000e-01	1.711032e+09	
19	9.500000e-01	1.719934e+09	
20	1.000000e+00	1.727885e+09	
21	1.050000e+00	1.735032e+09	
22	1.100000e+00	1.741494e+09	
23	1.150000e+00	1.747364e+09	
24	1.200000e+00	1.752722e+09	
25	1.250000e+00	1.757632e+09	
26	1.300000e+00	1.762148e+09	
27	1.350000e+00	1.766317e+09	
28	1.400000e+00	1.770177e+09	
29	1.450000e+00	1.773761e+09	
30	1.500000e+00	1.777098e+09	
31	1.550000e+00	1.780213e+09	
32	1.600000e+00	1.783126e+09	
33	1.650000e+00	1.785857e+09	
34	1.700000e+00	1.788420e+09	
35	1.750000e+00	1.790830e+09	
36	1.800000e+00	1.793098e+09	
37	1.850000e+00	1.795233e+09	
38	1.900000e+00	1.797243e+09	
39	1.950000e+00	1.799133e+09	
40	2.000000e+00	1.800904e+09	
41	2.050000e+00	1.802558e+09	
42	2.100000e+00	1.804092e+09	
43	2.150000e+00	1.805500e+09	
44	2.200000e+00	1.806773e+09	
45	2.250000e+00	1.807900e+09	
46	2.300000e+00	1.808863e+09	
47	2.350000e+00	1.809642e+09	
48	2.400000e+00	1.810213e+09	
49	2.450000e+00	1.810544e+09	
50	2.500000e+00	1.810602e+09	
51	2.550000e+00	1.810347e+09	
52	2.600000e+00	1.809733e+09	
53	2.650000e+00	1.808710e+09	
54	2.700000e+00	1.807223e+09	

Index   v-sweep         rds             
--------------------------------------------------------------------------------
55	2.750000e+00	1.805212e+09	
56	2.800000e+00	1.802612e+09	
57	2.850000e+00	1.799354e+09	
58	2.900000e+00	1.795367e+09	
59	2.950000e+00	1.790575e+09	
60	3.000000e+00	1.784903e+09	
61	3.050000e+00	1.778274e+09	
62	3.100000e+00	1.770611e+09	
63	3.150000e+00	1.761840e+09	
64	3.200000e+00	1.751890e+09	
65	3.250000e+00	1.740694e+09	
66	3.300000e+00	1.728194e+09	
Reset re-loads circuit ***************************

Circuit: ***************************

Doing analysis at TEMP = -40.000000 and TNOM = -40.000000


No. of Data Rows : 67
                          ***************************
                          DC transfer characteristic  Mon Jan  9 13:57:20  2023
--------------------------------------------------------------------------------
Index   v-sweep         rds             
--------------------------------------------------------------------------------
0	0.000000e+00	1.726421e+05	
1	5.000000e-02	1.957142e+05	
2	1.000000e-01	2.257923e+05	
3	1.500000e-01	2.666325e+05	
4	2.000000e-01	3.252486e+05	
5	2.500000e-01	4.163745e+05	
6	3.000000e-01	5.767622e+05	
7	3.500000e-01	9.257379e+05	
8	4.000000e-01	2.027776e+06	
9	4.500000e-01	6.918852e+06	
10	5.000000e-01	2.195266e+07	
11	5.500000e-01	4.560237e+07	
12	6.000000e-01	7.038267e+07	
13	6.500000e-01	9.239519e+07	
14	7.000000e-01	1.109715e+08	
15	7.500000e-01	1.265231e+08	
16	8.000000e-01	1.396303e+08	
17	8.500000e-01	1.507979e+08	
18	9.000000e-01	1.604211e+08	
19	9.500000e-01	1.688009e+08	
20	1.000000e+00	1.761671e+08	
21	1.050000e+00	1.826964e+08	
22	1.100000e+00	1.885264e+08	
23	1.150000e+00	1.937661e+08	
24	1.200000e+00	1.985024e+08	
25	1.250000e+00	2.028059e+08	
26	1.300000e+00	2.067344e+08	
27	1.350000e+00	2.103356e+08	
28	1.400000e+00	2.136493e+08	
29	1.450000e+00	2.167092e+08	
30	1.500000e+00	2.195436e+08	
31	1.550000e+00	2.221770e+08	
32	1.600000e+00	2.246301e+08	
33	1.650000e+00	2.269211e+08	
34	1.700000e+00	2.290657e+08	
35	1.750000e+00	2.310775e+08	
36	1.800000e+00	2.329685e+08	
37	1.850000e+00	2.347495e+08	
38	1.900000e+00	2.364295e+08	
39	1.950000e+00	2.380170e+08	
40	2.000000e+00	2.395189e+08	
41	2.050000e+00	2.409417e+08	
42	2.100000e+00	2.422907e+08	
43	2.150000e+00	2.435702e+08	
44	2.200000e+00	2.447840e+08	
45	2.250000e+00	2.459345e+08	
46	2.300000e+00	2.470232e+08	
47	2.350000e+00	2.480503e+08	
48	2.400000e+00	2.490148e+08	
49	2.450000e+00	2.499141e+08	
50	2.500000e+00	2.507439e+08	
51	2.550000e+00	2.514980e+08	
52	2.600000e+00	2.521680e+08	
53	2.650000e+00	2.527435e+08	
54	2.700000e+00	2.532115e+08	

Index   v-sweep         rds             
--------------------------------------------------------------------------------
55	2.750000e+00	2.535565e+08	
56	2.800000e+00	2.537605e+08	
57	2.850000e+00	2.538027e+08	
58	2.900000e+00	2.536601e+08	
59	2.950000e+00	2.533072e+08	
60	3.000000e+00	2.527168e+08	
61	3.050000e+00	2.518600e+08	
62	3.100000e+00	2.507072e+08	
63	3.150000e+00	2.492289e+08	
64	3.200000e+00	2.473963e+08	
65	3.250000e+00	2.451828e+08	
66	3.300000e+00	2.425648e+08	
Reset re-loads circuit ***************************

Circuit: ***************************

Doing analysis at TEMP = -40.000000 and TNOM = -40.000000


No. of Data Rows : 67
                          ***************************
                          DC transfer characteristic  Mon Jan  9 13:57:20  2023
--------------------------------------------------------------------------------
Index   v-sweep         rds             
--------------------------------------------------------------------------------
0	0.000000e+00	9.679879e+04	
1	5.000000e-02	1.033272e+05	
2	1.000000e-01	1.107760e+05	
3	1.500000e-01	1.193545e+05	
4	2.000000e-01	1.293407e+05	
5	2.500000e-01	1.411120e+05	
6	3.000000e-01	1.551937e+05	
7	3.500000e-01	1.723393e+05	
8	4.000000e-01	1.936696e+05	
9	4.500000e-01	2.209262e+05	
10	5.000000e-01	2.569682e+05	
11	5.500000e-01	3.068303e+05	
12	6.000000e-01	3.802333e+05	
13	6.500000e-01	4.984282e+05	
14	7.000000e-01	7.163340e+05	
15	7.500000e-01	1.206634e+06	
16	8.000000e-01	2.550185e+06	
17	8.500000e-01	5.986869e+06	
18	9.000000e-01	1.208544e+07	
19	9.500000e-01	1.978085e+07	
20	1.000000e+00	2.780127e+07	
21	1.050000e+00	3.545928e+07	
22	1.100000e+00	4.250767e+07	
23	1.150000e+00	4.890552e+07	
24	1.200000e+00	5.469095e+07	
25	1.250000e+00	5.992617e+07	
26	1.300000e+00	6.467595e+07	
27	1.350000e+00	6.899994e+07	
28	1.400000e+00	7.295061e+07	
29	1.450000e+00	7.657318e+07	
30	1.500000e+00	7.990640e+07	
31	1.550000e+00	8.298341e+07	
32	1.600000e+00	8.583260e+07	
33	1.650000e+00	8.847841e+07	
34	1.700000e+00	9.094191e+07	
35	1.750000e+00	9.324139e+07	
36	1.800000e+00	9.539276e+07	
37	1.850000e+00	9.740995e+07	
38	1.900000e+00	9.930519e+07	
39	1.950000e+00	1.010893e+08	
40	2.000000e+00	1.027717e+08	
41	2.050000e+00	1.043610e+08	
42	2.100000e+00	1.058647e+08	
43	2.150000e+00	1.072895e+08	
44	2.200000e+00	1.086415e+08	
45	2.250000e+00	1.099261e+08	
46	2.300000e+00	1.111481e+08	
47	2.350000e+00	1.123118e+08	
48	2.400000e+00	1.134210e+08	
49	2.450000e+00	1.144790e+08	
50	2.500000e+00	1.154885e+08	
51	2.550000e+00	1.164517e+08	
52	2.600000e+00	1.173701e+08	
53	2.650000e+00	1.182446e+08	
54	2.700000e+00	1.190751e+08	

Index   v-sweep         rds             
--------------------------------------------------------------------------------
55	2.750000e+00	1.198606e+08	
56	2.800000e+00	1.205992e+08	
57	2.850000e+00	1.212873e+08	
58	2.900000e+00	1.219204e+08	
59	2.950000e+00	1.224920e+08	
60	3.000000e+00	1.229939e+08	
61	3.050000e+00	1.234163e+08	
62	3.100000e+00	1.237472e+08	
63	3.150000e+00	1.239726e+08	
64	3.200000e+00	1.240767e+08	
65	3.250000e+00	1.240417e+08	
66	3.300000e+00	1.238484e+08	
Reset re-loads circuit ***************************

Circuit: ***************************

Doing analysis at TEMP = -40.000000 and TNOM = -40.000000


No. of Data Rows : 67
                          ***************************
                          DC transfer characteristic  Mon Jan  9 13:57:20  2023
--------------------------------------------------------------------------------
Index   v-sweep         rds             
--------------------------------------------------------------------------------
0	0.000000e+00	7.084128e+04	
1	5.000000e-02	7.397368e+04	
2	1.000000e-01	7.738585e+04	
3	1.500000e-01	8.111701e+04	
4	2.000000e-01	8.521407e+04	
5	2.500000e-01	8.973363e+04	
6	3.000000e-01	9.474458e+04	
7	3.500000e-01	1.003317e+05	
8	4.000000e-01	1.066002e+05	
9	4.500000e-01	1.136831e+05	
10	5.000000e-01	1.217498e+05	
11	5.500000e-01	1.310207e+05	
12	6.000000e-01	1.417869e+05	
13	6.500000e-01	1.544417e+05	
14	7.000000e-01	1.695293e+05	
15	7.500000e-01	1.878249e+05	
16	8.000000e-01	2.104713e+05	
17	8.500000e-01	2.392243e+05	
18	9.000000e-01	2.769246e+05	
19	9.500000e-01	3.284719e+05	
20	1.000000e+00	4.030392e+05	
21	1.050000e+00	5.196794e+05	
22	1.100000e+00	7.231588e+05	
23	1.150000e+00	1.130123e+06	
24	1.200000e+00	2.026574e+06	
25	1.250000e+00	3.848093e+06	
26	1.300000e+00	6.748226e+06	
27	1.350000e+00	1.039945e+07	
28	1.400000e+00	1.436643e+07	
29	1.450000e+00	1.835299e+07	
30	1.500000e+00	2.220503e+07	
31	1.550000e+00	2.585534e+07	
32	1.600000e+00	2.928198e+07	
33	1.650000e+00	3.248505e+07	
34	1.700000e+00	3.547471e+07	
35	1.750000e+00	3.826520e+07	
36	1.800000e+00	4.087197e+07	
37	1.850000e+00	4.331021e+07	
38	1.900000e+00	4.559425e+07	
39	1.950000e+00	4.773728e+07	
40	2.000000e+00	4.975133e+07	
41	2.050000e+00	5.164724e+07	
42	2.100000e+00	5.343482e+07	
43	2.150000e+00	5.512285e+07	
44	2.200000e+00	5.671929e+07	
45	2.250000e+00	5.823128e+07	
46	2.300000e+00	5.966525e+07	
47	2.350000e+00	6.102703e+07	
48	2.400000e+00	6.232189e+07	
49	2.450000e+00	6.355461e+07	
50	2.500000e+00	6.472951e+07	
51	2.550000e+00	6.585055e+07	
52	2.600000e+00	6.692129e+07	
53	2.650000e+00	6.794500e+07	
54	2.700000e+00	6.892459e+07	

Index   v-sweep         rds             
--------------------------------------------------------------------------------
55	2.750000e+00	6.986272e+07	
56	2.800000e+00	7.076170e+07	
57	2.850000e+00	7.162355e+07	
58	2.900000e+00	7.244989e+07	
59	2.950000e+00	7.324199e+07	
60	3.000000e+00	7.400060e+07	
61	3.050000e+00	7.472594e+07	
62	3.100000e+00	7.541756e+07	
63	3.150000e+00	7.607423e+07	
64	3.200000e+00	7.669379e+07	
65	3.250000e+00	7.727303e+07	
66	3.300000e+00	7.780752e+07	
Reset re-loads circuit ***************************

Circuit: ***************************

Doing analysis at TEMP = -40.000000 and TNOM = -40.000000


No. of Data Rows : 67
                          ***************************
                          DC transfer characteristic  Mon Jan  9 13:57:20  2023
--------------------------------------------------------------------------------
Index   v-sweep         rds             
--------------------------------------------------------------------------------
0	0.000000e+00	5.861819e+04	
1	5.000000e-02	6.051256e+04	
2	1.000000e-01	6.252799e+04	
3	1.500000e-01	6.467646e+04	
4	2.000000e-01	6.697160e+04	
5	2.500000e-01	6.942896e+04	
6	3.000000e-01	7.206635e+04	
7	3.500000e-01	7.490430e+04	
8	4.000000e-01	7.796661e+04	
9	4.500000e-01	8.128096e+04	
10	5.000000e-01	8.487980e+04	
11	5.500000e-01	8.880138e+04	
12	6.000000e-01	9.309117e+04	
13	6.500000e-01	9.780356e+04	
14	7.000000e-01	1.030042e+05	
15	7.500000e-01	1.087732e+05	
16	8.000000e-01	1.152089e+05	
17	8.500000e-01	1.224342e+05	
18	9.000000e-01	1.306036e+05	
19	9.500000e-01	1.399151e+05	
20	1.000000e+00	1.506262e+05	
21	1.050000e+00	1.630779e+05	
22	1.100000e+00	1.777315e+05	
23	1.150000e+00	1.952272e+05	
24	1.200000e+00	2.164792e+05	
25	1.250000e+00	2.428390e+05	
26	1.300000e+00	2.763907e+05	
27	1.350000e+00	3.205161e+05	
28	1.400000e+00	3.810589e+05	
29	1.450000e+00	4.689222e+05	
30	1.500000e+00	6.063110e+05	
31	1.550000e+00	8.420769e+05	
32	1.600000e+00	1.283071e+06	
33	1.650000e+00	2.113763e+06	
34	1.700000e+00	3.496782e+06	
35	1.750000e+00	5.408512e+06	
36	1.800000e+00	7.673253e+06	
37	1.850000e+00	1.010658e+07	
38	1.900000e+00	1.257927e+07	
39	1.950000e+00	1.501507e+07	
40	2.000000e+00	1.737311e+07	
41	2.050000e+00	1.963359e+07	
42	2.100000e+00	2.178867e+07	
43	2.150000e+00	2.383717e+07	
44	2.200000e+00	2.578150e+07	
45	2.250000e+00	2.762597e+07	
46	2.300000e+00	2.937580e+07	
47	2.350000e+00	3.103650e+07	
48	2.400000e+00	3.261363e+07	
49	2.450000e+00	3.411255e+07	
50	2.500000e+00	3.553837e+07	
51	2.550000e+00	3.689589e+07	
52	2.600000e+00	3.818958e+07	
53	2.650000e+00	3.942362e+07	
54	2.700000e+00	4.060184e+07	

Index   v-sweep         rds             
--------------------------------------------------------------------------------
55	2.750000e+00	4.172781e+07	
56	2.800000e+00	4.280482e+07	
57	2.850000e+00	4.383589e+07	
58	2.900000e+00	4.482384e+07	
59	2.950000e+00	4.577125e+07	
60	3.000000e+00	4.668051e+07	
61	3.050000e+00	4.755380e+07	
62	3.100000e+00	4.839314e+07	
63	3.150000e+00	4.920036e+07	
64	3.200000e+00	4.997708e+07	
65	3.250000e+00	5.072474e+07	
66	3.300000e+00	5.144451e+07	
Reset re-loads circuit ***************************

Circuit: ***************************

Doing analysis at TEMP = -40.000000 and TNOM = -40.000000


No. of Data Rows : 67
                          ***************************
                          DC transfer characteristic  Mon Jan  9 13:57:20  2023
--------------------------------------------------------------------------------
Index   v-sweep         rds             
--------------------------------------------------------------------------------
0	0.000000e+00	5.210058e+04	
1	5.000000e-02	5.340552e+04	
2	1.000000e-01	5.477411e+04	
3	1.500000e-01	5.621112e+04	
4	2.000000e-01	5.772181e+04	
5	2.500000e-01	5.931200e+04	
6	3.000000e-01	6.098812e+04	
7	3.500000e-01	6.275734e+04	
8	4.000000e-01	6.462763e+04	
9	4.500000e-01	6.660791e+04	
10	5.000000e-01	6.870817e+04	
11	5.500000e-01	7.093964e+04	
12	6.000000e-01	7.331503e+04	
13	6.500000e-01	7.584871e+04	
14	7.000000e-01	7.855705e+04	
15	7.500000e-01	8.145876e+04	
16	8.000000e-01	8.457530e+04	
17	8.500000e-01	8.793145e+04	
18	9.000000e-01	9.155593e+04	
19	9.500000e-01	9.548228e+04	
20	1.000000e+00	9.974982e+04	
21	1.050000e+00	1.044051e+05	
22	1.100000e+00	1.095033e+05	
23	1.150000e+00	1.151110e+05	
24	1.200000e+00	1.213085e+05	
25	1.250000e+00	1.281940e+05	
26	1.300000e+00	1.358887e+05	
27	1.350000e+00	1.445443e+05	
28	1.400000e+00	1.543527e+05	
29	1.450000e+00	1.655606e+05	
30	1.500000e+00	1.784904e+05	
31	1.550000e+00	1.935719e+05	
32	1.600000e+00	2.113907e+05	
33	1.650000e+00	2.327657e+05	
34	1.700000e+00	2.588777e+05	
35	1.750000e+00	2.914923e+05	
36	1.800000e+00	3.333675e+05	
37	1.850000e+00	3.890435e+05	
38	1.900000e+00	4.664692e+05	
39	1.950000e+00	5.805282e+05	
40	2.000000e+00	7.606568e+05	
41	2.050000e+00	1.064591e+06	
42	2.100000e+00	1.587829e+06	
43	2.150000e+00	2.429121e+06	
44	2.200000e+00	3.612296e+06	
45	2.250000e+00	5.068539e+06	
46	2.300000e+00	6.695243e+06	
47	2.350000e+00	8.404481e+06	
48	2.400000e+00	1.013544e+07	
49	2.450000e+00	1.185002e+07	
50	2.500000e+00	1.352573e+07	
51	2.550000e+00	1.514999e+07	
52	2.600000e+00	1.671636e+07	
53	2.650000e+00	1.822218e+07	
54	2.700000e+00	1.966708e+07	

Index   v-sweep         rds             
--------------------------------------------------------------------------------
55	2.750000e+00	2.105207e+07	
56	2.800000e+00	2.237896e+07	
57	2.850000e+00	2.365003e+07	
58	2.900000e+00	2.486777e+07	
59	2.950000e+00	2.603475e+07	
60	3.000000e+00	2.715356e+07	
61	3.050000e+00	2.822671e+07	
62	3.100000e+00	2.925663e+07	
63	3.150000e+00	3.024564e+07	
64	3.200000e+00	3.119592e+07	
65	3.250000e+00	3.210957e+07	
66	3.300000e+00	3.298853e+07	
Reset re-loads circuit ***************************

Circuit: ***************************

Note: No ".plot", ".print", or ".fourier" lines; no simulations run
