
Note: Compatibility modes selected: hs

Warning: m=xx on .subckt line will override multiplier m hierarchy!


Circuit: ***************************

Doing analysis at TEMP = 25.000000 and TNOM = 25.000000


No. of Data Rows : 67
                          ***************************
                          DC transfer characteristic  Mon Jan  9 13:57:19  2023
--------------------------------------------------------------------------------
Index   v-sweep         rds             
--------------------------------------------------------------------------------
0	0.000000e+00	1.282626e+03	
1	5.000000e-02	1.850929e+03	
2	1.000000e-01	2.996510e+03	
3	1.500000e-01	5.606578e+03	
4	2.000000e-01	1.068246e+04	
5	2.500000e-01	1.688681e+04	
6	3.000000e-01	2.199437e+04	
7	3.500000e-01	2.553830e+04	
8	4.000000e-01	2.790599e+04	
9	4.500000e-01	2.950102e+04	
10	5.000000e-01	3.059452e+04	
11	5.500000e-01	3.135491e+04	
12	6.000000e-01	3.188711e+04	
13	6.500000e-01	3.225822e+04	
14	7.000000e-01	3.251250e+04	
15	7.500000e-01	3.268007e+04	
16	8.000000e-01	3.278200e+04	
17	8.500000e-01	3.283339e+04	
18	9.000000e-01	3.284534e+04	
19	9.500000e-01	3.282613e+04	
20	1.000000e+00	3.278206e+04	
21	1.050000e+00	3.271801e+04	
22	1.100000e+00	3.263779e+04	
23	1.150000e+00	3.254442e+04	
24	1.200000e+00	3.244033e+04	
25	1.250000e+00	3.232747e+04	
26	1.300000e+00	3.220744e+04	
27	1.350000e+00	3.208155e+04	
28	1.400000e+00	3.195090e+04	
29	1.450000e+00	3.181638e+04	
30	1.500000e+00	3.167875e+04	
31	1.550000e+00	3.153864e+04	
32	1.600000e+00	3.139661e+04	
33	1.650000e+00	3.125310e+04	
34	1.700000e+00	3.110849e+04	
35	1.750000e+00	3.096310e+04	
36	1.800000e+00	3.081720e+04	
37	1.850000e+00	3.067101e+04	
38	1.900000e+00	3.052468e+04	
39	1.950000e+00	3.037834e+04	
40	2.000000e+00	3.023206e+04	
41	2.050000e+00	3.008584e+04	
42	2.100000e+00	2.993964e+04	
43	2.150000e+00	2.979334e+04	
44	2.200000e+00	2.964676e+04	
45	2.250000e+00	2.949963e+04	
46	2.300000e+00	2.935157e+04	
47	2.350000e+00	2.920213e+04	
48	2.400000e+00	2.905074e+04	
49	2.450000e+00	2.889668e+04	
50	2.500000e+00	2.873914e+04	
51	2.550000e+00	2.857714e+04	
52	2.600000e+00	2.840958e+04	
53	2.650000e+00	2.823521e+04	
54	2.700000e+00	2.805263e+04	

Index   v-sweep         rds             
--------------------------------------------------------------------------------
55	2.750000e+00	2.786030e+04	
56	2.800000e+00	2.765656e+04	
57	2.850000e+00	2.743962e+04	
58	2.900000e+00	2.720761e+04	
59	2.950000e+00	2.695859e+04	
60	3.000000e+00	2.669059e+04	
61	3.050000e+00	2.640166e+04	
62	3.100000e+00	2.608989e+04	
63	3.150000e+00	2.575349e+04	
64	3.200000e+00	2.539086e+04	
65	3.250000e+00	2.500062e+04	
66	3.300000e+00	2.458169e+04	
Reset re-loads circuit ***************************

Circuit: ***************************

Doing analysis at TEMP = 25.000000 and TNOM = 25.000000


No. of Data Rows : 67
                          ***************************
                          DC transfer characteristic  Mon Jan  9 13:57:19  2023
--------------------------------------------------------------------------------
Index   v-sweep         rds             
--------------------------------------------------------------------------------
0	0.000000e+00	3.461889e+02	
1	5.000000e-02	3.941344e+02	
2	1.000000e-01	4.520202e+02	
3	1.500000e-01	5.232680e+02	
4	2.000000e-01	6.131292e+02	
5	2.500000e-01	7.301158e+02	
6	3.000000e-01	8.888829e+02	
7	3.500000e-01	1.115811e+03	
8	4.000000e-01	1.456896e+03	
9	4.500000e-01	1.975727e+03	
10	5.000000e-01	2.714002e+03	
11	5.500000e-01	3.636020e+03	
12	6.000000e-01	4.642312e+03	
13	6.500000e-01	5.635440e+03	
14	7.000000e-01	6.555753e+03	
15	7.500000e-01	7.378801e+03	
16	8.000000e-01	8.101475e+03	
17	8.500000e-01	8.730836e+03	
18	9.000000e-01	9.277642e+03	
19	9.500000e-01	9.753168e+03	
20	1.000000e+00	1.016784e+04	
21	1.050000e+00	1.053077e+04	
22	1.100000e+00	1.084972e+04	
23	1.150000e+00	1.113119e+04	
24	1.200000e+00	1.138063e+04	
25	1.250000e+00	1.160255e+04	
26	1.300000e+00	1.180075e+04	
27	1.350000e+00	1.197838e+04	
28	1.400000e+00	1.213811e+04	
29	1.450000e+00	1.228218e+04	
30	1.500000e+00	1.241250e+04	
31	1.550000e+00	1.253069e+04	
32	1.600000e+00	1.263813e+04	
33	1.650000e+00	1.273602e+04	
34	1.700000e+00	1.282539e+04	
35	1.750000e+00	1.290712e+04	
36	1.800000e+00	1.298199e+04	
37	1.850000e+00	1.305068e+04	
38	1.900000e+00	1.311378e+04	
39	1.950000e+00	1.317181e+04	
40	2.000000e+00	1.322521e+04	
41	2.050000e+00	1.327437e+04	
42	2.100000e+00	1.331964e+04	
43	2.150000e+00	1.336128e+04	
44	2.200000e+00	1.339951e+04	
45	2.250000e+00	1.343449e+04	
46	2.300000e+00	1.346632e+04	
47	2.350000e+00	1.349501e+04	
48	2.400000e+00	1.352049e+04	
49	2.450000e+00	1.354262e+04	
50	2.500000e+00	1.356110e+04	
51	2.550000e+00	1.357556e+04	
52	2.600000e+00	1.358548e+04	
53	2.650000e+00	1.359016e+04	
54	2.700000e+00	1.358878e+04	

Index   v-sweep         rds             
--------------------------------------------------------------------------------
55	2.750000e+00	1.358034e+04	
56	2.800000e+00	1.356364e+04	
57	2.850000e+00	1.353732e+04	
58	2.900000e+00	1.349986e+04	
59	2.950000e+00	1.344956e+04	
60	3.000000e+00	1.338460e+04	
61	3.050000e+00	1.330306e+04	
62	3.100000e+00	1.320299e+04	
63	3.150000e+00	1.308245e+04	
64	3.200000e+00	1.293959e+04	
65	3.250000e+00	1.277275e+04	
66	3.300000e+00	1.258055e+04	
Reset re-loads circuit ***************************

Circuit: ***************************

Doing analysis at TEMP = 25.000000 and TNOM = 25.000000


No. of Data Rows : 67
                          ***************************
                          DC transfer characteristic  Mon Jan  9 13:57:19  2023
--------------------------------------------------------------------------------
Index   v-sweep         rds             
--------------------------------------------------------------------------------
0	0.000000e+00	2.312934e+02	
1	5.000000e-02	2.524388e+02	
2	1.000000e-01	2.760912e+02	
3	1.500000e-01	3.027148e+02	
4	2.000000e-01	3.329037e+02	
5	2.500000e-01	3.674359e+02	
6	3.000000e-01	4.073600e+02	
7	3.500000e-01	4.541420e+02	
8	4.000000e-01	5.099273e+02	
9	4.500000e-01	5.780295e+02	
10	5.000000e-01	6.638541e+02	
11	5.500000e-01	7.765472e+02	
12	6.000000e-01	9.313277e+02	
13	6.500000e-01	1.150566e+03	
14	7.000000e-01	1.458306e+03	
15	7.500000e-01	1.865902e+03	
16	8.000000e-01	2.360928e+03	
17	8.500000e-01	2.912633e+03	
18	9.000000e-01	3.486649e+03	
19	9.500000e-01	4.055283e+03	
20	1.000000e+00	4.600330e+03	
21	1.050000e+00	5.111733e+03	
22	1.100000e+00	5.585171e+03	
23	1.150000e+00	6.019924e+03	
24	1.200000e+00	6.417330e+03	
25	1.250000e+00	6.779793e+03	
26	1.300000e+00	7.110168e+03	
27	1.350000e+00	7.411410e+03	
28	1.400000e+00	7.686376e+03	
29	1.450000e+00	7.937734e+03	
30	1.500000e+00	8.167914e+03	
31	1.550000e+00	8.379105e+03	
32	1.600000e+00	8.573261e+03	
33	1.650000e+00	8.752117e+03	
34	1.700000e+00	8.917209e+03	
35	1.750000e+00	9.069899e+03	
36	1.800000e+00	9.211389e+03	
37	1.850000e+00	9.342746e+03	
38	1.900000e+00	9.464914e+03	
39	1.950000e+00	9.578732e+03	
40	2.000000e+00	9.684944e+03	
41	2.050000e+00	9.784213e+03	
42	2.100000e+00	9.877130e+03	
43	2.150000e+00	9.964218e+03	
44	2.200000e+00	1.004594e+04	
45	2.250000e+00	1.012271e+04	
46	2.300000e+00	1.019487e+04	
47	2.350000e+00	1.026272e+04	
48	2.400000e+00	1.032650e+04	
49	2.450000e+00	1.038638e+04	
50	2.500000e+00	1.044247e+04	
51	2.550000e+00	1.049477e+04	
52	2.600000e+00	1.054321e+04	
53	2.650000e+00	1.058760e+04	
54	2.700000e+00	1.062762e+04	

Index   v-sweep         rds             
--------------------------------------------------------------------------------
55	2.750000e+00	1.066279e+04	
56	2.800000e+00	1.069248e+04	
57	2.850000e+00	1.071588e+04	
58	2.900000e+00	1.073196e+04	
59	2.950000e+00	1.073950e+04	
60	3.000000e+00	1.073706e+04	
61	3.050000e+00	1.072298e+04	
62	3.100000e+00	1.069543e+04	
63	3.150000e+00	1.065239e+04	
64	3.200000e+00	1.059176e+04	
65	3.250000e+00	1.051137e+04	
66	3.300000e+00	1.040911e+04	
Reset re-loads circuit ***************************

Circuit: ***************************

Doing analysis at TEMP = 25.000000 and TNOM = 25.000000


No. of Data Rows : 67
                          ***************************
                          DC transfer characteristic  Mon Jan  9 13:57:19  2023
--------------------------------------------------------------------------------
Index   v-sweep         rds             
--------------------------------------------------------------------------------
0	0.000000e+00	1.887611e+02	
1	5.000000e-02	2.019826e+02	
2	1.000000e-01	2.163191e+02	
3	1.500000e-01	2.319125e+02	
4	2.000000e-01	2.489313e+02	
5	2.500000e-01	2.675781e+02	
6	3.000000e-01	2.881002e+02	
7	3.500000e-01	3.108042e+02	
8	4.000000e-01	3.360793e+02	
9	4.500000e-01	3.644330e+02	
10	5.000000e-01	3.965505e+02	
11	5.500000e-01	4.333964e+02	
12	6.000000e-01	4.763951e+02	
13	6.500000e-01	5.277536e+02	
14	7.000000e-01	5.910295e+02	
15	7.500000e-01	6.720340e+02	
16	8.000000e-01	7.799194e+02	
17	8.500000e-01	9.274851e+02	
18	9.000000e-01	1.128691e+03	
19	9.500000e-01	1.392579e+03	
20	1.000000e+00	1.717554e+03	
21	1.050000e+00	2.091412e+03	
22	1.100000e+00	2.496575e+03	
23	1.150000e+00	2.915665e+03	
24	1.200000e+00	3.334598e+03	
25	1.250000e+00	3.743347e+03	
26	1.300000e+00	4.135493e+03	
27	1.350000e+00	4.507385e+03	
28	1.400000e+00	4.857333e+03	
29	1.450000e+00	5.184948e+03	
30	1.500000e+00	5.490670e+03	
31	1.550000e+00	5.775427e+03	
32	1.600000e+00	6.040417e+03	
33	1.650000e+00	6.286960e+03	
34	1.700000e+00	6.516403e+03	
35	1.750000e+00	6.730065e+03	
36	1.800000e+00	6.929205e+03	
37	1.850000e+00	7.115002e+03	
38	1.900000e+00	7.288551e+03	
39	1.950000e+00	7.450857e+03	
40	2.000000e+00	7.602840e+03	
41	2.050000e+00	7.745339e+03	
42	2.100000e+00	7.879118e+03	
43	2.150000e+00	8.004869e+03	
44	2.200000e+00	8.123222e+03	
45	2.250000e+00	8.234746e+03	
46	2.300000e+00	8.339959e+03	
47	2.350000e+00	8.439323e+03	
48	2.400000e+00	8.533257e+03	
49	2.450000e+00	8.622129e+03	
50	2.500000e+00	8.706259e+03	
51	2.550000e+00	8.785916e+03	
52	2.600000e+00	8.861309e+03	
53	2.650000e+00	8.932584e+03	
54	2.700000e+00	8.999810e+03	

Index   v-sweep         rds             
--------------------------------------------------------------------------------
55	2.750000e+00	9.062962e+03	
56	2.800000e+00	9.121910e+03	
57	2.850000e+00	9.176397e+03	
58	2.900000e+00	9.226015e+03	
59	2.950000e+00	9.270187e+03	
60	3.000000e+00	9.308143e+03	
61	3.050000e+00	9.338899e+03	
62	3.100000e+00	9.361239e+03	
63	3.150000e+00	9.373708e+03	
64	3.200000e+00	9.374611e+03	
65	3.250000e+00	9.362024e+03	
66	3.300000e+00	9.333831e+03	
Reset re-loads circuit ***************************

Circuit: ***************************

Doing analysis at TEMP = 25.000000 and TNOM = 25.000000


No. of Data Rows : 67
                          ***************************
                          DC transfer characteristic  Mon Jan  9 13:57:19  2023
--------------------------------------------------------------------------------
Index   v-sweep         rds             
--------------------------------------------------------------------------------
0	0.000000e+00	1.674680e+02	
1	5.000000e-02	1.770364e+02	
2	1.000000e-01	1.872348e+02	
3	1.500000e-01	1.981240e+02	
4	2.000000e-01	2.097738e+02	
5	2.500000e-01	2.222643e+02	
6	3.000000e-01	2.356883e+02	
7	3.500000e-01	2.501545e+02	
8	4.000000e-01	2.657912e+02	
9	4.500000e-01	2.827526e+02	
10	5.000000e-01	3.012271e+02	
11	5.500000e-01	3.214497e+02	
12	6.000000e-01	3.437217e+02	
13	6.500000e-01	3.684424e+02	
14	7.000000e-01	3.961608e+02	
15	7.500000e-01	4.276643e+02	
16	8.000000e-01	4.641297e+02	
17	8.500000e-01	5.073795e+02	
18	9.000000e-01	5.602938e+02	
19	9.500000e-01	6.273877e+02	
20	1.000000e+00	7.153689e+02	
21	1.050000e+00	8.330540e+02	
22	1.100000e+00	9.896822e+02	
23	1.150000e+00	1.191511e+03	
24	1.200000e+00	1.438682e+03	
25	1.250000e+00	1.724863e+03	
26	1.300000e+00	2.039668e+03	
27	1.350000e+00	2.371749e+03	
28	1.400000e+00	2.710941e+03	
29	1.450000e+00	3.049182e+03	
30	1.500000e+00	3.380611e+03	
31	1.550000e+00	3.701269e+03	
32	1.600000e+00	4.008694e+03	
33	1.650000e+00	4.301532e+03	
34	1.700000e+00	4.579215e+03	
35	1.750000e+00	4.841712e+03	
36	1.800000e+00	5.089349e+03	
37	1.850000e+00	5.322678e+03	
38	1.900000e+00	5.542380e+03	
39	1.950000e+00	5.749206e+03	
40	2.000000e+00	5.943932e+03	
41	2.050000e+00	6.127332e+03	
42	2.100000e+00	6.300156e+03	
43	2.150000e+00	6.463123e+03	
44	2.200000e+00	6.616913e+03	
45	2.250000e+00	6.762162e+03	
46	2.300000e+00	6.899465e+03	
47	2.350000e+00	7.029374e+03	
48	2.400000e+00	7.152399e+03	
49	2.450000e+00	7.269010e+03	
50	2.500000e+00	7.379638e+03	
51	2.550000e+00	7.484679e+03	
52	2.600000e+00	7.584487e+03	
53	2.650000e+00	7.679380e+03	
54	2.700000e+00	7.769631e+03	

Index   v-sweep         rds             
--------------------------------------------------------------------------------
55	2.750000e+00	7.855467e+03	
56	2.800000e+00	7.937056e+03	
57	2.850000e+00	8.014503e+03	
58	2.900000e+00	8.087831e+03	
59	2.950000e+00	8.156964e+03	
60	3.000000e+00	8.221709e+03	
61	3.050000e+00	8.281734e+03	
62	3.100000e+00	8.336539e+03	
63	3.150000e+00	8.385434e+03	
64	3.200000e+00	8.427512e+03	
65	3.250000e+00	8.461626e+03	
66	3.300000e+00	8.486375e+03	
Reset re-loads circuit ***************************

Circuit: ***************************

Doing analysis at TEMP = 25.000000 and TNOM = 25.000000


No. of Data Rows : 67
                          ***************************
                          DC transfer characteristic  Mon Jan  9 13:57:19  2023
--------------------------------------------------------------------------------
Index   v-sweep         rds             
--------------------------------------------------------------------------------
0	0.000000e+00	1.552525e+02	
1	5.000000e-02	1.627489e+02	
2	1.000000e-01	1.706507e+02	
3	1.500000e-01	1.789897e+02	
4	2.000000e-01	1.878013e+02	
5	2.500000e-01	1.971249e+02	
6	3.000000e-01	2.070049e+02	
7	3.500000e-01	2.174916e+02	
8	4.000000e-01	2.286419e+02	
9	4.500000e-01	2.405214e+02	
10	5.000000e-01	2.532057e+02	
11	5.500000e-01	2.667836e+02	
12	6.000000e-01	2.813605e+02	
13	6.500000e-01	2.970636e+02	
14	7.000000e-01	3.140504e+02	
15	7.500000e-01	3.325199e+02	
16	8.000000e-01	3.527322e+02	
17	8.500000e-01	3.750381e+02	
18	9.000000e-01	3.999283e+02	
19	9.500000e-01	4.281148e+02	
20	1.000000e+00	4.606629e+02	
21	1.050000e+00	4.992025e+02	
22	1.100000e+00	5.462378e+02	
23	1.150000e+00	6.055281e+02	
24	1.200000e+00	6.823638e+02	
25	1.250000e+00	7.833201e+02	
26	1.300000e+00	9.149980e+02	
27	1.350000e+00	1.081865e+03	
28	1.400000e+00	1.284368e+03	
29	1.450000e+00	1.518646e+03	
30	1.500000e+00	1.777860e+03	
31	1.550000e+00	2.054079e+03	
32	1.600000e+00	2.339751e+03	
33	1.650000e+00	2.628492e+03	
34	1.700000e+00	2.915317e+03	
35	1.750000e+00	3.196569e+03	
36	1.800000e+00	3.469710e+03	
37	1.850000e+00	3.733092e+03	
38	1.900000e+00	3.985738e+03	
39	1.950000e+00	4.227167e+03	
40	2.000000e+00	4.457249e+03	
41	2.050000e+00	4.676104e+03	
42	2.100000e+00	4.884017e+03	
43	2.150000e+00	5.081381e+03	
44	2.200000e+00	5.268654e+03	
45	2.250000e+00	5.446332e+03	
46	2.300000e+00	5.614922e+03	
47	2.350000e+00	5.774930e+03	
48	2.400000e+00	5.926855e+03	
49	2.450000e+00	6.071175e+03	
50	2.500000e+00	6.208349e+03	
51	2.550000e+00	6.338809e+03	
52	2.600000e+00	6.462966e+03	
53	2.650000e+00	6.581202e+03	
54	2.700000e+00	6.693874e+03	

Index   v-sweep         rds             
--------------------------------------------------------------------------------
55	2.750000e+00	6.801309e+03	
56	2.800000e+00	6.903806e+03	
57	2.850000e+00	7.001631e+03	
58	2.900000e+00	7.095012e+03	
59	2.950000e+00	7.184131e+03	
60	3.000000e+00	7.269117e+03	
61	3.050000e+00	7.350030e+03	
62	3.100000e+00	7.426848e+03	
63	3.150000e+00	7.499444e+03	
64	3.200000e+00	7.567565e+03	
65	3.250000e+00	7.630805e+03	
66	3.300000e+00	7.688580e+03	
Reset re-loads circuit ***************************

Circuit: ***************************

Note: No ".plot", ".print", or ".fourier" lines; no simulations run
