
Note: Compatibility modes selected: hs

Warning: m=xx on .subckt line will override multiplier m hierarchy!


Circuit: ***************************

Doing analysis at TEMP = 125.000000 and TNOM = 125.000000


No. of Data Rows : 67
                          ***************************
                          DC transfer characteristic  Mon Jan  9 13:57:20  2023
--------------------------------------------------------------------------------
Index   v-sweep         rds             
--------------------------------------------------------------------------------
0	0.000000e+00	2.568143e+03	
1	5.000000e-02	3.324403e+03	
2	1.000000e-01	4.614596e+03	
3	1.500000e-01	7.205254e+03	
4	2.000000e-01	1.359774e+04	
5	2.500000e-01	3.020935e+04	
6	3.000000e-01	6.117726e+04	
7	3.500000e-01	9.882633e+04	
8	4.000000e-01	1.349184e+05	
9	4.500000e-01	1.667340e+05	
10	5.000000e-01	1.942228e+05	
11	5.500000e-01	2.179927e+05	
12	6.000000e-01	2.386863e+05	
13	6.500000e-01	2.568447e+05	
14	7.000000e-01	2.728999e+05	
15	7.500000e-01	2.871940e+05	
16	8.000000e-01	2.999987e+05	
17	8.500000e-01	3.115324e+05	
18	9.000000e-01	3.219725e+05	
19	9.500000e-01	3.314644e+05	
20	1.000000e+00	3.401286e+05	
21	1.050000e+00	3.480657e+05	
22	1.100000e+00	3.553608e+05	
23	1.150000e+00	3.620859e+05	
24	1.200000e+00	3.683028e+05	
25	1.250000e+00	3.740643e+05	
26	1.300000e+00	3.794164e+05	
27	1.350000e+00	3.843991e+05	
28	1.400000e+00	3.890472e+05	
29	1.450000e+00	3.933913e+05	
30	1.500000e+00	3.974585e+05	
31	1.550000e+00	4.012727e+05	
32	1.600000e+00	4.048549e+05	
33	1.650000e+00	4.082241e+05	
34	1.700000e+00	4.113970e+05	
35	1.750000e+00	4.143884e+05	
36	1.800000e+00	4.172114e+05	
37	1.850000e+00	4.198772e+05	
38	1.900000e+00	4.223956e+05	
39	1.950000e+00	4.247742e+05	
40	2.000000e+00	4.270191e+05	
41	2.050000e+00	4.291337e+05	
42	2.100000e+00	4.311192e+05	
43	2.150000e+00	4.329740e+05	
44	2.200000e+00	4.346930e+05	
45	2.250000e+00	4.362674e+05	
46	2.300000e+00	4.376840e+05	
47	2.350000e+00	4.389249e+05	
48	2.400000e+00	4.399667e+05	
49	2.450000e+00	4.407801e+05	
50	2.500000e+00	4.413299e+05	
51	2.550000e+00	4.415739e+05	
52	2.600000e+00	4.414639e+05	
53	2.650000e+00	4.409451e+05	
54	2.700000e+00	4.399571e+05	

Index   v-sweep         rds             
--------------------------------------------------------------------------------
55	2.750000e+00	4.384348e+05	
56	2.800000e+00	4.363096e+05	
57	2.850000e+00	4.335116e+05	
58	2.900000e+00	4.299718e+05	
59	2.950000e+00	4.256250e+05	
60	3.000000e+00	4.204132e+05	
61	3.050000e+00	4.142889e+05	
62	3.100000e+00	4.072186e+05	
63	3.150000e+00	3.991861e+05	
64	3.200000e+00	3.901949e+05	
65	3.250000e+00	3.802708e+05	
66	3.300000e+00	3.694615e+05	
Reset re-loads circuit ***************************

Circuit: ***************************

Doing analysis at TEMP = 125.000000 and TNOM = 125.000000


No. of Data Rows : 67
                          ***************************
                          DC transfer characteristic  Mon Jan  9 13:57:20  2023
--------------------------------------------------------------------------------
Index   v-sweep         rds             
--------------------------------------------------------------------------------
0	0.000000e+00	7.883435e+02	
1	5.000000e-02	8.688172e+02	
2	1.000000e-01	9.636705e+02	
3	1.500000e-01	1.077101e+03	
4	2.000000e-01	1.215108e+03	
5	2.500000e-01	1.386573e+03	
6	3.000000e-01	1.605193e+03	
7	3.500000e-01	1.893163e+03	
8	4.000000e-01	2.288582e+03	
9	4.500000e-01	2.860948e+03	
10	5.000000e-01	3.742387e+03	
11	5.500000e-01	5.173348e+03	
12	6.000000e-01	7.489896e+03	
13	6.500000e-01	1.090694e+04	
14	7.000000e-01	1.528132e+04	
15	7.500000e-01	2.024013e+04	
16	8.000000e-01	2.543897e+04	
17	8.500000e-01	3.065255e+04	
18	9.000000e-01	3.575450e+04	
19	9.500000e-01	4.068015e+04	
20	1.000000e+00	4.539992e+04	
21	1.050000e+00	4.990361e+04	
22	1.100000e+00	5.419160e+04	
23	1.150000e+00	5.826992e+04	
24	1.200000e+00	6.214747e+04	
25	1.250000e+00	6.583453e+04	
26	1.300000e+00	6.934179e+04	
27	1.350000e+00	7.267989e+04	
28	1.400000e+00	7.585913e+04	
29	1.450000e+00	7.888932e+04	
30	1.500000e+00	8.177969e+04	
31	1.550000e+00	8.453891e+04	
32	1.600000e+00	8.717506e+04	
33	1.650000e+00	8.969563e+04	
34	1.700000e+00	9.210763e+04	
35	1.750000e+00	9.441751e+04	
36	1.800000e+00	9.663130e+04	
37	1.850000e+00	9.875457e+04	
38	1.900000e+00	1.007925e+05	
39	1.950000e+00	1.027498e+05	
40	2.000000e+00	1.046310e+05	
41	2.050000e+00	1.064401e+05	
42	2.100000e+00	1.081808e+05	
43	2.150000e+00	1.098563e+05	
44	2.200000e+00	1.114694e+05	
45	2.250000e+00	1.130225e+05	
46	2.300000e+00	1.145172e+05	
47	2.350000e+00	1.159541e+05	
48	2.400000e+00	1.173331e+05	
49	2.450000e+00	1.186527e+05	
50	2.500000e+00	1.199097e+05	
51	2.550000e+00	1.210990e+05	
52	2.600000e+00	1.222135e+05	
53	2.650000e+00	1.232429e+05	
54	2.700000e+00	1.241743e+05	

Index   v-sweep         rds             
--------------------------------------------------------------------------------
55	2.750000e+00	1.249911e+05	
56	2.800000e+00	1.256731e+05	
57	2.850000e+00	1.261960e+05	
58	2.900000e+00	1.265318e+05	
59	2.950000e+00	1.266489e+05	
60	3.000000e+00	1.265128e+05	
61	3.050000e+00	1.260867e+05	
62	3.100000e+00	1.253337e+05	
63	3.150000e+00	1.242178e+05	
64	3.200000e+00	1.227071e+05	
65	3.250000e+00	1.207755e+05	
66	3.300000e+00	1.184062e+05	
Reset re-loads circuit ***************************

Circuit: ***************************

Doing analysis at TEMP = 125.000000 and TNOM = 125.000000


No. of Data Rows : 67
                          ***************************
                          DC transfer characteristic  Mon Jan  9 13:57:20  2023
--------------------------------------------------------------------------------
Index   v-sweep         rds             
--------------------------------------------------------------------------------
0	0.000000e+00	5.055573e+02	
1	5.000000e-02	5.393289e+02	
2	1.000000e-01	5.766221e+02	
3	1.500000e-01	6.180112e+02	
4	2.000000e-01	6.642027e+02	
5	2.500000e-01	7.160766e+02	
6	3.000000e-01	7.747428e+02	
7	3.500000e-01	8.416232e+02	
8	4.000000e-01	9.185701e+02	
9	4.500000e-01	1.008046e+03	
10	5.000000e-01	1.113405e+03	
11	5.500000e-01	1.239343e+03	
12	6.000000e-01	1.392674e+03	
13	6.500000e-01	1.583701e+03	
14	7.000000e-01	1.828764e+03	
15	7.500000e-01	2.154999e+03	
16	8.000000e-01	2.608463e+03	
17	8.500000e-01	3.263341e+03	
18	9.000000e-01	4.217217e+03	
19	9.500000e-01	5.549671e+03	
20	1.000000e+00	7.267019e+03	
21	1.050000e+00	9.299437e+03	
22	1.100000e+00	1.154732e+04	
23	1.150000e+00	1.392050e+04	
24	1.200000e+00	1.635146e+04	
25	1.250000e+00	1.879387e+04	
26	1.300000e+00	2.121727e+04	
27	1.350000e+00	2.360213e+04	
28	1.400000e+00	2.593626e+04	
29	1.450000e+00	2.821231e+04	
30	1.500000e+00	3.042619e+04	
31	1.550000e+00	3.257593e+04	
32	1.600000e+00	3.466104e+04	
33	1.650000e+00	3.668194e+04	
34	1.700000e+00	3.863973e+04	
35	1.750000e+00	4.053590e+04	
36	1.800000e+00	4.237222e+04	
37	1.850000e+00	4.415060e+04	
38	1.900000e+00	4.587304e+04	
39	1.950000e+00	4.754157e+04	
40	2.000000e+00	4.915822e+04	
41	2.050000e+00	5.072498e+04	
42	2.100000e+00	5.224381e+04	
43	2.150000e+00	5.371659e+04	
44	2.200000e+00	5.514514e+04	
45	2.250000e+00	5.653121e+04	
46	2.300000e+00	5.787646e+04	
47	2.350000e+00	5.918242e+04	
48	2.400000e+00	6.045051e+04	
49	2.450000e+00	6.168198e+04	
50	2.500000e+00	6.287783e+04	
51	2.550000e+00	6.403878e+04	
52	2.600000e+00	6.516512e+04	
53	2.650000e+00	6.625659e+04	
54	2.700000e+00	6.731218e+04	

Index   v-sweep         rds             
--------------------------------------------------------------------------------
55	2.750000e+00	6.832995e+04	
56	2.800000e+00	6.930673e+04	
57	2.850000e+00	7.023783e+04	
58	2.900000e+00	7.111672e+04	
59	2.950000e+00	7.193467e+04	
60	3.000000e+00	7.268043e+04	
61	3.050000e+00	7.333987e+04	
62	3.100000e+00	7.389578e+04	
63	3.150000e+00	7.432779e+04	
64	3.200000e+00	7.461243e+04	
65	3.250000e+00	7.472356e+04	
66	3.300000e+00	7.463304e+04	
Reset re-loads circuit ***************************

Circuit: ***************************

Doing analysis at TEMP = 125.000000 and TNOM = 125.000000


No. of Data Rows : 67
                          ***************************
                          DC transfer characteristic  Mon Jan  9 13:57:20  2023
--------------------------------------------------------------------------------
Index   v-sweep         rds             
--------------------------------------------------------------------------------
0	0.000000e+00	3.944025e+02	
1	5.000000e-02	4.146176e+02	
2	1.000000e-01	4.363417e+02	
3	1.500000e-01	4.597472e+02	
4	2.000000e-01	4.850339e+02	
5	2.500000e-01	5.124347e+02	
6	3.000000e-01	5.422230e+02	
7	3.500000e-01	5.747220e+02	
8	4.000000e-01	6.103164e+02	
9	4.500000e-01	6.494685e+02	
10	5.000000e-01	6.927392e+02	
11	5.500000e-01	7.408167e+02	
12	6.000000e-01	7.945562e+02	
13	6.500000e-01	8.550370e+02	
14	7.000000e-01	9.236462e+02	
15	7.500000e-01	1.002207e+03	
16	8.000000e-01	1.093182e+03	
17	8.500000e-01	1.200016e+03	
18	9.000000e-01	1.327723e+03	
19	9.500000e-01	1.483958e+03	
20	1.000000e+00	1.680928e+03	
21	1.050000e+00	1.938581e+03	
22	1.100000e+00	2.288635e+03	
23	1.150000e+00	2.775759e+03	
24	1.200000e+00	3.447967e+03	
25	1.250000e+00	4.334793e+03	
26	1.300000e+00	5.431052e+03	
27	1.350000e+00	6.702460e+03	
28	1.400000e+00	8.103603e+03	
29	1.450000e+00	9.591809e+03	
30	1.500000e+00	1.113268e+04	
31	1.550000e+00	1.270047e+04	
32	1.600000e+00	1.427660e+04	
33	1.650000e+00	1.584791e+04	
34	1.700000e+00	1.740518e+04	
35	1.750000e+00	1.894201e+04	
36	1.800000e+00	2.045402e+04	
37	1.850000e+00	2.193825e+04	
38	1.900000e+00	2.339282e+04	
39	1.950000e+00	2.481658e+04	
40	2.000000e+00	2.620892e+04	
41	2.050000e+00	2.756965e+04	
42	2.100000e+00	2.889886e+04	
43	2.150000e+00	3.019684e+04	
44	2.200000e+00	3.146406e+04	
45	2.250000e+00	3.270107e+04	
46	2.300000e+00	3.390852e+04	
47	2.350000e+00	3.508710e+04	
48	2.400000e+00	3.623753e+04	
49	2.450000e+00	3.736054e+04	
50	2.500000e+00	3.845689e+04	
51	2.550000e+00	3.952730e+04	
52	2.600000e+00	4.057249e+04	
53	2.650000e+00	4.159309e+04	
54	2.700000e+00	4.258970e+04	

Index   v-sweep         rds             
--------------------------------------------------------------------------------
55	2.750000e+00	4.356276e+04	
56	2.800000e+00	4.451254e+04	
57	2.850000e+00	4.543905e+04	
58	2.900000e+00	4.634189e+04	
59	2.950000e+00	4.722019e+04	
60	3.000000e+00	4.807233e+04	
61	3.050000e+00	4.889581e+04	
62	3.100000e+00	4.968693e+04	
63	3.150000e+00	5.044055e+04	
64	3.200000e+00	5.114975e+04	
65	3.250000e+00	5.180552e+04	
66	3.300000e+00	5.239646e+04	
Reset re-loads circuit ***************************

Circuit: ***************************

Doing analysis at TEMP = 125.000000 and TNOM = 125.000000


No. of Data Rows : 67
                          ***************************
                          DC transfer characteristic  Mon Jan  9 13:57:20  2023
--------------------------------------------------------------------------------
Index   v-sweep         rds             
--------------------------------------------------------------------------------
0	0.000000e+00	3.364910e+02	
1	5.000000e-02	3.506645e+02	
2	1.000000e-01	3.656676e+02	
3	1.500000e-01	3.815735e+02	
4	2.000000e-01	3.984643e+02	
5	2.500000e-01	4.164326e+02	
6	3.000000e-01	4.355830e+02	
7	3.500000e-01	4.560342e+02	
8	4.000000e-01	4.779217e+02	
9	4.500000e-01	5.014004e+02	
10	5.000000e-01	5.266489e+02	
11	5.500000e-01	5.538740e+02	
12	6.000000e-01	5.833167e+02	
13	6.500000e-01	6.152598e+02	
14	7.000000e-01	6.500385e+02	
15	7.500000e-01	6.880529e+02	
16	8.000000e-01	7.297866e+02	
17	8.500000e-01	7.758320e+02	
18	9.000000e-01	8.269261e+02	
19	9.500000e-01	8.840047e+02	
20	1.000000e+00	9.482854e+02	
21	1.050000e+00	1.021402e+03	
22	1.100000e+00	1.105627e+03	
23	1.150000e+00	1.204262e+03	
24	1.200000e+00	1.322312e+03	
25	1.250000e+00	1.467649e+03	
26	1.300000e+00	1.652817e+03	
27	1.350000e+00	1.897161e+03	
28	1.400000e+00	2.227499e+03	
29	1.450000e+00	2.673810e+03	
30	1.500000e+00	3.258680e+03	
31	1.550000e+00	3.987159e+03	
32	1.600000e+00	4.845862e+03	
33	1.650000e+00	5.810550e+03	
34	1.700000e+00	6.854664e+03	
35	1.750000e+00	7.954397e+03	
36	1.800000e+00	9.090423e+03	
37	1.850000e+00	1.024783e+04	
38	1.900000e+00	1.141540e+04	
39	1.950000e+00	1.258482e+04	
40	2.000000e+00	1.374992e+04	
41	2.050000e+00	1.490621e+04	
42	2.100000e+00	1.605039e+04	
43	2.150000e+00	1.718005e+04	
44	2.200000e+00	1.829350e+04	
45	2.250000e+00	1.938952e+04	
46	2.300000e+00	2.046729e+04	
47	2.350000e+00	2.152630e+04	
48	2.400000e+00	2.256623e+04	
49	2.450000e+00	2.358696e+04	
50	2.500000e+00	2.458850e+04	
51	2.550000e+00	2.557094e+04	
52	2.600000e+00	2.653446e+04	
53	2.650000e+00	2.747929e+04	
54	2.700000e+00	2.840572e+04	

Index   v-sweep         rds             
--------------------------------------------------------------------------------
55	2.750000e+00	2.931405e+04	
56	2.800000e+00	3.020461e+04	
57	2.850000e+00	3.107770e+04	
58	2.900000e+00	3.193365e+04	
59	2.950000e+00	3.277269e+04	
60	3.000000e+00	3.359501e+04	
61	3.050000e+00	3.440064e+04	
62	3.100000e+00	3.518943e+04	
63	3.150000e+00	3.596091e+04	
64	3.200000e+00	3.671418e+04	
65	3.250000e+00	3.744779e+04	
66	3.300000e+00	3.815949e+04	
Reset re-loads circuit ***************************

Circuit: ***************************

Doing analysis at TEMP = 125.000000 and TNOM = 125.000000


No. of Data Rows : 67
                          ***************************
                          DC transfer characteristic  Mon Jan  9 13:57:20  2023
--------------------------------------------------------------------------------
Index   v-sweep         rds             
--------------------------------------------------------------------------------
0	0.000000e+00	3.019235e+02	
1	5.000000e-02	3.127751e+02	
2	1.000000e-01	3.241508e+02	
3	1.500000e-01	3.360883e+02	
4	2.000000e-01	3.486292e+02	
5	2.500000e-01	3.618193e+02	
6	3.000000e-01	3.757091e+02	
7	3.500000e-01	3.903546e+02	
8	4.000000e-01	4.058181e+02	
9	4.500000e-01	4.221689e+02	
10	5.000000e-01	4.394843e+02	
11	5.500000e-01	4.578513e+02	
12	6.000000e-01	4.773678e+02	
13	6.500000e-01	4.981442e+02	
14	7.000000e-01	5.203062e+02	
15	7.500000e-01	5.439972e+02	
16	8.000000e-01	5.693816e+02	
17	8.500000e-01	5.966497e+02	
18	9.000000e-01	6.260227e+02	
19	9.500000e-01	6.577605e+02	
20	1.000000e+00	6.921713e+02	
21	1.050000e+00	7.296255e+02	
22	1.100000e+00	7.705746e+02	
23	1.150000e+00	8.155796e+02	
24	1.200000e+00	8.653537e+02	
25	1.250000e+00	9.208293e+02	
26	1.300000e+00	9.832667e+02	
27	1.350000e+00	1.054436e+03	
28	1.400000e+00	1.136923e+03	
29	1.450000e+00	1.234650e+03	
30	1.500000e+00	1.353709e+03	
31	1.550000e+00	1.503553e+03	
32	1.600000e+00	1.698231e+03	
33	1.650000e+00	1.956503e+03	
34	1.700000e+00	2.298985e+03	
35	1.750000e+00	2.741862e+03	
36	1.800000e+00	3.290692e+03	
37	1.850000e+00	3.939050e+03	
38	1.900000e+00	4.672305e+03	
39	1.950000e+00	5.472830e+03	
40	2.000000e+00	6.323703e+03	
41	2.050000e+00	7.210421e+03	
42	2.100000e+00	8.121273e+03	
43	2.150000e+00	9.047097e+03	
44	2.200000e+00	9.980843e+03	
45	2.250000e+00	1.091713e+04	
46	2.300000e+00	1.185185e+04	
47	2.350000e+00	1.278190e+04	
48	2.400000e+00	1.370492e+04	
49	2.450000e+00	1.461914e+04	
50	2.500000e+00	1.552321e+04	
51	2.550000e+00	1.641614e+04	
52	2.600000e+00	1.729721e+04	
53	2.650000e+00	1.816588e+04	
54	2.700000e+00	1.902181e+04	

Index   v-sweep         rds             
--------------------------------------------------------------------------------
55	2.750000e+00	1.986476e+04	
56	2.800000e+00	2.069461e+04	
57	2.850000e+00	2.151129e+04	
58	2.900000e+00	2.231483e+04	
59	2.950000e+00	2.310528e+04	
60	3.000000e+00	2.388274e+04	
61	3.050000e+00	2.464733e+04	
62	3.100000e+00	2.539918e+04	
63	3.150000e+00	2.613841e+04	
64	3.200000e+00	2.686510e+04	
65	3.250000e+00	2.757928e+04	
66	3.300000e+00	2.828087e+04	
Reset re-loads circuit ***************************

Circuit: ***************************

Note: No ".plot", ".print", or ".fourier" lines; no simulations run
