
Note: Compatibility modes selected: hs

Warning: m=xx on .subckt line will override multiplier m hierarchy!


Circuit: ***************************

Doing analysis at TEMP = 125.000000 and TNOM = 125.000000


No. of Data Rows : 67
                          ***************************
                          DC transfer characteristic  Mon Jan  9 13:57:20  2023
--------------------------------------------------------------------------------
Index   v-sweep         rds             
--------------------------------------------------------------------------------
0	0.000000e+00	4.185294e+05	
1	5.000000e-02	5.313959e+05	
2	1.000000e-01	7.262563e+05	
3	1.500000e-01	1.139911e+06	
4	2.000000e-01	2.479564e+06	
5	2.500000e-01	1.102347e+07	
6	3.000000e-01	5.089483e+07	
7	3.500000e-01	1.154461e+08	
8	4.000000e-01	1.735972e+08	
9	4.500000e-01	2.186274e+08	
10	5.000000e-01	2.535151e+08	
11	5.500000e-01	2.813700e+08	
12	6.000000e-01	3.042673e+08	
13	6.500000e-01	3.235339e+08	
14	7.000000e-01	3.400429e+08	
15	7.500000e-01	3.543929e+08	
16	8.000000e-01	3.670103e+08	
17	8.500000e-01	3.782098e+08	
18	9.000000e-01	3.882298e+08	
19	9.500000e-01	3.972553e+08	
20	1.000000e+00	4.054330e+08	
21	1.050000e+00	4.128806e+08	
22	1.100000e+00	4.196945e+08	
23	1.150000e+00	4.259541e+08	
24	1.200000e+00	4.317258e+08	
25	1.250000e+00	4.370654e+08	
26	1.300000e+00	4.420206e+08	
27	1.350000e+00	4.466318e+08	
28	1.400000e+00	4.509341e+08	
29	1.450000e+00	4.549579e+08	
30	1.500000e+00	4.587295e+08	
31	1.550000e+00	4.622722e+08	
32	1.600000e+00	4.656061e+08	
33	1.650000e+00	4.687493e+08	
34	1.700000e+00	4.717175e+08	
35	1.750000e+00	4.745248e+08	
36	1.800000e+00	4.771834e+08	
37	1.850000e+00	4.797040e+08	
38	1.900000e+00	4.820959e+08	
39	1.950000e+00	4.843667e+08	
40	2.000000e+00	4.865225e+08	
41	2.050000e+00	4.885678e+08	
42	2.100000e+00	4.905050e+08	
43	2.150000e+00	4.923347e+08	
44	2.200000e+00	4.940550e+08	
45	2.250000e+00	4.956613e+08	
46	2.300000e+00	4.971461e+08	
47	2.350000e+00	4.984984e+08	
48	2.400000e+00	4.997037e+08	
49	2.450000e+00	5.007434e+08	
50	2.500000e+00	5.015944e+08	
51	2.550000e+00	5.022291e+08	
52	2.600000e+00	5.026154e+08	
53	2.650000e+00	5.027161e+08	
54	2.700000e+00	5.024895e+08	

Index   v-sweep         rds             
--------------------------------------------------------------------------------
55	2.750000e+00	5.018894e+08	
56	2.800000e+00	5.008660e+08	
57	2.850000e+00	4.993661e+08	
58	2.900000e+00	4.973346e+08	
59	2.950000e+00	4.947157e+08	
60	3.000000e+00	4.914543e+08	
61	3.050000e+00	4.874980e+08	
62	3.100000e+00	4.827991e+08	
63	3.150000e+00	4.773165e+08	
64	3.200000e+00	4.710184e+08	
65	3.250000e+00	4.638837e+08	
66	3.300000e+00	4.559043e+08	
Reset re-loads circuit ***************************

Circuit: ***************************

Doing analysis at TEMP = 125.000000 and TNOM = 125.000000


No. of Data Rows : 67
                          ***************************
                          DC transfer characteristic  Mon Jan  9 13:57:20  2023
--------------------------------------------------------------------------------
Index   v-sweep         rds             
--------------------------------------------------------------------------------
0	0.000000e+00	1.516913e+05	
1	5.000000e-02	1.655433e+05	
2	1.000000e-01	1.821183e+05	
3	1.500000e-01	2.023060e+05	
4	2.000000e-01	2.274307e+05	
5	2.500000e-01	2.595526e+05	
6	3.000000e-01	3.020588e+05	
7	3.500000e-01	3.609276e+05	
8	4.000000e-01	4.477511e+05	
9	4.500000e-01	5.880937e+05	
10	5.000000e-01	8.494575e+05	
11	5.500000e-01	1.457081e+06	
12	6.000000e-01	3.278693e+06	
13	6.500000e-01	8.418358e+06	
14	7.000000e-01	1.738610e+07	
15	7.500000e-01	2.762898e+07	
16	8.000000e-01	3.732570e+07	
17	8.500000e-01	4.602266e+07	
18	9.000000e-01	5.376556e+07	
19	9.500000e-01	6.069592e+07	
20	1.000000e+00	6.694689e+07	
21	1.050000e+00	7.262615e+07	
22	1.100000e+00	7.781851e+07	
23	1.150000e+00	8.259111e+07	
24	1.200000e+00	8.699790e+07	
25	1.250000e+00	9.108295e+07	
26	1.300000e+00	9.488277e+07	
27	1.350000e+00	9.842805e+07	
28	1.400000e+00	1.017448e+08	
29	1.450000e+00	1.048555e+08	
30	1.500000e+00	1.077795e+08	
31	1.550000e+00	1.105335e+08	
32	1.600000e+00	1.131325e+08	
33	1.650000e+00	1.155895e+08	
34	1.700000e+00	1.179160e+08	
35	1.750000e+00	1.201223e+08	
36	1.800000e+00	1.222178e+08	
37	1.850000e+00	1.242105e+08	
38	1.900000e+00	1.261081e+08	
39	1.950000e+00	1.279172e+08	
40	2.000000e+00	1.296439e+08	
41	2.050000e+00	1.312937e+08	
42	2.100000e+00	1.328714e+08	
43	2.150000e+00	1.343816e+08	
44	2.200000e+00	1.358280e+08	
45	2.250000e+00	1.372141e+08	
46	2.300000e+00	1.385426e+08	
47	2.350000e+00	1.398155e+08	
48	2.400000e+00	1.410342e+08	
49	2.450000e+00	1.421990e+08	
50	2.500000e+00	1.433093e+08	
51	2.550000e+00	1.443631e+08	
52	2.600000e+00	1.453570e+08	
53	2.650000e+00	1.462858e+08	
54	2.700000e+00	1.471423e+08	

Index   v-sweep         rds             
--------------------------------------------------------------------------------
55	2.750000e+00	1.479172e+08	
56	2.800000e+00	1.485987e+08	
57	2.850000e+00	1.491724e+08	
58	2.900000e+00	1.496210e+08	
59	2.950000e+00	1.499247e+08	
60	3.000000e+00	1.500608e+08	
61	3.050000e+00	1.500041e+08	
62	3.100000e+00	1.497277e+08	
63	3.150000e+00	1.492031e+08	
64	3.200000e+00	1.484014e+08	
65	3.250000e+00	1.472946e+08	
66	3.300000e+00	1.458565e+08	
Reset re-loads circuit ***************************

Circuit: ***************************

Doing analysis at TEMP = 125.000000 and TNOM = 125.000000


No. of Data Rows : 67
                          ***************************
                          DC transfer characteristic  Mon Jan  9 13:57:20  2023
--------------------------------------------------------------------------------
Index   v-sweep         rds             
--------------------------------------------------------------------------------
0	0.000000e+00	9.598883e+04	
1	5.000000e-02	1.011384e+05	
2	1.000000e-01	1.068526e+05	
3	1.500000e-01	1.132296e+05	
4	2.000000e-01	1.203919e+05	
5	2.500000e-01	1.284939e+05	
6	3.000000e-01	1.377335e+05	
7	3.500000e-01	1.483682e+05	
8	4.000000e-01	1.607397e+05	
9	4.500000e-01	1.753109e+05	
10	5.000000e-01	1.927248e+05	
11	5.500000e-01	2.139018e+05	
12	6.000000e-01	2.402063e+05	
13	6.500000e-01	2.737492e+05	
14	7.000000e-01	3.179736e+05	
15	7.500000e-01	3.788820e+05	
16	8.000000e-01	4.678669e+05	
17	8.500000e-01	6.090318e+05	
18	9.000000e-01	8.604628e+05	
19	9.500000e-01	1.378260e+06	
20	1.000000e+00	2.547542e+06	
21	1.050000e+00	4.871718e+06	
22	1.100000e+00	8.273564e+06	
23	1.150000e+00	1.213723e+07	
24	1.200000e+00	1.600285e+07	
25	1.250000e+00	1.968696e+07	
26	1.300000e+00	2.314360e+07	
27	1.350000e+00	2.637551e+07	
28	1.400000e+00	2.939945e+07	
29	1.450000e+00	3.223460e+07	
30	1.500000e+00	3.489905e+07	
31	1.550000e+00	3.740886e+07	
32	1.600000e+00	3.977813e+07	
33	1.650000e+00	4.201915e+07	
34	1.700000e+00	4.414272e+07	
35	1.750000e+00	4.615833e+07	
36	1.800000e+00	4.807440e+07	
37	1.850000e+00	4.989844e+07	
38	1.900000e+00	5.163715e+07	
39	1.950000e+00	5.329658e+07	
40	2.000000e+00	5.488216e+07	
41	2.050000e+00	5.639884e+07	
42	2.100000e+00	5.785110e+07	
43	2.150000e+00	5.924304e+07	
44	2.200000e+00	6.057839e+07	
45	2.250000e+00	6.186058e+07	
46	2.300000e+00	6.309276e+07	
47	2.350000e+00	6.427781e+07	
48	2.400000e+00	6.541839e+07	
49	2.450000e+00	6.651691e+07	
50	2.500000e+00	6.757558e+07	
51	2.550000e+00	6.859638e+07	
52	2.600000e+00	6.958101e+07	
53	2.650000e+00	7.053092e+07	
54	2.700000e+00	7.144720e+07	

Index   v-sweep         rds             
--------------------------------------------------------------------------------
55	2.750000e+00	7.233054e+07	
56	2.800000e+00	7.318113e+07	
57	2.850000e+00	7.399853e+07	
58	2.900000e+00	7.478154e+07	
59	2.950000e+00	7.552804e+07	
60	3.000000e+00	7.623483e+07	
61	3.050000e+00	7.689738e+07	
62	3.100000e+00	7.750972e+07	
63	3.150000e+00	7.806417e+07	
64	3.200000e+00	7.855123e+07	
65	3.250000e+00	7.895943e+07	
66	3.300000e+00	7.927527e+07	
Reset re-loads circuit ***************************

Circuit: ***************************

Doing analysis at TEMP = 125.000000 and TNOM = 125.000000


No. of Data Rows : 67
                          ***************************
                          DC transfer characteristic  Mon Jan  9 13:57:20  2023
--------------------------------------------------------------------------------
Index   v-sweep         rds             
--------------------------------------------------------------------------------
0	0.000000e+00	7.271422e+04	
1	5.000000e-02	7.542963e+04	
2	1.000000e-01	7.834651e+04	
3	1.500000e-01	8.148813e+04	
4	2.000000e-01	8.488152e+04	
5	2.500000e-01	8.855817e+04	
6	3.000000e-01	9.255510e+04	
7	3.500000e-01	9.691605e+04	
8	4.000000e-01	1.016931e+05	
9	4.500000e-01	1.069488e+05	
10	5.000000e-01	1.127588e+05	
11	5.500000e-01	1.192157e+05	
12	6.000000e-01	1.264339e+05	
13	6.500000e-01	1.345563e+05	
14	7.000000e-01	1.437640e+05	
15	7.500000e-01	1.542901e+05	
16	8.000000e-01	1.664393e+05	
17	8.500000e-01	1.806178e+05	
18	9.000000e-01	1.973797e+05	
19	9.500000e-01	2.174998e+05	
20	1.000000e+00	2.420963e+05	
21	1.050000e+00	2.728417e+05	
22	1.100000e+00	3.123507e+05	
23	1.150000e+00	3.649349e+05	
24	1.200000e+00	4.381853e+05	
25	1.250000e+00	5.465561e+05	
26	1.300000e+00	7.200201e+05	
27	1.350000e+00	1.024596e+06	
28	1.400000e+00	1.596544e+06	
29	1.450000e+00	2.624486e+06	
30	1.500000e+00	4.169544e+06	
31	1.550000e+00	6.067239e+06	
32	1.600000e+00	8.105932e+06	
33	1.650000e+00	1.015365e+07	
34	1.700000e+00	1.214974e+07	
35	1.750000e+00	1.407089e+07	
36	1.800000e+00	1.591042e+07	
37	1.850000e+00	1.766862e+07	
38	1.900000e+00	1.934860e+07	
39	1.950000e+00	2.095446e+07	
40	2.000000e+00	2.249057e+07	
41	2.050000e+00	2.396120e+07	
42	2.100000e+00	2.537037e+07	
43	2.150000e+00	2.672187e+07	
44	2.200000e+00	2.801917e+07	
45	2.250000e+00	2.926552e+07	
46	2.300000e+00	3.046388e+07	
47	2.350000e+00	3.161701e+07	
48	2.400000e+00	3.272745e+07	
49	2.450000e+00	3.379755e+07	
50	2.500000e+00	3.482948e+07	
51	2.550000e+00	3.582529e+07	
52	2.600000e+00	3.678683e+07	
53	2.650000e+00	3.771586e+07	
54	2.700000e+00	3.861402e+07	

Index   v-sweep         rds             
--------------------------------------------------------------------------------
55	2.750000e+00	3.948281e+07	
56	2.800000e+00	4.032365e+07	
57	2.850000e+00	4.113783e+07	
58	2.900000e+00	4.192655e+07	
59	2.950000e+00	4.269090e+07	
60	3.000000e+00	4.343180e+07	
61	3.050000e+00	4.415004e+07	
62	3.100000e+00	4.484619e+07	
63	3.150000e+00	4.552056e+07	
64	3.200000e+00	4.617315e+07	
65	3.250000e+00	4.680352e+07	
66	3.300000e+00	4.741070e+07	
Reset re-loads circuit ***************************

Circuit: ***************************

Doing analysis at TEMP = 125.000000 and TNOM = 125.000000


No. of Data Rows : 67
                          ***************************
                          DC transfer characteristic  Mon Jan  9 13:57:20  2023
--------------------------------------------------------------------------------
Index   v-sweep         rds             
--------------------------------------------------------------------------------
0	0.000000e+00	6.034939e+04	
1	5.000000e-02	6.205194e+04	
2	1.000000e-01	6.384800e+04	
3	1.500000e-01	6.574549e+04	
4	2.000000e-01	6.775326e+04	
5	2.500000e-01	6.988119e+04	
6	3.000000e-01	7.214041e+04	
7	3.500000e-01	7.454346e+04	
8	4.000000e-01	7.710450e+04	
9	4.500000e-01	7.983966e+04	
10	5.000000e-01	8.276729e+04	
11	5.500000e-01	8.590846e+04	
12	6.000000e-01	8.928741e+04	
13	6.500000e-01	9.293218e+04	
14	7.000000e-01	9.687543e+04	
15	7.500000e-01	1.011554e+05	
16	8.000000e-01	1.058170e+05	
17	8.500000e-01	1.109139e+05	
18	9.000000e-01	1.165097e+05	
19	9.500000e-01	1.226817e+05	
20	1.000000e+00	1.295235e+05	
21	1.050000e+00	1.371504e+05	
22	1.100000e+00	1.457056e+05	
23	1.150000e+00	1.553696e+05	
24	1.200000e+00	1.663726e+05	
25	1.250000e+00	1.790132e+05	
26	1.300000e+00	1.936859e+05	
27	1.350000e+00	2.109226e+05	
28	1.400000e+00	2.314574e+05	
29	1.450000e+00	2.563330e+05	
30	1.500000e+00	2.870788e+05	
31	1.550000e+00	3.260276e+05	
32	1.600000e+00	3.769046e+05	
33	1.650000e+00	4.459894e+05	
34	1.700000e+00	5.445207e+05	
35	1.750000e+00	6.937649e+05	
36	1.800000e+00	9.346615e+05	
37	1.850000e+00	1.338159e+06	
38	1.900000e+00	1.987793e+06	
39	1.950000e+00	2.910224e+06	
40	2.000000e+00	4.040855e+06	
41	2.050000e+00	5.283669e+06	
42	2.100000e+00	6.566287e+06	
43	2.150000e+00	7.847174e+06	
44	2.200000e+00	9.105186e+06	
45	2.250000e+00	1.033029e+07	
46	2.300000e+00	1.151819e+07	
47	2.350000e+00	1.266748e+07	
48	2.400000e+00	1.377828e+07	
49	2.450000e+00	1.485146e+07	
50	2.500000e+00	1.588826e+07	
51	2.550000e+00	1.689010e+07	
52	2.600000e+00	1.785846e+07	
53	2.650000e+00	1.879481e+07	
54	2.700000e+00	1.970061e+07	

Index   v-sweep         rds             
--------------------------------------------------------------------------------
55	2.750000e+00	2.057724e+07	
56	2.800000e+00	2.142604e+07	
57	2.850000e+00	2.224826e+07	
58	2.900000e+00	2.304510e+07	
59	2.950000e+00	2.381770e+07	
60	3.000000e+00	2.456713e+07	
61	3.050000e+00	2.529441e+07	
62	3.100000e+00	2.600048e+07	
63	3.150000e+00	2.668626e+07	
64	3.200000e+00	2.735259e+07	
65	3.250000e+00	2.800028e+07	
66	3.300000e+00	2.863006e+07	
Reset re-loads circuit ***************************

Circuit: ***************************

Doing analysis at TEMP = 125.000000 and TNOM = 125.000000


No. of Data Rows : 67
                          ***************************
                          DC transfer characteristic  Mon Jan  9 13:57:20  2023
--------------------------------------------------------------------------------
Index   v-sweep         rds             
--------------------------------------------------------------------------------
0	0.000000e+00	5.295866e+04	
1	5.000000e-02	5.414226e+04	
2	1.000000e-01	5.537653e+04	
3	1.500000e-01	5.666479e+04	
4	2.000000e-01	5.801066e+04	
5	2.500000e-01	5.941808e+04	
6	3.000000e-01	6.089139e+04	
7	3.500000e-01	6.243530e+04	
8	4.000000e-01	6.405503e+04	
9	4.500000e-01	6.575629e+04	
10	5.000000e-01	6.754541e+04	
11	5.500000e-01	6.942935e+04	
12	6.000000e-01	7.141586e+04	
13	6.500000e-01	7.351355e+04	
14	7.000000e-01	7.573202e+04	
15	7.500000e-01	7.808201e+04	
16	8.000000e-01	8.057556e+04	
17	8.500000e-01	8.322624e+04	
18	9.000000e-01	8.604938e+04	
19	9.500000e-01	8.906238e+04	
20	1.000000e+00	9.228504e+04	
21	1.050000e+00	9.574004e+04	
22	1.100000e+00	9.945343e+04	
23	1.150000e+00	1.034553e+05	
24	1.200000e+00	1.077807e+05	
25	1.250000e+00	1.124703e+05	
26	1.300000e+00	1.175724e+05	
27	1.350000e+00	1.231437e+05	
28	1.400000e+00	1.292520e+05	
29	1.450000e+00	1.359790e+05	
30	1.500000e+00	1.434236e+05	
31	1.550000e+00	1.517069e+05	
32	1.600000e+00	1.609792e+05	
33	1.650000e+00	1.714287e+05	
34	1.700000e+00	1.832945e+05	
35	1.750000e+00	1.968852e+05	
36	1.800000e+00	2.126057e+05	
37	1.850000e+00	2.309980e+05	
38	1.900000e+00	2.528043e+05	
39	1.950000e+00	2.790676e+05	
40	2.000000e+00	3.112990e+05	
41	2.050000e+00	3.517664e+05	
42	2.100000e+00	4.040156e+05	
43	2.150000e+00	4.738450e+05	
44	2.200000e+00	5.711673e+05	
45	2.250000e+00	7.134000e+05	
46	2.300000e+00	9.302542e+05	
47	2.350000e+00	1.264592e+06	
48	2.400000e+00	1.755561e+06	
49	2.450000e+00	2.407054e+06	
50	2.500000e+00	3.182295e+06	
51	2.550000e+00	4.031889e+06	
52	2.600000e+00	4.916346e+06	
53	2.650000e+00	5.810310e+06	
54	2.700000e+00	6.698978e+06	

Index   v-sweep         rds             
--------------------------------------------------------------------------------
55	2.750000e+00	7.574068e+06	
56	2.800000e+00	8.431092e+06	
57	2.850000e+00	9.267734e+06	
58	2.900000e+00	1.008294e+07	
59	2.950000e+00	1.087638e+07	
60	3.000000e+00	1.164818e+07	
61	3.050000e+00	1.239869e+07	
62	3.100000e+00	1.312844e+07	
63	3.150000e+00	1.383803e+07	
64	3.200000e+00	1.452809e+07	
65	3.250000e+00	1.519930e+07	
66	3.300000e+00	1.585231e+07	
Reset re-loads circuit ***************************

Circuit: ***************************

Note: No ".plot", ".print", or ".fourier" lines; no simulations run
