
Note: Compatibility modes selected: hs

Warning: m=xx on .subckt line will override multiplier m hierarchy!


Circuit: ***************************

Doing analysis at TEMP = -40.000000 and TNOM = -40.000000


No. of Data Rows : 67
                          ***************************
                          DC transfer characteristic  Mon Jan  9 13:57:20  2023
--------------------------------------------------------------------------------
Index   v-sweep         rds             
--------------------------------------------------------------------------------
0	0.000000e+00	2.790076e+05	
1	5.000000e-02	6.878560e+05	
2	1.000000e-01	7.963951e+06	
3	1.500000e-01	6.564185e+07	
4	2.000000e-01	1.419143e+08	
5	2.500000e-01	1.941910e+08	
6	3.000000e-01	2.277486e+08	
7	3.500000e-01	2.506138e+08	
8	4.000000e-01	2.672002e+08	
9	4.500000e-01	2.798332e+08	
10	5.000000e-01	2.898141e+08	
11	5.500000e-01	2.979226e+08	
12	6.000000e-01	3.046549e+08	
13	6.500000e-01	3.103426e+08	
14	7.000000e-01	3.152169e+08	
15	7.500000e-01	3.194438e+08	
16	8.000000e-01	3.231466e+08	
17	8.500000e-01	3.264185e+08	
18	9.000000e-01	3.293313e+08	
19	9.500000e-01	3.319418e+08	
20	1.000000e+00	3.342951e+08	
21	1.050000e+00	3.364277e+08	
22	1.100000e+00	3.383694e+08	
23	1.150000e+00	3.401449e+08	
24	1.200000e+00	3.417746e+08	
25	1.250000e+00	3.432759e+08	
26	1.300000e+00	3.446634e+08	
27	1.350000e+00	3.459495e+08	
28	1.400000e+00	3.471450e+08	
29	1.450000e+00	3.482590e+08	
30	1.500000e+00	3.492996e+08	
31	1.550000e+00	3.502738e+08	
32	1.600000e+00	3.511875e+08	
33	1.650000e+00	3.520461e+08	
34	1.700000e+00	3.528541e+08	
35	1.750000e+00	3.536155e+08	
36	1.800000e+00	3.543335e+08	
37	1.850000e+00	3.550108e+08	
38	1.900000e+00	3.556495e+08	
39	1.950000e+00	3.562511e+08	
40	2.000000e+00	3.568163e+08	
41	2.050000e+00	3.573451e+08	
42	2.100000e+00	3.578366e+08	
43	2.150000e+00	3.582890e+08	
44	2.200000e+00	3.586997e+08	
45	2.250000e+00	3.590647e+08	
46	2.300000e+00	3.593789e+08	
47	2.350000e+00	3.596361e+08	
48	2.400000e+00	3.598283e+08	
49	2.450000e+00	3.599466e+08	
50	2.500000e+00	3.599800e+08	
51	2.550000e+00	3.599166e+08	
52	2.600000e+00	3.597424e+08	
53	2.650000e+00	3.594422e+08	
54	2.700000e+00	3.589994e+08	

Index   v-sweep         rds             
--------------------------------------------------------------------------------
55	2.750000e+00	3.583959e+08	
56	2.800000e+00	3.576126e+08	
57	2.850000e+00	3.566294e+08	
58	2.900000e+00	3.554257e+08	
59	2.950000e+00	3.539803e+08	
60	3.000000e+00	3.522724e+08	
61	3.050000e+00	3.502815e+08	
62	3.100000e+00	3.479881e+08	
63	3.150000e+00	3.453741e+08	
64	3.200000e+00	3.424236e+08	
65	3.250000e+00	3.391230e+08	
66	3.300000e+00	3.354619e+08	
Reset re-loads circuit ***************************

Circuit: ***************************

Doing analysis at TEMP = -40.000000 and TNOM = -40.000000


No. of Data Rows : 67
                          ***************************
                          DC transfer characteristic  Mon Jan  9 13:57:20  2023
--------------------------------------------------------------------------------
Index   v-sweep         rds             
--------------------------------------------------------------------------------
0	0.000000e+00	4.132261e+04	
1	5.000000e-02	4.690487e+04	
2	1.000000e-01	5.417513e+04	
3	1.500000e-01	6.403373e+04	
4	2.000000e-01	7.815650e+04	
5	2.500000e-01	1.000467e+05	
6	3.000000e-01	1.383644e+05	
7	3.500000e-01	2.206231e+05	
8	4.000000e-01	4.678898e+05	
9	4.500000e-01	1.404051e+06	
10	5.000000e-01	3.722459e+06	
11	5.500000e-01	6.896672e+06	
12	6.000000e-01	1.011573e+07	
13	6.500000e-01	1.306611e+07	
14	7.000000e-01	1.569746e+07	
15	7.500000e-01	1.803558e+07	
16	8.000000e-01	2.012039e+07	
17	8.500000e-01	2.198943e+07	
18	9.000000e-01	2.367453e+07	
19	9.500000e-01	2.520192e+07	
20	1.000000e+00	2.659317e+07	
21	1.050000e+00	2.786604e+07	
22	1.100000e+00	2.903530e+07	
23	1.150000e+00	3.011333e+07	
24	1.200000e+00	3.111057e+07	
25	1.250000e+00	3.203590e+07	
26	1.300000e+00	3.289692e+07	
27	1.350000e+00	3.370017e+07	
28	1.400000e+00	3.445134e+07	
29	1.450000e+00	3.515538e+07	
30	1.500000e+00	3.581661e+07	
31	1.550000e+00	3.643886e+07	
32	1.600000e+00	3.702548e+07	
33	1.650000e+00	3.757947e+07	
34	1.700000e+00	3.810349e+07	
35	1.750000e+00	3.859990e+07	
36	1.800000e+00	3.907084e+07	
37	1.850000e+00	3.951820e+07	
38	1.900000e+00	3.994369e+07	
39	1.950000e+00	4.034884e+07	
40	2.000000e+00	4.073500e+07	
41	2.050000e+00	4.110334e+07	
42	2.100000e+00	4.145489e+07	
43	2.150000e+00	4.179048e+07	
44	2.200000e+00	4.211073e+07	
45	2.250000e+00	4.241608e+07	
46	2.300000e+00	4.270668e+07	
47	2.350000e+00	4.298241e+07	
48	2.400000e+00	4.324279e+07	
49	2.450000e+00	4.348699e+07	
50	2.500000e+00	4.371372e+07	
51	2.550000e+00	4.392119e+07	
52	2.600000e+00	4.410708e+07	
53	2.650000e+00	4.426847e+07	
54	2.700000e+00	4.440181e+07	

Index   v-sweep         rds             
--------------------------------------------------------------------------------
55	2.750000e+00	4.450288e+07	
56	2.800000e+00	4.456683e+07	
57	2.850000e+00	4.458814e+07	
58	2.900000e+00	4.456071e+07	
59	2.950000e+00	4.447797e+07	
60	3.000000e+00	4.433298e+07	
61	3.050000e+00	4.411867e+07	
62	3.100000e+00	4.382802e+07	
63	3.150000e+00	4.345439e+07	
64	3.200000e+00	4.299182e+07	
65	3.250000e+00	4.243537e+07	
66	3.300000e+00	4.178150e+07	
Reset re-loads circuit ***************************

Circuit: ***************************

Doing analysis at TEMP = -40.000000 and TNOM = -40.000000


No. of Data Rows : 67
                          ***************************
                          DC transfer characteristic  Mon Jan  9 13:57:20  2023
--------------------------------------------------------------------------------
Index   v-sweep         rds             
--------------------------------------------------------------------------------
0	0.000000e+00	2.330750e+04	
1	5.000000e-02	2.490609e+04	
2	1.000000e-01	2.672809e+04	
3	1.500000e-01	2.882383e+04	
4	2.000000e-01	3.125997e+04	
5	2.500000e-01	3.412674e+04	
6	3.000000e-01	3.754930e+04	
7	3.500000e-01	4.170648e+04	
8	4.000000e-01	4.686291e+04	
9	4.500000e-01	5.342738e+04	
10	5.000000e-01	6.206579e+04	
11	5.500000e-01	7.393905e+04	
12	6.000000e-01	9.125785e+04	
13	6.500000e-01	1.187552e+05	
14	7.000000e-01	1.682187e+05	
15	7.500000e-01	2.738031e+05	
16	8.000000e-01	5.301235e+05	
17	8.500000e-01	1.074655e+06	
18	9.000000e-01	1.904020e+06	
19	9.500000e-01	2.879761e+06	
20	1.000000e+00	3.889016e+06	
21	1.050000e+00	4.876096e+06	
22	1.100000e+00	5.818563e+06	
23	1.150000e+00	6.709183e+06	
24	1.200000e+00	7.547272e+06	
25	1.250000e+00	8.334879e+06	
26	1.300000e+00	9.075101e+06	
27	1.350000e+00	9.771338e+06	
28	1.400000e+00	1.042695e+07	
29	1.450000e+00	1.104513e+07	
30	1.500000e+00	1.162881e+07	
31	1.550000e+00	1.218068e+07	
32	1.600000e+00	1.270322e+07	
33	1.650000e+00	1.319863e+07	
34	1.700000e+00	1.366894e+07	
35	1.750000e+00	1.411599e+07	
36	1.800000e+00	1.454144e+07	
37	1.850000e+00	1.494680e+07	
38	1.900000e+00	1.533346e+07	
39	1.950000e+00	1.570266e+07	
40	2.000000e+00	1.605555e+07	
41	2.050000e+00	1.639320e+07	
42	2.100000e+00	1.671655e+07	
43	2.150000e+00	1.702649e+07	
44	2.200000e+00	1.732382e+07	
45	2.250000e+00	1.760929e+07	
46	2.300000e+00	1.788357e+07	
47	2.350000e+00	1.814724e+07	
48	2.400000e+00	1.840086e+07	
49	2.450000e+00	1.864487e+07	
50	2.500000e+00	1.887962e+07	
51	2.550000e+00	1.910540e+07	
52	2.600000e+00	1.932231e+07	
53	2.650000e+00	1.953036e+07	
54	2.700000e+00	1.972933e+07	

Index   v-sweep         rds             
--------------------------------------------------------------------------------
55	2.750000e+00	1.991881e+07	
56	2.800000e+00	2.009812e+07	
57	2.850000e+00	2.026627e+07	
58	2.900000e+00	2.042193e+07	
59	2.950000e+00	2.056339e+07	
60	3.000000e+00	2.068850e+07	
61	3.050000e+00	2.079465e+07	
62	3.100000e+00	2.087876e+07	
63	3.150000e+00	2.093727e+07	
64	3.200000e+00	2.096620e+07	
65	3.250000e+00	2.096117e+07	
66	3.300000e+00	2.091754e+07	
Reset re-loads circuit ***************************

Circuit: ***************************

Doing analysis at TEMP = -40.000000 and TNOM = -40.000000


No. of Data Rows : 67
                          ***************************
                          DC transfer characteristic  Mon Jan  9 13:57:20  2023
--------------------------------------------------------------------------------
Index   v-sweep         rds             
--------------------------------------------------------------------------------
0	0.000000e+00	1.723068e+04	
1	5.000000e-02	1.801278e+04	
2	1.000000e-01	1.886415e+04	
3	1.500000e-01	1.979441e+04	
4	2.000000e-01	2.081506e+04	
5	2.500000e-01	2.193993e+04	
6	3.000000e-01	2.318585e+04	
7	3.500000e-01	2.457344e+04	
8	4.000000e-01	2.612832e+04	
9	4.500000e-01	2.788268e+04	
10	5.000000e-01	2.987752e+04	
11	5.500000e-01	3.216590e+04	
12	6.000000e-01	3.481774e+04	
13	6.500000e-01	3.792705e+04	
14	7.000000e-01	4.162335e+04	
15	7.500000e-01	4.609008e+04	
16	8.000000e-01	5.159591e+04	
17	8.500000e-01	5.855063e+04	
18	9.000000e-01	6.761108e+04	
19	9.500000e-01	7.989791e+04	
20	1.000000e+00	9.747945e+04	
21	1.050000e+00	1.245614e+05	
22	1.100000e+00	1.706198e+05	
23	1.150000e+00	2.578737e+05	
24	1.200000e+00	4.286310e+05	
25	1.250000e+00	7.212982e+05	
26	1.300000e+00	1.125701e+06	
27	1.350000e+00	1.598572e+06	
28	1.400000e+00	2.101448e+06	
29	1.450000e+00	2.610582e+06	
30	1.500000e+00	3.113062e+06	
31	1.550000e+00	3.602246e+06	
32	1.600000e+00	4.074923e+06	
33	1.650000e+00	4.529744e+06	
34	1.700000e+00	4.966382e+06	
35	1.750000e+00	5.385068e+06	
36	1.800000e+00	5.786339e+06	
37	1.850000e+00	6.170889e+06	
38	1.900000e+00	6.539483e+06	
39	1.950000e+00	6.892913e+06	
40	2.000000e+00	7.231962e+06	
41	2.050000e+00	7.557393e+06	
42	2.100000e+00	7.869936e+06	
43	2.150000e+00	8.170286e+06	
44	2.200000e+00	8.459100e+06	
45	2.250000e+00	8.736995e+06	
46	2.300000e+00	9.004553e+06	
47	2.350000e+00	9.262317e+06	
48	2.400000e+00	9.510798e+06	
49	2.450000e+00	9.750474e+06	
50	2.500000e+00	9.981792e+06	
51	2.550000e+00	1.020517e+07	
52	2.600000e+00	1.042099e+07	
53	2.650000e+00	1.062962e+07	
54	2.700000e+00	1.083138e+07	

Index   v-sweep         rds             
--------------------------------------------------------------------------------
55	2.750000e+00	1.102657e+07	
56	2.800000e+00	1.121543e+07	
57	2.850000e+00	1.139819e+07	
58	2.900000e+00	1.157498e+07	
59	2.950000e+00	1.174587e+07	
60	3.000000e+00	1.191084e+07	
61	3.050000e+00	1.206976e+07	
62	3.100000e+00	1.222233e+07	
63	3.150000e+00	1.236809e+07	
64	3.200000e+00	1.250638e+07	
65	3.250000e+00	1.263625e+07	
66	3.300000e+00	1.275650e+07	
Reset re-loads circuit ***************************

Circuit: ***************************

Doing analysis at TEMP = -40.000000 and TNOM = -40.000000


No. of Data Rows : 67
                          ***************************
                          DC transfer characteristic  Mon Jan  9 13:57:20  2023
--------------------------------------------------------------------------------
Index   v-sweep         rds             
--------------------------------------------------------------------------------
0	0.000000e+00	1.439641e+04	
1	5.000000e-02	1.487822e+04	
2	1.000000e-01	1.539059e+04	
3	1.500000e-01	1.593653e+04	
4	2.000000e-01	1.651945e+04	
5	2.500000e-01	1.714324e+04	
6	3.000000e-01	1.781234e+04	
7	3.500000e-01	1.853188e+04	
8	4.000000e-01	1.930778e+04	
9	4.500000e-01	2.014692e+04	
10	5.000000e-01	2.105737e+04	
11	5.500000e-01	2.204861e+04	
12	6.000000e-01	2.313189e+04	
13	6.500000e-01	2.432065e+04	
14	7.000000e-01	2.563109e+04	
15	7.500000e-01	2.708287e+04	
16	8.000000e-01	2.870019e+04	
17	8.500000e-01	3.051305e+04	
18	9.000000e-01	3.255922e+04	
19	9.500000e-01	3.488682e+04	
20	1.000000e+00	3.755826e+04	
21	1.050000e+00	4.065583e+04	
22	1.100000e+00	4.429045e+04	
23	1.150000e+00	4.861525e+04	
24	1.200000e+00	5.384784e+04	
25	1.250000e+00	6.030836e+04	
26	1.300000e+00	6.848793e+04	
27	1.350000e+00	7.918006e+04	
28	1.400000e+00	9.375110e+04	
29	1.450000e+00	1.147384e+05	
30	1.500000e+00	1.472207e+05	
31	1.550000e+00	2.016186e+05	
32	1.600000e+00	2.964384e+05	
33	1.650000e+00	4.517973e+05	
34	1.700000e+00	6.718650e+05	
35	1.750000e+00	9.419495e+05	
36	1.800000e+00	1.242504e+06	
37	1.850000e+00	1.558194e+06	
38	1.900000e+00	1.879010e+06	
39	1.950000e+00	2.198843e+06	
40	2.000000e+00	2.514065e+06	
41	2.050000e+00	2.822562e+06	
42	2.100000e+00	3.123147e+06	
43	2.150000e+00	3.415203e+06	
44	2.200000e+00	3.698468e+06	
45	2.250000e+00	3.972904e+06	
46	2.300000e+00	4.238610e+06	
47	2.350000e+00	4.495774e+06	
48	2.400000e+00	4.744639e+06	
49	2.450000e+00	4.985476e+06	
50	2.500000e+00	5.218574e+06	
51	2.550000e+00	5.444226e+06	
52	2.600000e+00	5.662726e+06	
53	2.650000e+00	5.874365e+06	
54	2.700000e+00	6.079424e+06	

Index   v-sweep         rds             
--------------------------------------------------------------------------------
55	2.750000e+00	6.278177e+06	
56	2.800000e+00	6.470885e+06	
57	2.850000e+00	6.657800e+06	
58	2.900000e+00	6.839164e+06	
59	2.950000e+00	7.015203e+06	
60	3.000000e+00	7.186134e+06	
61	3.050000e+00	7.352160e+06	
62	3.100000e+00	7.513466e+06	
63	3.150000e+00	7.670220e+06	
64	3.200000e+00	7.822567e+06	
65	3.250000e+00	7.970618e+06	
66	3.300000e+00	8.114448e+06	
Reset re-loads circuit ***************************

Circuit: ***************************

Doing analysis at TEMP = -40.000000 and TNOM = -40.000000


No. of Data Rows : 67
                          ***************************
                          DC transfer characteristic  Mon Jan  9 13:57:20  2023
--------------------------------------------------------------------------------
Index   v-sweep         rds             
--------------------------------------------------------------------------------
0	0.000000e+00	1.290126e+04	
1	5.000000e-02	1.323845e+04	
2	1.000000e-01	1.359198e+04	
3	1.500000e-01	1.396308e+04	
4	2.000000e-01	1.435308e+04	
5	2.500000e-01	1.476347e+04	
6	3.000000e-01	1.519589e+04	
7	3.500000e-01	1.565216e+04	
8	4.000000e-01	1.613430e+04	
9	4.500000e-01	1.664457e+04	
10	5.000000e-01	1.718552e+04	
11	5.500000e-01	1.775999e+04	
12	6.000000e-01	1.837119e+04	
13	6.500000e-01	1.902276e+04	
14	7.000000e-01	1.971884e+04	
15	7.500000e-01	2.046415e+04	
16	8.000000e-01	2.126409e+04	
17	8.500000e-01	2.212491e+04	
18	9.000000e-01	2.305381e+04	
19	9.500000e-01	2.405921e+04	
20	1.000000e+00	2.515097e+04	
21	1.050000e+00	2.634071e+04	
22	1.100000e+00	2.764224e+04	
23	1.150000e+00	2.907210e+04	
24	1.200000e+00	3.065026e+04	
25	1.250000e+00	3.240106e+04	
26	1.300000e+00	3.435451e+04	
27	1.350000e+00	3.654799e+04	
28	1.400000e+00	3.902872e+04	
29	1.450000e+00	4.185720e+04	
30	1.500000e+00	4.511233e+04	
31	1.550000e+00	4.889894e+04	
32	1.600000e+00	5.335958e+04	
33	1.650000e+00	5.869335e+04	
34	1.700000e+00	6.518749e+04	
35	1.750000e+00	7.327298e+04	
36	1.800000e+00	8.362843e+04	
37	1.850000e+00	9.738629e+04	
38	1.900000e+00	1.165624e+05	
39	1.950000e+00	1.449391e+05	
40	2.000000e+00	1.895352e+05	
41	2.050000e+00	2.613192e+05	
42	2.100000e+00	3.710689e+05	
43	2.150000e+00	5.212838e+05	
44	2.200000e+00	7.048467e+05	
45	2.250000e+00	9.111552e+05	
46	2.300000e+00	1.130944e+06	
47	2.350000e+00	1.357534e+06	
48	2.400000e+00	1.586464e+06	
49	2.450000e+00	1.814834e+06	
50	2.500000e+00	2.040784e+06	
51	2.550000e+00	2.263132e+06	
52	2.600000e+00	2.481139e+06	
53	2.650000e+00	2.694360e+06	
54	2.700000e+00	2.902544e+06	

Index   v-sweep         rds             
--------------------------------------------------------------------------------
55	2.750000e+00	3.105575e+06	
56	2.800000e+00	3.303423e+06	
57	2.850000e+00	3.496122e+06	
58	2.900000e+00	3.683746e+06	
59	2.950000e+00	3.866397e+06	
60	3.000000e+00	4.044193e+06	
61	3.050000e+00	4.217267e+06	
62	3.100000e+00	4.385757e+06	
63	3.150000e+00	4.549803e+06	
64	3.200000e+00	4.709548e+06	
65	3.250000e+00	4.865133e+06	
66	3.300000e+00	5.016696e+06	
Reset re-loads circuit ***************************

Circuit: ***************************

Note: No ".plot", ".print", or ".fourier" lines; no simulations run
