
Note: Compatibility modes selected: hs

Warning: m=xx on .subckt line will override multiplier m hierarchy!


Circuit: ***************************

Doing analysis at TEMP = 25.000000 and TNOM = 25.000000


No. of Data Rows : 67
                          ***************************
                          DC transfer characteristic  Mon Jan  9 13:57:19  2023
--------------------------------------------------------------------------------
Index   v-sweep         rds             
--------------------------------------------------------------------------------
0	0.000000e+00	6.360986e+03	
1	5.000000e-02	1.030110e+04	
2	1.000000e-01	2.191619e+04	
3	1.500000e-01	6.589193e+04	
4	2.000000e-01	1.724620e+05	
5	2.500000e-01	3.045825e+05	
6	3.000000e-01	4.222877e+05	
7	3.500000e-01	5.181512e+05	
8	4.000000e-01	5.955862e+05	
9	4.500000e-01	6.589089e+05	
10	5.000000e-01	7.115048e+05	
11	5.500000e-01	7.558310e+05	
12	6.000000e-01	7.936636e+05	
13	6.500000e-01	8.263059e+05	
14	7.000000e-01	8.547333e+05	
15	7.500000e-01	8.796893e+05	
16	8.000000e-01	9.017515e+05	
17	8.500000e-01	9.213749e+05	
18	9.000000e-01	9.389237e+05	
19	9.500000e-01	9.546924e+05	
20	1.000000e+00	9.689226e+05	
21	1.050000e+00	9.818135e+05	
22	1.100000e+00	9.935318e+05	
23	1.150000e+00	1.004217e+06	
24	1.200000e+00	1.013989e+06	
25	1.250000e+00	1.022947e+06	
26	1.300000e+00	1.031179e+06	
27	1.350000e+00	1.038761e+06	
28	1.400000e+00	1.045756e+06	
29	1.450000e+00	1.052221e+06	
30	1.500000e+00	1.058207e+06	
31	1.550000e+00	1.063757e+06	
32	1.600000e+00	1.068908e+06	
33	1.650000e+00	1.073695e+06	
34	1.700000e+00	1.078147e+06	
35	1.750000e+00	1.082290e+06	
36	1.800000e+00	1.086146e+06	
37	1.850000e+00	1.089732e+06	
38	1.900000e+00	1.093062e+06	
39	1.950000e+00	1.096148e+06	
40	2.000000e+00	1.098995e+06	
41	2.050000e+00	1.101603e+06	
42	2.100000e+00	1.103967e+06	
43	2.150000e+00	1.106076e+06	
44	2.200000e+00	1.107911e+06	
45	2.250000e+00	1.109446e+06	
46	2.300000e+00	1.110644e+06	
47	2.350000e+00	1.111461e+06	
48	2.400000e+00	1.111840e+06	
49	2.450000e+00	1.111714e+06	
50	2.500000e+00	1.111005e+06	
51	2.550000e+00	1.109624e+06	
52	2.600000e+00	1.107470e+06	
53	2.650000e+00	1.104431e+06	
54	2.700000e+00	1.100388e+06	

Index   v-sweep         rds             
--------------------------------------------------------------------------------
55	2.750000e+00	1.095214e+06	
56	2.800000e+00	1.088779e+06	
57	2.850000e+00	1.080950e+06	
58	2.900000e+00	1.071600e+06	
59	2.950000e+00	1.060610e+06	
60	3.000000e+00	1.047873e+06	
61	3.050000e+00	1.033303e+06	
62	3.100000e+00	1.016836e+06	
63	3.150000e+00	9.984405e+05	
64	3.200000e+00	9.781161e+05	
65	3.250000e+00	9.559007e+05	
66	3.300000e+00	9.318699e+05	
Reset re-loads circuit ***************************

Circuit: ***************************

Doing analysis at TEMP = 25.000000 and TNOM = 25.000000


No. of Data Rows : 67
                          ***************************
                          DC transfer characteristic  Mon Jan  9 13:57:19  2023
--------------------------------------------------------------------------------
Index   v-sweep         rds             
--------------------------------------------------------------------------------
0	0.000000e+00	1.207616e+03	
1	5.000000e-02	1.363013e+03	
2	1.000000e-01	1.553190e+03	
3	1.500000e-01	1.791171e+03	
4	2.000000e-01	2.097395e+03	
5	2.500000e-01	2.505797e+03	
6	3.000000e-01	3.076777e+03	
7	3.500000e-01	3.926735e+03	
8	4.000000e-01	5.295206e+03	
9	4.500000e-01	7.658557e+03	
10	5.000000e-01	1.170925e+04	
11	5.500000e-01	1.782843e+04	
12	6.000000e-01	2.563119e+04	
13	6.500000e-01	3.437402e+04	
14	7.000000e-01	4.344622e+04	
15	7.500000e-01	5.247246e+04	
16	8.000000e-01	6.124951e+04	
17	8.500000e-01	6.967676e+04	
18	9.000000e-01	7.771111e+04	
19	9.500000e-01	8.534104e+04	
20	1.000000e+00	9.257214e+04	
21	1.050000e+00	9.941898e+04	
22	1.100000e+00	1.059006e+05	
23	1.150000e+00	1.120379e+05	
24	1.200000e+00	1.178520e+05	
25	1.250000e+00	1.233639e+05	
26	1.300000e+00	1.285933e+05	
27	1.350000e+00	1.335591e+05	
28	1.400000e+00	1.382788e+05	
29	1.450000e+00	1.427686e+05	
30	1.500000e+00	1.470439e+05	
31	1.550000e+00	1.511185e+05	
32	1.600000e+00	1.550053e+05	
33	1.650000e+00	1.587163e+05	
34	1.700000e+00	1.622625e+05	
35	1.750000e+00	1.656541e+05	
36	1.800000e+00	1.689004e+05	
37	1.850000e+00	1.720100e+05	
38	1.900000e+00	1.749910e+05	
39	1.950000e+00	1.778505e+05	
40	2.000000e+00	1.805952e+05	
41	2.050000e+00	1.832308e+05	
42	2.100000e+00	1.857624e+05	
43	2.150000e+00	1.881942e+05	
44	2.200000e+00	1.905291e+05	
45	2.250000e+00	1.927688e+05	
46	2.300000e+00	1.949132e+05	
47	2.350000e+00	1.969603e+05	
48	2.400000e+00	1.989055e+05	
49	2.450000e+00	2.007413e+05	
50	2.500000e+00	2.024566e+05	
51	2.550000e+00	2.040362e+05	
52	2.600000e+00	2.054602e+05	
53	2.650000e+00	2.067036e+05	
54	2.700000e+00	2.077354e+05	

Index   v-sweep         rds             
--------------------------------------------------------------------------------
55	2.750000e+00	2.085193e+05	
56	2.800000e+00	2.090127e+05	
57	2.850000e+00	2.091677e+05	
58	2.900000e+00	2.089320e+05	
59	2.950000e+00	2.082499e+05	
60	3.000000e+00	2.070650e+05	
61	3.050000e+00	2.053221e+05	
62	3.100000e+00	2.029711e+05	
63	3.150000e+00	1.999705e+05	
64	3.200000e+00	1.962913e+05	
65	3.250000e+00	1.919205e+05	
66	3.300000e+00	1.868641e+05	
Reset re-loads circuit ***************************

Circuit: ***************************

Doing analysis at TEMP = 25.000000 and TNOM = 25.000000


No. of Data Rows : 67
                          ***************************
                          DC transfer characteristic  Mon Jan  9 13:57:19  2023
--------------------------------------------------------------------------------
Index   v-sweep         rds             
--------------------------------------------------------------------------------
0	0.000000e+00	7.455954e+02	
1	5.000000e-02	8.048224e+02	
2	1.000000e-01	8.711384e+02	
3	1.500000e-01	9.458778e+02	
4	2.000000e-01	1.030736e+03	
5	2.500000e-01	1.127904e+03	
6	3.000000e-01	1.240265e+03	
7	3.500000e-01	1.371707e+03	
8	4.000000e-01	1.527619e+03	
9	4.500000e-01	1.715742e+03	
10	5.000000e-01	1.947701e+03	
11	5.500000e-01	2.241971e+03	
12	6.000000e-01	2.629869e+03	
13	6.500000e-01	3.167656e+03	
14	7.000000e-01	3.957095e+03	
15	7.500000e-01	5.160977e+03	
16	8.000000e-01	6.962177e+03	
17	8.500000e-01	9.447807e+03	
18	9.000000e-01	1.254635e+04	
19	9.500000e-01	1.609343e+04	
20	1.000000e+00	1.992084e+04	
21	1.050000e+00	2.389600e+04	
22	1.100000e+00	2.792543e+04	
23	1.150000e+00	3.194642e+04	
24	1.200000e+00	3.591795e+04	
25	1.250000e+00	3.981376e+04	
26	1.300000e+00	4.361751e+04	
27	1.350000e+00	4.731950e+04	
28	1.400000e+00	5.091453e+04	
29	1.450000e+00	5.440043e+04	
30	1.500000e+00	5.777706e+04	
31	1.550000e+00	6.104567e+04	
32	1.600000e+00	6.420845e+04	
33	1.650000e+00	6.726816e+04	
34	1.700000e+00	7.022795e+04	
35	1.750000e+00	7.309119e+04	
36	1.800000e+00	7.586135e+04	
37	1.850000e+00	7.854194e+04	
38	1.900000e+00	8.113644e+04	
39	1.950000e+00	8.364826e+04	
40	2.000000e+00	8.608073e+04	
41	2.050000e+00	8.843707e+04	
42	2.100000e+00	9.072036e+04	
43	2.150000e+00	9.293356e+04	
44	2.200000e+00	9.507943e+04	
45	2.250000e+00	9.716055e+04	
46	2.300000e+00	9.917923e+04	
47	2.350000e+00	1.011375e+05	
48	2.400000e+00	1.030368e+05	
49	2.450000e+00	1.048781e+05	
50	2.500000e+00	1.066617e+05	
51	2.550000e+00	1.083866e+05	
52	2.600000e+00	1.100505e+05	
53	2.650000e+00	1.116495e+05	
54	2.700000e+00	1.131775e+05	

Index   v-sweep         rds             
--------------------------------------------------------------------------------
55	2.750000e+00	1.146255e+05	
56	2.800000e+00	1.159815e+05	
57	2.850000e+00	1.172296e+05	
58	2.900000e+00	1.183499e+05	
59	2.950000e+00	1.193176e+05	
60	3.000000e+00	1.201028e+05	
61	3.050000e+00	1.206711e+05	
62	3.100000e+00	1.209831e+05	
63	3.150000e+00	1.209962e+05	
64	3.200000e+00	1.206651e+05	
65	3.250000e+00	1.199447e+05	
66	3.300000e+00	1.187926e+05	
Reset re-loads circuit ***************************

Circuit: ***************************

Doing analysis at TEMP = 25.000000 and TNOM = 25.000000


No. of Data Rows : 67
                          ***************************
                          DC transfer characteristic  Mon Jan  9 13:57:19  2023
--------------------------------------------------------------------------------
Index   v-sweep         rds             
--------------------------------------------------------------------------------
0	0.000000e+00	5.844772e+02	
1	5.000000e-02	6.192404e+02	
2	1.000000e-01	6.568891e+02	
3	1.500000e-01	6.977894e+02	
4	2.000000e-01	7.423734e+02	
5	2.500000e-01	7.911542e+02	
6	3.000000e-01	8.447467e+02	
7	3.500000e-01	9.038951e+02	
8	4.000000e-01	9.695102e+02	
9	4.500000e-01	1.042722e+03	
10	5.000000e-01	1.124954e+03	
11	5.500000e-01	1.218035e+03	
12	6.000000e-01	1.324376e+03	
13	6.500000e-01	1.447251e+03	
14	7.000000e-01	1.591289e+03	
15	7.500000e-01	1.763369e+03	
16	8.000000e-01	1.974329e+03	
17	8.500000e-01	2.242257e+03	
18	9.000000e-01	2.598500e+03	
19	9.500000e-01	3.096368e+03	
20	1.000000e+00	3.815941e+03	
21	1.050000e+00	4.847682e+03	
22	1.100000e+00	6.249364e+03	
23	1.150000e+00	8.013890e+03	
24	1.200000e+00	1.008145e+04	
25	1.250000e+00	1.237366e+04	
26	1.300000e+00	1.481778e+04	
27	1.350000e+00	1.735549e+04	
28	1.400000e+00	1.994310e+04	
29	1.450000e+00	2.254885e+04	
30	1.500000e+00	2.515006e+04	
31	1.550000e+00	2.773061e+04	
32	1.600000e+00	3.027919e+04	
33	1.650000e+00	3.278792e+04	
34	1.700000e+00	3.525142e+04	
35	1.750000e+00	3.766611e+04	
36	1.800000e+00	4.002977e+04	
37	1.850000e+00	4.234114e+04	
38	1.900000e+00	4.459966e+04	
39	1.950000e+00	4.680535e+04	
40	2.000000e+00	4.895857e+04	
41	2.050000e+00	5.106000e+04	
42	2.100000e+00	5.311051e+04	
43	2.150000e+00	5.511113e+04	
44	2.200000e+00	5.706299e+04	
45	2.250000e+00	5.896727e+04	
46	2.300000e+00	6.082521e+04	
47	2.350000e+00	6.263806e+04	
48	2.400000e+00	6.440705e+04	
49	2.450000e+00	6.613337e+04	
50	2.500000e+00	6.781814e+04	
51	2.550000e+00	6.946235e+04	
52	2.600000e+00	7.106678e+04	
53	2.650000e+00	7.263191e+04	
54	2.700000e+00	7.415780e+04	

Index   v-sweep         rds             
--------------------------------------------------------------------------------
55	2.750000e+00	7.564388e+04	
56	2.800000e+00	7.708872e+04	
57	2.850000e+00	7.848976e+04	
58	2.900000e+00	7.984295e+04	
59	2.950000e+00	8.114232e+04	
60	3.000000e+00	8.237957e+04	
61	3.050000e+00	8.354348e+04	
62	3.100000e+00	8.461947e+04	
63	3.150000e+00	8.558911e+04	
64	3.200000e+00	8.642971e+04	
65	3.250000e+00	8.711413e+04	
66	3.300000e+00	8.761085e+04	
Reset re-loads circuit ***************************

Circuit: ***************************

Doing analysis at TEMP = 25.000000 and TNOM = 25.000000


No. of Data Rows : 67
                          ***************************
                          DC transfer characteristic  Mon Jan  9 13:57:19  2023
--------------------------------------------------------------------------------
Index   v-sweep         rds             
--------------------------------------------------------------------------------
0	0.000000e+00	5.063806e+02	
1	5.000000e-02	5.306974e+02	
2	1.000000e-01	5.565685e+02	
3	1.500000e-01	5.841432e+02	
4	2.000000e-01	6.135910e+02	
5	2.500000e-01	6.451050e+02	
6	3.000000e-01	6.789060e+02	
7	3.500000e-01	7.152482e+02	
8	4.000000e-01	7.544259e+02	
9	4.500000e-01	7.967821e+02	
10	5.000000e-01	8.427193e+02	
11	5.500000e-01	8.927145e+02	
12	6.000000e-01	9.473383e+02	
13	6.500000e-01	1.007282e+03	
14	7.000000e-01	1.073397e+03	
15	7.500000e-01	1.146748e+03	
16	8.000000e-01	1.228706e+03	
17	8.500000e-01	1.321079e+03	
18	9.000000e-01	1.426358e+03	
19	9.500000e-01	1.548118e+03	
20	1.000000e+00	1.691779e+03	
21	1.050000e+00	1.865979e+03	
22	1.100000e+00	2.085047e+03	
23	1.150000e+00	2.372917e+03	
24	1.200000e+00	2.767532e+03	
25	1.250000e+00	3.320945e+03	
26	1.300000e+00	4.087349e+03	
27	1.350000e+00	5.100407e+03	
28	1.400000e+00	6.358274e+03	
29	1.450000e+00	7.829286e+03	
30	1.500000e+00	9.468594e+03	
31	1.550000e+00	1.123160e+04	
32	1.600000e+00	1.308018e+04	
33	1.650000e+00	1.498409e+04	
34	1.700000e+00	1.692015e+04	
35	1.750000e+00	1.887091e+04	
36	1.800000e+00	2.082335e+04	
37	1.850000e+00	2.276777e+04	
38	1.900000e+00	2.469698e+04	
39	1.950000e+00	2.660569e+04	
40	2.000000e+00	2.849000e+04	
41	2.050000e+00	3.034710e+04	
42	2.100000e+00	3.217499e+04	
43	2.150000e+00	3.397230e+04	
44	2.200000e+00	3.573812e+04	
45	2.250000e+00	3.747193e+04	
46	2.300000e+00	3.917348e+04	
47	2.350000e+00	4.084276e+04	
48	2.400000e+00	4.247992e+04	
49	2.450000e+00	4.408523e+04	
50	2.500000e+00	4.565907e+04	
51	2.550000e+00	4.720190e+04	
52	2.600000e+00	4.871421e+04	
53	2.650000e+00	5.019652e+04	
54	2.700000e+00	5.164936e+04	

Index   v-sweep         rds             
--------------------------------------------------------------------------------
55	2.750000e+00	5.307321e+04	
56	2.800000e+00	5.446845e+04	
57	2.850000e+00	5.583532e+04	
58	2.900000e+00	5.717378e+04	
59	2.950000e+00	5.848342e+04	
60	3.000000e+00	5.976327e+04	
61	3.050000e+00	6.101155e+04	
62	3.100000e+00	6.222545e+04	
63	3.150000e+00	6.340074e+04	
64	3.200000e+00	6.453140e+04	
65	3.250000e+00	6.560915e+04	
66	3.300000e+00	6.662302e+04	
Reset re-loads circuit ***************************

Circuit: ***************************

Doing analysis at TEMP = 25.000000 and TNOM = 25.000000


No. of Data Rows : 67
                          ***************************
                          DC transfer characteristic  Mon Jan  9 13:57:19  2023
--------------------------------------------------------------------------------
Index   v-sweep         rds             
--------------------------------------------------------------------------------
0	0.000000e+00	4.628110e+02	
1	5.000000e-02	4.814850e+02	
2	1.000000e-01	5.011316e+02	
3	1.500000e-01	5.218259e+02	
4	2.000000e-01	5.436515e+02	
5	2.500000e-01	5.667009e+02	
6	3.000000e-01	5.910771e+02	
7	3.500000e-01	6.168955e+02	
8	4.000000e-01	6.442852e+02	
9	4.500000e-01	6.733917e+02	
10	5.000000e-01	7.043797e+02	
11	5.500000e-01	7.374361e+02	
12	6.000000e-01	7.727744e+02	
13	6.500000e-01	8.106403e+02	
14	7.000000e-01	8.513179e+02	
15	7.500000e-01	8.951391e+02	
16	8.000000e-01	9.424951e+02	
17	8.500000e-01	9.938531e+02	
18	9.000000e-01	1.049779e+03	
19	9.500000e-01	1.110971e+03	
20	1.000000e+00	1.178314e+03	
21	1.050000e+00	1.252954e+03	
22	1.100000e+00	1.336442e+03	
23	1.150000e+00	1.430951e+03	
24	1.200000e+00	1.539682e+03	
25	1.250000e+00	1.667553e+03	
26	1.300000e+00	1.822421e+03	
27	1.350000e+00	2.017031e+03	
28	1.400000e+00	2.271657e+03	
29	1.450000e+00	2.616126e+03	
30	1.500000e+00	3.087832e+03	
31	1.550000e+00	3.722354e+03	
32	1.600000e+00	4.539966e+03	
33	1.650000e+00	5.538380e+03	
34	1.700000e+00	6.696808e+03	
35	1.750000e+00	7.985652e+03	
36	1.800000e+00	9.374590e+03	
37	1.850000e+00	1.083679e+04	
38	1.900000e+00	1.235017e+04	
39	1.950000e+00	1.389728e+04	
40	2.000000e+00	1.546453e+04	
41	2.050000e+00	1.704147e+04	
42	2.100000e+00	1.862008e+04	
43	2.150000e+00	2.019421e+04	
44	2.200000e+00	2.175917e+04	
45	2.250000e+00	2.331137e+04	
46	2.300000e+00	2.484806e+04	
47	2.350000e+00	2.636719e+04	
48	2.400000e+00	2.786721e+04	
49	2.450000e+00	2.934698e+04	
50	2.500000e+00	3.080569e+04	
51	2.550000e+00	3.224276e+04	
52	2.600000e+00	3.365785e+04	
53	2.650000e+00	3.505073e+04	
54	2.700000e+00	3.642135e+04	

Index   v-sweep         rds             
--------------------------------------------------------------------------------
55	2.750000e+00	3.776972e+04	
56	2.800000e+00	3.909595e+04	
57	2.850000e+00	4.040018e+04	
58	2.900000e+00	4.168262e+04	
59	2.950000e+00	4.294345e+04	
60	3.000000e+00	4.418284e+04	
61	3.050000e+00	4.540087e+04	
62	3.100000e+00	4.659748e+04	
63	3.150000e+00	4.777236e+04	
64	3.200000e+00	4.892484e+04	
65	3.250000e+00	5.005369e+04	
66	3.300000e+00	5.115694e+04	
Reset re-loads circuit ***************************

Circuit: ***************************

Note: No ".plot", ".print", or ".fourier" lines; no simulations run
