
Note: Compatibility modes selected: hs

Warning: m=xx on .subckt line will override multiplier m hierarchy!


Circuit: ***************************

Doing analysis at TEMP = 125.000000 and TNOM = 125.000000


No. of Data Rows : 67
                          ***************************
                          DC transfer characteristic  Mon Jan  9 13:57:20  2023
--------------------------------------------------------------------------------
Index   v-sweep         rds             
--------------------------------------------------------------------------------
0	0.000000e+00	9.265121e+03	
1	5.000000e-02	1.175727e+04	
2	1.000000e-01	1.594739e+04	
3	1.500000e-01	2.433748e+04	
4	2.000000e-01	4.697555e+04	
5	2.500000e-01	1.314234e+05	
6	3.000000e-01	3.740014e+05	
7	3.500000e-01	7.282550e+05	
8	4.000000e-01	1.074163e+06	
9	4.500000e-01	1.372089e+06	
10	5.000000e-01	1.623265e+06	
11	5.500000e-01	1.836363e+06	
12	6.000000e-01	2.019301e+06	
13	6.500000e-01	2.178187e+06	
14	7.000000e-01	2.317613e+06	
15	7.500000e-01	2.441055e+06	
16	8.000000e-01	2.551188e+06	
17	8.500000e-01	2.650103e+06	
18	9.000000e-01	2.739464e+06	
19	9.500000e-01	2.820615e+06	
20	1.000000e+00	2.894651e+06	
21	1.050000e+00	2.962478e+06	
22	1.100000e+00	3.024852e+06	
23	1.150000e+00	3.082408e+06	
24	1.200000e+00	3.135687e+06	
25	1.250000e+00	3.185148e+06	
26	1.300000e+00	3.231188e+06	
27	1.350000e+00	3.274150e+06	
28	1.400000e+00	3.314333e+06	
29	1.450000e+00	3.351996e+06	
30	1.500000e+00	3.387369e+06	
31	1.550000e+00	3.420653e+06	
32	1.600000e+00	3.452026e+06	
33	1.650000e+00	3.481647e+06	
34	1.700000e+00	3.509655e+06	
35	1.750000e+00	3.536173e+06	
36	1.800000e+00	3.561310e+06	
37	1.850000e+00	3.585159e+06	
38	1.900000e+00	3.607800e+06	
39	1.950000e+00	3.629295e+06	
40	2.000000e+00	3.649690e+06	
41	2.050000e+00	3.669011e+06	
42	2.100000e+00	3.687263e+06	
43	2.150000e+00	3.704424e+06	
44	2.200000e+00	3.720442e+06	
45	2.250000e+00	3.735231e+06	
46	2.300000e+00	3.748664e+06	
47	2.350000e+00	3.760572e+06	
48	2.400000e+00	3.770734e+06	
49	2.450000e+00	3.778875e+06	
50	2.500000e+00	3.784663e+06	
51	2.550000e+00	3.787707e+06	
52	2.600000e+00	3.787553e+06	
53	2.650000e+00	3.783693e+06	
54	2.700000e+00	3.775563e+06	

Index   v-sweep         rds             
--------------------------------------------------------------------------------
55	2.750000e+00	3.762561e+06	
56	2.800000e+00	3.744053e+06	
57	2.850000e+00	3.719397e+06	
58	2.900000e+00	3.687965e+06	
59	2.950000e+00	3.649173e+06	
60	3.000000e+00	3.602508e+06	
61	3.050000e+00	3.547564e+06	
62	3.100000e+00	3.484074e+06	
63	3.150000e+00	3.411941e+06	
64	3.200000e+00	3.331256e+06	
65	3.250000e+00	3.242318e+06	
66	3.300000e+00	3.145635e+06	
Reset re-loads circuit ***************************

Circuit: ***************************

Doing analysis at TEMP = 125.000000 and TNOM = 125.000000


No. of Data Rows : 67
                          ***************************
                          DC transfer characteristic  Mon Jan  9 13:57:20  2023
--------------------------------------------------------------------------------
Index   v-sweep         rds             
--------------------------------------------------------------------------------
0	0.000000e+00	3.010754e+03	
1	5.000000e-02	3.283744e+03	
2	1.000000e-01	3.604764e+03	
3	1.500000e-01	3.987676e+03	
4	2.000000e-01	4.452236e+03	
5	2.500000e-01	5.027584e+03	
6	3.000000e-01	5.758530e+03	
7	3.500000e-01	6.717617e+03	
8	4.000000e-01	8.030070e+03	
9	4.500000e-01	9.930281e+03	
10	5.000000e-01	1.290284e+04	
11	5.500000e-01	1.805983e+04	
12	6.000000e-01	2.804023e+04	
13	6.500000e-01	4.771366e+04	
14	7.000000e-01	8.056246e+04	
15	7.500000e-01	1.236837e+05	
16	8.000000e-01	1.714220e+05	
17	8.500000e-01	2.198346e+05	
18	9.000000e-01	2.669691e+05	
19	9.500000e-01	3.120064e+05	
20	1.000000e+00	3.546701e+05	
21	1.050000e+00	3.949321e+05	
22	1.100000e+00	4.328753e+05	
23	1.150000e+00	4.686284e+05	
24	1.200000e+00	5.023362e+05	
25	1.250000e+00	5.341441e+05	
26	1.300000e+00	5.641922e+05	
27	1.350000e+00	5.926113e+05	
28	1.400000e+00	6.195228e+05	
29	1.450000e+00	6.450377e+05	
30	1.500000e+00	6.692581e+05	
31	1.550000e+00	6.922768e+05	
32	1.600000e+00	7.141786e+05	
33	1.650000e+00	7.350410e+05	
34	1.700000e+00	7.549348e+05	
35	1.750000e+00	7.739246e+05	
36	1.800000e+00	7.920695e+05	
37	1.850000e+00	8.094239e+05	
38	1.900000e+00	8.260374e+05	
39	1.950000e+00	8.419558e+05	
40	2.000000e+00	8.572209e+05	
41	2.050000e+00	8.718708e+05	
42	2.100000e+00	8.859406e+05	
43	2.150000e+00	8.994612e+05	
44	2.200000e+00	9.124603e+05	
45	2.250000e+00	9.249608e+05	
46	2.300000e+00	9.369809e+05	
47	2.350000e+00	9.485323e+05	
48	2.400000e+00	9.596194e+05	
49	2.450000e+00	9.702369e+05	
50	2.500000e+00	9.803677e+05	
51	2.550000e+00	9.899804e+05	
52	2.600000e+00	9.990262e+05	
53	2.650000e+00	1.007436e+06	
54	2.700000e+00	1.015115e+06	

Index   v-sweep         rds             
--------------------------------------------------------------------------------
55	2.750000e+00	1.021945e+06	
56	2.800000e+00	1.027773e+06	
57	2.850000e+00	1.032417e+06	
58	2.900000e+00	1.035661e+06	
59	2.950000e+00	1.037257e+06	
60	3.000000e+00	1.036929e+06	
61	3.050000e+00	1.034378e+06	
62	3.100000e+00	1.029296e+06	
63	3.150000e+00	1.021374e+06	
64	3.200000e+00	1.010326e+06	
65	3.250000e+00	9.959051e+05	
66	3.300000e+00	9.779284e+05	
Reset re-loads circuit ***************************

Circuit: ***************************

Doing analysis at TEMP = 125.000000 and TNOM = 125.000000


No. of Data Rows : 67
                          ***************************
                          DC transfer characteristic  Mon Jan  9 13:57:20  2023
--------------------------------------------------------------------------------
Index   v-sweep         rds             
--------------------------------------------------------------------------------
0	0.000000e+00	1.911908e+03	
1	5.000000e-02	2.020315e+03	
2	1.000000e-01	2.139647e+03	
3	1.500000e-01	2.271634e+03	
4	2.000000e-01	2.418398e+03	
5	2.500000e-01	2.582558e+03	
6	3.000000e-01	2.767395e+03	
7	3.500000e-01	2.977069e+03	
8	4.000000e-01	3.216938e+03	
9	4.500000e-01	3.494022e+03	
10	5.000000e-01	3.817703e+03	
11	5.500000e-01	4.200813e+03	
12	6.000000e-01	4.661383e+03	
13	6.500000e-01	5.225588e+03	
14	7.000000e-01	5.932933e+03	
15	7.500000e-01	6.845966e+03	
16	8.000000e-01	8.069665e+03	
17	8.500000e-01	9.792538e+03	
18	9.000000e-01	1.237535e+04	
19	9.500000e-01	1.651612e+04	
20	1.000000e+00	2.337253e+04	
21	1.050000e+00	3.411198e+04	
22	1.100000e+00	4.888008e+04	
23	1.150000e+00	6.668230e+04	
24	1.200000e+00	8.625321e+04	
25	1.250000e+00	1.066153e+05	
26	1.300000e+00	1.271416e+05	
27	1.350000e+00	1.474592e+05	
28	1.400000e+00	1.673539e+05	
29	1.450000e+00	1.867077e+05	
30	1.500000e+00	2.054598e+05	
31	1.550000e+00	2.235842e+05	
32	1.600000e+00	2.410756e+05	
33	1.650000e+00	2.579419e+05	
34	1.700000e+00	2.741981e+05	
35	1.750000e+00	2.898641e+05	
36	1.800000e+00	3.049618e+05	
37	1.850000e+00	3.195147e+05	
38	1.900000e+00	3.335461e+05	
39	1.950000e+00	3.470795e+05	
40	2.000000e+00	3.601375e+05	
41	2.050000e+00	3.727422e+05	
42	2.100000e+00	3.849146e+05	
43	2.150000e+00	3.966748e+05	
44	2.200000e+00	4.080420e+05	
45	2.250000e+00	4.190344e+05	
46	2.300000e+00	4.296692e+05	
47	2.350000e+00	4.399625e+05	
48	2.400000e+00	4.499295e+05	
49	2.450000e+00	4.595841e+05	
50	2.500000e+00	4.689392e+05	
51	2.550000e+00	4.780058e+05	
52	2.600000e+00	4.867930e+05	
53	2.650000e+00	4.953073e+05	
54	2.700000e+00	5.035517e+05	

Index   v-sweep         rds             
--------------------------------------------------------------------------------
55	2.750000e+00	5.115247e+05	
56	2.800000e+00	5.192186e+05	
57	2.850000e+00	5.266181e+05	
58	2.900000e+00	5.336979e+05	
59	2.950000e+00	5.404207e+05	
60	3.000000e+00	5.467341e+05	
61	3.050000e+00	5.525685e+05	
62	3.100000e+00	5.578339e+05	
63	3.150000e+00	5.624178e+05	
64	3.200000e+00	5.661836e+05	
65	3.250000e+00	5.689699e+05	
66	3.300000e+00	5.705919e+05	
Reset re-loads circuit ***************************

Circuit: ***************************

Doing analysis at TEMP = 125.000000 and TNOM = 125.000000


No. of Data Rows : 67
                          ***************************
                          DC transfer characteristic  Mon Jan  9 13:57:20  2023
--------------------------------------------------------------------------------
Index   v-sweep         rds             
--------------------------------------------------------------------------------
0	0.000000e+00	1.471460e+03	
1	5.000000e-02	1.533290e+03	
2	1.000000e-01	1.599482e+03	
3	1.500000e-01	1.670513e+03	
4	2.000000e-01	1.746930e+03	
5	2.500000e-01	1.829367e+03	
6	3.000000e-01	1.918562e+03	
7	3.500000e-01	2.015377e+03	
8	4.000000e-01	2.120829e+03	
9	4.500000e-01	2.236125e+03	
10	5.000000e-01	2.362708e+03	
11	5.500000e-01	2.502316e+03	
12	6.000000e-01	2.657067e+03	
13	6.500000e-01	2.829567e+03	
14	7.000000e-01	3.023057e+03	
15	7.500000e-01	3.241627e+03	
16	8.000000e-01	3.490509e+03	
17	8.500000e-01	3.776523e+03	
18	9.000000e-01	4.108735e+03	
19	9.500000e-01	4.499493e+03	
20	1.000000e+00	4.966121e+03	
21	1.050000e+00	5.533819e+03	
22	1.100000e+00	6.240930e+03	
23	1.150000e+00	7.149070e+03	
24	1.200000e+00	8.363402e+03	
25	1.250000e+00	1.007227e+04	
26	1.300000e+00	1.260965e+04	
27	1.350000e+00	1.648588e+04	
28	1.400000e+00	2.222658e+04	
29	1.450000e+00	3.002140e+04	
30	1.500000e+00	3.959717e+04	
31	1.550000e+00	5.045177e+04	
32	1.600000e+00	6.210320e+04	
33	1.650000e+00	7.418367e+04	
34	1.700000e+00	8.643814e+04	
35	1.750000e+00	9.869664e+04	
36	1.800000e+00	1.108479e+05	
37	1.850000e+00	1.228199e+05	
38	1.900000e+00	1.345667e+05	
39	1.950000e+00	1.460599e+05	
40	2.000000e+00	1.572831e+05	
41	2.050000e+00	1.682276e+05	
42	2.100000e+00	1.788903e+05	
43	2.150000e+00	1.892721e+05	
44	2.200000e+00	1.993761e+05	
45	2.250000e+00	2.092074e+05	
46	2.300000e+00	2.187723e+05	
47	2.350000e+00	2.280777e+05	
48	2.400000e+00	2.371311e+05	
49	2.450000e+00	2.459401e+05	
50	2.500000e+00	2.545126e+05	
51	2.550000e+00	2.628562e+05	
52	2.600000e+00	2.709786e+05	
53	2.650000e+00	2.788874e+05	
54	2.700000e+00	2.865898e+05	

Index   v-sweep         rds             
--------------------------------------------------------------------------------
55	2.750000e+00	2.940927e+05	
56	2.800000e+00	3.014025e+05	
57	2.850000e+00	3.085252e+05	
58	2.900000e+00	3.154657e+05	
59	2.950000e+00	3.222277e+05	
60	3.000000e+00	3.288132e+05	
61	3.050000e+00	3.352218e+05	
62	3.100000e+00	3.414494e+05	
63	3.150000e+00	3.474874e+05	
64	3.200000e+00	3.533213e+05	
65	3.250000e+00	3.589286e+05	
66	3.300000e+00	3.642768e+05	
Reset re-loads circuit ***************************

Circuit: ***************************

Doing analysis at TEMP = 125.000000 and TNOM = 125.000000


No. of Data Rows : 67
                          ***************************
                          DC transfer characteristic  Mon Jan  9 13:57:20  2023
--------------------------------------------------------------------------------
Index   v-sweep         rds             
--------------------------------------------------------------------------------
0	0.000000e+00	1.241970e+03	
1	5.000000e-02	1.283731e+03	
2	1.000000e-01	1.327753e+03	
3	1.500000e-01	1.374224e+03	
4	2.000000e-01	1.423353e+03	
5	2.500000e-01	1.475373e+03	
6	3.000000e-01	1.530544e+03	
7	3.500000e-01	1.589160e+03	
8	4.000000e-01	1.651553e+03	
9	4.500000e-01	1.718098e+03	
10	5.000000e-01	1.789221e+03	
11	5.500000e-01	1.865410e+03	
12	6.000000e-01	1.947225e+03	
13	6.500000e-01	2.035310e+03	
14	7.000000e-01	2.130413e+03	
15	7.500000e-01	2.233408e+03	
16	8.000000e-01	2.345317e+03	
17	8.500000e-01	2.467351e+03	
18	9.000000e-01	2.600952e+03	
19	9.500000e-01	2.747853e+03	
20	1.000000e+00	2.910153e+03	
21	1.050000e+00	3.090428e+03	
22	1.100000e+00	3.291875e+03	
23	1.150000e+00	3.518518e+03	
24	1.200000e+00	3.775514e+03	
25	1.250000e+00	4.069599e+03	
26	1.300000e+00	4.409806e+03	
27	1.350000e+00	4.808623e+03	
28	1.400000e+00	5.284013e+03	
29	1.450000e+00	5.863073e+03	
30	1.500000e+00	6.589010e+03	
31	1.550000e+00	7.534493e+03	
32	1.600000e+00	8.825258e+03	
33	1.650000e+00	1.067066e+04	
34	1.700000e+00	1.336679e+04	
35	1.750000e+00	1.720582e+04	
36	1.800000e+00	2.231272e+04	
37	1.850000e+00	2.857923e+04	
38	1.900000e+00	3.575536e+04	
39	1.950000e+00	4.357045e+04	
40	2.000000e+00	5.179624e+04	
41	2.050000e+00	6.026012e+04	
42	2.100000e+00	6.883776e+04	
43	2.150000e+00	7.744145e+04	
44	2.200000e+00	8.600982e+04	
45	2.250000e+00	9.450013e+04	
46	2.300000e+00	1.028828e+05	
47	2.350000e+00	1.111375e+05	
48	2.400000e+00	1.192507e+05	
49	2.450000e+00	1.272135e+05	
50	2.500000e+00	1.350204e+05	
51	2.550000e+00	1.426687e+05	
52	2.600000e+00	1.501574e+05	
53	2.650000e+00	1.574867e+05	
54	2.700000e+00	1.646580e+05	

Index   v-sweep         rds             
--------------------------------------------------------------------------------
55	2.750000e+00	1.716734e+05	
56	2.800000e+00	1.785354e+05	
57	2.850000e+00	1.852471e+05	
58	2.900000e+00	1.918116e+05	
59	2.950000e+00	1.982322e+05	
60	3.000000e+00	2.045126e+05	
61	3.050000e+00	2.106560e+05	
62	3.100000e+00	2.166660e+05	
63	3.150000e+00	2.225456e+05	
64	3.200000e+00	2.282976e+05	
65	3.250000e+00	2.339244e+05	
66	3.300000e+00	2.394271e+05	
Reset re-loads circuit ***************************

Circuit: ***************************

Doing analysis at TEMP = 125.000000 and TNOM = 125.000000


No. of Data Rows : 67
                          ***************************
                          DC transfer characteristic  Mon Jan  9 13:57:20  2023
--------------------------------------------------------------------------------
Index   v-sweep         rds             
--------------------------------------------------------------------------------
0	0.000000e+00	1.106394e+03	
1	5.000000e-02	1.137464e+03	
2	1.000000e-01	1.169894e+03	
3	1.500000e-01	1.203775e+03	
4	2.000000e-01	1.239206e+03	
5	2.500000e-01	1.276295e+03	
6	3.000000e-01	1.315160e+03	
7	3.500000e-01	1.355929e+03	
8	4.000000e-01	1.398747e+03	
9	4.500000e-01	1.443770e+03	
10	5.000000e-01	1.491171e+03	
11	5.500000e-01	1.541143e+03	
12	6.000000e-01	1.593900e+03	
13	6.500000e-01	1.649680e+03	
14	7.000000e-01	1.708749e+03	
15	7.500000e-01	1.771406e+03	
16	8.000000e-01	1.837987e+03	
17	8.500000e-01	1.908871e+03	
18	9.000000e-01	1.984488e+03	
19	9.500000e-01	2.065329e+03	
20	1.000000e+00	2.151953e+03	
21	1.050000e+00	2.245005e+03	
22	1.100000e+00	2.345229e+03	
23	1.150000e+00	2.453491e+03	
24	1.200000e+00	2.570804e+03	
25	1.250000e+00	2.698361e+03	
26	1.300000e+00	2.837580e+03	
27	1.350000e+00	2.990163e+03	
28	1.400000e+00	3.158171e+03	
29	1.450000e+00	3.344137e+03	
30	1.500000e+00	3.551214e+03	
31	1.550000e+00	3.783405e+03	
32	1.600000e+00	4.045904e+03	
33	1.650000e+00	4.345646e+03	
34	1.700000e+00	4.692215e+03	
35	1.750000e+00	5.099442e+03	
36	1.800000e+00	5.588301e+03	
37	1.850000e+00	6.192263e+03	
38	1.900000e+00	6.966946e+03	
39	1.950000e+00	8.005382e+03	
40	2.000000e+00	9.454036e+03	
41	2.050000e+00	1.150763e+04	
42	2.100000e+00	1.435216e+04	
43	2.150000e+00	1.807540e+04	
44	2.200000e+00	2.262817e+04	
45	2.250000e+00	2.786728e+04	
46	2.300000e+00	3.362277e+04	
47	2.350000e+00	3.974045e+04	
48	2.400000e+00	4.609632e+04	
49	2.450000e+00	5.259622e+04	
50	2.500000e+00	5.917047e+04	
51	2.550000e+00	6.576805e+04	
52	2.600000e+00	7.235176e+04	
53	2.650000e+00	7.889452e+04	
54	2.700000e+00	8.537665e+04	

Index   v-sweep         rds             
--------------------------------------------------------------------------------
55	2.750000e+00	9.178391e+04	
56	2.800000e+00	9.810610e+04	
57	2.850000e+00	1.043360e+05	
58	2.900000e+00	1.104687e+05	
59	2.950000e+00	1.165008e+05	
60	3.000000e+00	1.224305e+05	
61	3.050000e+00	1.282568e+05	
62	3.100000e+00	1.339795e+05	
63	3.150000e+00	1.395988e+05	
64	3.200000e+00	1.451156e+05	
65	3.250000e+00	1.505310e+05	
66	3.300000e+00	1.558464e+05	
Reset re-loads circuit ***************************

Circuit: ***************************

Note: No ".plot", ".print", or ".fourier" lines; no simulations run
