
Note: Compatibility modes selected: hs

Warning: m=xx on .subckt line will override multiplier m hierarchy!


Circuit: ***************************

Doing analysis at TEMP = -40.000000 and TNOM = -40.000000


No. of Data Rows : 67
                          ***************************
                          DC transfer characteristic  Mon Jan  9 13:57:20  2023
--------------------------------------------------------------------------------
Index   v-sweep         rds             
--------------------------------------------------------------------------------
0	0.000000e+00	1.407874e+04	
1	5.000000e-02	3.433746e+04	
2	1.000000e-01	2.255593e+05	
3	1.500000e-01	1.104718e+06	
4	2.000000e-01	2.194152e+06	
5	2.500000e-01	3.013308e+06	
6	3.000000e-01	3.587115e+06	
7	3.500000e-01	4.001089e+06	
8	4.000000e-01	4.312171e+06	
9	4.500000e-01	4.554346e+06	
10	5.000000e-01	4.748330e+06	
11	5.500000e-01	4.907307e+06	
12	6.000000e-01	5.040036e+06	
13	6.500000e-01	5.152560e+06	
14	7.000000e-01	5.249187e+06	
15	7.500000e-01	5.333071e+06	
16	8.000000e-01	5.406578e+06	
17	8.500000e-01	5.471520e+06	
18	9.000000e-01	5.529307e+06	
19	9.500000e-01	5.581053e+06	
20	1.000000e+00	5.627654e+06	
21	1.050000e+00	5.669834e+06	
22	1.100000e+00	5.708188e+06	
23	1.150000e+00	5.743209e+06	
24	1.200000e+00	5.775307e+06	
25	1.250000e+00	5.804830e+06	
26	1.300000e+00	5.832071e+06	
27	1.350000e+00	5.857280e+06	
28	1.400000e+00	5.880673e+06	
29	1.450000e+00	5.902434e+06	
30	1.500000e+00	5.922726e+06	
31	1.550000e+00	5.941686e+06	
32	1.600000e+00	5.959437e+06	
33	1.650000e+00	5.976083e+06	
34	1.700000e+00	5.991713e+06	
35	1.750000e+00	6.006402e+06	
36	1.800000e+00	6.020212e+06	
37	1.850000e+00	6.033189e+06	
38	1.900000e+00	6.045362e+06	
39	1.950000e+00	6.056746e+06	
40	2.000000e+00	6.067333e+06	
41	2.050000e+00	6.077097e+06	
42	2.100000e+00	6.085984e+06	
43	2.150000e+00	6.093914e+06	
44	2.200000e+00	6.100775e+06	
45	2.250000e+00	6.106421e+06	
46	2.300000e+00	6.110669e+06	
47	2.350000e+00	6.113293e+06	
48	2.400000e+00	6.114026e+06	
49	2.450000e+00	6.112552e+06	
50	2.500000e+00	6.108512e+06	
51	2.550000e+00	6.101500e+06	
52	2.600000e+00	6.091064e+06	
53	2.650000e+00	6.076711e+06	
54	2.700000e+00	6.057912e+06	

Index   v-sweep         rds             
--------------------------------------------------------------------------------
55	2.750000e+00	6.034111e+06	
56	2.800000e+00	6.004732e+06	
57	2.850000e+00	5.969194e+06	
58	2.900000e+00	5.926924e+06	
59	2.950000e+00	5.877376e+06	
60	3.000000e+00	5.820049e+06	
61	3.050000e+00	5.754506e+06	
62	3.100000e+00	5.680398e+06	
63	3.150000e+00	5.597476e+06	
64	3.200000e+00	5.505617e+06	
65	3.250000e+00	5.404834e+06	
66	3.300000e+00	5.295286e+06	
Reset re-loads circuit ***************************

Circuit: ***************************

Doing analysis at TEMP = -40.000000 and TNOM = -40.000000


No. of Data Rows : 67
                          ***************************
                          DC transfer characteristic  Mon Jan  9 13:57:20  2023
--------------------------------------------------------------------------------
Index   v-sweep         rds             
--------------------------------------------------------------------------------
0	0.000000e+00	1.692775e+03	
1	5.000000e-02	1.923696e+03	
2	1.000000e-01	2.215595e+03	
3	1.500000e-01	2.596222e+03	
4	2.000000e-01	3.113183e+03	
5	2.500000e-01	3.855482e+03	
6	3.000000e-01	5.010060e+03	
7	3.500000e-01	7.034809e+03	
8	4.000000e-01	1.123566e+04	
9	4.500000e-01	2.105535e+04	
10	5.000000e-01	4.088457e+04	
11	5.500000e-01	7.017660e+04	
12	6.000000e-01	1.045340e+05	
13	6.500000e-01	1.403001e+05	
14	7.000000e-01	1.754503e+05	
15	7.500000e-01	2.090304e+05	
16	8.000000e-01	2.406560e+05	
17	8.500000e-01	2.702292e+05	
18	9.000000e-01	2.977917e+05	
19	9.500000e-01	3.234497e+05	
20	1.000000e+00	3.473358e+05	
21	1.050000e+00	3.695892e+05	
22	1.100000e+00	3.903459e+05	
23	1.150000e+00	4.097339e+05	
24	1.200000e+00	4.278712e+05	
25	1.250000e+00	4.448656e+05	
26	1.300000e+00	4.608149e+05	
27	1.350000e+00	4.758072e+05	
28	1.400000e+00	4.899219e+05	
29	1.450000e+00	5.032307e+05	
30	1.500000e+00	5.157982e+05	
31	1.550000e+00	5.276824e+05	
32	1.600000e+00	5.389360e+05	
33	1.650000e+00	5.496064e+05	
34	1.700000e+00	5.597367e+05	
35	1.750000e+00	5.693657e+05	
36	1.800000e+00	5.785288e+05	
37	1.850000e+00	5.872579e+05	
38	1.900000e+00	5.955820e+05	
39	1.950000e+00	6.035269e+05	
40	2.000000e+00	6.111154e+05	
41	2.050000e+00	6.183674e+05	
42	2.100000e+00	6.252992e+05	
43	2.150000e+00	6.319231e+05	
44	2.200000e+00	6.382470e+05	
45	2.250000e+00	6.442731e+05	
46	2.300000e+00	6.499973e+05	
47	2.350000e+00	6.554071e+05	
48	2.400000e+00	6.604808e+05	
49	2.450000e+00	6.651857e+05	
50	2.500000e+00	6.694759e+05	
51	2.550000e+00	6.732912e+05	
52	2.600000e+00	6.765549e+05	
53	2.650000e+00	6.791733e+05	
54	2.700000e+00	6.810342e+05	

Index   v-sweep         rds             
--------------------------------------------------------------------------------
55	2.750000e+00	6.820074e+05	
56	2.800000e+00	6.819459e+05	
57	2.850000e+00	6.806883e+05	
58	2.900000e+00	6.780631e+05	
59	2.950000e+00	6.738947e+05	
60	3.000000e+00	6.680119e+05	
61	3.050000e+00	6.602569e+05	
62	3.100000e+00	6.504972e+05	
63	3.150000e+00	6.386371e+05	
64	3.200000e+00	6.246288e+05	
65	3.250000e+00	6.084818e+05	
66	3.300000e+00	5.902696e+05	
Reset re-loads circuit ***************************

Circuit: ***************************

Doing analysis at TEMP = -40.000000 and TNOM = -40.000000


No. of Data Rows : 67
                          ***************************
                          DC transfer characteristic  Mon Jan  9 13:57:20  2023
--------------------------------------------------------------------------------
Index   v-sweep         rds             
--------------------------------------------------------------------------------
0	0.000000e+00	9.917433e+02	
1	5.000000e-02	1.067808e+03	
2	1.000000e-01	1.153634e+03	
3	1.500000e-01	1.251216e+03	
4	2.000000e-01	1.363138e+03	
5	2.500000e-01	1.492803e+03	
6	3.000000e-01	1.644799e+03	
7	3.500000e-01	1.825467e+03	
8	4.000000e-01	2.043853e+03	
9	4.500000e-01	2.313380e+03	
10	5.000000e-01	2.655001e+03	
11	5.500000e-01	3.103713e+03	
12	6.000000e-01	3.723499e+03	
13	6.500000e-01	4.645245e+03	
14	7.000000e-01	6.164499e+03	
15	7.500000e-01	8.926114e+03	
16	8.000000e-01	1.391615e+04	
17	8.500000e-01	2.174289e+04	
18	9.000000e-01	3.208332e+04	
19	9.500000e-01	4.414165e+04	
20	1.000000e+00	5.717491e+04	
21	1.050000e+00	7.064460e+04	
22	1.100000e+00	8.419441e+04	
23	1.150000e+00	9.759757e+04	
24	1.200000e+00	1.107137e+05	
25	1.250000e+00	1.234586e+05	
26	1.300000e+00	1.357852e+05	
27	1.350000e+00	1.476702e+05	
28	1.400000e+00	1.591059e+05	
29	1.450000e+00	1.700948e+05	
30	1.500000e+00	1.806461e+05	
31	1.550000e+00	1.907727e+05	
32	1.600000e+00	2.004904e+05	
33	1.650000e+00	2.098159e+05	
34	1.700000e+00	2.187667e+05	
35	1.750000e+00	2.273604e+05	
36	1.800000e+00	2.356142e+05	
37	1.850000e+00	2.435449e+05	
38	1.900000e+00	2.511687e+05	
39	1.950000e+00	2.585010e+05	
40	2.000000e+00	2.655566e+05	
41	2.050000e+00	2.723494e+05	
42	2.100000e+00	2.788926e+05	
43	2.150000e+00	2.851985e+05	
44	2.200000e+00	2.912786e+05	
45	2.250000e+00	2.971434e+05	
46	2.300000e+00	3.028025e+05	
47	2.350000e+00	3.082638e+05	
48	2.400000e+00	3.135340e+05	
49	2.450000e+00	3.186174e+05	
50	2.500000e+00	3.235155e+05	
51	2.550000e+00	3.282266e+05	
52	2.600000e+00	3.327441e+05	
53	2.650000e+00	3.370562e+05	
54	2.700000e+00	3.411435e+05	

Index   v-sweep         rds             
--------------------------------------------------------------------------------
55	2.750000e+00	3.449786e+05	
56	2.800000e+00	3.485238e+05	
57	2.850000e+00	3.517296e+05	
58	2.900000e+00	3.545336e+05	
59	2.950000e+00	3.568592e+05	
60	3.000000e+00	3.586150e+05	
61	3.050000e+00	3.596954e+05	
62	3.100000e+00	3.599822e+05	
63	3.150000e+00	3.593474e+05	
64	3.200000e+00	3.576586e+05	
65	3.250000e+00	3.547859e+05	
66	3.300000e+00	3.506105e+05	
Reset re-loads circuit ***************************

Circuit: ***************************

Doing analysis at TEMP = -40.000000 and TNOM = -40.000000


No. of Data Rows : 67
                          ***************************
                          DC transfer characteristic  Mon Jan  9 13:57:20  2023
--------------------------------------------------------------------------------
Index   v-sweep         rds             
--------------------------------------------------------------------------------
0	0.000000e+00	7.640358e+02	
1	5.000000e-02	8.060056e+02	
2	1.000000e-01	8.515454e+02	
3	1.500000e-01	9.011258e+02	
4	2.000000e-01	9.553042e+02	
5	2.500000e-01	1.014746e+03	
6	3.000000e-01	1.080253e+03	
7	3.500000e-01	1.152800e+03	
8	4.000000e-01	1.233586e+03	
9	4.500000e-01	1.324101e+03	
10	5.000000e-01	1.426231e+03	
11	5.500000e-01	1.542393e+03	
12	6.000000e-01	1.675757e+03	
13	6.500000e-01	1.830584e+03	
14	7.000000e-01	2.012790e+03	
15	7.500000e-01	2.230941e+03	
16	8.000000e-01	2.498159e+03	
17	8.500000e-01	2.836100e+03	
18	9.000000e-01	3.283944e+03	
19	9.500000e-01	3.919539e+03	
20	1.000000e+00	4.905100e+03	
21	1.050000e+00	6.550256e+03	
22	1.100000e+00	9.281761e+03	
23	1.150000e+00	1.339542e+04	
24	1.200000e+00	1.885085e+04	
25	1.250000e+00	2.537296e+04	
26	1.300000e+00	3.264128e+04	
27	1.350000e+00	4.038366e+04	
28	1.400000e+00	4.839434e+04	
29	1.450000e+00	5.652479e+04	
30	1.500000e+00	6.466997e+04	
31	1.550000e+00	7.275638e+04	
32	1.600000e+00	8.073311e+04	
33	1.650000e+00	8.856538e+04	
34	1.700000e+00	9.622998e+04	
35	1.750000e+00	1.037120e+05	
36	1.800000e+00	1.110026e+05	
37	1.850000e+00	1.180972e+05	
38	1.900000e+00	1.249943e+05	
39	1.950000e+00	1.316949e+05	
40	2.000000e+00	1.382015e+05	
41	2.050000e+00	1.445176e+05	
42	2.100000e+00	1.506478e+05	
43	2.150000e+00	1.565970e+05	
44	2.200000e+00	1.623705e+05	
45	2.250000e+00	1.679740e+05	
46	2.300000e+00	1.734129e+05	
47	2.350000e+00	1.786930e+05	
48	2.400000e+00	1.838197e+05	
49	2.450000e+00	1.887984e+05	
50	2.500000e+00	1.936342e+05	
51	2.550000e+00	1.983318e+05	
52	2.600000e+00	2.028955e+05	
53	2.650000e+00	2.073287e+05	
54	2.700000e+00	2.116336e+05	

Index   v-sweep         rds             
--------------------------------------------------------------------------------
55	2.750000e+00	2.158112e+05	
56	2.800000e+00	2.198600e+05	
57	2.850000e+00	2.237758e+05	
58	2.900000e+00	2.275506e+05	
59	2.950000e+00	2.311716e+05	
60	3.000000e+00	2.346198e+05	
61	3.050000e+00	2.378684e+05	
62	3.100000e+00	2.408820e+05	
63	3.150000e+00	2.436144e+05	
64	3.200000e+00	2.460076e+05	
65	3.250000e+00	2.479911e+05	
66	3.300000e+00	2.494813e+05	
Reset re-loads circuit ***************************

Circuit: ***************************

Doing analysis at TEMP = -40.000000 and TNOM = -40.000000


No. of Data Rows : 67
                          ***************************
                          DC transfer characteristic  Mon Jan  9 13:57:20  2023
--------------------------------------------------------------------------------
Index   v-sweep         rds             
--------------------------------------------------------------------------------
0	0.000000e+00	6.596726e+02	
1	5.000000e-02	6.880775e+02	
2	1.000000e-01	7.182854e+02	
3	1.500000e-01	7.504708e+02	
4	2.000000e-01	7.848316e+02	
5	2.500000e-01	8.215931e+02	
6	3.000000e-01	8.610131e+02	
7	3.500000e-01	9.033881e+02	
8	4.000000e-01	9.490607e+02	
9	4.500000e-01	9.984291e+02	
10	5.000000e-01	1.051960e+03	
11	5.500000e-01	1.110201e+03	
12	6.000000e-01	1.173807e+03	
13	6.500000e-01	1.243559e+03	
14	7.000000e-01	1.320404e+03	
15	7.500000e-01	1.405506e+03	
16	8.000000e-01	1.500312e+03	
17	8.500000e-01	1.606658e+03	
18	9.000000e-01	1.726924e+03	
19	9.500000e-01	1.864291e+03	
20	1.000000e+00	2.023181e+03	
21	1.050000e+00	2.210048e+03	
22	1.100000e+00	2.434950e+03	
23	1.150000e+00	2.714815e+03	
24	1.200000e+00	3.080502e+03	
25	1.250000e+00	3.591764e+03	
26	1.300000e+00	4.363902e+03	
27	1.350000e+00	5.592696e+03	
28	1.400000e+00	7.520669e+03	
29	1.450000e+00	1.031323e+04	
30	1.500000e+00	1.396688e+04	
31	1.550000e+00	1.834885e+04	
32	1.600000e+00	2.328515e+04	
33	1.650000e+00	2.861451e+04	
34	1.700000e+00	3.420577e+04	
35	1.750000e+00	3.995803e+04	
36	1.800000e+00	4.579544e+04	
37	1.850000e+00	5.166163e+04	
38	1.900000e+00	5.751486e+04	
39	1.950000e+00	6.332441e+04	
40	2.000000e+00	6.906774e+04	
41	2.050000e+00	7.472850e+04	
42	2.100000e+00	8.029498e+04	
43	2.150000e+00	8.575899e+04	
44	2.200000e+00	9.111499e+04	
45	2.250000e+00	9.635952e+04	
46	2.300000e+00	1.014906e+05	
47	2.350000e+00	1.065076e+05	
48	2.400000e+00	1.114107e+05	
49	2.450000e+00	1.162007e+05	
50	2.500000e+00	1.208789e+05	
51	2.550000e+00	1.254473e+05	
52	2.600000e+00	1.299079e+05	
53	2.650000e+00	1.342629e+05	
54	2.700000e+00	1.385147e+05	

Index   v-sweep         rds             
--------------------------------------------------------------------------------
55	2.750000e+00	1.426658e+05	
56	2.800000e+00	1.467184e+05	
57	2.850000e+00	1.506749e+05	
58	2.900000e+00	1.545369e+05	
59	2.950000e+00	1.583058e+05	
60	3.000000e+00	1.619820e+05	
61	3.050000e+00	1.655646e+05	
62	3.100000e+00	1.690507e+05	
63	3.150000e+00	1.724351e+05	
64	3.200000e+00	1.757089e+05	
65	3.250000e+00	1.788590e+05	
66	3.300000e+00	1.818665e+05	
Reset re-loads circuit ***************************

Circuit: ***************************

Doing analysis at TEMP = -40.000000 and TNOM = -40.000000


No. of Data Rows : 67
                          ***************************
                          DC transfer characteristic  Mon Jan  9 13:57:20  2023
--------------------------------------------------------------------------------
Index   v-sweep         rds             
--------------------------------------------------------------------------------
0	0.000000e+00	6.053674e+02	
1	5.000000e-02	6.267647e+02	
2	1.000000e-01	6.492404e+02	
3	1.500000e-01	6.728765e+02	
4	2.000000e-01	6.977636e+02	
5	2.500000e-01	7.240020e+02	
6	3.000000e-01	7.517031e+02	
7	3.500000e-01	7.809909e+02	
8	4.000000e-01	8.120041e+02	
9	4.500000e-01	8.448980e+02	
10	5.000000e-01	8.798474e+02	
11	5.500000e-01	9.170497e+02	
12	6.000000e-01	9.567287e+02	
13	6.500000e-01	9.991394e+02	
14	7.000000e-01	1.044574e+03	
15	7.500000e-01	1.093368e+03	
16	8.000000e-01	1.145911e+03	
17	8.500000e-01	1.202657e+03	
18	9.000000e-01	1.264140e+03	
19	9.500000e-01	1.330994e+03	
20	1.000000e+00	1.403979e+03	
21	1.050000e+00	1.484020e+03	
22	1.100000e+00	1.572264e+03	
23	1.150000e+00	1.670155e+03	
24	1.200000e+00	1.779573e+03	
25	1.250000e+00	1.903042e+03	
26	1.300000e+00	2.044108e+03	
27	1.350000e+00	2.208031e+03	
28	1.400000e+00	2.403128e+03	
29	1.450000e+00	2.643480e+03	
30	1.500000e+00	2.954400e+03	
31	1.550000e+00	3.382862e+03	
32	1.600000e+00	4.013469e+03	
33	1.650000e+00	4.979486e+03	
34	1.700000e+00	6.439163e+03	
35	1.750000e+00	8.506339e+03	
36	1.800000e+00	1.119591e+04	
37	1.850000e+00	1.443735e+04	
38	1.900000e+00	1.812290e+04	
39	1.950000e+00	2.214402e+04	
40	2.000000e+00	2.640704e+04	
41	2.050000e+00	3.083645e+04	
42	2.100000e+00	3.537325e+04	
43	2.150000e+00	3.997194e+04	
44	2.200000e+00	4.459763e+04	
45	2.250000e+00	4.922366e+04	
46	2.300000e+00	5.382966e+04	
47	2.350000e+00	5.840010e+04	
48	2.400000e+00	6.292323e+04	
49	2.450000e+00	6.739017e+04	
50	2.500000e+00	7.179431e+04	
51	2.550000e+00	7.613079e+04	
52	2.600000e+00	8.039617e+04	
53	2.650000e+00	8.458806e+04	
54	2.700000e+00	8.870497e+04	

Index   v-sweep         rds             
--------------------------------------------------------------------------------
55	2.750000e+00	9.274606e+04	
56	2.800000e+00	9.671105e+04	
57	2.850000e+00	1.006001e+05	
58	2.900000e+00	1.044136e+05	
59	2.950000e+00	1.081523e+05	
60	3.000000e+00	1.118172e+05	
61	3.050000e+00	1.154092e+05	
62	3.100000e+00	1.189293e+05	
63	3.150000e+00	1.223784e+05	
64	3.200000e+00	1.257574e+05	
65	3.250000e+00	1.290663e+05	
66	3.300000e+00	1.323047e+05	
Reset re-loads circuit ***************************

Circuit: ***************************

Note: No ".plot", ".print", or ".fourier" lines; no simulations run
