
Note: Compatibility modes selected: hs

Warning: m=xx on .subckt line will override multiplier m hierarchy!


Circuit: ***************************

Doing analysis at TEMP = 25.000000 and TNOM = 25.000000


No. of Data Rows : 67
                          ***************************
                          DC transfer characteristic  Mon Jan  9 13:57:19  2023
--------------------------------------------------------------------------------
Index   v-sweep         rds             
--------------------------------------------------------------------------------
0	0.000000e+00	1.053491e+04	
1	5.000000e-02	1.637141e+04	
2	1.000000e-01	3.384093e+04	
3	1.500000e-01	1.287376e+05	
4	2.000000e-01	5.184346e+05	
5	2.500000e-01	1.111357e+06	
6	3.000000e-01	1.645325e+06	
7	3.500000e-01	2.066557e+06	
8	4.000000e-01	2.396330e+06	
9	4.500000e-01	2.659536e+06	
10	5.000000e-01	2.874269e+06	
11	5.500000e-01	3.052889e+06	
12	6.000000e-01	3.203921e+06	
13	6.500000e-01	3.333387e+06	
14	7.000000e-01	3.445659e+06	
15	7.500000e-01	3.543985e+06	
16	8.000000e-01	3.630835e+06	
17	8.500000e-01	3.708121e+06	
18	9.000000e-01	3.777348e+06	
19	9.500000e-01	3.839716e+06	
20	1.000000e+00	3.896199e+06	
21	1.050000e+00	3.947591e+06	
22	1.100000e+00	3.994550e+06	
23	1.150000e+00	4.037624e+06	
24	1.200000e+00	4.077274e+06	
25	1.250000e+00	4.113890e+06	
26	1.300000e+00	4.147805e+06	
27	1.350000e+00	4.179306e+06	
28	1.400000e+00	4.208638e+06	
29	1.450000e+00	4.236017e+06	
30	1.500000e+00	4.261629e+06	
31	1.550000e+00	4.285636e+06	
32	1.600000e+00	4.308181e+06	
33	1.650000e+00	4.329390e+06	
34	1.700000e+00	4.349371e+06	
35	1.750000e+00	4.368217e+06	
36	1.800000e+00	4.386008e+06	
37	1.850000e+00	4.402809e+06	
38	1.900000e+00	4.418667e+06	
39	1.950000e+00	4.433617e+06	
40	2.000000e+00	4.447670e+06	
41	2.050000e+00	4.460820e+06	
42	2.100000e+00	4.473035e+06	
43	2.150000e+00	4.484257e+06	
44	2.200000e+00	4.494394e+06	
45	2.250000e+00	4.503323e+06	
46	2.300000e+00	4.510880e+06	
47	2.350000e+00	4.516858e+06	
48	2.400000e+00	4.521006e+06	
49	2.450000e+00	4.523025e+06	
50	2.500000e+00	4.522565e+06	
51	2.550000e+00	4.519227e+06	
52	2.600000e+00	4.512564e+06	
53	2.650000e+00	4.502086e+06	
54	2.700000e+00	4.487265e+06	

Index   v-sweep         rds             
--------------------------------------------------------------------------------
55	2.750000e+00	4.467546e+06	
56	2.800000e+00	4.442358e+06	
57	2.850000e+00	4.411132e+06	
58	2.900000e+00	4.373320e+06	
59	2.950000e+00	4.328414e+06	
60	3.000000e+00	4.275972e+06	
61	3.050000e+00	4.215642e+06	
62	3.100000e+00	4.147185e+06	
63	3.150000e+00	4.070497e+06	
64	3.200000e+00	3.985625e+06	
65	3.250000e+00	3.892778e+06	
66	3.300000e+00	3.792336e+06	
Reset re-loads circuit ***************************

Circuit: ***************************

Doing analysis at TEMP = 25.000000 and TNOM = 25.000000


No. of Data Rows : 67
                          ***************************
                          DC transfer characteristic  Mon Jan  9 13:57:19  2023
--------------------------------------------------------------------------------
Index   v-sweep         rds             
--------------------------------------------------------------------------------
0	0.000000e+00	2.208073e+03	
1	5.000000e-02	2.458634e+03	
2	1.000000e-01	2.764407e+03	
3	1.500000e-01	3.145835e+03	
4	2.000000e-01	3.634863e+03	
5	2.500000e-01	4.284288e+03	
6	3.000000e-01	5.187926e+03	
7	3.500000e-01	6.528918e+03	
8	4.000000e-01	8.710935e+03	
9	4.500000e-01	1.275173e+04	
10	5.000000e-01	2.131594e+04	
11	5.500000e-01	3.927140e+04	
12	6.000000e-01	6.900540e+04	
13	6.500000e-01	1.068575e+05	
14	7.000000e-01	1.479210e+05	
15	7.500000e-01	1.891093e+05	
16	8.000000e-01	2.289168e+05	
17	8.500000e-01	2.667083e+05	
18	9.000000e-01	3.022772e+05	
19	9.500000e-01	3.356208e+05	
20	1.000000e+00	3.668305e+05	
21	1.050000e+00	3.960375e+05	
22	1.100000e+00	4.233861e+05	
23	1.150000e+00	4.490204e+05	
24	1.200000e+00	4.730777e+05	
25	1.250000e+00	4.956860e+05	
26	1.300000e+00	5.169628e+05	
27	1.350000e+00	5.370156e+05	
28	1.400000e+00	5.559417e+05	
29	1.450000e+00	5.738296e+05	
30	1.500000e+00	5.907592e+05	
31	1.550000e+00	6.068032e+05	
32	1.600000e+00	6.220273e+05	
33	1.650000e+00	6.364911e+05	
34	1.700000e+00	6.502489e+05	
35	1.750000e+00	6.633500e+05	
36	1.800000e+00	6.758393e+05	
37	1.850000e+00	6.877579e+05	
38	1.900000e+00	6.991429e+05	
39	1.950000e+00	7.100283e+05	
40	2.000000e+00	7.204446e+05	
41	2.050000e+00	7.304192e+05	
42	2.100000e+00	7.399759e+05	
43	2.150000e+00	7.491349e+05	
44	2.200000e+00	7.579118e+05	
45	2.250000e+00	7.663173e+05	
46	2.300000e+00	7.743559e+05	
47	2.350000e+00	7.820242e+05	
48	2.400000e+00	7.893098e+05	
49	2.450000e+00	7.961892e+05	
50	2.500000e+00	8.026253e+05	
51	2.550000e+00	8.085656e+05	
52	2.600000e+00	8.139396e+05	
53	2.650000e+00	8.186567e+05	
54	2.700000e+00	8.226041e+05	

Index   v-sweep         rds             
--------------------------------------------------------------------------------
55	2.750000e+00	8.256454e+05	
56	2.800000e+00	8.276208e+05	
57	2.850000e+00	8.283471e+05	
58	2.900000e+00	8.276212e+05	
59	2.950000e+00	8.252244e+05	
60	3.000000e+00	8.209300e+05	
61	3.050000e+00	8.145129e+05	
62	3.100000e+00	8.057622e+05	
63	3.150000e+00	7.944960e+05	
64	3.200000e+00	7.805766e+05	
65	3.250000e+00	7.639260e+05	
66	3.300000e+00	7.445395e+05	
Reset re-loads circuit ***************************

Circuit: ***************************

Doing analysis at TEMP = 25.000000 and TNOM = 25.000000


No. of Data Rows : 67
                          ***************************
                          DC transfer characteristic  Mon Jan  9 13:57:19  2023
--------------------------------------------------------------------------------
Index   v-sweep         rds             
--------------------------------------------------------------------------------
0	0.000000e+00	1.336738e+03	
1	5.000000e-02	1.426052e+03	
2	1.000000e-01	1.525682e+03	
3	1.500000e-01	1.637512e+03	
4	2.000000e-01	1.763922e+03	
5	2.500000e-01	1.907953e+03	
6	3.000000e-01	2.073556e+03	
7	3.500000e-01	2.265969e+03	
8	4.000000e-01	2.492280e+03	
9	4.500000e-01	2.762344e+03	
10	5.000000e-01	3.090293e+03	
11	5.500000e-01	3.497193e+03	
12	6.000000e-01	4.016006e+03	
13	6.500000e-01	4.701623e+03	
14	7.000000e-01	5.652978e+03	
15	7.500000e-01	7.065491e+03	
16	8.000000e-01	9.352124e+03	
17	8.500000e-01	1.333119e+04	
18	9.000000e-01	2.012435e+04	
19	9.500000e-01	3.030570e+04	
20	1.000000e+00	4.336830e+04	
21	1.050000e+00	5.831043e+04	
22	1.100000e+00	7.424521e+04	
23	1.150000e+00	9.055747e+04	
24	1.200000e+00	1.068578e+05	
25	1.250000e+00	1.229092e+05	
26	1.300000e+00	1.385720e+05	
27	1.350000e+00	1.537670e+05	
28	1.400000e+00	1.684535e+05	
29	1.450000e+00	1.826147e+05	
30	1.500000e+00	1.962489e+05	
31	1.550000e+00	2.093639e+05	
32	1.600000e+00	2.219736e+05	
33	1.650000e+00	2.340951e+05	
34	1.700000e+00	2.457475e+05	
35	1.750000e+00	2.569509e+05	
36	1.800000e+00	2.677255e+05	
37	1.850000e+00	2.780915e+05	
38	1.900000e+00	2.880683e+05	
39	1.950000e+00	2.976749e+05	
40	2.000000e+00	3.069294e+05	
41	2.050000e+00	3.158489e+05	
42	2.100000e+00	3.244498e+05	
43	2.150000e+00	3.327478e+05	
44	2.200000e+00	3.407573e+05	
45	2.250000e+00	3.484921e+05	
46	2.300000e+00	3.559649e+05	
47	2.350000e+00	3.631874e+05	
48	2.400000e+00	3.701699e+05	
49	2.450000e+00	3.769213e+05	
50	2.500000e+00	3.834485e+05	
51	2.550000e+00	3.897558e+05	
52	2.600000e+00	3.958442e+05	
53	2.650000e+00	4.017104e+05	
54	2.700000e+00	4.073455e+05	

Index   v-sweep         rds             
--------------------------------------------------------------------------------
55	2.750000e+00	4.127337e+05	
56	2.800000e+00	4.178502e+05	
57	2.850000e+00	4.226600e+05	
58	2.900000e+00	4.271151e+05	
59	2.950000e+00	4.311531e+05	
60	3.000000e+00	4.346952e+05	
61	3.050000e+00	4.376448e+05	
62	3.100000e+00	4.398869e+05	
63	3.150000e+00	4.412887e+05	
64	3.200000e+00	4.417014e+05	
65	3.250000e+00	4.409644e+05	
66	3.300000e+00	4.389116e+05	
Reset re-loads circuit ***************************

Circuit: ***************************

Doing analysis at TEMP = 25.000000 and TNOM = 25.000000


No. of Data Rows : 67
                          ***************************
                          DC transfer characteristic  Mon Jan  9 13:57:19  2023
--------------------------------------------------------------------------------
Index   v-sweep         rds             
--------------------------------------------------------------------------------
0	0.000000e+00	1.026763e+03	
1	5.000000e-02	1.076567e+03	
2	1.000000e-01	1.130274e+03	
3	1.500000e-01	1.188358e+03	
4	2.000000e-01	1.251370e+03	
5	2.500000e-01	1.319963e+03	
6	3.000000e-01	1.394909e+03	
7	3.500000e-01	1.477128e+03	
8	4.000000e-01	1.567730e+03	
9	4.500000e-01	1.668063e+03	
10	5.000000e-01	1.779784e+03	
11	5.500000e-01	1.904952e+03	
12	6.000000e-01	2.046161e+03	
13	6.500000e-01	2.206731e+03	
14	7.000000e-01	2.390989e+03	
15	7.500000e-01	2.604701e+03	
16	8.000000e-01	2.855762e+03	
17	8.500000e-01	3.155354e+03	
18	9.000000e-01	3.520028e+03	
19	9.500000e-01	3.975713e+03	
20	1.000000e+00	4.566036e+03	
21	1.050000e+00	5.370495e+03	
22	1.100000e+00	6.543080e+03	
23	1.150000e+00	8.375841e+03	
24	1.200000e+00	1.132295e+04	
25	1.250000e+00	1.582048e+04	
26	1.300000e+00	2.197649e+04	
27	1.350000e+00	2.953457e+04	
28	1.400000e+00	3.809628e+04	
29	1.450000e+00	4.729569e+04	
30	1.500000e+00	5.685310e+04	
31	1.550000e+00	6.657000e+04	
32	1.600000e+00	7.630974e+04	
33	1.650000e+00	8.597953e+04	
34	1.700000e+00	9.551706e+04	
35	1.750000e+00	1.048810e+05	
36	1.800000e+00	1.140447e+05	
37	1.850000e+00	1.229915e+05	
38	1.900000e+00	1.317122e+05	
39	1.950000e+00	1.402022e+05	
40	2.000000e+00	1.484609e+05	
41	2.050000e+00	1.564898e+05	
42	2.100000e+00	1.642924e+05	
43	2.150000e+00	1.718735e+05	
44	2.200000e+00	1.792384e+05	
45	2.250000e+00	1.863931e+05	
46	2.300000e+00	1.933440e+05	
47	2.350000e+00	2.000975e+05	
48	2.400000e+00	2.066602e+05	
49	2.450000e+00	2.130386e+05	
50	2.500000e+00	2.192390e+05	
51	2.550000e+00	2.252677e+05	
52	2.600000e+00	2.311305e+05	
53	2.650000e+00	2.368330e+05	
54	2.700000e+00	2.423802e+05	

Index   v-sweep         rds             
--------------------------------------------------------------------------------
55	2.750000e+00	2.477763e+05	
56	2.800000e+00	2.530244e+05	
57	2.850000e+00	2.581260e+05	
58	2.900000e+00	2.630807e+05	
59	2.950000e+00	2.678849e+05	
60	3.000000e+00	2.725311e+05	
61	3.050000e+00	2.770068e+05	
62	3.100000e+00	2.812927e+05	
63	3.150000e+00	2.853617e+05	
64	3.200000e+00	2.891764e+05	
65	3.250000e+00	2.926878e+05	
66	3.300000e+00	2.958336e+05	
Reset re-loads circuit ***************************

Circuit: ***************************

Doing analysis at TEMP = 25.000000 and TNOM = 25.000000


No. of Data Rows : 67
                          ***************************
                          DC transfer characteristic  Mon Jan  9 13:57:19  2023
--------------------------------------------------------------------------------
Index   v-sweep         rds             
--------------------------------------------------------------------------------
0	0.000000e+00	8.769704e+02	
1	5.000000e-02	9.105916e+02	
2	1.000000e-01	9.462015e+02	
3	1.500000e-01	9.839801e+02	
4	2.000000e-01	1.024129e+03	
5	2.500000e-01	1.066878e+03	
6	3.000000e-01	1.112483e+03	
7	3.500000e-01	1.161240e+03	
8	4.000000e-01	1.213485e+03	
9	4.500000e-01	1.269603e+03	
10	5.000000e-01	1.330039e+03	
11	5.500000e-01	1.395311e+03	
12	6.000000e-01	1.466020e+03	
13	6.500000e-01	1.542877e+03	
14	7.000000e-01	1.626720e+03	
15	7.500000e-01	1.718551e+03	
16	8.000000e-01	1.819575e+03	
17	8.500000e-01	1.931263e+03	
18	9.000000e-01	2.055423e+03	
19	9.500000e-01	2.194319e+03	
20	1.000000e+00	2.350830e+03	
21	1.050000e+00	2.528695e+03	
22	1.100000e+00	2.732909e+03	
23	1.150000e+00	2.970371e+03	
24	1.200000e+00	3.251049e+03	
25	1.250000e+00	3.590172e+03	
26	1.300000e+00	4.012617e+03	
27	1.350000e+00	4.561943e+03	
28	1.400000e+00	5.318287e+03	
29	1.450000e+00	6.427379e+03	
30	1.500000e+00	8.121657e+03	
31	1.550000e+00	1.067201e+04	
32	1.600000e+00	1.424783e+04	
33	1.650000e+00	1.882174e+04	
34	1.700000e+00	2.422059e+04	
35	1.750000e+00	3.022948e+04	
36	1.800000e+00	3.665500e+04	
37	1.850000e+00	4.334426e+04	
38	1.900000e+00	5.018295e+04	
39	1.950000e+00	5.708761e+04	
40	2.000000e+00	6.399793e+04	
41	2.050000e+00	7.087056e+04	
42	2.100000e+00	7.767442e+04	
43	2.150000e+00	8.438742e+04	
44	2.200000e+00	9.099405e+04	
45	2.250000e+00	9.748359e+04	
46	2.300000e+00	1.038489e+05	
47	2.350000e+00	1.100856e+05	
48	2.400000e+00	1.161912e+05	
49	2.450000e+00	1.221647e+05	
50	2.500000e+00	1.280063e+05	
51	2.550000e+00	1.337169e+05	
52	2.600000e+00	1.392982e+05	
53	2.650000e+00	1.447523e+05	
54	2.700000e+00	1.500816e+05	

Index   v-sweep         rds             
--------------------------------------------------------------------------------
55	2.750000e+00	1.552887e+05	
56	2.800000e+00	1.603764e+05	
57	2.850000e+00	1.653476e+05	
58	2.900000e+00	1.702050e+05	
59	2.950000e+00	1.749515e+05	
60	3.000000e+00	1.795895e+05	
61	3.050000e+00	1.841211e+05	
62	3.100000e+00	1.885476e+05	
63	3.150000e+00	1.928696e+05	
64	3.200000e+00	1.970857e+05	
65	3.250000e+00	2.011926e+05	
66	3.300000e+00	2.051842e+05	
Reset re-loads circuit ***************************

Circuit: ***************************

Doing analysis at TEMP = 25.000000 and TNOM = 25.000000


No. of Data Rows : 67
                          ***************************
                          DC transfer characteristic  Mon Jan  9 13:57:19  2023
--------------------------------------------------------------------------------
Index   v-sweep         rds             
--------------------------------------------------------------------------------
0	0.000000e+00	7.947688e+02	
1	5.000000e-02	8.199543e+02	
2	1.000000e-01	8.463316e+02	
3	1.500000e-01	8.739861e+02	
4	2.000000e-01	9.030116e+02	
5	2.500000e-01	9.335114e+02	
6	3.000000e-01	9.655992e+02	
7	3.500000e-01	9.994011e+02	
8	4.000000e-01	1.035057e+03	
9	4.500000e-01	1.072721e+03	
10	5.000000e-01	1.112569e+03	
11	5.500000e-01	1.154792e+03	
12	6.000000e-01	1.199609e+03	
13	6.500000e-01	1.247266e+03	
14	7.000000e-01	1.298039e+03	
15	7.500000e-01	1.352245e+03	
16	8.000000e-01	1.410242e+03	
17	8.500000e-01	1.472443e+03	
18	9.000000e-01	1.539323e+03	
19	9.500000e-01	1.611434e+03	
20	1.000000e+00	1.689419e+03	
21	1.050000e+00	1.774035e+03	
22	1.100000e+00	1.866180e+03	
23	1.150000e+00	1.966930e+03	
24	1.200000e+00	2.077589e+03	
25	1.250000e+00	2.199760e+03	
26	1.300000e+00	2.335449e+03	
27	1.350000e+00	2.487223e+03	
28	1.400000e+00	2.658454e+03	
29	1.450000e+00	2.853730e+03	
30	1.500000e+00	3.079582e+03	
31	1.550000e+00	3.345807e+03	
32	1.600000e+00	3.668013e+03	
33	1.650000e+00	4.072588e+03	
34	1.700000e+00	4.606035e+03	
35	1.750000e+00	5.350118e+03	
36	1.800000e+00	6.437038e+03	
37	1.850000e+00	8.040357e+03	
38	1.900000e+00	1.031486e+04	
39	1.950000e+00	1.331914e+04	
40	2.000000e+00	1.699859e+04	
41	2.050000e+00	2.123213e+04	
42	2.100000e+00	2.588491e+04	
43	2.150000e+00	3.083686e+04	
44	2.200000e+00	3.599106e+04	
45	2.250000e+00	4.127275e+04	
46	2.300000e+00	4.662538e+04	
47	2.350000e+00	5.200656e+04	
48	2.400000e+00	5.738458e+04	
49	2.450000e+00	6.273579e+04	
50	2.500000e+00	6.804257e+04	
51	2.550000e+00	7.329182e+04	
52	2.600000e+00	7.847391e+04	
53	2.650000e+00	8.358181e+04	
54	2.700000e+00	8.861052e+04	

Index   v-sweep         rds             
--------------------------------------------------------------------------------
55	2.750000e+00	9.355659e+04	
56	2.800000e+00	9.841776e+04	
57	2.850000e+00	1.031927e+05	
58	2.900000e+00	1.078808e+05	
59	2.950000e+00	1.124820e+05	
60	3.000000e+00	1.169967e+05	
61	3.050000e+00	1.214257e+05	
62	3.100000e+00	1.257698e+05	
63	3.150000e+00	1.300304e+05	
64	3.200000e+00	1.342087e+05	
65	3.250000e+00	1.383059e+05	
66	3.300000e+00	1.423232e+05	
Reset re-loads circuit ***************************

Circuit: ***************************

Note: No ".plot", ".print", or ".fourier" lines; no simulations run
