
Note: Compatibility modes selected: hs

Warning: m=xx on .subckt line will override multiplier m hierarchy!


Circuit: ***************************

Doing analysis at TEMP = 25.000000 and TNOM = 25.000000


No. of Data Rows : 67
                          ***************************
                          DC transfer characteristic  Mon Jan  9 13:57:19  2023
--------------------------------------------------------------------------------
Index   v-sweep         rds             
--------------------------------------------------------------------------------
0	0.000000e+00	4.569902e+05	
1	5.000000e-02	7.013534e+05	
2	1.000000e-01	1.466377e+06	
3	1.500000e-01	7.880615e+06	
4	2.000000e-01	5.899410e+07	
5	2.500000e-01	1.550510e+08	
6	3.000000e-01	2.375293e+08	
7	3.500000e-01	2.965090e+08	
8	4.000000e-01	3.391528e+08	
9	4.500000e-01	3.713408e+08	
10	5.000000e-01	3.966077e+08	
11	5.500000e-01	4.170637e+08	
12	6.000000e-01	4.340261e+08	
13	6.500000e-01	4.483584e+08	
14	7.000000e-01	4.606527e+08	
15	7.500000e-01	4.713301e+08	
16	8.000000e-01	4.806998e+08	
17	8.500000e-01	4.889945e+08	
18	9.000000e-01	4.963936e+08	
19	9.500000e-01	5.030375e+08	
20	1.000000e+00	5.090382e+08	
21	1.050000e+00	5.144863e+08	
22	1.100000e+00	5.194556e+08	
23	1.150000e+00	5.240073e+08	
24	1.200000e+00	5.281924e+08	
25	1.250000e+00	5.320539e+08	
26	1.300000e+00	5.356281e+08	
27	1.350000e+00	5.389461e+08	
28	1.400000e+00	5.420346e+08	
29	1.450000e+00	5.449167e+08	
30	1.500000e+00	5.476125e+08	
31	1.550000e+00	5.501393e+08	
32	1.600000e+00	5.525126e+08	
33	1.650000e+00	5.547457e+08	
34	1.700000e+00	5.568503e+08	
35	1.750000e+00	5.588366e+08	
36	1.800000e+00	5.607134e+08	
37	1.850000e+00	5.624880e+08	
38	1.900000e+00	5.641664e+08	
39	1.950000e+00	5.657534e+08	
40	2.000000e+00	5.672518e+08	
41	2.050000e+00	5.686633e+08	
42	2.100000e+00	5.699873e+08	
43	2.150000e+00	5.712215e+08	
44	2.200000e+00	5.723611e+08	
45	2.250000e+00	5.733990e+08	
46	2.300000e+00	5.743252e+08	
47	2.350000e+00	5.751267e+08	
48	2.400000e+00	5.757873e+08	
49	2.450000e+00	5.762873e+08	
50	2.500000e+00	5.766034e+08	
51	2.550000e+00	5.767084e+08	
52	2.600000e+00	5.765716e+08	
53	2.650000e+00	5.761585e+08	
54	2.700000e+00	5.754312e+08	

Index   v-sweep         rds             
--------------------------------------------------------------------------------
55	2.750000e+00	5.743483e+08	
56	2.800000e+00	5.728663e+08	
57	2.850000e+00	5.709392e+08	
58	2.900000e+00	5.685199e+08	
59	2.950000e+00	5.655613e+08	
60	3.000000e+00	5.620170e+08	
61	3.050000e+00	5.578429e+08	
62	3.100000e+00	5.529988e+08	
63	3.150000e+00	5.474493e+08	
64	3.200000e+00	5.411660e+08	
65	3.250000e+00	5.341281e+08	
66	3.300000e+00	5.263247e+08	
Reset re-loads circuit ***************************

Circuit: ***************************

Doing analysis at TEMP = 25.000000 and TNOM = 25.000000


No. of Data Rows : 67
                          ***************************
                          DC transfer characteristic  Mon Jan  9 13:57:19  2023
--------------------------------------------------------------------------------
Index   v-sweep         rds             
--------------------------------------------------------------------------------
0	0.000000e+00	1.129551e+05	
1	5.000000e-02	1.256930e+05	
2	1.000000e-01	1.415847e+05	
3	1.500000e-01	1.619656e+05	
4	2.000000e-01	1.890464e+05	
5	2.500000e-01	2.267671e+05	
6	3.000000e-01	2.828767e+05	
7	3.500000e-01	3.748604e+05	
8	4.000000e-01	5.508501e+05	
9	4.500000e-01	9.851271e+05	
10	5.000000e-01	2.436607e+06	
11	5.500000e-01	6.818389e+06	
12	6.000000e-01	1.437874e+07	
13	6.500000e-01	2.287331e+07	
14	7.000000e-01	3.088540e+07	
15	7.500000e-01	3.806619e+07	
16	8.000000e-01	4.444288e+07	
17	8.500000e-01	5.012303e+07	
18	9.000000e-01	5.521388e+07	
19	9.500000e-01	5.980598e+07	
20	1.000000e+00	6.397279e+07	
21	1.050000e+00	6.777377e+07	
22	1.100000e+00	7.125732e+07	
23	1.150000e+00	7.446330e+07	
24	1.200000e+00	7.742482e+07	
25	1.250000e+00	8.016971e+07	
26	1.300000e+00	8.272159e+07	
27	1.350000e+00	8.510060e+07	
28	1.400000e+00	8.732410e+07	
29	1.450000e+00	8.940715e+07	
30	1.500000e+00	9.136285e+07	
31	1.550000e+00	9.320271e+07	
32	1.600000e+00	9.493683e+07	
33	1.650000e+00	9.657419e+07	
34	1.700000e+00	9.812274e+07	
35	1.750000e+00	9.958956e+07	
36	1.800000e+00	1.009810e+08	
37	1.850000e+00	1.023028e+08	
38	1.900000e+00	1.035599e+08	
39	1.950000e+00	1.047571e+08	
40	2.000000e+00	1.058984e+08	
41	2.050000e+00	1.069875e+08	
42	2.100000e+00	1.080275e+08	
43	2.150000e+00	1.090214e+08	
44	2.200000e+00	1.099713e+08	
45	2.250000e+00	1.108792e+08	
46	2.300000e+00	1.117461e+08	
47	2.350000e+00	1.125726e+08	
48	2.400000e+00	1.133585e+08	
49	2.450000e+00	1.141026e+08	
50	2.500000e+00	1.148027e+08	
51	2.550000e+00	1.154553e+08	
52	2.600000e+00	1.160555e+08	
53	2.650000e+00	1.165971e+08	
54	2.700000e+00	1.170718e+08	

Index   v-sweep         rds             
--------------------------------------------------------------------------------
55	2.750000e+00	1.174698e+08	
56	2.800000e+00	1.177793e+08	
57	2.850000e+00	1.179866e+08	
58	2.900000e+00	1.180758e+08	
59	2.950000e+00	1.180297e+08	
60	3.000000e+00	1.178294e+08	
61	3.050000e+00	1.174550e+08	
62	3.100000e+00	1.168859e+08	
63	3.150000e+00	1.161019e+08	
64	3.200000e+00	1.150838e+08	
65	3.250000e+00	1.138145e+08	
66	3.300000e+00	1.122800e+08	
Reset re-loads circuit ***************************

Circuit: ***************************

Doing analysis at TEMP = 25.000000 and TNOM = 25.000000


No. of Data Rows : 67
                          ***************************
                          DC transfer characteristic  Mon Jan  9 13:57:19  2023
--------------------------------------------------------------------------------
Index   v-sweep         rds             
--------------------------------------------------------------------------------
0	0.000000e+00	6.687483e+04	
1	5.000000e-02	7.098081e+04	
2	1.000000e-01	7.560217e+04	
3	1.500000e-01	8.084239e+04	
4	2.000000e-01	8.683465e+04	
5	2.500000e-01	9.375327e+04	
6	3.000000e-01	1.018310e+05	
7	3.500000e-01	1.113853e+05	
8	4.000000e-01	1.228617e+05	
9	4.500000e-01	1.369040e+05	
10	5.000000e-01	1.544793e+05	
11	5.500000e-01	1.771078e+05	
12	6.000000e-01	2.073215e+05	
13	6.500000e-01	2.496571e+05	
14	7.000000e-01	3.130562e+05	
15	7.500000e-01	4.174633e+05	
16	8.000000e-01	6.144437e+05	
17	8.500000e-01	1.051416e+06	
18	9.000000e-01	2.072696e+06	
19	9.500000e-01	3.991334e+06	
20	1.000000e+00	6.599977e+06	
21	1.050000e+00	9.465196e+06	
22	1.100000e+00	1.231794e+07	
23	1.150000e+00	1.504820e+07	
24	1.200000e+00	1.762214e+07	
25	1.250000e+00	2.003616e+07	
26	1.300000e+00	2.229770e+07	
27	1.350000e+00	2.441770e+07	
28	1.400000e+00	2.640768e+07	
29	1.450000e+00	2.827865e+07	
30	1.500000e+00	3.004072e+07	
31	1.550000e+00	3.170306e+07	
32	1.600000e+00	3.327388e+07	
33	1.650000e+00	3.476055e+07	
34	1.700000e+00	3.616969e+07	
35	1.750000e+00	3.750725e+07	
36	1.800000e+00	3.877858e+07	
37	1.850000e+00	3.998850e+07	
38	1.900000e+00	4.114138e+07	
39	1.950000e+00	4.224118e+07	
40	2.000000e+00	4.329151e+07	
41	2.050000e+00	4.429564e+07	
42	2.100000e+00	4.525657e+07	
43	2.150000e+00	4.617702e+07	
44	2.200000e+00	4.705952e+07	
45	2.250000e+00	4.790634e+07	
46	2.300000e+00	4.871959e+07	
47	2.350000e+00	4.950118e+07	
48	2.400000e+00	5.025285e+07	
49	2.450000e+00	5.097613e+07	
50	2.500000e+00	5.167238e+07	
51	2.550000e+00	5.234269e+07	
52	2.600000e+00	5.298792e+07	
53	2.650000e+00	5.360860e+07	
54	2.700000e+00	5.420485e+07	

Index   v-sweep         rds             
--------------------------------------------------------------------------------
55	2.750000e+00	5.477635e+07	
56	2.800000e+00	5.532220e+07	
57	2.850000e+00	5.584080e+07	
58	2.900000e+00	5.632978e+07	
59	2.950000e+00	5.678578e+07	
60	3.000000e+00	5.720442e+07	
61	3.050000e+00	5.758010e+07	
62	3.100000e+00	5.790592e+07	
63	3.150000e+00	5.817360e+07	
64	3.200000e+00	5.837350e+07	
65	3.250000e+00	5.849458e+07	
66	3.300000e+00	5.852461e+07	
Reset re-loads circuit ***************************

Circuit: ***************************

Doing analysis at TEMP = 25.000000 and TNOM = 25.000000


No. of Data Rows : 67
                          ***************************
                          DC transfer characteristic  Mon Jan  9 13:57:19  2023
--------------------------------------------------------------------------------
Index   v-sweep         rds             
--------------------------------------------------------------------------------
0	0.000000e+00	4.969104e+04	
1	5.000000e-02	5.175615e+04	
2	1.000000e-01	5.399057e+04	
3	1.500000e-01	5.641600e+04	
4	2.000000e-01	5.905802e+04	
5	2.500000e-01	6.194699e+04	
6	3.000000e-01	6.511922e+04	
7	3.500000e-01	6.861850e+04	
8	4.000000e-01	7.249813e+04	
9	4.500000e-01	7.682366e+04	
10	5.000000e-01	8.167664e+04	
11	5.500000e-01	8.715975e+04	
12	6.000000e-01	9.340418e+04	
13	6.500000e-01	1.005802e+05	
14	7.000000e-01	1.089130e+05	
15	7.500000e-01	1.187065e+05	
16	8.000000e-01	1.303812e+05	
17	8.500000e-01	1.445357e+05	
18	9.000000e-01	1.620517e+05	
19	9.500000e-01	1.842825e+05	
20	1.000000e+00	2.134126e+05	
21	1.050000e+00	2.531946e+05	
22	1.100000e+00	3.105930e+05	
23	1.150000e+00	3.997720e+05	
24	1.200000e+00	5.522392e+05	
25	1.250000e+00	8.392453e+05	
26	1.300000e+00	1.388254e+06	
27	1.350000e+00	2.302293e+06	
28	1.400000e+00	3.532557e+06	
29	1.450000e+00	4.938885e+06	
30	1.500000e+00	6.406644e+06	
31	1.550000e+00	7.870967e+06	
32	1.600000e+00	9.300117e+06	
33	1.650000e+00	1.067989e+07	
34	1.700000e+00	1.200484e+07	
35	1.750000e+00	1.327382e+07	
36	1.800000e+00	1.448782e+07	
37	1.850000e+00	1.564887e+07	
38	1.900000e+00	1.675944e+07	
39	1.950000e+00	1.782217e+07	
40	2.000000e+00	1.883969e+07	
41	2.050000e+00	1.981456e+07	
42	2.100000e+00	2.074924e+07	
43	2.150000e+00	2.164603e+07	
44	2.200000e+00	2.250709e+07	
45	2.250000e+00	2.333445e+07	
46	2.300000e+00	2.413000e+07	
47	2.350000e+00	2.489550e+07	
48	2.400000e+00	2.563258e+07	
49	2.450000e+00	2.634279e+07	
50	2.500000e+00	2.702753e+07	
51	2.550000e+00	2.768815e+07	
52	2.600000e+00	2.832588e+07	
53	2.650000e+00	2.894186e+07	
54	2.700000e+00	2.953717e+07	

Index   v-sweep         rds             
--------------------------------------------------------------------------------
55	2.750000e+00	3.011278e+07	
56	2.800000e+00	3.066960e+07	
57	2.850000e+00	3.120841e+07	
58	2.900000e+00	3.172991e+07	
59	2.950000e+00	3.223463e+07	
60	3.000000e+00	3.272294e+07	
61	3.050000e+00	3.319499e+07	
62	3.100000e+00	3.365066e+07	
63	3.150000e+00	3.408947e+07	
64	3.200000e+00	3.451053e+07	
65	3.250000e+00	3.491241e+07	
66	3.300000e+00	3.529305e+07	
Reset re-loads circuit ***************************

Circuit: ***************************

Doing analysis at TEMP = 25.000000 and TNOM = 25.000000


No. of Data Rows : 67
                          ***************************
                          DC transfer characteristic  Mon Jan  9 13:57:19  2023
--------------------------------------------------------------------------------
Index   v-sweep         rds             
--------------------------------------------------------------------------------
0	0.000000e+00	4.117769e+04	
1	5.000000e-02	4.245297e+04	
2	1.000000e-01	4.380429e+04	
3	1.500000e-01	4.523863e+04	
4	2.000000e-01	4.676389e+04	
5	2.500000e-01	4.838899e+04	
6	3.000000e-01	5.012405e+04	
7	3.500000e-01	5.198064e+04	
8	4.000000e-01	5.397197e+04	
9	4.500000e-01	5.611326e+04	
10	5.000000e-01	5.842210e+04	
11	5.500000e-01	6.091895e+04	
12	6.000000e-01	6.362775e+04	
13	6.500000e-01	6.657666e+04	
14	7.000000e-01	6.979908e+04	
15	7.500000e-01	7.333491e+04	
16	8.000000e-01	7.723219e+04	
17	8.500000e-01	8.154930e+04	
18	9.000000e-01	8.635794e+04	
19	9.500000e-01	9.174709e+04	
20	1.000000e+00	9.782858e+04	
21	1.050000e+00	1.047449e+05	
22	1.100000e+00	1.126807e+05	
23	1.150000e+00	1.218790e+05	
24	1.200000e+00	1.326670e+05	
25	1.250000e+00	1.454954e+05	
26	1.300000e+00	1.610025e+05	
27	1.350000e+00	1.801231e+05	
28	1.400000e+00	2.042807e+05	
29	1.450000e+00	2.357496e+05	
30	1.500000e+00	2.783767e+05	
31	1.550000e+00	3.391161e+05	
32	1.600000e+00	4.313998e+05	
33	1.650000e+00	5.820073e+05	
34	1.700000e+00	8.395668e+05	
35	1.750000e+00	1.264625e+06	
36	1.800000e+00	1.881846e+06	
37	1.850000e+00	2.654187e+06	
38	1.900000e+00	3.519936e+06	
39	1.950000e+00	4.428703e+06	
40	2.000000e+00	5.348510e+06	
41	2.050000e+00	6.260963e+06	
42	2.100000e+00	7.155933e+06	
43	2.150000e+00	8.028046e+06	
44	2.200000e+00	8.874643e+06	
45	2.250000e+00	9.694630e+06	
46	2.300000e+00	1.048782e+07	
47	2.350000e+00	1.125457e+07	
48	2.400000e+00	1.199553e+07	
49	2.450000e+00	1.271152e+07	
50	2.500000e+00	1.340346e+07	
51	2.550000e+00	1.407230e+07	
52	2.600000e+00	1.471901e+07	
53	2.650000e+00	1.534453e+07	
54	2.700000e+00	1.594978e+07	

Index   v-sweep         rds             
--------------------------------------------------------------------------------
55	2.750000e+00	1.653566e+07	
56	2.800000e+00	1.710301e+07	
57	2.850000e+00	1.765265e+07	
58	2.900000e+00	1.818536e+07	
59	2.950000e+00	1.870188e+07	
60	3.000000e+00	1.920290e+07	
61	3.050000e+00	1.968908e+07	
62	3.100000e+00	2.016105e+07	
63	3.150000e+00	2.061938e+07	
64	3.200000e+00	2.106463e+07	
65	3.250000e+00	2.149725e+07	
66	3.300000e+00	2.191769e+07	
Reset re-loads circuit ***************************

Circuit: ***************************

Doing analysis at TEMP = 25.000000 and TNOM = 25.000000


No. of Data Rows : 67
                          ***************************
                          DC transfer characteristic  Mon Jan  9 13:57:19  2023
--------------------------------------------------------------------------------
Index   v-sweep         rds             
--------------------------------------------------------------------------------
0	0.000000e+00	3.640699e+04	
1	5.000000e-02	3.729322e+04	
2	1.000000e-01	3.822019e+04	
3	1.500000e-01	3.919076e+04	
4	2.000000e-01	4.020810e+04	
5	2.500000e-01	4.127564e+04	
6	3.000000e-01	4.239722e+04	
7	3.500000e-01	4.357703e+04	
8	4.000000e-01	4.481972e+04	
9	4.500000e-01	4.613046e+04	
10	5.000000e-01	4.751499e+04	
11	5.500000e-01	4.897972e+04	
12	6.000000e-01	5.053182e+04	
13	6.500000e-01	5.217934e+04	
14	7.000000e-01	5.393137e+04	
15	7.500000e-01	5.579816e+04	
16	8.000000e-01	5.779138e+04	
17	8.500000e-01	5.992429e+04	
18	9.000000e-01	6.221214e+04	
19	9.500000e-01	6.467241e+04	
20	1.000000e+00	6.732537e+04	
21	1.050000e+00	7.019458e+04	
22	1.100000e+00	7.330757e+04	
23	1.150000e+00	7.669681e+04	
24	1.200000e+00	8.040076e+04	
25	1.250000e+00	8.446538e+04	
26	1.300000e+00	8.894605e+04	
27	1.350000e+00	9.391010e+04	
28	1.400000e+00	9.944021e+04	
29	1.450000e+00	1.056391e+05	
30	1.500000e+00	1.126358e+05	
31	1.550000e+00	1.205952e+05	
32	1.600000e+00	1.297305e+05	
33	1.650000e+00	1.403234e+05	
34	1.700000e+00	1.527533e+05	
35	1.750000e+00	1.675439e+05	
36	1.800000e+00	1.854387e+05	
37	1.850000e+00	2.075299e+05	
38	1.900000e+00	2.354874e+05	
39	1.950000e+00	2.719871e+05	
40	2.000000e+00	3.215526e+05	
41	2.050000e+00	3.922329e+05	
42	2.100000e+00	4.986924e+05	
43	2.150000e+00	6.659436e+05	
44	2.200000e+00	9.268421e+05	
45	2.250000e+00	1.303686e+06	
46	2.300000e+00	1.789370e+06	
47	2.350000e+00	2.354780e+06	
48	2.400000e+00	2.968395e+06	
49	2.450000e+00	3.606172e+06	
50	2.500000e+00	4.252200e+06	
51	2.550000e+00	4.896544e+06	
52	2.600000e+00	5.533151e+06	
53	2.650000e+00	6.158391e+06	
54	2.700000e+00	6.770145e+06	

Index   v-sweep         rds             
--------------------------------------------------------------------------------
55	2.750000e+00	7.367240e+06	
56	2.800000e+00	7.949106e+06	
57	2.850000e+00	8.515554e+06	
58	2.900000e+00	9.066645e+06	
59	2.950000e+00	9.602598e+06	
60	3.000000e+00	1.012373e+07	
61	3.050000e+00	1.063044e+07	
62	3.100000e+00	1.112313e+07	
63	3.150000e+00	1.160225e+07	
64	3.200000e+00	1.206826e+07	
65	3.250000e+00	1.252159e+07	
66	3.300000e+00	1.296271e+07	
Reset re-loads circuit ***************************

Circuit: ***************************

Note: No ".plot", ".print", or ".fourier" lines; no simulations run
