
Note: Compatibility modes selected: hs

Warning: m=xx on .subckt line will override multiplier m hierarchy!


Circuit: ***************************

Doing analysis at TEMP = 25.000000 and TNOM = 25.000000


No. of Data Rows : 67
                          ***************************
                          DC transfer characteristic  Mon Jan  9 13:57:19  2023
--------------------------------------------------------------------------------
Index   v-sweep         rds             
--------------------------------------------------------------------------------
0	0.000000e+00	2.659604e+04	
1	5.000000e-02	3.728799e+04	
2	1.000000e-01	5.767720e+04	
3	1.500000e-01	1.011902e+05	
4	2.000000e-01	1.839926e+05	
5	2.500000e-01	2.875124e+05	
6	3.000000e-01	3.755167e+05	
7	3.500000e-01	4.392161e+05	
8	4.000000e-01	4.840971e+05	
9	4.500000e-01	5.161719e+05	
10	5.000000e-01	5.395682e+05	
11	5.500000e-01	5.569295e+05	
12	6.000000e-01	5.699664e+05	
13	6.500000e-01	5.798176e+05	
14	7.000000e-01	5.872658e+05	
15	7.500000e-01	5.928642e+05	
16	8.000000e-01	5.970143e+05	
17	8.500000e-01	6.000137e+05	
18	9.000000e-01	6.020879e+05	
19	9.500000e-01	6.034102e+05	
20	1.000000e+00	6.041160e+05	
21	1.050000e+00	6.043124e+05	
22	1.100000e+00	6.040852e+05	
23	1.150000e+00	6.035038e+05	
24	1.200000e+00	6.026250e+05	
25	1.250000e+00	6.014955e+05	
26	1.300000e+00	6.001539e+05	
27	1.350000e+00	5.986327e+05	
28	1.400000e+00	5.969591e+05	
29	1.450000e+00	5.951561e+05	
30	1.500000e+00	5.932432e+05	
31	1.550000e+00	5.912372e+05	
32	1.600000e+00	5.891523e+05	
33	1.650000e+00	5.870008e+05	
34	1.700000e+00	5.847933e+05	
35	1.750000e+00	5.825387e+05	
36	1.800000e+00	5.802448e+05	
37	1.850000e+00	5.779181e+05	
38	1.900000e+00	5.755638e+05	
39	1.950000e+00	5.731863e+05	
40	2.000000e+00	5.707887e+05	
41	2.050000e+00	5.683729e+05	
42	2.100000e+00	5.659397e+05	
43	2.150000e+00	5.634885e+05	
44	2.200000e+00	5.610172e+05	
45	2.250000e+00	5.585221e+05	
46	2.300000e+00	5.559978e+05	
47	2.350000e+00	5.534366e+05	
48	2.400000e+00	5.508291e+05	
49	2.450000e+00	5.481633e+05	
50	2.500000e+00	5.454246e+05	
51	2.550000e+00	5.425959e+05	
52	2.600000e+00	5.396574e+05	
53	2.650000e+00	5.365863e+05	
54	2.700000e+00	5.333570e+05	

Index   v-sweep         rds             
--------------------------------------------------------------------------------
55	2.750000e+00	5.299413e+05	
56	2.800000e+00	5.263083e+05	
57	2.850000e+00	5.224248e+05	
58	2.900000e+00	5.182554e+05	
59	2.950000e+00	5.137636e+05	
60	3.000000e+00	5.089119e+05	
61	3.050000e+00	5.036627e+05	
62	3.100000e+00	4.979794e+05	
63	3.150000e+00	4.918269e+05	
64	3.200000e+00	4.851736e+05	
65	3.250000e+00	4.779918e+05	
66	3.300000e+00	4.702590e+05	
Reset re-loads circuit ***************************

Circuit: ***************************

Doing analysis at TEMP = 25.000000 and TNOM = 25.000000


No. of Data Rows : 67
                          ***************************
                          DC transfer characteristic  Mon Jan  9 13:57:19  2023
--------------------------------------------------------------------------------
Index   v-sweep         rds             
--------------------------------------------------------------------------------
0	0.000000e+00	7.365383e+03	
1	5.000000e-02	8.316928e+03	
2	1.000000e-01	9.456208e+03	
3	1.500000e-01	1.084335e+04	
4	2.000000e-01	1.256699e+04	
5	2.500000e-01	1.476280e+04	
6	3.000000e-01	1.764708e+04	
7	3.500000e-01	2.157529e+04	
8	4.000000e-01	2.712161e+04	
9	4.500000e-01	3.507645e+04	
10	5.000000e-01	4.606543e+04	
11	5.500000e-01	5.982274e+04	
12	6.000000e-01	7.512158e+04	
13	6.500000e-01	9.059309e+04	
14	7.000000e-01	1.053242e+05	
15	7.500000e-01	1.188858e+05	
16	8.000000e-01	1.311563e+05	
17	8.500000e-01	1.421695e+05	
18	9.000000e-01	1.520257e+05	
19	9.500000e-01	1.608458e+05	
20	1.000000e+00	1.687502e+05	
21	1.050000e+00	1.758503e+05	
22	1.100000e+00	1.822449e+05	
23	1.150000e+00	1.880206e+05	
24	1.200000e+00	1.932522e+05	
25	1.250000e+00	1.980043e+05	
26	1.300000e+00	2.023323e+05	
27	1.350000e+00	2.062844e+05	
28	1.400000e+00	2.099018e+05	
29	1.450000e+00	2.132206e+05	
30	1.500000e+00	2.162719e+05	
31	1.550000e+00	2.190829e+05	
32	1.600000e+00	2.216773e+05	
33	1.650000e+00	2.240761e+05	
34	1.700000e+00	2.262975e+05	
35	1.750000e+00	2.283579e+05	
36	1.800000e+00	2.302716e+05	
37	1.850000e+00	2.320513e+05	
38	1.900000e+00	2.337083e+05	
39	1.950000e+00	2.352528e+05	
40	2.000000e+00	2.366937e+05	
41	2.050000e+00	2.380390e+05	
42	2.100000e+00	2.392955e+05	
43	2.150000e+00	2.404693e+05	
44	2.200000e+00	2.415654e+05	
45	2.250000e+00	2.425878e+05	
46	2.300000e+00	2.435395e+05	
47	2.350000e+00	2.444221e+05	
48	2.400000e+00	2.452359e+05	
49	2.450000e+00	2.459797e+05	
50	2.500000e+00	2.466504e+05	
51	2.550000e+00	2.472429e+05	
52	2.600000e+00	2.477499e+05	
53	2.650000e+00	2.481615e+05	
54	2.700000e+00	2.484649e+05	

Index   v-sweep         rds             
--------------------------------------------------------------------------------
55	2.750000e+00	2.486444e+05	
56	2.800000e+00	2.486812e+05	
57	2.850000e+00	2.485532e+05	
58	2.900000e+00	2.482350e+05	
59	2.950000e+00	2.476982e+05	
60	3.000000e+00	2.469114e+05	
61	3.050000e+00	2.458412e+05	
62	3.100000e+00	2.444524e+05	
63	3.150000e+00	2.427093e+05	
64	3.200000e+00	2.405766e+05	
65	3.250000e+00	2.380213e+05	
66	3.300000e+00	2.350136e+05	
Reset re-loads circuit ***************************

Circuit: ***************************

Doing analysis at TEMP = 25.000000 and TNOM = 25.000000


No. of Data Rows : 67
                          ***************************
                          DC transfer characteristic  Mon Jan  9 13:57:19  2023
--------------------------------------------------------------------------------
Index   v-sweep         rds             
--------------------------------------------------------------------------------
0	0.000000e+00	4.825987e+03	
1	5.000000e-02	5.241913e+03	
2	1.000000e-01	5.705371e+03	
3	1.500000e-01	6.224735e+03	
4	2.000000e-01	6.810520e+03	
5	2.500000e-01	7.476146e+03	
6	3.000000e-01	8.239088e+03	
7	3.500000e-01	9.122663e+03	
8	4.000000e-01	1.015898e+04	
9	4.500000e-01	1.139398e+04	
10	5.000000e-01	1.289644e+04	
11	5.500000e-01	1.477380e+04	
12	6.000000e-01	1.719644e+04	
13	6.500000e-01	2.041952e+04	
14	7.000000e-01	2.475443e+04	
15	7.500000e-01	3.042699e+04	
16	8.000000e-01	3.739134e+04	
17	8.500000e-01	4.531148e+04	
18	9.000000e-01	5.373488e+04	
19	9.500000e-01	6.226336e+04	
20	1.000000e+00	7.061830e+04	
21	1.050000e+00	7.863243e+04	
22	1.100000e+00	8.621921e+04	
23	1.150000e+00	9.334412e+04	
24	1.200000e+00	1.000039e+05	
25	1.250000e+00	1.062129e+05	
26	1.300000e+00	1.119949e+05	
27	1.350000e+00	1.173779e+05	
28	1.400000e+00	1.223910e+05	
29	1.450000e+00	1.270632e+05	
30	1.500000e+00	1.314218e+05	
31	1.550000e+00	1.354925e+05	
32	1.600000e+00	1.392991e+05	
33	1.650000e+00	1.428632e+05	
34	1.700000e+00	1.462047e+05	
35	1.750000e+00	1.493415e+05	
36	1.800000e+00	1.522900e+05	
37	1.850000e+00	1.550650e+05	
38	1.900000e+00	1.576799e+05	
39	1.950000e+00	1.601469e+05	
40	2.000000e+00	1.624770e+05	
41	2.050000e+00	1.646803e+05	
42	2.100000e+00	1.667659e+05	
43	2.150000e+00	1.687420e+05	
44	2.200000e+00	1.706161e+05	
45	2.250000e+00	1.723950e+05	
46	2.300000e+00	1.740845e+05	
47	2.350000e+00	1.756900e+05	
48	2.400000e+00	1.772158e+05	
49	2.450000e+00	1.786655e+05	
50	2.500000e+00	1.800416e+05	
51	2.550000e+00	1.813453e+05	
52	2.600000e+00	1.825768e+05	
53	2.650000e+00	1.837343e+05	
54	2.700000e+00	1.848142e+05	

Index   v-sweep         rds             
--------------------------------------------------------------------------------
55	2.750000e+00	1.858108e+05	
56	2.800000e+00	1.867157e+05	
57	2.850000e+00	1.875178e+05	
58	2.900000e+00	1.882028e+05	
59	2.950000e+00	1.887527e+05	
60	3.000000e+00	1.891462e+05	
61	3.050000e+00	1.893579e+05	
62	3.100000e+00	1.893592e+05	
63	3.150000e+00	1.891175e+05	
64	3.200000e+00	1.885978e+05	
65	3.250000e+00	1.877630e+05	
66	3.300000e+00	1.865749e+05	
Reset re-loads circuit ***************************

Circuit: ***************************

Doing analysis at TEMP = 25.000000 and TNOM = 25.000000


No. of Data Rows : 67
                          ***************************
                          DC transfer characteristic  Mon Jan  9 13:57:19  2023
--------------------------------------------------------------------------------
Index   v-sweep         rds             
--------------------------------------------------------------------------------
0	0.000000e+00	3.843658e+03	
1	5.000000e-02	4.100971e+03	
2	1.000000e-01	4.379395e+03	
3	1.500000e-01	4.681518e+03	
4	2.000000e-01	5.010386e+03	
5	2.500000e-01	5.369612e+03	
6	3.000000e-01	5.763524e+03	
7	3.500000e-01	6.197378e+03	
8	4.000000e-01	6.677642e+03	
9	4.500000e-01	7.212447e+03	
10	5.000000e-01	7.812254e+03	
11	5.500000e-01	8.490967e+03	
12	6.000000e-01	9.267796e+03	
13	6.500000e-01	1.017053e+04	
14	7.000000e-01	1.124124e+04	
15	7.500000e-01	1.254582e+04	
16	8.000000e-01	1.418714e+04	
17	8.500000e-01	1.631521e+04	
18	9.000000e-01	1.911286e+04	
19	9.500000e-01	2.273353e+04	
20	1.000000e+00	2.721344e+04	
21	1.050000e+00	3.243682e+04	
22	1.100000e+00	3.818777e+04	
23	1.150000e+00	4.423235e+04	
24	1.200000e+00	5.037238e+04	
25	1.250000e+00	5.646225e+04	
26	1.300000e+00	6.240465e+04	
27	1.350000e+00	6.813964e+04	
28	1.400000e+00	7.363376e+04	
29	1.450000e+00	7.887147e+04	
30	1.500000e+00	8.384893e+04	
31	1.550000e+00	8.856974e+04	
32	1.600000e+00	9.304200e+04	
33	1.650000e+00	9.727648e+04	
34	1.700000e+00	1.012853e+05	
35	1.750000e+00	1.050811e+05	
36	1.800000e+00	1.086765e+05	
37	1.850000e+00	1.120839e+05	
38	1.900000e+00	1.153153e+05	
39	1.950000e+00	1.183818e+05	
40	2.000000e+00	1.212940e+05	
41	2.050000e+00	1.240619e+05	
42	2.100000e+00	1.266948e+05	
43	2.150000e+00	1.292012e+05	
44	2.200000e+00	1.315891e+05	
45	2.250000e+00	1.338659e+05	
46	2.300000e+00	1.360385e+05	
47	2.350000e+00	1.381132e+05	
48	2.400000e+00	1.400957e+05	
49	2.450000e+00	1.419912e+05	
50	2.500000e+00	1.438045e+05	
51	2.550000e+00	1.455397e+05	
52	2.600000e+00	1.472000e+05	
53	2.650000e+00	1.487881e+05	
54	2.700000e+00	1.503056e+05	

Index   v-sweep         rds             
--------------------------------------------------------------------------------
55	2.750000e+00	1.517529e+05	
56	2.800000e+00	1.531290e+05	
57	2.850000e+00	1.544311e+05	
58	2.900000e+00	1.556544e+05	
59	2.950000e+00	1.567917e+05	
60	3.000000e+00	1.578330e+05	
61	3.050000e+00	1.587649e+05	
62	3.100000e+00	1.595705e+05	
63	3.150000e+00	1.602293e+05	
64	3.200000e+00	1.607163e+05	
65	3.250000e+00	1.610028e+05	
66	3.300000e+00	1.610559e+05	
Reset re-loads circuit ***************************

Circuit: ***************************

Doing analysis at TEMP = 25.000000 and TNOM = 25.000000


No. of Data Rows : 67
                          ***************************
                          DC transfer characteristic  Mon Jan  9 13:57:19  2023
--------------------------------------------------------------------------------
Index   v-sweep         rds             
--------------------------------------------------------------------------------
0	0.000000e+00	3.325476e+03	
1	5.000000e-02	3.509918e+03	
2	1.000000e-01	3.706273e+03	
3	1.500000e-01	3.915669e+03	
4	2.000000e-01	4.139383e+03	
5	2.500000e-01	4.378872e+03	
6	3.000000e-01	4.635810e+03	
7	3.500000e-01	4.912130e+03	
8	4.000000e-01	5.210088e+03	
9	4.500000e-01	5.532340e+03	
10	5.000000e-01	5.882053e+03	
11	5.500000e-01	6.263069e+03	
12	6.000000e-01	6.680145e+03	
13	6.500000e-01	7.139321e+03	
14	7.000000e-01	7.648528e+03	
15	7.500000e-01	8.218583e+03	
16	8.000000e-01	8.864891e+03	
17	8.500000e-01	9.610336e+03	
18	9.000000e-01	1.049003e+04	
19	9.500000e-01	1.155834e+04	
20	1.000000e+00	1.289686e+04	
21	1.050000e+00	1.461687e+04	
22	1.100000e+00	1.684387e+04	
23	1.150000e+00	1.967631e+04	
24	1.200000e+00	2.313779e+04	
25	1.250000e+00	2.716102e+04	
26	1.300000e+00	3.161540e+04	
27	1.350000e+00	3.635132e+04	
28	1.400000e+00	4.123272e+04	
29	1.450000e+00	4.615114e+04	
30	1.500000e+00	5.102703e+04	
31	1.550000e+00	5.580538e+04	
32	1.600000e+00	6.045024e+04	
33	1.650000e+00	6.493957e+04	
34	1.700000e+00	6.926119e+04	
35	1.750000e+00	7.340985e+04	
36	1.800000e+00	7.738494e+04	
37	1.850000e+00	8.118901e+04	
38	1.900000e+00	8.482666e+04	
39	1.950000e+00	8.830374e+04	
40	2.000000e+00	9.162687e+04	
41	2.050000e+00	9.480303e+04	
42	2.100000e+00	9.783932e+04	
43	2.150000e+00	1.007428e+05	
44	2.200000e+00	1.035204e+05	
45	2.250000e+00	1.061786e+05	
46	2.300000e+00	1.087240e+05	
47	2.350000e+00	1.111626e+05	
48	2.400000e+00	1.135001e+05	
49	2.450000e+00	1.157419e+05	
50	2.500000e+00	1.178932e+05	
51	2.550000e+00	1.199586e+05	
52	2.600000e+00	1.219426e+05	
53	2.650000e+00	1.238491e+05	
54	2.700000e+00	1.256816e+05	

Index   v-sweep         rds             
--------------------------------------------------------------------------------
55	2.750000e+00	1.274432e+05	
56	2.800000e+00	1.291363e+05	
57	2.850000e+00	1.307624e+05	
58	2.900000e+00	1.323220e+05	
59	2.950000e+00	1.338145e+05	
60	3.000000e+00	1.352377e+05	
61	3.050000e+00	1.365875e+05	
62	3.100000e+00	1.378574e+05	
63	3.150000e+00	1.390383e+05	
64	3.200000e+00	1.401180e+05	
65	3.250000e+00	1.410805e+05	
66	3.300000e+00	1.419061e+05	
Reset re-loads circuit ***************************

Circuit: ***************************

Doing analysis at TEMP = 25.000000 and TNOM = 25.000000


No. of Data Rows : 67
                          ***************************
                          DC transfer characteristic  Mon Jan  9 13:57:19  2023
--------------------------------------------------------------------------------
Index   v-sweep         rds             
--------------------------------------------------------------------------------
0	0.000000e+00	3.007254e+03	
1	5.000000e-02	3.150510e+03	
2	1.000000e-01	3.301435e+03	
3	1.500000e-01	3.460621e+03	
4	2.000000e-01	3.628723e+03	
5	2.500000e-01	3.806472e+03	
6	3.000000e-01	3.994684e+03	
7	3.500000e-01	4.194275e+03	
8	4.000000e-01	4.406279e+03	
9	4.500000e-01	4.631872e+03	
10	5.000000e-01	4.872397e+03	
11	5.500000e-01	5.129407e+03	
12	6.000000e-01	5.404715e+03	
13	6.500000e-01	5.700467e+03	
14	7.000000e-01	6.019251e+03	
15	7.500000e-01	6.364255e+03	
16	8.000000e-01	6.739513e+03	
17	8.500000e-01	7.150304e+03	
18	9.000000e-01	7.603786e+03	
19	9.500000e-01	8.110058e+03	
20	1.000000e+00	8.683901e+03	
21	1.050000e+00	9.347578e+03	
22	1.100000e+00	1.013499e+04	
23	1.150000e+00	1.109691e+04	
24	1.200000e+00	1.230489e+04	
25	1.250000e+00	1.384832e+04	
26	1.300000e+00	1.581725e+04	
27	1.350000e+00	1.827227e+04	
28	1.400000e+00	2.121801e+04	
29	1.450000e+00	2.459987e+04	
30	1.500000e+00	2.832434e+04	
31	1.550000e+00	3.228606e+04	
32	1.600000e+00	3.638750e+04	
33	1.650000e+00	4.054810e+04	
34	1.700000e+00	4.470598e+04	
35	1.750000e+00	4.881589e+04	
36	1.800000e+00	5.284607e+04	
37	1.850000e+00	5.677515e+04	
38	1.900000e+00	6.058948e+04	
39	1.950000e+00	6.428102e+04	
40	2.000000e+00	6.784583e+04	
41	2.050000e+00	7.128284e+04	
42	2.100000e+00	7.459301e+04	
43	2.150000e+00	7.777871e+04	
44	2.200000e+00	8.084322e+04	
45	2.250000e+00	8.379047e+04	
46	2.300000e+00	8.662474e+04	
47	2.350000e+00	8.935049e+04	
48	2.400000e+00	9.197227e+04	
49	2.450000e+00	9.449462e+04	
50	2.500000e+00	9.692200e+04	
51	2.550000e+00	9.925873e+04	
52	2.600000e+00	1.015090e+05	
53	2.650000e+00	1.036768e+05	
54	2.700000e+00	1.057660e+05	

Index   v-sweep         rds             
--------------------------------------------------------------------------------
55	2.750000e+00	1.077801e+05	
56	2.800000e+00	1.097224e+05	
57	2.850000e+00	1.115959e+05	
58	2.900000e+00	1.134033e+05	
59	2.950000e+00	1.151465e+05	
60	3.000000e+00	1.168270e+05	
61	3.050000e+00	1.184455e+05	
62	3.100000e+00	1.200014e+05	
63	3.150000e+00	1.214928e+05	
64	3.200000e+00	1.229163e+05	
65	3.250000e+00	1.242660e+05	
66	3.300000e+00	1.255337e+05	
Reset re-loads circuit ***************************

Circuit: ***************************

Note: No ".plot", ".print", or ".fourier" lines; no simulations run
