
Note: Compatibility modes selected: hs

Warning: m=xx on .subckt line will override multiplier m hierarchy!


Circuit: ***************************

Doing analysis at TEMP = 125.000000 and TNOM = 125.000000


No. of Data Rows : 67
                          ***************************
                          DC transfer characteristic  Mon Jan  9 13:57:20  2023
--------------------------------------------------------------------------------
Index   v-sweep         rds             
--------------------------------------------------------------------------------
0	0.000000e+00	3.875084e+04	
1	5.000000e-02	4.988498e+04	
2	1.000000e-01	6.989570e+04	
3	1.500000e-01	1.159053e+05	
4	2.000000e-01	2.970595e+05	
5	2.500000e-01	1.771154e+06	
6	3.000000e-01	8.198762e+06	
7	3.500000e-01	1.777879e+07	
8	4.000000e-01	2.597707e+07	
9	4.500000e-01	3.196736e+07	
10	5.000000e-01	3.632734e+07	
11	5.500000e-01	3.961092e+07	
12	6.000000e-01	4.217601e+07	
13	6.500000e-01	4.424298e+07	
14	7.000000e-01	4.595055e+07	
15	7.500000e-01	4.738954e+07	
16	8.000000e-01	4.862180e+07	
17	8.500000e-01	4.969095e+07	
18	9.000000e-01	5.062877e+07	
19	9.500000e-01	5.145902e+07	
20	1.000000e+00	5.219985e+07	
21	1.050000e+00	5.286544e+07	
22	1.100000e+00	5.346703e+07	
23	1.150000e+00	5.401366e+07	
24	1.200000e+00	5.451271e+07	
25	1.250000e+00	5.497026e+07	
26	1.300000e+00	5.539138e+07	
27	1.350000e+00	5.578032e+07	
28	1.400000e+00	5.614070e+07	
29	1.450000e+00	5.647558e+07	
30	1.500000e+00	5.678762e+07	
31	1.550000e+00	5.707910e+07	
32	1.600000e+00	5.735200e+07	
33	1.650000e+00	5.760804e+07	
34	1.700000e+00	5.784875e+07	
35	1.750000e+00	5.807545e+07	
36	1.800000e+00	5.828928e+07	
37	1.850000e+00	5.849125e+07	
38	1.900000e+00	5.868221e+07	
39	1.950000e+00	5.886289e+07	
40	2.000000e+00	5.903387e+07	
41	2.050000e+00	5.919557e+07	
42	2.100000e+00	5.934826e+07	
43	2.150000e+00	5.949206e+07	
44	2.200000e+00	5.962687e+07	
45	2.250000e+00	5.975242e+07	
46	2.300000e+00	5.986816e+07	
47	2.350000e+00	5.997332e+07	
48	2.400000e+00	6.006684e+07	
49	2.450000e+00	6.014735e+07	
50	2.500000e+00	6.021316e+07	
51	2.550000e+00	6.026224e+07	
52	2.600000e+00	6.029219e+07	
53	2.650000e+00	6.030024e+07	
54	2.700000e+00	6.028327e+07	

Index   v-sweep         rds             
--------------------------------------------------------------------------------
55	2.750000e+00	6.023778e+07	
56	2.800000e+00	6.015995e+07	
57	2.850000e+00	6.004566e+07	
58	2.900000e+00	5.989054e+07	
59	2.950000e+00	5.969001e+07	
60	3.000000e+00	5.943942e+07	
61	3.050000e+00	5.913411e+07	
62	3.100000e+00	5.876949e+07	
63	3.150000e+00	5.834125e+07	
64	3.200000e+00	5.784543e+07	
65	3.250000e+00	5.727858e+07	
66	3.300000e+00	5.663791e+07	
Reset re-loads circuit ***************************

Circuit: ***************************

Doing analysis at TEMP = 125.000000 and TNOM = 125.000000


No. of Data Rows : 67
                          ***************************
                          DC transfer characteristic  Mon Jan  9 13:57:20  2023
--------------------------------------------------------------------------------
Index   v-sweep         rds             
--------------------------------------------------------------------------------
0	0.000000e+00	1.369680e+04	
1	5.000000e-02	1.497041e+04	
2	1.000000e-01	1.650210e+04	
3	1.500000e-01	1.837911e+04	
4	2.000000e-01	2.073292e+04	
5	2.500000e-01	2.377133e+04	
6	3.000000e-01	2.784300e+04	
7	3.500000e-01	3.358006e+04	
8	4.000000e-01	4.225473e+04	
9	4.500000e-01	5.683081e+04	
10	5.000000e-01	8.583130e+04	
11	5.500000e-01	1.616545e+05	
12	6.000000e-01	4.265535e+05	
13	6.500000e-01	1.230222e+06	
14	7.000000e-01	2.640697e+06	
15	7.500000e-01	4.235588e+06	
16	8.000000e-01	5.705416e+06	
17	8.500000e-01	6.972891e+06	
18	9.000000e-01	8.053701e+06	
19	9.500000e-01	8.981572e+06	
20	1.000000e+00	9.787066e+06	
21	1.050000e+00	1.049416e+07	
22	1.100000e+00	1.112107e+07	
23	1.150000e+00	1.168170e+07	
24	1.200000e+00	1.218674e+07	
25	1.250000e+00	1.264462e+07	
26	1.300000e+00	1.306202e+07	
27	1.350000e+00	1.344437e+07	
28	1.400000e+00	1.379611e+07	
29	1.450000e+00	1.412093e+07	
30	1.500000e+00	1.442192e+07	
31	1.550000e+00	1.470170e+07	
32	1.600000e+00	1.496249e+07	
33	1.650000e+00	1.520623e+07	
34	1.700000e+00	1.543456e+07	
35	1.750000e+00	1.564893e+07	
36	1.800000e+00	1.585062e+07	
37	1.850000e+00	1.604073e+07	
38	1.900000e+00	1.622024e+07	
39	1.950000e+00	1.639004e+07	
40	2.000000e+00	1.655088e+07	
41	2.050000e+00	1.670348e+07	
42	2.100000e+00	1.684842e+07	
43	2.150000e+00	1.698627e+07	
44	2.200000e+00	1.711749e+07	
45	2.250000e+00	1.724250e+07	
46	2.300000e+00	1.736164e+07	
47	2.350000e+00	1.747518e+07	
48	2.400000e+00	1.758331e+07	
49	2.450000e+00	1.768615e+07	
50	2.500000e+00	1.778370e+07	
51	2.550000e+00	1.787586e+07	
52	2.600000e+00	1.796238e+07	
53	2.650000e+00	1.804289e+07	
54	2.700000e+00	1.811684e+07	

Index   v-sweep         rds             
--------------------------------------------------------------------------------
55	2.750000e+00	1.818349e+07	
56	2.800000e+00	1.824191e+07	
57	2.850000e+00	1.829096e+07	
58	2.900000e+00	1.832926e+07	
59	2.950000e+00	1.835519e+07	
60	3.000000e+00	1.836692e+07	
61	3.050000e+00	1.836239e+07	
62	3.100000e+00	1.833934e+07	
63	3.150000e+00	1.829535e+07	
64	3.200000e+00	1.822790e+07	
65	3.250000e+00	1.813442e+07	
66	3.300000e+00	1.801238e+07	
Reset re-loads circuit ***************************

Circuit: ***************************

Doing analysis at TEMP = 125.000000 and TNOM = 125.000000


No. of Data Rows : 67
                          ***************************
                          DC transfer characteristic  Mon Jan  9 13:57:20  2023
--------------------------------------------------------------------------------
Index   v-sweep         rds             
--------------------------------------------------------------------------------
0	0.000000e+00	8.706689e+03	
1	5.000000e-02	9.174401e+03	
2	1.000000e-01	9.694290e+03	
3	1.500000e-01	1.027560e+04	
4	2.000000e-01	1.092989e+04	
5	2.500000e-01	1.167183e+04	
6	3.000000e-01	1.252029e+04	
7	3.500000e-01	1.349997e+04	
8	4.000000e-01	1.464384e+04	
9	4.500000e-01	1.599693e+04	
10	5.000000e-01	1.762234e+04	
11	5.500000e-01	1.961135e+04	
12	6.000000e-01	2.210102e+04	
13	6.500000e-01	2.530682e+04	
14	7.000000e-01	2.958746e+04	
15	7.500000e-01	3.558534e+04	
16	8.000000e-01	4.456543e+04	
17	8.500000e-01	5.934897e+04	
18	9.000000e-01	8.728719e+04	
19	9.500000e-01	1.504786e+05	
20	1.000000e+00	3.112496e+05	
21	1.050000e+00	6.637493e+05	
22	1.100000e+00	1.207873e+06	
23	1.150000e+00	1.834194e+06	
24	1.200000e+00	2.451820e+06	
25	1.250000e+00	3.023759e+06	
26	1.300000e+00	3.542705e+06	
27	1.350000e+00	4.011932e+06	
28	1.400000e+00	4.437327e+06	
29	1.450000e+00	4.824736e+06	
30	1.500000e+00	5.179265e+06	
31	1.550000e+00	5.505201e+06	
32	1.600000e+00	5.806107e+06	
33	1.650000e+00	6.084953e+06	
34	1.700000e+00	6.344233e+06	
35	1.750000e+00	6.586054e+06	
36	1.800000e+00	6.812211e+06	
37	1.850000e+00	7.024250e+06	
38	1.900000e+00	7.223507e+06	
39	1.950000e+00	7.411146e+06	
40	2.000000e+00	7.588188e+06	
41	2.050000e+00	7.755531e+06	
42	2.100000e+00	7.913973e+06	
43	2.150000e+00	8.064222e+06	
44	2.200000e+00	8.206910e+06	
45	2.250000e+00	8.342606e+06	
46	2.300000e+00	8.471818e+06	
47	2.350000e+00	8.595006e+06	
48	2.400000e+00	8.712586e+06	
49	2.450000e+00	8.824930e+06	
50	2.500000e+00	8.932375e+06	
51	2.550000e+00	9.035220e+06	
52	2.600000e+00	9.133727e+06	
53	2.650000e+00	9.228123e+06	
54	2.700000e+00	9.318591e+06	

Index   v-sweep         rds             
--------------------------------------------------------------------------------
55	2.750000e+00	9.405269e+06	
56	2.800000e+00	9.488240e+06	
57	2.850000e+00	9.567526e+06	
58	2.900000e+00	9.643075e+06	
59	2.950000e+00	9.714746e+06	
60	3.000000e+00	9.782301e+06	
61	3.050000e+00	9.845384e+06	
62	3.100000e+00	9.903505e+06	
63	3.150000e+00	9.956030e+06	
64	3.200000e+00	1.000216e+07	
65	3.250000e+00	1.004093e+07	
66	3.300000e+00	1.007118e+07	
Reset re-loads circuit ***************************

Circuit: ***************************

Doing analysis at TEMP = 125.000000 and TNOM = 125.000000


No. of Data Rows : 67
                          ***************************
                          DC transfer characteristic  Mon Jan  9 13:57:20  2023
--------------------------------------------------------------------------------
Index   v-sweep         rds             
--------------------------------------------------------------------------------
0	0.000000e+00	6.667811e+03	
1	5.000000e-02	6.914135e+03	
2	1.000000e-01	7.178920e+03	
3	1.500000e-01	7.464322e+03	
4	2.000000e-01	7.772846e+03	
5	2.500000e-01	8.107422e+03	
6	3.000000e-01	8.471492e+03	
7	3.500000e-01	8.869137e+03	
8	4.000000e-01	9.305225e+03	
9	4.500000e-01	9.785611e+03	
10	5.000000e-01	1.031741e+04	
11	5.500000e-01	1.090933e+04	
12	6.000000e-01	1.157218e+04	
13	6.500000e-01	1.231952e+04	
14	7.000000e-01	1.316859e+04	
15	7.500000e-01	1.414166e+04	
16	8.000000e-01	1.526802e+04	
17	8.500000e-01	1.658694e+04	
18	9.000000e-01	1.815233e+04	
19	9.500000e-01	2.004024e+04	
20	1.000000e+00	2.236144e+04	
21	1.050000e+00	2.528361e+04	
22	1.100000e+00	2.907281e+04	
23	1.150000e+00	3.417628e+04	
24	1.200000e+00	4.140197e+04	
25	1.250000e+00	5.234567e+04	
26	1.300000e+00	7.050545e+04	
27	1.350000e+00	1.043139e+05	
28	1.400000e+00	1.739854e+05	
29	1.450000e+00	3.152153e+05	
30	1.500000e+00	5.515947e+05	
31	1.550000e+00	8.602871e+05	
32	1.600000e+00	1.197359e+06	
33	1.650000e+00	1.532242e+06	
34	1.700000e+00	1.851225e+06	
35	1.750000e+00	2.150047e+06	
36	1.800000e+00	2.428492e+06	
37	1.850000e+00	2.687807e+06	
38	1.900000e+00	2.929649e+06	
39	1.950000e+00	3.155682e+06	
40	2.000000e+00	3.367434e+06	
41	2.050000e+00	3.566270e+06	
42	2.100000e+00	3.753390e+06	
43	2.150000e+00	3.929848e+06	
44	2.200000e+00	4.096571e+06	
45	2.250000e+00	4.254378e+06	
46	2.300000e+00	4.403994e+06	
47	2.350000e+00	4.546062e+06	
48	2.400000e+00	4.681158e+06	
49	2.450000e+00	4.809798e+06	
50	2.500000e+00	4.932446e+06	
51	2.550000e+00	5.049521e+06	
52	2.600000e+00	5.161402e+06	
53	2.650000e+00	5.268435e+06	
54	2.700000e+00	5.370932e+06	

Index   v-sweep         rds             
--------------------------------------------------------------------------------
55	2.750000e+00	5.469180e+06	
56	2.800000e+00	5.563440e+06	
57	2.850000e+00	5.653950e+06	
58	2.900000e+00	5.740927e+06	
59	2.950000e+00	5.824564e+06	
60	3.000000e+00	5.905037e+06	
61	3.050000e+00	5.982493e+06	
62	3.100000e+00	6.057058e+06	
63	3.150000e+00	6.128824e+06	
64	3.200000e+00	6.197848e+06	
65	3.250000e+00	6.264145e+06	
66	3.300000e+00	6.327674e+06	
Reset re-loads circuit ***************************

Circuit: ***************************

Doing analysis at TEMP = 125.000000 and TNOM = 125.000000


No. of Data Rows : 67
                          ***************************
                          DC transfer characteristic  Mon Jan  9 13:57:20  2023
--------------------------------------------------------------------------------
Index   v-sweep         rds             
--------------------------------------------------------------------------------
0	0.000000e+00	5.608699e+03	
1	5.000000e-02	5.763583e+03	
2	1.000000e-01	5.927014e+03	
3	1.500000e-01	6.099720e+03	
4	2.000000e-01	6.282513e+03	
5	2.500000e-01	6.476304e+03	
6	3.000000e-01	6.682115e+03	
7	3.500000e-01	6.901101e+03	
8	4.000000e-01	7.134569e+03	
9	4.500000e-01	7.384003e+03	
10	5.000000e-01	7.651101e+03	
11	5.500000e-01	7.937805e+03	
12	6.000000e-01	8.246358e+03	
13	6.500000e-01	8.579355e+03	
14	7.000000e-01	8.939821e+03	
15	7.500000e-01	9.331299e+03	
16	8.000000e-01	9.757971e+03	
17	8.500000e-01	1.022480e+04	
18	9.000000e-01	1.073775e+04	
19	9.500000e-01	1.130399e+04	
20	1.000000e+00	1.193229e+04	
21	1.050000e+00	1.263342e+04	
22	1.100000e+00	1.342084e+04	
23	1.150000e+00	1.431149e+04	
24	1.200000e+00	1.532709e+04	
25	1.250000e+00	1.649588e+04	
26	1.300000e+00	1.785528e+04	
27	1.350000e+00	1.945597e+04	
28	1.400000e+00	2.136824e+04	
29	1.450000e+00	2.369243e+04	
30	1.500000e+00	2.657679e+04	
31	1.550000e+00	3.024932e+04	
32	1.600000e+00	3.507832e+04	
33	1.650000e+00	4.169453e+04	
34	1.700000e+00	5.125556e+04	
35	1.750000e+00	6.605167e+04	
36	1.800000e+00	9.089672e+04	
37	1.850000e+00	1.357507e+05	
38	1.900000e+00	2.171263e+05	
39	1.950000e+00	3.491242e+05	
40	2.000000e+00	5.275417e+05	
41	2.050000e+00	7.330177e+05	
42	2.100000e+00	9.470483e+05	
43	2.150000e+00	1.158569e+06	
44	2.200000e+00	1.362419e+06	
45	2.250000e+00	1.556671e+06	
46	2.300000e+00	1.740924e+06	
47	2.350000e+00	1.915443e+06	
48	2.400000e+00	2.080758e+06	
49	2.450000e+00	2.237481e+06	
50	2.500000e+00	2.386226e+06	
51	2.550000e+00	2.527575e+06	
52	2.600000e+00	2.662069e+06	
53	2.650000e+00	2.790201e+06	
54	2.700000e+00	2.912420e+06	

Index   v-sweep         rds             
--------------------------------------------------------------------------------
55	2.750000e+00	3.029136e+06	
56	2.800000e+00	3.140719e+06	
57	2.850000e+00	3.247509e+06	
58	2.900000e+00	3.349815e+06	
59	2.950000e+00	3.447917e+06	
60	3.000000e+00	3.542075e+06	
61	3.050000e+00	3.632526e+06	
62	3.100000e+00	3.719488e+06	
63	3.150000e+00	3.803161e+06	
64	3.200000e+00	3.883730e+06	
65	3.250000e+00	3.961366e+06	
66	3.300000e+00	4.036226e+06	
Reset re-loads circuit ***************************

Circuit: ***************************

Doing analysis at TEMP = 125.000000 and TNOM = 125.000000


No. of Data Rows : 67
                          ***************************
                          DC transfer characteristic  Mon Jan  9 13:57:20  2023
--------------------------------------------------------------------------------
Index   v-sweep         rds             
--------------------------------------------------------------------------------
0	0.000000e+00	4.993234e+03	
1	5.000000e-02	5.101402e+03	
2	1.000000e-01	5.214201e+03	
3	1.500000e-01	5.331935e+03	
4	2.000000e-01	5.454933e+03	
5	2.500000e-01	5.583558e+03	
6	3.000000e-01	5.718205e+03	
7	3.500000e-01	5.859306e+03	
8	4.000000e-01	6.007336e+03	
9	4.500000e-01	6.162820e+03	
10	5.000000e-01	6.326335e+03	
11	5.500000e-01	6.498518e+03	
12	6.000000e-01	6.680079e+03	
13	6.500000e-01	6.871804e+03	
14	7.000000e-01	7.074572e+03	
15	7.500000e-01	7.289365e+03	
16	8.000000e-01	7.517284e+03	
17	8.500000e-01	7.759572e+03	
18	9.000000e-01	8.017631e+03	
19	9.500000e-01	8.293052e+03	
20	1.000000e+00	8.587647e+03	
21	1.050000e+00	8.903493e+03	
22	1.100000e+00	9.242973e+03	
23	1.150000e+00	9.608842e+03	
24	1.200000e+00	1.000430e+04	
25	1.250000e+00	1.043309e+04	
26	1.300000e+00	1.089961e+04	
27	1.350000e+00	1.140907e+04	
28	1.400000e+00	1.196767e+04	
29	1.450000e+00	1.258289e+04	
30	1.500000e+00	1.326379e+04	
31	1.550000e+00	1.402147e+04	
32	1.600000e+00	1.486968e+04	
33	1.650000e+00	1.582568e+04	
34	1.700000e+00	1.691136e+04	
35	1.750000e+00	1.815500e+04	
36	1.800000e+00	1.959370e+04	
37	1.850000e+00	2.127712e+04	
38	1.900000e+00	2.327324e+04	
39	1.950000e+00	2.567759e+04	
40	2.000000e+00	2.862858e+04	
41	2.050000e+00	3.233401e+04	
42	2.100000e+00	3.711927e+04	
43	2.150000e+00	4.351936e+04	
44	2.200000e+00	5.246341e+04	
45	2.250000e+00	6.565541e+04	
46	2.300000e+00	8.633171e+04	
47	2.350000e+00	1.204404e+05	
48	2.400000e+00	1.769753e+05	
49	2.450000e+00	2.639085e+05	
50	2.500000e+00	3.807995e+05	
51	2.550000e+00	5.184585e+05	
52	2.600000e+00	6.660418e+05	
53	2.650000e+00	8.157625e+05	
54	2.700000e+00	9.632181e+05	

Index   v-sweep         rds             
--------------------------------------------------------------------------------
55	2.750000e+00	1.106247e+06	
56	2.800000e+00	1.243927e+06	
57	2.850000e+00	1.375978e+06	
58	2.900000e+00	1.502432e+06	
59	2.950000e+00	1.623472e+06	
60	3.000000e+00	1.739348e+06	
61	3.050000e+00	1.850334e+06	
62	3.100000e+00	1.956704e+06	
63	3.150000e+00	2.058726e+06	
64	3.200000e+00	2.156652e+06	
65	3.250000e+00	2.250720e+06	
66	3.300000e+00	2.341151e+06	
Reset re-loads circuit ***************************

Circuit: ***************************

Note: No ".plot", ".print", or ".fourier" lines; no simulations run
