
Note: Compatibility modes selected: hs

Warning: m=xx on .subckt line will override multiplier m hierarchy!


Circuit: ***************************

Doing analysis at TEMP = 125.000000 and TNOM = 125.000000


No. of Data Rows : 67
                          ***************************
                          DC transfer characteristic  Mon Jan  9 13:57:20  2023
--------------------------------------------------------------------------------
Index   v-sweep         rds             
--------------------------------------------------------------------------------
0	0.000000e+00	1.193153e+03	
1	5.000000e-02	1.487179e+03	
2	1.000000e-01	1.927269e+03	
3	1.500000e-01	2.642234e+03	
4	2.000000e-01	3.912191e+03	
5	2.500000e-01	6.237303e+03	
6	3.000000e-01	9.922218e+03	
7	3.500000e-01	1.426759e+04	
8	4.000000e-01	1.820861e+04	
9	4.500000e-01	2.132018e+04	
10	5.000000e-01	2.366224e+04	
11	5.500000e-01	2.541530e+04	
12	6.000000e-01	2.674034e+04	
13	6.500000e-01	2.775552e+04	
14	7.000000e-01	2.854353e+04	
15	7.500000e-01	2.916193e+04	
16	8.000000e-01	2.965134e+04	
17	8.500000e-01	3.004089e+04	
18	9.000000e-01	3.035189e+04	
19	9.500000e-01	3.060021e+04	
20	1.000000e+00	3.079787e+04	
21	1.050000e+00	3.095411e+04	
22	1.100000e+00	3.107616e+04	
23	1.150000e+00	3.116972e+04	
24	1.200000e+00	3.123936e+04	
25	1.250000e+00	3.128878e+04	
26	1.300000e+00	3.132098e+04	
27	1.350000e+00	3.133846e+04	
28	1.400000e+00	3.134327e+04	
29	1.450000e+00	3.133714e+04	
30	1.500000e+00	3.132152e+04	
31	1.550000e+00	3.129765e+04	
32	1.600000e+00	3.126657e+04	
33	1.650000e+00	3.122919e+04	
34	1.700000e+00	3.118628e+04	
35	1.750000e+00	3.113849e+04	
36	1.800000e+00	3.108640e+04	
37	1.850000e+00	3.103051e+04	
38	1.900000e+00	3.097123e+04	
39	1.950000e+00	3.090890e+04	
40	2.000000e+00	3.084381e+04	
41	2.050000e+00	3.077617e+04	
42	2.100000e+00	3.070612e+04	
43	2.150000e+00	3.063372e+04	
44	2.200000e+00	3.055894e+04	
45	2.250000e+00	3.048168e+04	
46	2.300000e+00	3.040169e+04	
47	2.350000e+00	3.031864e+04	
48	2.400000e+00	3.023206e+04	
49	2.450000e+00	3.014130e+04	
50	2.500000e+00	3.004559e+04	
51	2.550000e+00	2.994396e+04	
52	2.600000e+00	2.983526e+04	
53	2.650000e+00	2.971816e+04	
54	2.700000e+00	2.959110e+04	

Index   v-sweep         rds             
--------------------------------------------------------------------------------
55	2.750000e+00	2.945235e+04	
56	2.800000e+00	2.929998e+04	
57	2.850000e+00	2.913185e+04	
58	2.900000e+00	2.894570e+04	
59	2.950000e+00	2.873911e+04	
60	3.000000e+00	2.850958e+04	
61	3.050000e+00	2.825458e+04	
62	3.100000e+00	2.797159e+04	
63	3.150000e+00	2.765819e+04	
64	3.200000e+00	2.731213e+04	
65	3.250000e+00	2.693145e+04	
66	3.300000e+00	2.651450e+04	
Reset re-loads circuit ***************************

Circuit: ***************************

Doing analysis at TEMP = 125.000000 and TNOM = 125.000000


No. of Data Rows : 67
                          ***************************
                          DC transfer characteristic  Mon Jan  9 13:57:20  2023
--------------------------------------------------------------------------------
Index   v-sweep         rds             
--------------------------------------------------------------------------------
0	0.000000e+00	4.542821e+02	
1	5.000000e-02	5.034486e+02	
2	1.000000e-01	5.607246e+02	
3	1.500000e-01	6.282620e+02	
4	2.000000e-01	7.090537e+02	
5	2.500000e-01	8.073925e+02	
6	3.000000e-01	9.296595e+02	
7	3.500000e-01	1.085734e+03	
8	4.000000e-01	1.291534e+03	
9	4.500000e-01	1.573262e+03	
10	5.000000e-01	1.972244e+03	
11	5.500000e-01	2.541830e+03	
12	6.000000e-01	3.319291e+03	
13	6.500000e-01	4.282763e+03	
14	7.000000e-01	5.350179e+03	
15	7.500000e-01	6.427870e+03	
16	8.000000e-01	7.449504e+03	
17	8.500000e-01	8.381973e+03	
18	9.000000e-01	9.215451e+03	
19	9.500000e-01	9.952745e+03	
20	1.000000e+00	1.060225e+04	
21	1.050000e+00	1.117413e+04	
22	1.100000e+00	1.167844e+04	
23	1.150000e+00	1.212434e+04	
24	1.200000e+00	1.251988e+04	
25	1.250000e+00	1.287198e+04	
26	1.300000e+00	1.318651e+04	
27	1.350000e+00	1.346847e+04	
28	1.400000e+00	1.372206e+04	
29	1.450000e+00	1.395086e+04	
30	1.500000e+00	1.415790e+04	
31	1.550000e+00	1.434579e+04	
32	1.600000e+00	1.451672e+04	
33	1.650000e+00	1.467261e+04	
34	1.700000e+00	1.481510e+04	
35	1.750000e+00	1.494560e+04	
36	1.800000e+00	1.506535e+04	
37	1.850000e+00	1.517542e+04	
38	1.900000e+00	1.527675e+04	
39	1.950000e+00	1.537018e+04	
40	2.000000e+00	1.545642e+04	
41	2.050000e+00	1.553612e+04	
42	2.100000e+00	1.560984e+04	
43	2.150000e+00	1.567805e+04	
44	2.200000e+00	1.574119e+04	
45	2.250000e+00	1.579961e+04	
46	2.300000e+00	1.585358e+04	
47	2.350000e+00	1.590332e+04	
48	2.400000e+00	1.594897e+04	
49	2.450000e+00	1.599056e+04	
50	2.500000e+00	1.602803e+04	
51	2.550000e+00	1.606121e+04	
52	2.600000e+00	1.608979e+04	
53	2.650000e+00	1.611331e+04	
54	2.700000e+00	1.613115e+04	

Index   v-sweep         rds             
--------------------------------------------------------------------------------
55	2.750000e+00	1.614248e+04	
56	2.800000e+00	1.614630e+04	
57	2.850000e+00	1.614138e+04	
58	2.900000e+00	1.612627e+04	
59	2.950000e+00	1.609929e+04	
60	3.000000e+00	1.605854e+04	
61	3.050000e+00	1.600194e+04	
62	3.100000e+00	1.592721e+04	
63	3.150000e+00	1.583198e+04	
64	3.200000e+00	1.571379e+04	
65	3.250000e+00	1.557024e+04	
66	3.300000e+00	1.539903e+04	
Reset re-loads circuit ***************************

Circuit: ***************************

Doing analysis at TEMP = 125.000000 and TNOM = 125.000000


No. of Data Rows : 67
                          ***************************
                          DC transfer characteristic  Mon Jan  9 13:57:20  2023
--------------------------------------------------------------------------------
Index   v-sweep         rds             
--------------------------------------------------------------------------------
0	0.000000e+00	3.110314e+02	
1	5.000000e-02	3.344610e+02	
2	1.000000e-01	3.602774e+02	
3	1.500000e-01	3.888551e+02	
4	2.000000e-01	4.206537e+02	
5	2.500000e-01	4.562437e+02	
6	3.000000e-01	4.963446e+02	
7	3.500000e-01	5.418805e+02	
8	4.000000e-01	5.940643e+02	
9	4.500000e-01	6.545322e+02	
10	5.000000e-01	7.255652e+02	
11	5.500000e-01	8.104699e+02	
12	6.000000e-01	9.142403e+02	
13	6.500000e-01	1.044674e+03	
14	7.000000e-01	1.213992e+03	
15	7.500000e-01	1.440192e+03	
16	8.000000e-01	1.745295e+03	
17	8.500000e-01	2.146747e+03	
18	9.000000e-01	2.644939e+03	
19	9.500000e-01	3.219058e+03	
20	1.000000e+00	3.836262e+03	
21	1.050000e+00	4.464416e+03	
22	1.100000e+00	5.079225e+03	
23	1.150000e+00	5.665366e+03	
24	1.200000e+00	6.214745e+03	
25	1.250000e+00	6.724211e+03	
26	1.300000e+00	7.193667e+03	
27	1.350000e+00	7.624743e+03	
28	1.400000e+00	8.019947e+03	
29	1.450000e+00	8.382144e+03	
30	1.500000e+00	8.714259e+03	
31	1.550000e+00	9.019111e+03	
32	1.600000e+00	9.299330e+03	
33	1.650000e+00	9.557322e+03	
34	1.700000e+00	9.795262e+03	
35	1.750000e+00	1.001510e+04	
36	1.800000e+00	1.021859e+04	
37	1.850000e+00	1.040727e+04	
38	1.900000e+00	1.058254e+04	
39	1.950000e+00	1.074562e+04	
40	2.000000e+00	1.089762e+04	
41	2.050000e+00	1.103952e+04	
42	2.100000e+00	1.117218e+04	
43	2.150000e+00	1.129638e+04	
44	2.200000e+00	1.141284e+04	
45	2.250000e+00	1.152217e+04	
46	2.300000e+00	1.162493e+04	
47	2.350000e+00	1.172161e+04	
48	2.400000e+00	1.181265e+04	
49	2.450000e+00	1.189841e+04	
50	2.500000e+00	1.197922e+04	
51	2.550000e+00	1.205531e+04	
52	2.600000e+00	1.212685e+04	
53	2.650000e+00	1.219392e+04	
54	2.700000e+00	1.225651e+04	

Index   v-sweep         rds             
--------------------------------------------------------------------------------
55	2.750000e+00	1.231447e+04	
56	2.800000e+00	1.236753e+04	
57	2.850000e+00	1.241526e+04	
58	2.900000e+00	1.245705e+04	
59	2.950000e+00	1.249209e+04	
60	3.000000e+00	1.251934e+04	
61	3.050000e+00	1.253753e+04	
62	3.100000e+00	1.254514e+04	
63	3.150000e+00	1.254038e+04	
64	3.200000e+00	1.252124e+04	
65	3.250000e+00	1.248547e+04	
66	3.300000e+00	1.243067e+04	
Reset re-loads circuit ***************************

Circuit: ***************************

Doing analysis at TEMP = 125.000000 and TNOM = 125.000000


No. of Data Rows : 67
                          ***************************
                          DC transfer characteristic  Mon Jan  9 13:57:20  2023
--------------------------------------------------------------------------------
Index   v-sweep         rds             
--------------------------------------------------------------------------------
0	0.000000e+00	2.517208e+02	
1	5.000000e-02	2.666569e+02	
2	1.000000e-01	2.827104e+02	
3	1.500000e-01	3.000070e+02	
4	2.000000e-01	3.186923e+02	
5	2.500000e-01	3.389362e+02	
6	3.000000e-01	3.609390e+02	
7	3.500000e-01	3.849388e+02	
8	4.000000e-01	4.112213e+02	
9	4.500000e-01	4.401343e+02	
10	5.000000e-01	4.721080e+02	
11	5.500000e-01	5.076847e+02	
12	6.000000e-01	5.475650e+02	
13	6.500000e-01	5.926815e+02	
14	7.000000e-01	6.443193e+02	
15	7.500000e-01	7.043200e+02	
16	8.000000e-01	7.754257e+02	
17	8.500000e-01	8.618351e+02	
18	9.000000e-01	9.699961e+02	
19	9.500000e-01	1.109382e+03	
20	1.000000e+00	1.292315e+03	
21	1.050000e+00	1.531307e+03	
22	1.100000e+00	1.833658e+03	
23	1.150000e+00	2.196715e+03	
24	1.200000e+00	2.608049e+03	
25	1.250000e+00	3.050166e+03	
26	1.300000e+00	3.505724e+03	
27	1.350000e+00	3.960573e+03	
28	1.400000e+00	4.404578e+03	
29	1.450000e+00	4.831216e+03	
30	1.500000e+00	5.236751e+03	
31	1.550000e+00	5.619427e+03	
32	1.600000e+00	5.978808e+03	
33	1.650000e+00	6.315302e+03	
34	1.700000e+00	6.629817e+03	
35	1.750000e+00	6.923541e+03	
36	1.800000e+00	7.197793e+03	
37	1.850000e+00	7.453928e+03	
38	1.900000e+00	7.693280e+03	
39	1.950000e+00	7.917126e+03	
40	2.000000e+00	8.126669e+03	
41	2.050000e+00	8.323030e+03	
42	2.100000e+00	8.507243e+03	
43	2.150000e+00	8.680258e+03	
44	2.200000e+00	8.842947e+03	
45	2.250000e+00	8.996105e+03	
46	2.300000e+00	9.140457e+03	
47	2.350000e+00	9.276663e+03	
48	2.400000e+00	9.405326e+03	
49	2.450000e+00	9.526991e+03	
50	2.500000e+00	9.642153e+03	
51	2.550000e+00	9.751256e+03	
52	2.600000e+00	9.854694e+03	
53	2.650000e+00	9.952812e+03	
54	2.700000e+00	1.004590e+04	

Index   v-sweep         rds             
--------------------------------------------------------------------------------
55	2.750000e+00	1.013418e+04	
56	2.800000e+00	1.021782e+04	
57	2.850000e+00	1.029688e+04	
58	2.900000e+00	1.037134e+04	
59	2.950000e+00	1.044106e+04	
60	3.000000e+00	1.050575e+04	
61	3.050000e+00	1.056497e+04	
62	3.100000e+00	1.061806e+04	
63	3.150000e+00	1.066418e+04	
64	3.200000e+00	1.070223e+04	
65	3.250000e+00	1.073085e+04	
66	3.300000e+00	1.074842e+04	
Reset re-loads circuit ***************************

Circuit: ***************************

Doing analysis at TEMP = 125.000000 and TNOM = 125.000000


No. of Data Rows : 67
                          ***************************
                          DC transfer characteristic  Mon Jan  9 13:57:20  2023
--------------------------------------------------------------------------------
Index   v-sweep         rds             
--------------------------------------------------------------------------------
0	0.000000e+00	2.199254e+02	
1	5.000000e-02	2.307957e+02	
2	1.000000e-01	2.423132e+02	
3	1.500000e-01	2.545347e+02	
4	2.000000e-01	2.675240e+02	
5	2.500000e-01	2.813532e+02	
6	3.000000e-01	2.961041e+02	
7	3.500000e-01	3.118700e+02	
8	4.000000e-01	3.287577e+02	
9	4.500000e-01	3.468910e+02	
10	5.000000e-01	3.664142e+02	
11	5.500000e-01	3.874970e+02	
12	6.000000e-01	4.103418e+02	
13	6.500000e-01	4.351937e+02	
14	7.000000e-01	4.623547e+02	
15	7.500000e-01	4.922059e+02	
16	8.000000e-01	5.252407e+02	
17	8.500000e-01	5.621192e+02	
18	9.000000e-01	6.037557e+02	
19	9.500000e-01	6.514625e+02	
20	1.000000e+00	7.071820e+02	
21	1.050000e+00	7.738434e+02	
22	1.100000e+00	8.558388e+02	
23	1.150000e+00	9.594702e+02	
24	1.200000e+00	1.092896e+03	
25	1.250000e+00	1.264833e+03	
26	1.300000e+00	1.481745e+03	
27	1.350000e+00	1.744827e+03	
28	1.400000e+00	2.048977e+03	
29	1.450000e+00	2.384493e+03	
30	1.500000e+00	2.739988e+03	
31	1.550000e+00	3.104786e+03	
32	1.600000e+00	3.470161e+03	
33	1.650000e+00	3.829621e+03	
34	1.700000e+00	4.178693e+03	
35	1.750000e+00	4.514527e+03	
36	1.800000e+00	4.835488e+03	
37	1.850000e+00	5.140812e+03	
38	1.900000e+00	5.430337e+03	
39	1.950000e+00	5.704302e+03	
40	2.000000e+00	5.963203e+03	
41	2.050000e+00	6.207692e+03	
42	2.100000e+00	6.438505e+03	
43	2.150000e+00	6.656418e+03	
44	2.200000e+00	6.862208e+03	
45	2.250000e+00	7.056642e+03	
46	2.300000e+00	7.240453e+03	
47	2.350000e+00	7.414342e+03	
48	2.400000e+00	7.578969e+03	
49	2.450000e+00	7.734950e+03	
50	2.500000e+00	7.882862e+03	
51	2.550000e+00	8.023239e+03	
52	2.600000e+00	8.156576e+03	
53	2.650000e+00	8.283330e+03	
54	2.700000e+00	8.403920e+03	

Index   v-sweep         rds             
--------------------------------------------------------------------------------
55	2.750000e+00	8.518725e+03	
56	2.800000e+00	8.628087e+03	
57	2.850000e+00	8.732306e+03	
58	2.900000e+00	8.831631e+03	
59	2.950000e+00	8.926258e+03	
60	3.000000e+00	9.016316e+03	
61	3.050000e+00	9.101851e+03	
62	3.100000e+00	9.182814e+03	
63	3.150000e+00	9.259033e+03	
64	3.200000e+00	9.330193e+03	
65	3.250000e+00	9.395807e+03	
66	3.300000e+00	9.455188e+03	
Reset re-loads circuit ***************************

Circuit: ***************************

Doing analysis at TEMP = 125.000000 and TNOM = 125.000000


No. of Data Rows : 67
                          ***************************
                          DC transfer characteristic  Mon Jan  9 13:57:20  2023
--------------------------------------------------------------------------------
Index   v-sweep         rds             
--------------------------------------------------------------------------------
0	0.000000e+00	2.005173e+02	
1	5.000000e-02	2.090421e+02	
2	1.000000e-01	2.179899e+02	
3	1.500000e-01	2.273911e+02	
4	2.000000e-01	2.372794e+02	
5	2.500000e-01	2.476919e+02	
6	3.000000e-01	2.586696e+02	
7	3.500000e-01	2.702584e+02	
8	4.000000e-01	2.825092e+02	
9	4.500000e-01	2.954795e+02	
10	5.000000e-01	3.092336e+02	
11	5.500000e-01	3.238448e+02	
12	6.000000e-01	3.393966e+02	
13	6.500000e-01	3.559852e+02	
14	7.000000e-01	3.737223e+02	
15	7.500000e-01	3.927394e+02	
16	8.000000e-01	4.131935e+02	
17	8.500000e-01	4.352750e+02	
18	9.000000e-01	4.592205e+02	
19	9.500000e-01	4.853307e+02	
20	1.000000e+00	5.139992e+02	
21	1.050000e+00	5.457573e+02	
22	1.100000e+00	5.813461e+02	
23	1.150000e+00	6.218296e+02	
24	1.200000e+00	6.687705e+02	
25	1.250000e+00	7.244836e+02	
26	1.300000e+00	7.923522e+02	
27	1.350000e+00	8.770939e+02	
28	1.400000e+00	9.846909e+02	
29	1.450000e+00	1.121568e+03	
30	1.500000e+00	1.292876e+03	
31	1.550000e+00	1.500534e+03	
32	1.600000e+00	1.742263e+03	
33	1.650000e+00	2.012233e+03	
34	1.700000e+00	2.302729e+03	
35	1.750000e+00	2.605830e+03	
36	1.800000e+00	2.914505e+03	
37	1.850000e+00	3.223076e+03	
38	1.900000e+00	3.527266e+03	
39	1.950000e+00	3.824035e+03	
40	2.000000e+00	4.111347e+03	
41	2.050000e+00	4.387938e+03	
42	2.100000e+00	4.653116e+03	
43	2.150000e+00	4.906606e+03	
44	2.200000e+00	5.148422e+03	
45	2.250000e+00	5.378778e+03	
46	2.300000e+00	5.598022e+03	
47	2.350000e+00	5.806584e+03	
48	2.400000e+00	6.004943e+03	
49	2.450000e+00	6.193601e+03	
50	2.500000e+00	6.373067e+03	
51	2.550000e+00	6.543844e+03	
52	2.600000e+00	6.706421e+03	
53	2.650000e+00	6.861270e+03	
54	2.700000e+00	7.008839e+03	

Index   v-sweep         rds             
--------------------------------------------------------------------------------
55	2.750000e+00	7.149552e+03	
56	2.800000e+00	7.283811e+03	
57	2.850000e+00	7.411990e+03	
58	2.900000e+00	7.534435e+03	
59	2.950000e+00	7.651466e+03	
60	3.000000e+00	7.763372e+03	
61	3.050000e+00	7.870404e+03	
62	3.100000e+00	7.972772e+03	
63	3.150000e+00	8.070636e+03	
64	3.200000e+00	8.164091e+03	
65	3.250000e+00	8.253153e+03	
66	3.300000e+00	8.337742e+03	
Reset re-loads circuit ***************************

Circuit: ***************************

Note: No ".plot", ".print", or ".fourier" lines; no simulations run
