
Note: Compatibility modes selected: hs

Warning: m=xx on .subckt line will override multiplier m hierarchy!


Circuit: ***************************

Doing analysis at TEMP = 25.000000 and TNOM = 25.000000


No. of Data Rows : 67
                          ***************************
                          DC transfer characteristic  Mon Jan  9 13:57:19  2023
--------------------------------------------------------------------------------
Index   v-sweep         rds             
--------------------------------------------------------------------------------
0	0.000000e+00	5.704692e+04	
1	5.000000e-02	8.862988e+04	
2	1.000000e-01	1.834343e+05	
3	1.500000e-01	6.920107e+05	
4	2.000000e-01	2.595161e+06	
5	2.500000e-01	5.127902e+06	
6	3.000000e-01	7.281312e+06	
7	3.500000e-01	9.013169e+06	
8	4.000000e-01	1.043800e+07	
9	4.500000e-01	1.164035e+07	
10	5.000000e-01	1.267475e+07	
11	5.500000e-01	1.357760e+07	
12	6.000000e-01	1.437442e+07	
13	6.500000e-01	1.508393e+07	
14	7.000000e-01	1.572036e+07	
15	7.500000e-01	1.629480e+07	
16	8.000000e-01	1.681609e+07	
17	8.500000e-01	1.729139e+07	
18	9.000000e-01	1.772660e+07	
19	9.500000e-01	1.812662e+07	
20	1.000000e+00	1.849556e+07	
21	1.050000e+00	1.883691e+07	
22	1.100000e+00	1.915363e+07	
23	1.150000e+00	1.944830e+07	
24	1.200000e+00	1.972313e+07	
25	1.250000e+00	1.998002e+07	
26	1.300000e+00	2.022068e+07	
27	1.350000e+00	2.044658e+07	
28	1.400000e+00	2.065901e+07	
29	1.450000e+00	2.085913e+07	
30	1.500000e+00	2.104797e+07	
31	1.550000e+00	2.122644e+07	
32	1.600000e+00	2.139534e+07	
33	1.650000e+00	2.155539e+07	
34	1.700000e+00	2.170725e+07	
35	1.750000e+00	2.185148e+07	
36	1.800000e+00	2.198855e+07	
37	1.850000e+00	2.211889e+07	
38	1.900000e+00	2.224283e+07	
39	1.950000e+00	2.236062e+07	
40	2.000000e+00	2.247240e+07	
41	2.050000e+00	2.257822e+07	
42	2.100000e+00	2.267799e+07	
43	2.150000e+00	2.277149e+07	
44	2.200000e+00	2.285835e+07	
45	2.250000e+00	2.293798e+07	
46	2.300000e+00	2.300964e+07	
47	2.350000e+00	2.307235e+07	
48	2.400000e+00	2.312487e+07	
49	2.450000e+00	2.316576e+07	
50	2.500000e+00	2.319326e+07	
51	2.550000e+00	2.320539e+07	
52	2.600000e+00	2.319991e+07	
53	2.650000e+00	2.317432e+07	
54	2.700000e+00	2.312592e+07	

Index   v-sweep         rds             
--------------------------------------------------------------------------------
55	2.750000e+00	2.305188e+07	
56	2.800000e+00	2.294922e+07	
57	2.850000e+00	2.281498e+07	
58	2.900000e+00	2.264626e+07	
59	2.950000e+00	2.244036e+07	
60	3.000000e+00	2.219487e+07	
61	3.050000e+00	2.190782e+07	
62	3.100000e+00	2.157782e+07	
63	3.150000e+00	2.120415e+07	
64	3.200000e+00	2.078683e+07	
65	3.250000e+00	2.032676e+07	
66	3.300000e+00	1.982570e+07	
Reset re-loads circuit ***************************

Circuit: ***************************

Doing analysis at TEMP = 25.000000 and TNOM = 25.000000


No. of Data Rows : 67
                          ***************************
                          DC transfer characteristic  Mon Jan  9 13:57:19  2023
--------------------------------------------------------------------------------
Index   v-sweep         rds             
--------------------------------------------------------------------------------
0	0.000000e+00	1.220219e+04	
1	5.000000e-02	1.359761e+04	
2	1.000000e-01	1.530823e+04	
3	1.500000e-01	1.745395e+04	
4	2.000000e-01	2.022403e+04	
5	2.500000e-01	2.393506e+04	
6	3.000000e-01	2.915725e+04	
7	3.500000e-01	3.701951e+04	
8	4.000000e-01	5.003263e+04	
9	4.500000e-01	7.442822e+04	
10	5.000000e-01	1.249588e+05	
11	5.500000e-01	2.209107e+05	
12	6.000000e-01	3.588936e+05	
13	6.500000e-01	5.159390e+05	
14	7.000000e-01	6.759248e+05	
15	7.500000e-01	8.321630e+05	
16	8.000000e-01	9.823707e+05	
17	8.500000e-01	1.125939e+06	
18	9.000000e-01	1.262885e+06	
19	9.500000e-01	1.393458e+06	
20	1.000000e+00	1.517990e+06	
21	1.050000e+00	1.636834e+06	
22	1.100000e+00	1.750337e+06	
23	1.150000e+00	1.858829e+06	
24	1.200000e+00	1.962619e+06	
25	1.250000e+00	2.061996e+06	
26	1.300000e+00	2.157229e+06	
27	1.350000e+00	2.248564e+06	
28	1.400000e+00	2.336230e+06	
29	1.450000e+00	2.420442e+06	
30	1.500000e+00	2.501394e+06	
31	1.550000e+00	2.579269e+06	
32	1.600000e+00	2.654238e+06	
33	1.650000e+00	2.726457e+06	
34	1.700000e+00	2.796072e+06	
35	1.750000e+00	2.863220e+06	
36	1.800000e+00	2.928027e+06	
37	1.850000e+00	2.990612e+06	
38	1.900000e+00	3.051084e+06	
39	1.950000e+00	3.109544e+06	
40	2.000000e+00	3.166087e+06	
41	2.050000e+00	3.220796e+06	
42	2.100000e+00	3.273747e+06	
43	2.150000e+00	3.325001e+06	
44	2.200000e+00	3.374607e+06	
45	2.250000e+00	3.422597e+06	
46	2.300000e+00	3.468976e+06	
47	2.350000e+00	3.513725e+06	
48	2.400000e+00	3.556788e+06	
49	2.450000e+00	3.598064e+06	
50	2.500000e+00	3.637402e+06	
51	2.550000e+00	3.674586e+06	
52	2.600000e+00	3.709326e+06	
53	2.650000e+00	3.741250e+06	
54	2.700000e+00	3.769891e+06	

Index   v-sweep         rds             
--------------------------------------------------------------------------------
55	2.750000e+00	3.794684e+06	
56	2.800000e+00	3.814954e+06	
57	2.850000e+00	3.829925e+06	
58	2.900000e+00	3.838721e+06	
59	2.950000e+00	3.840382e+06	
60	3.000000e+00	3.833891e+06	
61	3.050000e+00	3.818207e+06	
62	3.100000e+00	3.792312e+06	
63	3.150000e+00	3.755273e+06	
64	3.200000e+00	3.706302e+06	
65	3.250000e+00	3.644826e+06	
66	3.300000e+00	3.570554e+06	
Reset re-loads circuit ***************************

Circuit: ***************************

Doing analysis at TEMP = 25.000000 and TNOM = 25.000000


No. of Data Rows : 67
                          ***************************
                          DC transfer characteristic  Mon Jan  9 13:57:19  2023
--------------------------------------------------------------------------------
Index   v-sweep         rds             
--------------------------------------------------------------------------------
0	0.000000e+00	7.271959e+03	
1	5.000000e-02	7.759272e+03	
2	1.000000e-01	8.304107e+03	
3	1.500000e-01	8.917241e+03	
4	2.000000e-01	9.612316e+03	
5	2.500000e-01	1.040687e+04	
6	3.000000e-01	1.132385e+04	
7	3.500000e-01	1.239380e+04	
8	4.000000e-01	1.365841e+04	
9	4.500000e-01	1.517601e+04	
10	5.000000e-01	1.703082e+04	
11	5.500000e-01	1.934918e+04	
12	6.000000e-01	2.232944e+04	
13	6.500000e-01	2.630126e+04	
14	7.000000e-01	3.185104e+04	
15	7.500000e-01	4.009755e+04	
16	8.000000e-01	5.323372e+04	
17	8.500000e-01	7.497760e+04	
18	9.000000e-01	1.089274e+05	
19	9.500000e-01	1.548256e+05	
20	1.000000e+00	2.088573e+05	
21	1.050000e+00	2.671163e+05	
22	1.100000e+00	3.270370e+05	
23	1.150000e+00	3.871658e+05	
24	1.200000e+00	4.467104e+05	
25	1.250000e+00	5.052422e+05	
26	1.300000e+00	5.625322e+05	
27	1.350000e+00	6.184640e+05	
28	1.400000e+00	6.729859e+05	
29	1.450000e+00	7.260845e+05	
30	1.500000e+00	7.777698e+05	
31	1.550000e+00	8.280655e+05	
32	1.600000e+00	8.770039e+05	
33	1.650000e+00	9.246221e+05	
34	1.700000e+00	9.709599e+05	
35	1.750000e+00	1.016058e+06	
36	1.800000e+00	1.059959e+06	
37	1.850000e+00	1.102702e+06	
38	1.900000e+00	1.144328e+06	
39	1.950000e+00	1.184876e+06	
40	2.000000e+00	1.224385e+06	
41	2.050000e+00	1.262890e+06	
42	2.100000e+00	1.300428e+06	
43	2.150000e+00	1.337031e+06	
44	2.200000e+00	1.372732e+06	
45	2.250000e+00	1.407563e+06	
46	2.300000e+00	1.441551e+06	
47	2.350000e+00	1.474723e+06	
48	2.400000e+00	1.507103e+06	
49	2.450000e+00	1.538709e+06	
50	2.500000e+00	1.569556e+06	
51	2.550000e+00	1.599648e+06	
52	2.600000e+00	1.628981e+06	
53	2.650000e+00	1.657536e+06	
54	2.700000e+00	1.685277e+06	

Index   v-sweep         rds             
--------------------------------------------------------------------------------
55	2.750000e+00	1.712142e+06	
56	2.800000e+00	1.738040e+06	
57	2.850000e+00	1.762844e+06	
58	2.900000e+00	1.786381e+06	
59	2.950000e+00	1.808428e+06	
60	3.000000e+00	1.828699e+06	
61	3.050000e+00	1.846846e+06	
62	3.100000e+00	1.862446e+06	
63	3.150000e+00	1.875005e+06	
64	3.200000e+00	1.883961e+06	
65	3.250000e+00	1.888692e+06	
66	3.300000e+00	1.888531e+06	
Reset re-loads circuit ***************************

Circuit: ***************************

Doing analysis at TEMP = 25.000000 and TNOM = 25.000000


No. of Data Rows : 67
                          ***************************
                          DC transfer characteristic  Mon Jan  9 13:57:19  2023
--------------------------------------------------------------------------------
Index   v-sweep         rds             
--------------------------------------------------------------------------------
0	0.000000e+00	5.481881e+03	
1	5.000000e-02	5.748162e+03	
2	1.000000e-01	6.035704e+03	
3	1.500000e-01	6.347140e+03	
4	2.000000e-01	6.685556e+03	
5	2.500000e-01	7.054593e+03	
6	3.000000e-01	7.458583e+03	
7	3.500000e-01	7.902712e+03	
8	4.000000e-01	8.393250e+03	
9	4.500000e-01	8.937846e+03	
10	5.000000e-01	9.545936e+03	
11	5.500000e-01	1.022929e+04	
12	6.000000e-01	1.100281e+04	
13	6.500000e-01	1.188562e+04	
14	7.000000e-01	1.290274e+04	
15	7.500000e-01	1.408757e+04	
16	8.000000e-01	1.548583e+04	
17	8.500000e-01	1.716205e+04	
18	9.000000e-01	1.921095e+04	
19	9.500000e-01	2.177842e+04	
20	1.000000e+00	2.510340e+04	
21	1.050000e+00	2.960417e+04	
22	1.100000e+00	3.604478e+04	
23	1.150000e+00	4.574275e+04	
24	1.200000e+00	6.041117e+04	
25	1.250000e+00	8.110877e+04	
26	1.300000e+00	1.073174e+05	
27	1.350000e+00	1.375074e+05	
28	1.400000e+00	1.701523e+05	
29	1.450000e+00	2.041349e+05	
30	1.500000e+00	2.387265e+05	
31	1.550000e+00	2.734683e+05	
32	1.600000e+00	3.080727e+05	
33	1.650000e+00	3.423584e+05	
34	1.700000e+00	3.762107e+05	
35	1.750000e+00	4.095574e+05	
36	1.800000e+00	4.423539e+05	
37	1.850000e+00	4.745741e+05	
38	1.900000e+00	5.062038e+05	
39	1.950000e+00	5.372378e+05	
40	2.000000e+00	5.676763e+05	
41	2.050000e+00	5.975238e+05	
42	2.100000e+00	6.267874e+05	
43	2.150000e+00	6.554764e+05	
44	2.200000e+00	6.836014e+05	
45	2.250000e+00	7.111737e+05	
46	2.300000e+00	7.382054e+05	
47	2.350000e+00	7.647088e+05	
48	2.400000e+00	7.906963e+05	
49	2.450000e+00	8.161804e+05	
50	2.500000e+00	8.411733e+05	
51	2.550000e+00	8.656872e+05	
52	2.600000e+00	8.897333e+05	
53	2.650000e+00	9.133222e+05	
54	2.700000e+00	9.364632e+05	

Index   v-sweep         rds             
--------------------------------------------------------------------------------
55	2.750000e+00	9.591635e+05	
56	2.800000e+00	9.814271e+05	
57	2.850000e+00	1.003254e+06	
58	2.900000e+00	1.024636e+06	
59	2.950000e+00	1.045560e+06	
60	3.000000e+00	1.065996e+06	
61	3.050000e+00	1.085902e+06	
62	3.100000e+00	1.105213e+06	
63	3.150000e+00	1.123839e+06	
64	3.200000e+00	1.141659e+06	
65	3.250000e+00	1.158512e+06	
66	3.300000e+00	1.174196e+06	
Reset re-loads circuit ***************************

Circuit: ***************************

Doing analysis at TEMP = 25.000000 and TNOM = 25.000000


No. of Data Rows : 67
                          ***************************
                          DC transfer characteristic  Mon Jan  9 13:57:19  2023
--------------------------------------------------------------------------------
Index   v-sweep         rds             
--------------------------------------------------------------------------------
0	0.000000e+00	4.596458e+03	
1	5.000000e-02	4.773106e+03	
2	1.000000e-01	4.960376e+03	
3	1.500000e-01	5.159244e+03	
4	2.000000e-01	5.370811e+03	
5	2.500000e-01	5.596321e+03	
6	3.000000e-01	5.837189e+03	
7	3.500000e-01	6.095026e+03	
8	4.000000e-01	6.371677e+03	
9	4.500000e-01	6.669267e+03	
10	5.000000e-01	6.990253e+03	
11	5.500000e-01	7.337492e+03	
12	6.000000e-01	7.714331e+03	
13	6.500000e-01	8.124711e+03	
14	7.000000e-01	8.573313e+03	
15	7.500000e-01	9.065733e+03	
16	8.000000e-01	9.608734e+03	
17	8.500000e-01	1.021056e+04	
18	9.000000e-01	1.088138e+04	
19	9.500000e-01	1.163391e+04	
20	1.000000e+00	1.248432e+04	
21	1.050000e+00	1.345354e+04	
22	1.100000e+00	1.456930e+04	
23	1.150000e+00	1.586953e+04	
24	1.200000e+00	1.740813e+04	
25	1.250000e+00	1.926566e+04	
26	1.300000e+00	2.157020e+04	
27	1.350000e+00	2.453904e+04	
28	1.400000e+00	2.855627e+04	
29	1.450000e+00	3.427728e+04	
30	1.500000e+00	4.262837e+04	
31	1.550000e+00	5.444860e+04	
32	1.600000e+00	6.992761e+04	
33	1.650000e+00	8.852155e+04	
34	1.700000e+00	1.093828e+05	
35	1.750000e+00	1.317348e+05	
36	1.800000e+00	1.549949e+05	
37	1.850000e+00	1.787589e+05	
38	1.900000e+00	2.027539e+05	
39	1.950000e+00	2.267963e+05	
40	2.000000e+00	2.507619e+05	
41	2.050000e+00	2.745659e+05	
42	2.100000e+00	2.981501e+05	
43	2.150000e+00	3.214749e+05	
44	2.200000e+00	3.445130e+05	
45	2.250000e+00	3.672461e+05	
46	2.300000e+00	3.896624e+05	
47	2.350000e+00	4.117547e+05	
48	2.400000e+00	4.335193e+05	
49	2.450000e+00	4.549547e+05	
50	2.500000e+00	4.760615e+05	
51	2.550000e+00	4.968418e+05	
52	2.600000e+00	5.172984e+05	
53	2.650000e+00	5.374351e+05	
54	2.700000e+00	5.572562e+05	

Index   v-sweep         rds             
--------------------------------------------------------------------------------
55	2.750000e+00	5.767665e+05	
56	2.800000e+00	5.959709e+05	
57	2.850000e+00	6.148744e+05	
58	2.900000e+00	6.334820e+05	
59	2.950000e+00	6.517983e+05	
60	3.000000e+00	6.698272e+05	
61	3.050000e+00	6.875717e+05	
62	3.100000e+00	7.050324e+05	
63	3.150000e+00	7.222072e+05	
64	3.200000e+00	7.390897e+05	
65	3.250000e+00	7.556669e+05	
66	3.300000e+00	7.719174e+05	
Reset re-loads circuit ***************************

Circuit: ***************************

Doing analysis at TEMP = 25.000000 and TNOM = 25.000000


No. of Data Rows : 67
                          ***************************
                          DC transfer characteristic  Mon Jan  9 13:57:19  2023
--------------------------------------------------------------------------------
Index   v-sweep         rds             
--------------------------------------------------------------------------------
0	0.000000e+00	4.094508e+03	
1	5.000000e-02	4.224891e+03	
2	1.000000e-01	4.361533e+03	
3	1.500000e-01	4.504887e+03	
4	2.000000e-01	4.655455e+03	
5	2.500000e-01	4.813788e+03	
6	3.000000e-01	4.980496e+03	
7	3.500000e-01	5.156254e+03	
8	4.000000e-01	5.341811e+03	
9	4.500000e-01	5.538004e+03	
10	5.000000e-01	5.745766e+03	
11	5.500000e-01	5.966141e+03	
12	6.000000e-01	6.200308e+03	
13	6.500000e-01	6.449594e+03	
14	7.000000e-01	6.715504e+03	
15	7.500000e-01	6.999751e+03	
16	8.000000e-01	7.304291e+03	
17	8.500000e-01	7.631374e+03	
18	9.000000e-01	7.983595e+03	
19	9.500000e-01	8.363969e+03	
20	1.000000e+00	8.776022e+03	
21	1.050000e+00	9.223901e+03	
22	1.100000e+00	9.712530e+03	
23	1.150000e+00	1.024781e+04	
24	1.200000e+00	1.083687e+04	
25	1.250000e+00	1.148847e+04	
26	1.300000e+00	1.221350e+04	
27	1.350000e+00	1.302580e+04	
28	1.400000e+00	1.394337e+04	
29	1.450000e+00	1.499039e+04	
30	1.500000e+00	1.620067e+04	
31	1.550000e+00	1.762408e+04	
32	1.600000e+00	1.933856e+04	
33	1.650000e+00	2.147349e+04	
34	1.700000e+00	2.425142e+04	
35	1.750000e+00	2.804689e+04	
36	1.800000e+00	3.341333e+04	
37	1.850000e+00	4.095767e+04	
38	1.900000e+00	5.103598e+04	
39	1.950000e+00	6.354824e+04	
40	2.000000e+00	7.805455e+04	
41	2.050000e+00	9.402534e+04	
42	2.100000e+00	1.109983e+05	
43	2.150000e+00	1.286213e+05	
44	2.200000e+00	1.466409e+05	
45	2.250000e+00	1.648787e+05	
46	2.300000e+00	1.832093e+05	
47	2.350000e+00	2.015440e+05	
48	2.400000e+00	2.198197e+05	
49	2.450000e+00	2.379913e+05	
50	2.500000e+00	2.560261e+05	
51	2.550000e+00	2.739007e+05	
52	2.600000e+00	2.915982e+05	
53	2.650000e+00	3.091063e+05	
54	2.700000e+00	3.264166e+05	

Index   v-sweep         rds             
--------------------------------------------------------------------------------
55	2.750000e+00	3.435233e+05	
56	2.800000e+00	3.604227e+05	
57	2.850000e+00	3.771124e+05	
58	2.900000e+00	3.935916e+05	
59	2.950000e+00	4.098602e+05	
60	3.000000e+00	4.259189e+05	
61	3.050000e+00	4.417689e+05	
62	3.100000e+00	4.574118e+05	
63	3.150000e+00	4.728496e+05	
64	3.200000e+00	4.880842e+05	
65	3.250000e+00	5.031177e+05	
66	3.300000e+00	5.179516e+05	
Reset re-loads circuit ***************************

Circuit: ***************************

Note: No ".plot", ".print", or ".fourier" lines; no simulations run
