
Note: Compatibility modes selected: hs

Warning: m=xx on .subckt line will override multiplier m hierarchy!


Circuit: ***************************

Doing analysis at TEMP = 25.000000 and TNOM = 25.000000


No. of Data Rows : 67
                          ***************************
                          DC transfer characteristic  Mon Jan  9 13:57:19  2023
--------------------------------------------------------------------------------
Index   v-sweep         rds             
--------------------------------------------------------------------------------
0	0.000000e+00	2.274446e+05	
1	5.000000e-02	3.551207e+05	
2	1.000000e-01	7.811472e+05	
3	1.500000e-01	4.795958e+06	
4	2.000000e-01	3.357875e+07	
5	2.500000e-01	8.153030e+07	
6	3.000000e-01	1.208456e+08	
7	3.500000e-01	1.488202e+08	
8	4.000000e-01	1.691774e+08	
9	4.500000e-01	1.846665e+08	
10	5.000000e-01	1.969124e+08	
11	5.500000e-01	2.068862e+08	
12	6.000000e-01	2.151975e+08	
13	6.500000e-01	2.222489e+08	
14	7.000000e-01	2.283184e+08	
15	7.500000e-01	2.336051e+08	
16	8.000000e-01	2.382558e+08	
17	8.500000e-01	2.423819e+08	
18	9.000000e-01	2.460694e+08	
19	9.500000e-01	2.493862e+08	
20	1.000000e+00	2.523862e+08	
21	1.050000e+00	2.551136e+08	
22	1.100000e+00	2.576043e+08	
23	1.150000e+00	2.598881e+08	
24	1.200000e+00	2.619900e+08	
25	1.250000e+00	2.639312e+08	
26	1.300000e+00	2.657294e+08	
27	1.350000e+00	2.673999e+08	
28	1.400000e+00	2.689560e+08	
29	1.450000e+00	2.704090e+08	
30	1.500000e+00	2.717689e+08	
31	1.550000e+00	2.730443e+08	
32	1.600000e+00	2.742428e+08	
33	1.650000e+00	2.753711e+08	
34	1.700000e+00	2.764349e+08	
35	1.750000e+00	2.774394e+08	
36	1.800000e+00	2.783888e+08	
37	1.850000e+00	2.792869e+08	
38	1.900000e+00	2.801367e+08	
39	1.950000e+00	2.809405e+08	
40	2.000000e+00	2.816998e+08	
41	2.050000e+00	2.824154e+08	
42	2.100000e+00	2.830872e+08	
43	2.150000e+00	2.837139e+08	
44	2.200000e+00	2.842933e+08	
45	2.250000e+00	2.848219e+08	
46	2.300000e+00	2.852949e+08	
47	2.350000e+00	2.857060e+08	
48	2.400000e+00	2.860472e+08	
49	2.450000e+00	2.863089e+08	
50	2.500000e+00	2.864798e+08	
51	2.550000e+00	2.865468e+08	
52	2.600000e+00	2.864947e+08	
53	2.650000e+00	2.863069e+08	
54	2.700000e+00	2.859648e+08	

Index   v-sweep         rds             
--------------------------------------------------------------------------------
55	2.750000e+00	2.854485e+08	
56	2.800000e+00	2.847365e+08	
57	2.850000e+00	2.838066e+08	
58	2.900000e+00	2.826359e+08	
59	2.950000e+00	2.812012e+08	
60	3.000000e+00	2.794801e+08	
61	3.050000e+00	2.774510e+08	
62	3.100000e+00	2.750940e+08	
63	3.150000e+00	2.723918e+08	
64	3.200000e+00	2.693303e+08	
65	3.250000e+00	2.658990e+08	
66	3.300000e+00	2.620923e+08	
Reset re-loads circuit ***************************

Circuit: ***************************

Doing analysis at TEMP = 25.000000 and TNOM = 25.000000


No. of Data Rows : 67
                          ***************************
                          DC transfer characteristic  Mon Jan  9 13:57:19  2023
--------------------------------------------------------------------------------
Index   v-sweep         rds             
--------------------------------------------------------------------------------
0	0.000000e+00	5.486409e+04	
1	5.000000e-02	6.112887e+04	
2	1.000000e-01	6.896669e+04	
3	1.500000e-01	7.905427e+04	
4	2.000000e-01	9.252034e+04	
5	2.500000e-01	1.113961e+05	
6	3.000000e-01	1.397299e+05	
7	3.500000e-01	1.868336e+05	
8	4.000000e-01	2.790734e+05	
9	4.500000e-01	5.153373e+05	
10	5.000000e-01	1.323187e+06	
11	5.500000e-01	3.632944e+06	
12	6.000000e-01	7.337018e+06	
13	6.500000e-01	1.133964e+07	
14	7.000000e-01	1.506699e+07	
15	7.500000e-01	1.840254e+07	
16	8.000000e-01	2.137202e+07	
17	8.500000e-01	2.402713e+07	
18	9.000000e-01	2.641633e+07	
19	9.500000e-01	2.857984e+07	
20	1.000000e+00	3.055013e+07	
21	1.050000e+00	3.235350e+07	
22	1.100000e+00	3.401139e+07	
23	1.150000e+00	3.554153e+07	
24	1.200000e+00	3.695873e+07	
25	1.250000e+00	3.827547e+07	
26	1.300000e+00	3.950238e+07	
27	1.350000e+00	4.064858e+07	
28	1.400000e+00	4.172196e+07	
29	1.450000e+00	4.272937e+07	
30	1.500000e+00	4.367681e+07	
31	1.550000e+00	4.456956e+07	
32	1.600000e+00	4.541228e+07	
33	1.650000e+00	4.620911e+07	
34	1.700000e+00	4.696373e+07	
35	1.750000e+00	4.767943e+07	
36	1.800000e+00	4.835917e+07	
37	1.850000e+00	4.900560e+07	
38	1.900000e+00	4.962111e+07	
39	1.950000e+00	5.020784e+07	
40	2.000000e+00	5.076774e+07	
41	2.050000e+00	5.130251e+07	
42	2.100000e+00	5.181367e+07	
43	2.150000e+00	5.230254e+07	
44	2.200000e+00	5.277019e+07	
45	2.250000e+00	5.321745e+07	
46	2.300000e+00	5.364489e+07	
47	2.350000e+00	5.405273e+07	
48	2.400000e+00	5.444084e+07	
49	2.450000e+00	5.480862e+07	
50	2.500000e+00	5.515498e+07	
51	2.550000e+00	5.547825e+07	
52	2.600000e+00	5.577607e+07	
53	2.650000e+00	5.604537e+07	
54	2.700000e+00	5.628224e+07	

Index   v-sweep         rds             
--------------------------------------------------------------------------------
55	2.750000e+00	5.648191e+07	
56	2.800000e+00	5.663870e+07	
57	2.850000e+00	5.674599e+07	
58	2.900000e+00	5.679627e+07	
59	2.950000e+00	5.678120e+07	
60	3.000000e+00	5.669173e+07	
61	3.050000e+00	5.651832e+07	
62	3.100000e+00	5.625119e+07	
63	3.150000e+00	5.588066e+07	
64	3.200000e+00	5.539757e+07	
65	3.250000e+00	5.479373e+07	
66	3.300000e+00	5.406245e+07	
Reset re-loads circuit ***************************

Circuit: ***************************

Doing analysis at TEMP = 25.000000 and TNOM = 25.000000


No. of Data Rows : 67
                          ***************************
                          DC transfer characteristic  Mon Jan  9 13:57:19  2023
--------------------------------------------------------------------------------
Index   v-sweep         rds             
--------------------------------------------------------------------------------
0	0.000000e+00	3.251090e+04	
1	5.000000e-02	3.452094e+04	
2	1.000000e-01	3.678515e+04	
3	1.500000e-01	3.935497e+04	
4	2.000000e-01	4.229673e+04	
5	2.500000e-01	4.569743e+04	
6	3.000000e-01	4.967350e+04	
7	3.500000e-01	5.438432e+04	
8	4.000000e-01	6.005409e+04	
9	4.500000e-01	6.700835e+04	
10	5.000000e-01	7.573834e+04	
11	5.500000e-01	8.702118e+04	
12	6.000000e-01	1.021609e+05	
13	6.500000e-01	1.235176e+05	
14	7.000000e-01	1.558032e+05	
15	7.500000e-01	2.097027e+05	
16	8.000000e-01	3.133111e+05	
17	8.500000e-01	5.467492e+05	
18	9.000000e-01	1.084209e+06	
19	9.500000e-01	2.047596e+06	
20	1.000000e+00	3.303835e+06	
21	1.050000e+00	4.652997e+06	
22	1.100000e+00	5.983852e+06	
23	1.150000e+00	7.253994e+06	
24	1.200000e+00	8.451610e+06	
25	1.250000e+00	9.576515e+06	
26	1.300000e+00	1.063259e+07	
27	1.350000e+00	1.162489e+07	
28	1.400000e+00	1.255859e+07	
29	1.450000e+00	1.343856e+07	
30	1.500000e+00	1.426925e+07	
31	1.550000e+00	1.505469e+07	
32	1.600000e+00	1.579850e+07	
33	1.650000e+00	1.650392e+07	
34	1.700000e+00	1.717388e+07	
35	1.750000e+00	1.781101e+07	
36	1.800000e+00	1.841768e+07	
37	1.850000e+00	1.899604e+07	
38	1.900000e+00	1.954805e+07	
39	1.950000e+00	2.007547e+07	
40	2.000000e+00	2.057993e+07	
41	2.050000e+00	2.106289e+07	
42	2.100000e+00	2.152571e+07	
43	2.150000e+00	2.196962e+07	
44	2.200000e+00	2.239577e+07	
45	2.250000e+00	2.280519e+07	
46	2.300000e+00	2.319883e+07	
47	2.350000e+00	2.357758e+07	
48	2.400000e+00	2.394223e+07	
49	2.450000e+00	2.429346e+07	
50	2.500000e+00	2.463190e+07	
51	2.550000e+00	2.495805e+07	
52	2.600000e+00	2.527229e+07	
53	2.650000e+00	2.557484e+07	
54	2.700000e+00	2.586574e+07	

Index   v-sweep         rds             
--------------------------------------------------------------------------------
55	2.750000e+00	2.614481e+07	
56	2.800000e+00	2.641159e+07	
57	2.850000e+00	2.666531e+07	
58	2.900000e+00	2.690480e+07	
59	2.950000e+00	2.712844e+07	
60	3.000000e+00	2.733412e+07	
61	3.050000e+00	2.751913e+07	
62	3.100000e+00	2.768017e+07	
63	3.150000e+00	2.781327e+07	
64	3.200000e+00	2.791381e+07	
65	3.250000e+00	2.797653e+07	
66	3.300000e+00	2.799557e+07	
Reset re-loads circuit ***************************

Circuit: ***************************

Doing analysis at TEMP = 25.000000 and TNOM = 25.000000


No. of Data Rows : 67
                          ***************************
                          DC transfer characteristic  Mon Jan  9 13:57:19  2023
--------------------------------------------------------------------------------
Index   v-sweep         rds             
--------------------------------------------------------------------------------
0	0.000000e+00	2.424961e+04	
1	5.000000e-02	2.526170e+04	
2	1.000000e-01	2.635714e+04	
3	1.500000e-01	2.754669e+04	
4	2.000000e-01	2.884300e+04	
5	2.500000e-01	3.026110e+04	
6	3.000000e-01	3.181902e+04	
7	3.500000e-01	3.353849e+04	
8	4.000000e-01	3.544599e+04	
9	4.500000e-01	3.757416e+04	
10	5.000000e-01	3.996360e+04	
11	5.500000e-01	4.266557e+04	
12	6.000000e-01	4.574564e+04	
13	6.500000e-01	4.928909e+04	
14	7.000000e-01	5.340891e+04	
15	7.500000e-01	5.825805e+04	
16	8.000000e-01	6.404868e+04	
17	8.500000e-01	7.108396e+04	
18	9.000000e-01	7.981224e+04	
19	9.500000e-01	9.092516e+04	
20	1.000000e+00	1.055460e+05	
21	1.050000e+00	1.256191e+05	
22	1.100000e+00	1.547859e+05	
23	1.150000e+00	2.005242e+05	
24	1.200000e+00	2.795614e+05	
25	1.250000e+00	4.291779e+05	
26	1.300000e+00	7.117542e+05	
27	1.350000e+00	1.167935e+06	
28	1.400000e+00	1.763664e+06	
29	1.450000e+00	2.431543e+06	
30	1.500000e+00	3.121515e+06	
31	1.550000e+00	3.806627e+06	
32	1.600000e+00	4.474116e+06	
33	1.650000e+00	5.118451e+06	
34	1.700000e+00	5.737635e+06	
35	1.750000e+00	6.331385e+06	
36	1.800000e+00	6.900257e+06	
37	1.850000e+00	7.445199e+06	
38	1.900000e+00	7.967331e+06	
39	1.950000e+00	8.467825e+06	
40	2.000000e+00	8.947850e+06	
41	2.050000e+00	9.408534e+06	
42	2.100000e+00	9.850953e+06	
43	2.150000e+00	1.027612e+07	
44	2.200000e+00	1.068499e+07	
45	2.250000e+00	1.107846e+07	
46	2.300000e+00	1.145736e+07	
47	2.350000e+00	1.182247e+07	
48	2.400000e+00	1.217452e+07	
49	2.450000e+00	1.251419e+07	
50	2.500000e+00	1.284211e+07	
51	2.550000e+00	1.315887e+07	
52	2.600000e+00	1.346503e+07	
53	2.650000e+00	1.376110e+07	
54	2.700000e+00	1.404756e+07	

Index   v-sweep         rds             
--------------------------------------------------------------------------------
55	2.750000e+00	1.432486e+07	
56	2.800000e+00	1.459338e+07	
57	2.850000e+00	1.485350e+07	
58	2.900000e+00	1.510550e+07	
59	2.950000e+00	1.534964e+07	
60	3.000000e+00	1.558606e+07	
61	3.050000e+00	1.581483e+07	
62	3.100000e+00	1.603585e+07	
63	3.150000e+00	1.624890e+07	
64	3.200000e+00	1.645351e+07	
65	3.250000e+00	1.664901e+07	
66	3.300000e+00	1.683438e+07	
Reset re-loads circuit ***************************

Circuit: ***************************

Doing analysis at TEMP = 25.000000 and TNOM = 25.000000


No. of Data Rows : 67
                          ***************************
                          DC transfer characteristic  Mon Jan  9 13:57:19  2023
--------------------------------------------------------------------------------
Index   v-sweep         rds             
--------------------------------------------------------------------------------
0	0.000000e+00	2.018516e+04	
1	5.000000e-02	2.081172e+04	
2	1.000000e-01	2.147574e+04	
3	1.500000e-01	2.218067e+04	
4	2.000000e-01	2.293041e+04	
5	2.500000e-01	2.372938e+04	
6	3.000000e-01	2.458259e+04	
7	3.500000e-01	2.549575e+04	
8	4.000000e-01	2.647541e+04	
9	4.500000e-01	2.752909e+04	
10	5.000000e-01	2.866552e+04	
11	5.500000e-01	2.989485e+04	
12	6.000000e-01	3.122894e+04	
13	6.500000e-01	3.268177e+04	
14	7.000000e-01	3.426993e+04	
15	7.500000e-01	3.601325e+04	
16	8.000000e-01	3.793563e+04	
17	8.500000e-01	4.006613e+04	
18	9.000000e-01	4.244048e+04	
19	9.500000e-01	4.510307e+04	
20	1.000000e+00	4.810976e+04	
21	1.050000e+00	5.153184e+04	
22	1.100000e+00	5.546172e+04	
23	1.150000e+00	6.002143e+04	
24	1.200000e+00	6.537542e+04	
25	1.250000e+00	7.175081e+04	
26	1.300000e+00	7.947011e+04	
27	1.350000e+00	8.900704e+04	
28	1.400000e+00	1.010857e+05	
29	1.450000e+00	1.168678e+05	
30	1.500000e+00	1.383279e+05	
31	1.550000e+00	1.690518e+05	
32	1.600000e+00	2.159821e+05	
33	1.650000e+00	2.928707e+05	
34	1.700000e+00	4.239576e+05	
35	1.750000e+00	6.371178e+05	
36	1.800000e+00	9.400488e+05	
37	1.850000e+00	1.312006e+06	
38	1.900000e+00	1.723693e+06	
39	1.950000e+00	2.152635e+06	
40	2.000000e+00	2.585049e+06	
41	2.050000e+00	3.013184e+06	
42	2.100000e+00	3.432838e+06	
43	2.150000e+00	3.841820e+06	
44	2.200000e+00	4.239073e+06	
45	2.250000e+00	4.624185e+06	
46	2.300000e+00	4.997119e+06	
47	2.350000e+00	5.358055e+06	
48	2.400000e+00	5.707295e+06	
49	2.450000e+00	6.045213e+06	
50	2.500000e+00	6.372216e+06	
51	2.550000e+00	6.688728e+06	
52	2.600000e+00	6.995173e+06	
53	2.650000e+00	7.291968e+06	
54	2.700000e+00	7.579520e+06	

Index   v-sweep         rds             
--------------------------------------------------------------------------------
55	2.750000e+00	7.858222e+06	
56	2.800000e+00	8.128450e+06	
57	2.850000e+00	8.390565e+06	
58	2.900000e+00	8.644909e+06	
59	2.950000e+00	8.891810e+06	
60	3.000000e+00	9.131577e+06	
61	3.050000e+00	9.364504e+06	
62	3.100000e+00	9.590868e+06	
63	3.150000e+00	9.810928e+06	
64	3.200000e+00	1.002492e+07	
65	3.250000e+00	1.023306e+07	
66	3.300000e+00	1.043554e+07	
Reset re-loads circuit ***************************

Circuit: ***************************

Doing analysis at TEMP = 25.000000 and TNOM = 25.000000


No. of Data Rows : 67
                          ***************************
                          DC transfer characteristic  Mon Jan  9 13:57:19  2023
--------------------------------------------------------------------------------
Index   v-sweep         rds             
--------------------------------------------------------------------------------
0	0.000000e+00	1.792603e+04	
1	5.000000e-02	1.836262e+04	
2	1.000000e-01	1.881930e+04	
3	1.500000e-01	1.929749e+04	
4	2.000000e-01	1.979875e+04	
5	2.500000e-01	2.032479e+04	
6	3.000000e-01	2.087748e+04	
7	3.500000e-01	2.145892e+04	
8	4.000000e-01	2.207139e+04	
9	4.500000e-01	2.271745e+04	
10	5.000000e-01	2.339994e+04	
11	5.500000e-01	2.412202e+04	
12	6.000000e-01	2.488725e+04	
13	6.500000e-01	2.569960e+04	
14	7.000000e-01	2.656358e+04	
15	7.500000e-01	2.748425e+04	
16	8.000000e-01	2.846739e+04	
17	8.500000e-01	2.951957e+04	
18	9.000000e-01	3.064833e+04	
19	9.500000e-01	3.186234e+04	
20	1.000000e+00	3.317164e+04	
21	1.050000e+00	3.458790e+04	
22	1.100000e+00	3.612479e+04	
23	1.150000e+00	3.779839e+04	
24	1.200000e+00	3.962779e+04	
25	1.250000e+00	4.163581e+04	
26	1.300000e+00	4.384996e+04	
27	1.350000e+00	4.630367e+04	
28	1.400000e+00	4.903807e+04	
29	1.450000e+00	5.210422e+04	
30	1.500000e+00	5.556642e+04	
31	1.550000e+00	5.950671e+04	
32	1.600000e+00	6.403148e+04	
33	1.650000e+00	6.928126e+04	
34	1.700000e+00	7.544555e+04	
35	1.750000e+00	8.278621e+04	
36	1.800000e+00	9.167554e+04	
37	1.850000e+00	1.026611e+05	
38	1.900000e+00	1.165810e+05	
39	1.950000e+00	1.347799e+05	
40	2.000000e+00	1.595315e+05	
41	2.050000e+00	1.948754e+05	
42	2.100000e+00	2.481240e+05	
43	2.150000e+00	3.315388e+05	
44	2.200000e+00	4.606142e+05	
45	2.250000e+00	6.447827e+05	
46	2.300000e+00	8.791965e+05	
47	2.350000e+00	1.149413e+06	
48	2.400000e+00	1.440705e+06	
49	2.450000e+00	1.742192e+06	
50	2.500000e+00	2.046828e+06	
51	2.550000e+00	2.350281e+06	
52	2.600000e+00	2.649939e+06	
53	2.650000e+00	2.944256e+06	
54	2.700000e+00	3.232337e+06	

Index   v-sweep         rds             
--------------------------------------------------------------------------------
55	2.750000e+00	3.513692e+06	
56	2.800000e+00	3.788091e+06	
57	2.850000e+00	4.055464e+06	
58	2.900000e+00	4.315847e+06	
59	2.950000e+00	4.569343e+06	
60	3.000000e+00	4.816097e+06	
61	3.050000e+00	5.056280e+06	
62	3.100000e+00	5.290081e+06	
63	3.150000e+00	5.517695e+06	
64	3.200000e+00	5.739322e+06	
65	3.250000e+00	5.955158e+06	
66	3.300000e+00	6.165402e+06	
Reset re-loads circuit ***************************

Circuit: ***************************

Note: No ".plot", ".print", or ".fourier" lines; no simulations run
