
Note: Compatibility modes selected: hs

Warning: m=xx on .subckt line will override multiplier m hierarchy!


Circuit: ***************************

Doing analysis at TEMP = -40.000000 and TNOM = -40.000000


No. of Data Rows : 67
                          ***************************
                          DC transfer characteristic  Mon Jan  9 13:57:20  2023
--------------------------------------------------------------------------------
Index   v-sweep         rds             
--------------------------------------------------------------------------------
0	0.000000e+00	2.330125e+04	
1	5.000000e-02	5.440020e+04	
2	1.000000e-01	5.344485e+05	
3	1.500000e-01	4.850451e+06	
4	2.000000e-01	1.118940e+07	
5	2.500000e-01	1.569605e+07	
6	3.000000e-01	1.859434e+07	
7	3.500000e-01	2.055329e+07	
8	4.000000e-01	2.196065e+07	
9	4.500000e-01	2.302300e+07	
10	5.000000e-01	2.385580e+07	
11	5.500000e-01	2.452789e+07	
12	6.000000e-01	2.508275e+07	
13	6.500000e-01	2.554926e+07	
14	7.000000e-01	2.594737e+07	
15	7.500000e-01	2.629137e+07	
16	8.000000e-01	2.659175e+07	
17	8.500000e-01	2.685643e+07	
18	9.000000e-01	2.709148e+07	
19	9.500000e-01	2.730168e+07	
20	1.000000e+00	2.749078e+07	
21	1.050000e+00	2.766184e+07	
22	1.100000e+00	2.781734e+07	
23	1.150000e+00	2.795931e+07	
24	1.200000e+00	2.808946e+07	
25	1.250000e+00	2.820920e+07	
26	1.300000e+00	2.831974e+07	
27	1.350000e+00	2.842209e+07	
28	1.400000e+00	2.851714e+07	
29	1.450000e+00	2.860564e+07	
30	1.500000e+00	2.868823e+07	
31	1.550000e+00	2.876548e+07	
32	1.600000e+00	2.883789e+07	
33	1.650000e+00	2.890589e+07	
34	1.700000e+00	2.896983e+07	
35	1.750000e+00	2.903005e+07	
36	1.800000e+00	2.908680e+07	
37	1.850000e+00	2.914030e+07	
38	1.900000e+00	2.919072e+07	
39	1.950000e+00	2.923818e+07	
40	2.000000e+00	2.928272e+07	
41	2.050000e+00	2.932434e+07	
42	2.100000e+00	2.936297e+07	
43	2.150000e+00	2.939847e+07	
44	2.200000e+00	2.943059e+07	
45	2.250000e+00	2.945902e+07	
46	2.300000e+00	2.948333e+07	
47	2.350000e+00	2.950299e+07	
48	2.400000e+00	2.951736e+07	
49	2.450000e+00	2.952567e+07	
50	2.500000e+00	2.952704e+07	
51	2.550000e+00	2.952046e+07	
52	2.600000e+00	2.950477e+07	
53	2.650000e+00	2.947871e+07	
54	2.700000e+00	2.944090e+07	

Index   v-sweep         rds             
--------------------------------------------------------------------------------
55	2.750000e+00	2.938983e+07	
56	2.800000e+00	2.932393e+07	
57	2.850000e+00	2.924152e+07	
58	2.900000e+00	2.914088e+07	
59	2.950000e+00	2.902027e+07	
60	3.000000e+00	2.887794e+07	
61	3.050000e+00	2.871221e+07	
62	3.100000e+00	2.852144e+07	
63	3.150000e+00	2.830416e+07	
64	3.200000e+00	2.805904e+07	
65	3.250000e+00	2.778497e+07	
66	3.300000e+00	2.748109e+07	
Reset re-loads circuit ***************************

Circuit: ***************************

Doing analysis at TEMP = -40.000000 and TNOM = -40.000000


No. of Data Rows : 67
                          ***************************
                          DC transfer characteristic  Mon Jan  9 13:57:20  2023
--------------------------------------------------------------------------------
Index   v-sweep         rds             
--------------------------------------------------------------------------------
0	0.000000e+00	3.562217e+03	
1	5.000000e-02	4.031193e+03	
2	1.000000e-01	4.637143e+03	
3	1.500000e-01	5.450227e+03	
4	2.000000e-01	6.598169e+03	
5	2.500000e-01	8.339857e+03	
6	3.000000e-01	1.128677e+04	
7	3.500000e-01	1.725185e+04	
8	4.000000e-01	3.358613e+04	
9	4.500000e-01	9.372052e+04	
10	5.000000e-01	2.618398e+05	
11	5.500000e-01	5.209313e+05	
12	6.000000e-01	8.005548e+05	
13	6.500000e-01	1.063849e+06	
14	7.000000e-01	1.301068e+06	
15	7.500000e-01	1.512344e+06	
16	8.000000e-01	1.700475e+06	
17	8.500000e-01	1.868614e+06	
18	9.000000e-01	2.019617e+06	
19	9.500000e-01	2.155917e+06	
20	1.000000e+00	2.279542e+06	
21	1.050000e+00	2.392181e+06	
22	1.100000e+00	2.495239e+06	
23	1.150000e+00	2.589894e+06	
24	1.200000e+00	2.677138e+06	
25	1.250000e+00	2.757815e+06	
26	1.300000e+00	2.832642e+06	
27	1.350000e+00	2.902237e+06	
28	1.400000e+00	2.967131e+06	
29	1.450000e+00	3.027789e+06	
30	1.500000e+00	3.084612e+06	
31	1.550000e+00	3.137955e+06	
32	1.600000e+00	3.188128e+06	
33	1.650000e+00	3.235407e+06	
34	1.700000e+00	3.280036e+06	
35	1.750000e+00	3.322230e+06	
36	1.800000e+00	3.362185e+06	
37	1.850000e+00	3.400072e+06	
38	1.900000e+00	3.436046e+06	
39	1.950000e+00	3.470246e+06	
40	2.000000e+00	3.502793e+06	
41	2.050000e+00	3.533794e+06	
42	2.100000e+00	3.563342e+06	
43	2.150000e+00	3.591513e+06	
44	2.200000e+00	3.618365e+06	
45	2.250000e+00	3.643940e+06	
46	2.300000e+00	3.668255e+06	
47	2.350000e+00	3.691305e+06	
48	2.400000e+00	3.713055e+06	
49	2.450000e+00	3.733436e+06	
50	2.500000e+00	3.752346e+06	
51	2.550000e+00	3.769635e+06	
52	2.600000e+00	3.785112e+06	
53	2.650000e+00	3.798532e+06	
54	2.700000e+00	3.809595e+06	

Index   v-sweep         rds             
--------------------------------------------------------------------------------
55	2.750000e+00	3.817948e+06	
56	2.800000e+00	3.823178e+06	
57	2.850000e+00	3.824816e+06	
58	2.900000e+00	3.822344e+06	
59	2.950000e+00	3.815199e+06	
60	3.000000e+00	3.802786e+06	
61	3.050000e+00	3.784496e+06	
62	3.100000e+00	3.759722e+06	
63	3.150000e+00	3.727888e+06	
64	3.200000e+00	3.688472e+06	
65	3.250000e+00	3.641038e+06	
66	3.300000e+00	3.585267e+06	
Reset re-loads circuit ***************************

Circuit: ***************************

Doing analysis at TEMP = -40.000000 and TNOM = -40.000000


No. of Data Rows : 67
                          ***************************
                          DC transfer characteristic  Mon Jan  9 13:57:20  2023
--------------------------------------------------------------------------------
Index   v-sweep         rds             
--------------------------------------------------------------------------------
0	0.000000e+00	2.034967e+03	
1	5.000000e-02	2.172110e+03	
2	1.000000e-01	2.327922e+03	
3	1.500000e-01	2.506490e+03	
4	2.000000e-01	2.713190e+03	
5	2.500000e-01	2.955234e+03	
6	3.000000e-01	3.242529e+03	
7	3.500000e-01	3.589066e+03	
8	4.000000e-01	4.015257e+03	
9	4.500000e-01	4.552094e+03	
10	5.000000e-01	5.249000e+03	
11	5.500000e-01	6.189814e+03	
12	6.000000e-01	7.528639e+03	
13	6.500000e-01	9.580394e+03	
14	7.000000e-01	1.308491e+04	
15	7.500000e-01	2.007996e+04	
16	8.000000e-01	3.647384e+04	
17	8.500000e-01	7.375178e+04	
18	9.000000e-01	1.373725e+05	
19	9.500000e-01	2.187232e+05	
20	1.000000e+00	3.069382e+05	
21	1.050000e+00	3.954278e+05	
22	1.100000e+00	4.810553e+05	
23	1.150000e+00	5.625218e+05	
24	1.200000e+00	6.394124e+05	
25	1.250000e+00	7.117253e+05	
26	1.300000e+00	7.796461e+05	
27	1.350000e+00	8.434383e+05	
28	1.400000e+00	9.033905e+05	
29	1.450000e+00	9.597903e+05	
30	1.500000e+00	1.012912e+06	
31	1.550000e+00	1.063012e+06	
32	1.600000e+00	1.110325e+06	
33	1.650000e+00	1.155066e+06	
34	1.700000e+00	1.197433e+06	
35	1.750000e+00	1.237603e+06	
36	1.800000e+00	1.275738e+06	
37	1.850000e+00	1.311986e+06	
38	1.900000e+00	1.346482e+06	
39	1.950000e+00	1.379346e+06	
40	2.000000e+00	1.410691e+06	
41	2.050000e+00	1.440617e+06	
42	2.100000e+00	1.469219e+06	
43	2.150000e+00	1.496581e+06	
44	2.200000e+00	1.522780e+06	
45	2.250000e+00	1.547888e+06	
46	2.300000e+00	1.571969e+06	
47	2.350000e+00	1.595081e+06	
48	2.400000e+00	1.617275e+06	
49	2.450000e+00	1.638596e+06	
50	2.500000e+00	1.659081e+06	
51	2.550000e+00	1.678757e+06	
52	2.600000e+00	1.697641e+06	
53	2.650000e+00	1.715734e+06	
54	2.700000e+00	1.733027e+06	

Index   v-sweep         rds             
--------------------------------------------------------------------------------
55	2.750000e+00	1.749486e+06	
56	2.800000e+00	1.765060e+06	
57	2.850000e+00	1.779667e+06	
58	2.900000e+00	1.793199e+06	
59	2.950000e+00	1.805512e+06	
60	3.000000e+00	1.816426e+06	
61	3.050000e+00	1.825718e+06	
62	3.100000e+00	1.833127e+06	
63	3.150000e+00	1.838346e+06	
64	3.200000e+00	1.841031e+06	
65	3.250000e+00	1.840802e+06	
66	3.300000e+00	1.837253e+06	
Reset re-loads circuit ***************************

Circuit: ***************************

Doing analysis at TEMP = -40.000000 and TNOM = -40.000000


No. of Data Rows : 67
                          ***************************
                          DC transfer characteristic  Mon Jan  9 13:57:20  2023
--------------------------------------------------------------------------------
Index   v-sweep         rds             
--------------------------------------------------------------------------------
0	0.000000e+00	1.520848e+03	
1	5.000000e-02	1.588979e+03	
2	1.000000e-01	1.663007e+03	
3	1.500000e-01	1.743733e+03	
4	2.000000e-01	1.832106e+03	
5	2.500000e-01	1.929269e+03	
6	3.000000e-01	2.036599e+03	
7	3.500000e-01	2.155780e+03	
8	4.000000e-01	2.288888e+03	
9	4.500000e-01	2.438517e+03	
10	5.000000e-01	2.607942e+03	
11	5.500000e-01	2.801372e+03	
12	6.000000e-01	3.024296e+03	
13	6.500000e-01	3.284016e+03	
14	7.000000e-01	3.590464e+03	
15	7.500000e-01	3.957499e+03	
16	8.000000e-01	4.405070e+03	
17	8.500000e-01	4.962964e+03	
18	9.000000e-01	5.677727e+03	
19	9.500000e-01	6.626320e+03	
20	1.000000e+00	7.945454e+03	
21	1.050000e+00	9.900965e+03	
22	1.100000e+00	1.306732e+04	
23	1.150000e+00	1.879130e+04	
24	1.200000e+00	2.999430e+04	
25	1.250000e+00	5.064539e+04	
26	1.300000e+00	8.202378e+04	
27	1.350000e+00	1.214509e+05	
28	1.400000e+00	1.653118e+05	
29	1.450000e+00	2.109368e+05	
30	1.500000e+00	2.567048e+05	
31	1.550000e+00	3.017015e+05	
32	1.600000e+00	3.454339e+05	
33	1.650000e+00	3.876525e+05	
34	1.700000e+00	4.282483e+05	
35	1.750000e+00	4.671935e+05	
36	1.800000e+00	5.045079e+05	
37	1.850000e+00	5.402377e+05	
38	1.900000e+00	5.744441e+05	
39	1.950000e+00	6.071954e+05	
40	2.000000e+00	6.385629e+05	
41	2.050000e+00	6.686178e+05	
42	2.100000e+00	6.974297e+05	
43	2.150000e+00	7.250657e+05	
44	2.200000e+00	7.515898e+05	
45	2.250000e+00	7.770627e+05	
46	2.300000e+00	8.015415e+05	
47	2.350000e+00	8.250800e+05	
48	2.400000e+00	8.477286e+05	
49	2.450000e+00	8.695348e+05	
50	2.500000e+00	8.905428e+05	
51	2.550000e+00	9.107939e+05	
52	2.600000e+00	9.303266e+05	
53	2.650000e+00	9.491767e+05	
54	2.700000e+00	9.673769e+05	

Index   v-sweep         rds             
--------------------------------------------------------------------------------
55	2.750000e+00	9.849568e+05	
56	2.800000e+00	1.001942e+06	
57	2.850000e+00	1.018356e+06	
58	2.900000e+00	1.034213e+06	
59	2.950000e+00	1.049525e+06	
60	3.000000e+00	1.064293e+06	
61	3.050000e+00	1.078510e+06	
62	3.100000e+00	1.092154e+06	
63	3.150000e+00	1.105191e+06	
64	3.200000e+00	1.117566e+06	
65	3.250000e+00	1.129202e+06	
66	3.300000e+00	1.139999e+06	
Reset re-loads circuit ***************************

Circuit: ***************************

Doing analysis at TEMP = -40.000000 and TNOM = -40.000000


No. of Data Rows : 67
                          ***************************
                          DC transfer characteristic  Mon Jan  9 13:57:20  2023
--------------------------------------------------------------------------------
Index   v-sweep         rds             
--------------------------------------------------------------------------------
0	0.000000e+00	1.282929e+03	
1	5.000000e-02	1.325426e+03	
2	1.000000e-01	1.370563e+03	
3	1.500000e-01	1.418595e+03	
4	2.000000e-01	1.469808e+03	
5	2.500000e-01	1.524530e+03	
6	3.000000e-01	1.583133e+03	
7	3.500000e-01	1.646045e+03	
8	4.000000e-01	1.713759e+03	
9	4.500000e-01	1.786846e+03	
10	5.000000e-01	1.865972e+03	
11	5.500000e-01	1.951917e+03	
12	6.000000e-01	2.045603e+03	
13	6.500000e-01	2.148123e+03	
14	7.000000e-01	2.260789e+03	
15	7.500000e-01	2.385186e+03	
16	8.000000e-01	2.523246e+03	
17	8.500000e-01	2.677351e+03	
18	9.000000e-01	2.850473e+03	
19	9.500000e-01	3.046366e+03	
20	1.000000e+00	3.269842e+03	
21	1.050000e+00	3.527179e+03	
22	1.100000e+00	3.826720e+03	
23	1.150000e+00	4.179808e+03	
24	1.200000e+00	4.602272e+03	
25	1.250000e+00	5.116917e+03	
26	1.300000e+00	5.757872e+03	
27	1.350000e+00	6.578696e+03	
28	1.400000e+00	7.668563e+03	
29	1.450000e+00	9.187166e+03	
30	1.500000e+00	1.144491e+04	
31	1.550000e+00	1.508365e+04	
32	1.600000e+00	2.137314e+04	
33	1.650000e+00	3.218018e+04	
34	1.700000e+00	4.878684e+04	
35	1.750000e+00	7.074229e+04	
36	1.800000e+00	9.649491e+04	
37	1.850000e+00	1.244854e+05	
38	1.900000e+00	1.535616e+05	
39	1.950000e+00	1.829629e+05	
40	2.000000e+00	2.122095e+05	
41	2.050000e+00	2.410045e+05	
42	2.100000e+00	2.691686e+05	
43	2.150000e+00	2.965971e+05	
44	2.200000e+00	3.232333e+05	
45	2.250000e+00	3.490520e+05	
46	2.300000e+00	3.740478e+05	
47	2.350000e+00	3.982288e+05	
48	2.400000e+00	4.216112e+05	
49	2.450000e+00	4.442167e+05	
50	2.500000e+00	4.660703e+05	
51	2.550000e+00	4.871987e+05	
52	2.600000e+00	5.076294e+05	
53	2.650000e+00	5.273900e+05	
54	2.700000e+00	5.465079e+05	

Index   v-sweep         rds             
--------------------------------------------------------------------------------
55	2.750000e+00	5.650098e+05	
56	2.800000e+00	5.829217e+05	
57	2.850000e+00	6.002686e+05	
58	2.900000e+00	6.170744e+05	
59	2.950000e+00	6.333621e+05	
60	3.000000e+00	6.491534e+05	
61	3.050000e+00	6.644688e+05	
62	3.100000e+00	6.793274e+05	
63	3.150000e+00	6.937465e+05	
64	3.200000e+00	7.077414e+05	
65	3.250000e+00	7.213249e+05	
66	3.300000e+00	7.345061e+05	
Reset re-loads circuit ***************************

Circuit: ***************************

Doing analysis at TEMP = -40.000000 and TNOM = -40.000000


No. of Data Rows : 67
                          ***************************
                          DC transfer characteristic  Mon Jan  9 13:57:20  2023
--------------------------------------------------------------------------------
Index   v-sweep         rds             
--------------------------------------------------------------------------------
0	0.000000e+00	1.159241e+03	
1	5.000000e-02	1.189288e+03	
2	1.000000e-01	1.220764e+03	
3	1.500000e-01	1.253773e+03	
4	2.000000e-01	1.288430e+03	
5	2.500000e-01	1.324861e+03	
6	3.000000e-01	1.363206e+03	
7	3.500000e-01	1.403619e+03	
8	4.000000e-01	1.446272e+03	
9	4.500000e-01	1.491357e+03	
10	5.000000e-01	1.539087e+03	
11	5.500000e-01	1.589703e+03	
12	6.000000e-01	1.643473e+03	
13	6.500000e-01	1.700702e+03	
14	7.000000e-01	1.761735e+03	
15	7.500000e-01	1.826963e+03	
16	8.000000e-01	1.896834e+03	
17	8.500000e-01	1.971863e+03	
18	9.000000e-01	2.052641e+03	
19	9.500000e-01	2.139856e+03	
20	1.000000e+00	2.234310e+03	
21	1.050000e+00	2.336941e+03	
22	1.100000e+00	2.448862e+03	
23	1.150000e+00	2.571394e+03	
24	1.200000e+00	2.706121e+03	
25	1.250000e+00	2.854961e+03	
26	1.300000e+00	3.020258e+03	
27	1.350000e+00	3.204907e+03	
28	1.400000e+00	3.412527e+03	
29	1.450000e+00	3.647702e+03	
30	1.500000e+00	3.916336e+03	
31	1.550000e+00	4.226164e+03	
32	1.600000e+00	4.587533e+03	
33	1.650000e+00	5.014634e+03	
34	1.700000e+00	5.527510e+03	
35	1.750000e+00	6.155519e+03	
36	1.800000e+00	6.943637e+03	
37	1.850000e+00	7.964711e+03	
38	1.900000e+00	9.344777e+03	
39	1.950000e+00	1.131700e+04	
40	2.000000e+00	1.432774e+04	
41	2.050000e+00	1.917197e+04	
42	2.100000e+00	2.691544e+04	
43	2.150000e+00	3.830293e+04	
44	2.200000e+00	5.320353e+04	
45	2.250000e+00	7.083344e+04	
46	2.300000e+00	9.028872e+04	
47	2.350000e+00	1.108258e+05	
48	2.400000e+00	1.319080e+05	
49	2.450000e+00	1.531679e+05	
50	2.500000e+00	1.743590e+05	
51	2.550000e+00	1.953182e+05	
52	2.600000e+00	2.159384e+05	
53	2.650000e+00	2.361507e+05	
54	2.700000e+00	2.559124e+05	

Index   v-sweep         rds             
--------------------------------------------------------------------------------
55	2.750000e+00	2.751984e+05	
56	2.800000e+00	2.939963e+05	
57	2.850000e+00	3.123021e+05	
58	2.900000e+00	3.301181e+05	
59	2.950000e+00	3.474504e+05	
60	3.000000e+00	3.643083e+05	
61	3.050000e+00	3.807028e+05	
62	3.100000e+00	3.966463e+05	
63	3.150000e+00	4.121518e+05	
64	3.200000e+00	4.272329e+05	
65	3.250000e+00	4.419033e+05	
66	3.300000e+00	4.561764e+05	
Reset re-loads circuit ***************************

Circuit: ***************************

Note: No ".plot", ".print", or ".fourier" lines; no simulations run
