
Note: Compatibility modes selected: hs

Warning: m=xx on .subckt line will override multiplier m hierarchy!


Circuit: ***************************

Doing analysis at TEMP = 125.000000 and TNOM = 125.000000


No. of Data Rows : 67
                          ***************************
                          DC transfer characteristic  Mon Jan  9 13:57:20  2023
--------------------------------------------------------------------------------
Index   v-sweep         rds             
--------------------------------------------------------------------------------
0	0.000000e+00	1.979981e+04	
1	5.000000e-02	2.541448e+04	
2	1.000000e-01	3.539410e+04	
3	1.500000e-01	5.780196e+04	
4	2.000000e-01	1.400262e+05	
5	2.500000e-01	7.161335e+05	
6	3.000000e-01	2.964268e+06	
7	3.500000e-01	6.078199e+06	
8	4.000000e-01	8.734126e+06	
9	4.500000e-01	1.077122e+07	
10	5.000000e-01	1.235012e+07	
11	5.500000e-01	1.361185e+07	
12	6.000000e-01	1.464890e+07	
13	6.500000e-01	1.552068e+07	
14	7.000000e-01	1.626662e+07	
15	7.500000e-01	1.691391e+07	
16	8.000000e-01	1.748206e+07	
17	8.500000e-01	1.798547e+07	
18	9.000000e-01	1.843509e+07	
19	9.500000e-01	1.883944e+07	
20	1.000000e+00	1.920523e+07	
21	1.050000e+00	1.953790e+07	
22	1.100000e+00	1.984184e+07	
23	1.150000e+00	2.012070e+07	
24	1.200000e+00	2.037752e+07	
25	1.250000e+00	2.061485e+07	
26	1.300000e+00	2.083486e+07	
27	1.350000e+00	2.103939e+07	
28	1.400000e+00	2.123005e+07	
29	1.450000e+00	2.140821e+07	
30	1.500000e+00	2.157507e+07	
31	1.550000e+00	2.173167e+07	
32	1.600000e+00	2.187894e+07	
33	1.650000e+00	2.201769e+07	
34	1.700000e+00	2.214863e+07	
35	1.750000e+00	2.227238e+07	
36	1.800000e+00	2.238951e+07	
37	1.850000e+00	2.250048e+07	
38	1.900000e+00	2.260572e+07	
39	1.950000e+00	2.270555e+07	
40	2.000000e+00	2.280026e+07	
41	2.050000e+00	2.289003e+07	
42	2.100000e+00	2.297496e+07	
43	2.150000e+00	2.305506e+07	
44	2.200000e+00	2.313024e+07	
45	2.250000e+00	2.320027e+07	
46	2.300000e+00	2.326480e+07	
47	2.350000e+00	2.332332e+07	
48	2.400000e+00	2.337515e+07	
49	2.450000e+00	2.341943e+07	
50	2.500000e+00	2.345511e+07	
51	2.550000e+00	2.348093e+07	
52	2.600000e+00	2.349542e+07	
53	2.650000e+00	2.349689e+07	
54	2.700000e+00	2.348344e+07	

Index   v-sweep         rds             
--------------------------------------------------------------------------------
55	2.750000e+00	2.345300e+07	
56	2.800000e+00	2.340330e+07	
57	2.850000e+00	2.333195e+07	
58	2.900000e+00	2.323647e+07	
59	2.950000e+00	2.311433e+07	
60	3.000000e+00	2.296307e+07	
61	3.050000e+00	2.278030e+07	
62	3.100000e+00	2.256388e+07	
63	3.150000e+00	2.231195e+07	
64	3.200000e+00	2.202305e+07	
65	3.250000e+00	2.169619e+07	
66	3.300000e+00	2.133098e+07	
Reset re-loads circuit ***************************

Circuit: ***************************

Doing analysis at TEMP = 125.000000 and TNOM = 125.000000


No. of Data Rows : 67
                          ***************************
                          DC transfer characteristic  Mon Jan  9 13:57:20  2023
--------------------------------------------------------------------------------
Index   v-sweep         rds             
--------------------------------------------------------------------------------
0	0.000000e+00	6.924321e+03	
1	5.000000e-02	7.560775e+03	
2	1.000000e-01	8.323040e+03	
3	1.500000e-01	9.252484e+03	
4	2.000000e-01	1.041082e+04	
5	2.500000e-01	1.189431e+04	
6	3.000000e-01	1.386182e+04	
7	3.500000e-01	1.659504e+04	
8	4.000000e-01	2.064369e+04	
9	4.500000e-01	2.723096e+04	
10	5.000000e-01	3.962759e+04	
11	5.500000e-01	6.890127e+04	
12	6.000000e-01	1.574001e+05	
13	6.500000e-01	4.008254e+05	
14	7.000000e-01	8.115453e+05	
15	7.500000e-01	1.274406e+06	
16	8.000000e-01	1.712509e+06	
17	8.500000e-01	2.106526e+06	
18	9.000000e-01	2.458044e+06	
19	9.500000e-01	2.772956e+06	
20	1.000000e+00	3.056993e+06	
21	1.050000e+00	3.314900e+06	
22	1.100000e+00	3.550475e+06	
23	1.150000e+00	3.766760e+06	
24	1.200000e+00	3.966222e+06	
25	1.250000e+00	4.150887e+06	
26	1.300000e+00	4.322439e+06	
27	1.350000e+00	4.482300e+06	
28	1.400000e+00	4.631677e+06	
29	1.450000e+00	4.771606e+06	
30	1.500000e+00	4.902986e+06	
31	1.550000e+00	5.026598e+06	
32	1.600000e+00	5.143129e+06	
33	1.650000e+00	5.253182e+06	
34	1.700000e+00	5.357293e+06	
35	1.750000e+00	5.455937e+06	
36	1.800000e+00	5.549541e+06	
37	1.850000e+00	5.638485e+06	
38	1.900000e+00	5.723113e+06	
39	1.950000e+00	5.803734e+06	
40	2.000000e+00	5.880625e+06	
41	2.050000e+00	5.954038e+06	
42	2.100000e+00	6.024200e+06	
43	2.150000e+00	6.091312e+06	
44	2.200000e+00	6.155551e+06	
45	2.250000e+00	6.217070e+06	
46	2.300000e+00	6.275994e+06	
47	2.350000e+00	6.332417e+06	
48	2.400000e+00	6.386399e+06	
49	2.450000e+00	6.437958e+06	
50	2.500000e+00	6.487063e+06	
51	2.550000e+00	6.533624e+06	
52	2.600000e+00	6.577487e+06	
53	2.650000e+00	6.618418e+06	
54	2.700000e+00	6.656094e+06	

Index   v-sweep         rds             
--------------------------------------------------------------------------------
55	2.750000e+00	6.690096e+06	
56	2.800000e+00	6.719891e+06	
57	2.850000e+00	6.744831e+06	
58	2.900000e+00	6.764148e+06	
59	2.950000e+00	6.776945e+06	
60	3.000000e+00	6.782211e+06	
61	3.050000e+00	6.778823e+06	
62	3.100000e+00	6.765573e+06	
63	3.150000e+00	6.741193e+06	
64	3.200000e+00	6.704397e+06	
65	3.250000e+00	6.653933e+06	
66	3.300000e+00	6.588637e+06	
Reset re-loads circuit ***************************

Circuit: ***************************

Doing analysis at TEMP = 125.000000 and TNOM = 125.000000


No. of Data Rows : 67
                          ***************************
                          DC transfer characteristic  Mon Jan  9 13:57:20  2023
--------------------------------------------------------------------------------
Index   v-sweep         rds             
--------------------------------------------------------------------------------
0	0.000000e+00	4.400145e+03	
1	5.000000e-02	4.635592e+03	
2	1.000000e-01	4.896728e+03	
3	1.500000e-01	5.187999e+03	
4	2.000000e-01	5.514940e+03	
5	2.500000e-01	5.884528e+03	
6	3.000000e-01	6.305686e+03	
7	3.500000e-01	6.790011e+03	
8	4.000000e-01	7.352858e+03	
9	4.500000e-01	8.014988e+03	
10	5.000000e-01	8.805184e+03	
11	5.500000e-01	9.764512e+03	
12	6.000000e-01	1.095365e+04	
13	6.500000e-01	1.246607e+04	
14	7.000000e-01	1.445346e+04	
15	7.500000e-01	1.717855e+04	
16	8.000000e-01	2.113577e+04	
17	8.500000e-01	2.735990e+04	
18	9.000000e-01	3.831276e+04	
19	9.500000e-01	6.054408e+04	
20	1.000000e+00	1.103753e+05	
21	1.050000e+00	2.105679e+05	
22	1.100000e+00	3.604872e+05	
23	1.150000e+00	5.340036e+05	
24	1.200000e+00	7.097291e+05	
25	1.250000e+00	8.783748e+05	
26	1.300000e+00	1.037201e+06	
27	1.350000e+00	1.185972e+06	
28	1.400000e+00	1.325265e+06	
29	1.450000e+00	1.455864e+06	
30	1.500000e+00	1.578550e+06	
31	1.550000e+00	1.694042e+06	
32	1.600000e+00	1.802981e+06	
33	1.650000e+00	1.905933e+06	
34	1.700000e+00	2.003400e+06	
35	1.750000e+00	2.095826e+06	
36	1.800000e+00	2.183604e+06	
37	1.850000e+00	2.267089e+06	
38	1.900000e+00	2.346596e+06	
39	1.950000e+00	2.422409e+06	
40	2.000000e+00	2.494786e+06	
41	2.050000e+00	2.563958e+06	
42	2.100000e+00	2.630139e+06	
43	2.150000e+00	2.693520e+06	
44	2.200000e+00	2.754277e+06	
45	2.250000e+00	2.812572e+06	
46	2.300000e+00	2.868553e+06	
47	2.350000e+00	2.922355e+06	
48	2.400000e+00	2.974103e+06	
49	2.450000e+00	3.023911e+06	
50	2.500000e+00	3.071882e+06	
51	2.550000e+00	3.118109e+06	
52	2.600000e+00	3.162672e+06	
53	2.650000e+00	3.205641e+06	
54	2.700000e+00	3.247068e+06	

Index   v-sweep         rds             
--------------------------------------------------------------------------------
55	2.750000e+00	3.286987e+06	
56	2.800000e+00	3.325410e+06	
57	2.850000e+00	3.362320e+06	
58	2.900000e+00	3.397668e+06	
59	2.950000e+00	3.431362e+06	
60	3.000000e+00	3.463261e+06	
61	3.050000e+00	3.493167e+06	
62	3.100000e+00	3.520815e+06	
63	3.150000e+00	3.545864e+06	
64	3.200000e+00	3.567893e+06	
65	3.250000e+00	3.586389e+06	
66	3.300000e+00	3.600751e+06	
Reset re-loads circuit ***************************

Circuit: ***************************

Doing analysis at TEMP = 125.000000 and TNOM = 125.000000


No. of Data Rows : 67
                          ***************************
                          DC transfer characteristic  Mon Jan  9 13:57:20  2023
--------------------------------------------------------------------------------
Index   v-sweep         rds             
--------------------------------------------------------------------------------
0	0.000000e+00	3.371746e+03	
1	5.000000e-02	3.496829e+03	
2	1.000000e-01	3.631109e+03	
3	1.500000e-01	3.775637e+03	
4	2.000000e-01	3.931632e+03	
5	2.500000e-01	4.100516e+03	
6	3.000000e-01	4.283954e+03	
7	3.500000e-01	4.483912e+03	
8	4.000000e-01	4.702726e+03	
9	4.500000e-01	4.943193e+03	
10	5.000000e-01	5.208696e+03	
11	5.500000e-01	5.503355e+03	
12	6.000000e-01	5.832252e+03	
13	6.500000e-01	6.201719e+03	
14	7.000000e-01	6.619751e+03	
15	7.500000e-01	7.096592e+03	
16	8.000000e-01	7.645578e+03	
17	8.500000e-01	8.284405e+03	
18	9.000000e-01	9.037058e+03	
19	9.500000e-01	9.936868e+03	
20	1.000000e+00	1.103153e+04	
21	1.050000e+00	1.239173e+04	
22	1.100000e+00	1.412665e+04	
23	1.150000e+00	1.641383e+04	
24	1.200000e+00	1.956049e+04	
25	1.250000e+00	2.413962e+04	
26	1.300000e+00	3.131396e+04	
27	1.350000e+00	4.361253e+04	
28	1.400000e+00	6.639149e+04	
29	1.450000e+00	1.080202e+05	
30	1.500000e+00	1.733289e+05	
31	1.550000e+00	2.569595e+05	
32	1.600000e+00	3.492988e+05	
33	1.650000e+00	4.434853e+05	
34	1.700000e+00	5.360607e+05	
35	1.750000e+00	6.255550e+05	
36	1.800000e+00	7.114441e+05	
37	1.850000e+00	7.936258e+05	
38	1.900000e+00	8.721815e+05	
39	1.950000e+00	9.472687e+05	
40	2.000000e+00	1.019072e+06	
41	2.050000e+00	1.087781e+06	
42	2.100000e+00	1.153581e+06	
43	2.150000e+00	1.216646e+06	
44	2.200000e+00	1.277140e+06	
45	2.250000e+00	1.335217e+06	
46	2.300000e+00	1.391017e+06	
47	2.350000e+00	1.444671e+06	
48	2.400000e+00	1.496302e+06	
49	2.450000e+00	1.546022e+06	
50	2.500000e+00	1.593935e+06	
51	2.550000e+00	1.640138e+06	
52	2.600000e+00	1.684721e+06	
53	2.650000e+00	1.727768e+06	
54	2.700000e+00	1.769358e+06	

Index   v-sweep         rds             
--------------------------------------------------------------------------------
55	2.750000e+00	1.809563e+06	
56	2.800000e+00	1.848450e+06	
57	2.850000e+00	1.886082e+06	
58	2.900000e+00	1.922517e+06	
59	2.950000e+00	1.957806e+06	
60	3.000000e+00	1.991997e+06	
61	3.050000e+00	2.025126e+06	
62	3.100000e+00	2.057224e+06	
63	3.150000e+00	2.088309e+06	
64	3.200000e+00	2.118385e+06	
65	3.250000e+00	2.147437e+06	
66	3.300000e+00	2.175426e+06	
Reset re-loads circuit ***************************

Circuit: ***************************

Doing analysis at TEMP = 125.000000 and TNOM = 125.000000


No. of Data Rows : 67
                          ***************************
                          DC transfer characteristic  Mon Jan  9 13:57:20  2023
--------------------------------------------------------------------------------
Index   v-sweep         rds             
--------------------------------------------------------------------------------
0	0.000000e+00	2.837592e+03	
1	5.000000e-02	2.916906e+03	
2	1.000000e-01	3.000527e+03	
3	1.500000e-01	3.088814e+03	
4	2.000000e-01	3.182169e+03	
5	2.500000e-01	3.281042e+03	
6	3.000000e-01	3.385935e+03	
7	3.500000e-01	3.497417e+03	
8	4.000000e-01	3.616128e+03	
9	4.500000e-01	3.742794e+03	
10	5.000000e-01	3.878243e+03	
11	5.500000e-01	4.023419e+03	
12	6.000000e-01	4.179412e+03	
13	6.500000e-01	4.347474e+03	
14	7.000000e-01	4.529063e+03	
15	7.500000e-01	4.725880e+03	
16	8.000000e-01	4.939924e+03	
17	8.500000e-01	5.173560e+03	
18	9.000000e-01	5.429605e+03	
19	9.500000e-01	5.711445e+03	
20	1.000000e+00	6.023183e+03	
21	1.050000e+00	6.369840e+03	
22	1.100000e+00	6.757629e+03	
23	1.150000e+00	7.194327e+03	
24	1.200000e+00	7.689803e+03	
25	1.250000e+00	8.256768e+03	
26	1.300000e+00	8.911877e+03	
27	1.350000e+00	9.677380e+03	
28	1.400000e+00	1.058368e+04	
29	1.450000e+00	1.167342e+04	
30	1.500000e+00	1.300824e+04	
31	1.550000e+00	1.468060e+04	
32	1.600000e+00	1.683515e+04	
33	1.650000e+00	1.971007e+04	
34	1.700000e+00	2.372078e+04	
35	1.750000e+00	2.963591e+04	
36	1.800000e+00	3.893156e+04	
37	1.850000e+00	5.431518e+04	
38	1.900000e+00	7.963821e+04	
39	1.950000e+00	1.175309e+05	
40	2.000000e+00	1.665778e+05	
41	2.050000e+00	2.226225e+05	
42	2.100000e+00	2.818175e+05	
43	2.150000e+00	3.417091e+05	
44	2.200000e+00	4.009623e+05	
45	2.250000e+00	4.589027e+05	
46	2.300000e+00	5.152116e+05	
47	2.350000e+00	5.697568e+05	
48	2.400000e+00	6.225049e+05	
49	2.450000e+00	6.734740e+05	
50	2.500000e+00	7.227100e+05	
51	2.550000e+00	7.702724e+05	
52	2.600000e+00	8.162271e+05	
53	2.650000e+00	8.606421e+05	
54	2.700000e+00	9.035850e+05	

Index   v-sweep         rds             
--------------------------------------------------------------------------------
55	2.750000e+00	9.451220e+05	
56	2.800000e+00	9.853166e+05	
57	2.850000e+00	1.024230e+06	
58	2.900000e+00	1.061920e+06	
59	2.950000e+00	1.098441e+06	
60	3.000000e+00	1.133846e+06	
61	3.050000e+00	1.168185e+06	
62	3.100000e+00	1.201503e+06	
63	3.150000e+00	1.233844e+06	
64	3.200000e+00	1.265252e+06	
65	3.250000e+00	1.295763e+06	
66	3.300000e+00	1.325416e+06	
Reset re-loads circuit ***************************

Circuit: ***************************

Doing analysis at TEMP = 125.000000 and TNOM = 125.000000


No. of Data Rows : 67
                          ***************************
                          DC transfer characteristic  Mon Jan  9 13:57:20  2023
--------------------------------------------------------------------------------
Index   v-sweep         rds             
--------------------------------------------------------------------------------
0	0.000000e+00	2.526727e+03	
1	5.000000e-02	2.582552e+03	
2	1.000000e-01	2.640735e+03	
3	1.500000e-01	2.701428e+03	
4	2.000000e-01	2.764799e+03	
5	2.500000e-01	2.831026e+03	
6	3.000000e-01	2.900310e+03	
7	3.500000e-01	2.972864e+03	
8	4.000000e-01	3.048928e+03	
9	4.500000e-01	3.128761e+03	
10	5.000000e-01	3.212651e+03	
11	5.500000e-01	3.300914e+03	
12	6.000000e-01	3.393903e+03	
13	6.500000e-01	3.492007e+03	
14	7.000000e-01	3.595659e+03	
15	7.500000e-01	3.705344e+03	
16	8.000000e-01	3.821605e+03	
17	8.500000e-01	3.945049e+03	
18	9.000000e-01	4.076365e+03	
19	9.500000e-01	4.216330e+03	
20	1.000000e+00	4.365828e+03	
21	1.050000e+00	4.525865e+03	
22	1.100000e+00	4.697598e+03	
23	1.150000e+00	4.882356e+03	
24	1.200000e+00	5.081679e+03	
25	1.250000e+00	5.297360e+03	
26	1.300000e+00	5.531498e+03	
27	1.350000e+00	5.786568e+03	
28	1.400000e+00	6.065507e+03	
29	1.450000e+00	6.371829e+03	
30	1.500000e+00	6.709772e+03	
31	1.550000e+00	7.084498e+03	
32	1.600000e+00	7.502353e+03	
33	1.650000e+00	7.971235e+03	
34	1.700000e+00	8.501092e+03	
35	1.750000e+00	9.104633e+03	
36	1.800000e+00	9.798358e+03	
37	1.850000e+00	1.060408e+04	
38	1.900000e+00	1.155123e+04	
39	1.950000e+00	1.268051e+04	
40	2.000000e+00	1.404974e+04	
41	2.050000e+00	1.574380e+04	
42	2.100000e+00	1.789201e+04	
43	2.150000e+00	2.070004e+04	
44	2.200000e+00	2.451018e+04	
45	2.250000e+00	2.991507e+04	
46	2.300000e+00	3.795034e+04	
47	2.350000e+00	5.029151e+04	
48	2.400000e+00	6.901928e+04	
49	2.450000e+00	9.541735e+04	
50	2.500000e+00	1.288020e+05	
51	2.550000e+00	1.670689e+05	
52	2.600000e+00	2.080511e+05	
53	2.650000e+00	2.501777e+05	
54	2.700000e+00	2.924718e+05	

Index   v-sweep         rds             
--------------------------------------------------------------------------------
55	2.750000e+00	3.343647e+05	
56	2.800000e+00	3.755362e+05	
57	2.850000e+00	4.158118e+05	
58	2.900000e+00	4.551019e+05	
59	2.950000e+00	4.933670e+05	
60	3.000000e+00	5.305975e+05	
61	3.050000e+00	5.668018e+05	
62	3.100000e+00	6.019988e+05	
63	3.150000e+00	6.362140e+05	
64	3.200000e+00	6.694763e+05	
65	3.250000e+00	7.018164e+05	
66	3.300000e+00	7.332658e+05	
Reset re-loads circuit ***************************

Circuit: ***************************

Note: No ".plot", ".print", or ".fourier" lines; no simulations run
