
Note: Compatibility modes selected: hs

Warning: m=xx on .subckt line will override multiplier m hierarchy!


Circuit: ***************************

Doing analysis at TEMP = 125.000000 and TNOM = 125.000000


No. of Data Rows : 67
                          ***************************
                          DC transfer characteristic  Mon Jan  9 13:57:20  2023
--------------------------------------------------------------------------------
Index   v-sweep         rds             
--------------------------------------------------------------------------------
0	0.000000e+00	8.220599e+04	
1	5.000000e-02	1.006773e+05	
2	1.000000e-01	1.282534e+05	
3	1.500000e-01	1.733694e+05	
4	2.000000e-01	2.571634e+05	
5	2.500000e-01	4.354696e+05	
6	3.000000e-01	8.102648e+05	
7	3.500000e-01	1.387213e+06	
8	4.000000e-01	2.007984e+06	
9	4.500000e-01	2.578022e+06	
10	5.000000e-01	3.088720e+06	
11	5.500000e-01	3.551053e+06	
12	6.000000e-01	3.974926e+06	
13	6.500000e-01	4.367217e+06	
14	7.000000e-01	4.732675e+06	
15	7.500000e-01	5.074736e+06	
16	8.000000e-01	5.396018e+06	
17	8.500000e-01	5.698607e+06	
18	9.000000e-01	5.984226e+06	
19	9.500000e-01	6.254333e+06	
20	1.000000e+00	6.510188e+06	
21	1.050000e+00	6.752896e+06	
22	1.100000e+00	6.983436e+06	
23	1.150000e+00	7.202682e+06	
24	1.200000e+00	7.411421e+06	
25	1.250000e+00	7.610364e+06	
26	1.300000e+00	7.800156e+06	
27	1.350000e+00	7.981386e+06	
28	1.400000e+00	8.154592e+06	
29	1.450000e+00	8.320267e+06	
30	1.500000e+00	8.478865e+06	
31	1.550000e+00	8.630804e+06	
32	1.600000e+00	8.776466e+06	
33	1.650000e+00	8.916209e+06	
34	1.700000e+00	9.050359e+06	
35	1.750000e+00	9.179218e+06	
36	1.800000e+00	9.303064e+06	
37	1.850000e+00	9.422147e+06	
38	1.900000e+00	9.536694e+06	
39	1.950000e+00	9.646903e+06	
40	2.000000e+00	9.752938e+06	
41	2.050000e+00	9.854928e+06	
42	2.100000e+00	9.952957e+06	
43	2.150000e+00	1.004706e+07	
44	2.200000e+00	1.013720e+07	
45	2.250000e+00	1.022327e+07	
46	2.300000e+00	1.030508e+07	
47	2.350000e+00	1.038233e+07	
48	2.400000e+00	1.045461e+07	
49	2.450000e+00	1.052135e+07	
50	2.500000e+00	1.058186e+07	
51	2.550000e+00	1.063528e+07	
52	2.600000e+00	1.068057e+07	
53	2.650000e+00	1.071651e+07	
54	2.700000e+00	1.074172e+07	

Index   v-sweep         rds             
--------------------------------------------------------------------------------
55	2.750000e+00	1.075462e+07	
56	2.800000e+00	1.075352e+07	
57	2.850000e+00	1.073659e+07	
58	2.900000e+00	1.070194e+07	
59	2.950000e+00	1.064766e+07	
60	3.000000e+00	1.057191e+07	
61	3.050000e+00	1.047301e+07	
62	3.100000e+00	1.034949e+07	
63	3.150000e+00	1.020027e+07	
64	3.200000e+00	1.002467e+07	
65	3.250000e+00	9.822566e+06	
66	3.300000e+00	9.594385e+06	
Reset re-loads circuit ***************************

Circuit: ***************************

Doing analysis at TEMP = 125.000000 and TNOM = 125.000000


No. of Data Rows : 67
                          ***************************
                          DC transfer characteristic  Mon Jan  9 13:57:21  2023
--------------------------------------------------------------------------------
Index   v-sweep         rds             
--------------------------------------------------------------------------------
0	0.000000e+00	3.052368e+04	
1	5.000000e-02	3.337072e+04	
2	1.000000e-01	3.667285e+04	
3	1.500000e-01	4.054739e+04	
4	2.000000e-01	4.515553e+04	
5	2.500000e-01	5.072451e+04	
6	3.000000e-01	5.758470e+04	
7	3.500000e-01	6.623327e+04	
8	4.000000e-01	7.744801e+04	
9	4.500000e-01	9.249515e+04	
10	5.000000e-01	1.134988e+05	
11	5.500000e-01	1.439807e+05	
12	6.000000e-01	1.890379e+05	
13	6.500000e-01	2.532615e+05	
14	7.000000e-01	3.360256e+05	
15	7.500000e-01	4.309184e+05	
16	8.000000e-01	5.310856e+05	
17	8.500000e-01	6.323140e+05	
18	9.000000e-01	7.325687e+05	
19	9.500000e-01	8.309516e+05	
20	1.000000e+00	9.270857e+05	
21	1.050000e+00	1.020830e+06	
22	1.100000e+00	1.112153e+06	
23	1.150000e+00	1.201078e+06	
24	1.200000e+00	1.287654e+06	
25	1.250000e+00	1.371942e+06	
26	1.300000e+00	1.454010e+06	
27	1.350000e+00	1.533929e+06	
28	1.400000e+00	1.611770e+06	
29	1.450000e+00	1.687602e+06	
30	1.500000e+00	1.761493e+06	
31	1.550000e+00	1.833511e+06	
32	1.600000e+00	1.903718e+06	
33	1.650000e+00	1.972176e+06	
34	1.700000e+00	2.038945e+06	
35	1.750000e+00	2.104082e+06	
36	1.800000e+00	2.167642e+06	
37	1.850000e+00	2.229678e+06	
38	1.900000e+00	2.290239e+06	
39	1.950000e+00	2.349375e+06	
40	2.000000e+00	2.407132e+06	
41	2.050000e+00	2.463553e+06	
42	2.100000e+00	2.518679e+06	
43	2.150000e+00	2.572548e+06	
44	2.200000e+00	2.625194e+06	
45	2.250000e+00	2.676646e+06	
46	2.300000e+00	2.726924e+06	
47	2.350000e+00	2.776041e+06	
48	2.400000e+00	2.823993e+06	
49	2.450000e+00	2.870762e+06	
50	2.500000e+00	2.916305e+06	
51	2.550000e+00	2.960550e+06	
52	2.600000e+00	3.003391e+06	
53	2.650000e+00	3.044673e+06	
54	2.700000e+00	3.084190e+06	

Index   v-sweep         rds             
--------------------------------------------------------------------------------
55	2.750000e+00	3.121669e+06	
56	2.800000e+00	3.156765e+06	
57	2.850000e+00	3.189050e+06	
58	2.900000e+00	3.218006e+06	
59	2.950000e+00	3.243019e+06	
60	3.000000e+00	3.263379e+06	
61	3.050000e+00	3.278287e+06	
62	3.100000e+00	3.286864e+06	
63	3.150000e+00	3.288175e+06	
64	3.200000e+00	3.281260e+06	
65	3.250000e+00	3.265175e+06	
66	3.300000e+00	3.239047e+06	
Reset re-loads circuit ***************************

Circuit: ***************************

Doing analysis at TEMP = 125.000000 and TNOM = 125.000000


No. of Data Rows : 67
                          ***************************
                          DC transfer characteristic  Mon Jan  9 13:57:21  2023
--------------------------------------------------------------------------------
Index   v-sweep         rds             
--------------------------------------------------------------------------------
0	0.000000e+00	1.997982e+04	
1	5.000000e-02	2.125244e+04	
2	1.000000e-01	2.264964e+04	
3	1.500000e-01	2.419037e+04	
4	2.000000e-01	2.589762e+04	
5	2.500000e-01	2.779958e+04	
6	3.000000e-01	2.993117e+04	
7	3.500000e-01	3.233617e+04	
8	4.000000e-01	3.507026e+04	
9	4.500000e-01	3.820528e+04	
10	5.000000e-01	4.183556e+04	
11	5.500000e-01	4.608742e+04	
12	6.000000e-01	5.113381e+04	
13	6.500000e-01	5.721758e+04	
14	7.000000e-01	6.468927e+04	
15	7.500000e-01	7.406855e+04	
16	8.000000e-01	8.613805e+04	
17	8.500000e-01	1.020496e+05	
18	9.000000e-01	1.233032e+05	
19	9.500000e-01	1.512740e+05	
20	1.000000e+00	1.862804e+05	
21	1.050000e+00	2.271846e+05	
22	1.100000e+00	2.721239e+05	
23	1.150000e+00	3.194082e+05	
24	1.200000e+00	3.678450e+05	
25	1.250000e+00	4.166805e+05	
26	1.300000e+00	4.654561e+05	
27	1.350000e+00	5.138942e+05	
28	1.400000e+00	5.618264e+05	
29	1.450000e+00	6.091502e+05	
30	1.500000e+00	6.558038e+05	
31	1.550000e+00	7.017511e+05	
32	1.600000e+00	7.469724e+05	
33	1.650000e+00	7.914591e+05	
34	1.700000e+00	8.352098e+05	
35	1.750000e+00	8.782280e+05	
36	1.800000e+00	9.205208e+05	
37	1.850000e+00	9.620973e+05	
38	1.900000e+00	1.002968e+06	
39	1.950000e+00	1.043146e+06	
40	2.000000e+00	1.082643e+06	
41	2.050000e+00	1.121472e+06	
42	2.100000e+00	1.159647e+06	
43	2.150000e+00	1.197180e+06	
44	2.200000e+00	1.234086e+06	
45	2.250000e+00	1.270377e+06	
46	2.300000e+00	1.306067e+06	
47	2.350000e+00	1.341167e+06	
48	2.400000e+00	1.375689e+06	
49	2.450000e+00	1.409643e+06	
50	2.500000e+00	1.443038e+06	
51	2.550000e+00	1.475878e+06	
52	2.600000e+00	1.508165e+06	
53	2.650000e+00	1.539893e+06	
54	2.700000e+00	1.571046e+06	

Index   v-sweep         rds             
--------------------------------------------------------------------------------
55	2.750000e+00	1.601599e+06	
56	2.800000e+00	1.631509e+06	
57	2.850000e+00	1.660711e+06	
58	2.900000e+00	1.689114e+06	
59	2.950000e+00	1.716594e+06	
60	3.000000e+00	1.742986e+06	
61	3.050000e+00	1.768077e+06	
62	3.100000e+00	1.791600e+06	
63	3.150000e+00	1.813223e+06	
64	3.200000e+00	1.832549e+06	
65	3.250000e+00	1.849111e+06	
66	3.300000e+00	1.862371e+06	
Reset re-loads circuit ***************************

Circuit: ***************************

Doing analysis at TEMP = 125.000000 and TNOM = 125.000000


No. of Data Rows : 67
                          ***************************
                          DC transfer characteristic  Mon Jan  9 13:57:21  2023
--------------------------------------------------------------------------------
Index   v-sweep         rds             
--------------------------------------------------------------------------------
0	0.000000e+00	1.545210e+04	
1	5.000000e-02	1.622634e+04	
2	1.000000e-01	1.705607e+04	
3	1.500000e-01	1.794732e+04	
4	2.000000e-01	1.890708e+04	
5	2.500000e-01	1.994340e+04	
6	3.000000e-01	2.106566e+04	
7	3.500000e-01	2.228487e+04	
8	4.000000e-01	2.361396e+04	
9	4.500000e-01	2.506832e+04	
10	5.000000e-01	2.666635e+04	
11	5.500000e-01	2.843028e+04	
12	6.000000e-01	3.038719e+04	
13	6.500000e-01	3.257050e+04	
14	7.000000e-01	3.502198e+04	
15	7.500000e-01	3.779458e+04	
16	8.000000e-01	4.095674e+04	
17	8.500000e-01	4.459889e+04	
18	9.000000e-01	4.884377e+04	
19	9.500000e-01	5.386359e+04	
20	1.000000e+00	5.990853e+04	
21	1.050000e+00	6.735229e+04	
22	1.100000e+00	7.675000e+04	
23	1.150000e+00	8.885927e+04	
24	1.200000e+00	1.044971e+05	
25	1.250000e+00	1.241607e+05	
26	1.300000e+00	1.476897e+05	
27	1.350000e+00	1.743566e+05	
28	1.400000e+00	2.032534e+05	
29	1.450000e+00	2.335866e+05	
30	1.500000e+00	2.647682e+05	
31	1.550000e+00	2.963937e+05	
32	1.600000e+00	3.281931e+05	
33	1.650000e+00	3.599868e+05	
34	1.700000e+00	3.916547e+05	
35	1.750000e+00	4.231161e+05	
36	1.800000e+00	4.543161e+05	
37	1.850000e+00	4.852175e+05	
38	1.900000e+00	5.157950e+05	
39	1.950000e+00	5.460318e+05	
40	2.000000e+00	5.759168e+05	
41	2.050000e+00	6.054435e+05	
42	2.100000e+00	6.346082e+05	
43	2.150000e+00	6.634094e+05	
44	2.200000e+00	6.918476e+05	
45	2.250000e+00	7.199244e+05	
46	2.300000e+00	7.476422e+05	
47	2.350000e+00	7.750044e+05	
48	2.400000e+00	8.020146e+05	
49	2.450000e+00	8.286770e+05	
50	2.500000e+00	8.549960e+05	
51	2.550000e+00	8.809759e+05	
52	2.600000e+00	9.066213e+05	
53	2.650000e+00	9.319361e+05	
54	2.700000e+00	9.569237e+05	

Index   v-sweep         rds             
--------------------------------------------------------------------------------
55	2.750000e+00	9.815863e+05	
56	2.800000e+00	1.005924e+06	
57	2.850000e+00	1.029934e+06	
58	2.900000e+00	1.053609e+06	
59	2.950000e+00	1.076935e+06	
60	3.000000e+00	1.099890e+06	
61	3.050000e+00	1.122437e+06	
62	3.100000e+00	1.144527e+06	
63	3.150000e+00	1.166087e+06	
64	3.200000e+00	1.187020e+06	
65	3.250000e+00	1.207196e+06	
66	3.300000e+00	1.226448e+06	
Reset re-loads circuit ***************************

Circuit: ***************************

Doing analysis at TEMP = 125.000000 and TNOM = 125.000000


No. of Data Rows : 67
                          ***************************
                          DC transfer characteristic  Mon Jan  9 13:57:21  2023
--------------------------------------------------------------------------------
Index   v-sweep         rds             
--------------------------------------------------------------------------------
0	0.000000e+00	1.292902e+04	
1	5.000000e-02	1.347284e+04	
2	1.000000e-01	1.404768e+04	
3	1.500000e-01	1.465620e+04	
4	2.000000e-01	1.530135e+04	
5	2.500000e-01	1.598648e+04	
6	3.000000e-01	1.671533e+04	
7	3.500000e-01	1.749212e+04	
8	4.000000e-01	1.832167e+04	
9	4.500000e-01	1.920942e+04	
10	5.000000e-01	2.016165e+04	
11	5.500000e-01	2.118554e+04	
12	6.000000e-01	2.228941e+04	
13	6.500000e-01	2.348291e+04	
14	7.000000e-01	2.477739e+04	
15	7.500000e-01	2.618619e+04	
16	8.000000e-01	2.772520e+04	
17	8.500000e-01	2.941353e+04	
18	9.000000e-01	3.127442e+04	
19	9.500000e-01	3.333660e+04	
20	1.000000e+00	3.563619e+04	
21	1.050000e+00	3.821977e+04	
22	1.100000e+00	4.114918e+04	
23	1.150000e+00	4.450962e+04	
24	1.200000e+00	4.842346e+04	
25	1.250000e+00	5.307310e+04	
26	1.300000e+00	5.873502e+04	
27	1.350000e+00	6.581464e+04	
28	1.400000e+00	7.483886e+04	
29	1.450000e+00	8.633400e+04	
30	1.500000e+00	1.005929e+05	
31	1.550000e+00	1.175116e+05	
32	1.600000e+00	1.366580e+05	
33	1.650000e+00	1.574794e+05	
34	1.700000e+00	1.794674e+05	
35	1.750000e+00	2.022217e+05	
36	1.800000e+00	2.254504e+05	
37	1.850000e+00	2.489470e+05	
38	1.900000e+00	2.725676e+05	
39	1.950000e+00	2.962111e+05	
40	2.000000e+00	3.198064e+05	
41	2.050000e+00	3.433031e+05	
42	2.100000e+00	3.666648e+05	
43	2.150000e+00	3.898655e+05	
44	2.200000e+00	4.128863e+05	
45	2.250000e+00	4.357136e+05	
46	2.300000e+00	4.583376e+05	
47	2.350000e+00	4.807515e+05	
48	2.400000e+00	5.029505e+05	
49	2.450000e+00	5.249315e+05	
50	2.500000e+00	5.466927e+05	
51	2.550000e+00	5.682332e+05	
52	2.600000e+00	5.895528e+05	
53	2.650000e+00	6.106521e+05	
54	2.700000e+00	6.315320e+05	

Index   v-sweep         rds             
--------------------------------------------------------------------------------
55	2.750000e+00	6.521936e+05	
56	2.800000e+00	6.726383e+05	
57	2.850000e+00	6.928676e+05	
58	2.900000e+00	7.128825e+05	
59	2.950000e+00	7.326837e+05	
60	3.000000e+00	7.522706e+05	
61	3.050000e+00	7.716410e+05	
62	3.100000e+00	7.907899e+05	
63	3.150000e+00	8.097081e+05	
64	3.200000e+00	8.283805e+05	
65	3.250000e+00	8.467837e+05	
66	3.300000e+00	8.648834e+05	
Reset re-loads circuit ***************************

Circuit: ***************************

Doing analysis at TEMP = 125.000000 and TNOM = 125.000000


No. of Data Rows : 67
                          ***************************
                          DC transfer characteristic  Mon Jan  9 13:57:21  2023
--------------------------------------------------------------------------------
Index   v-sweep         rds             
--------------------------------------------------------------------------------
0	0.000000e+00	1.131646e+04	
1	5.000000e-02	1.173105e+04	
2	1.000000e-01	1.216539e+04	
3	1.500000e-01	1.262090e+04	
4	2.000000e-01	1.309910e+04	
5	2.500000e-01	1.360166e+04	
6	3.000000e-01	1.413046e+04	
7	3.500000e-01	1.468755e+04	
8	4.000000e-01	1.527519e+04	
9	4.500000e-01	1.589591e+04	
10	5.000000e-01	1.655252e+04	
11	5.500000e-01	1.724818e+04	
12	6.000000e-01	1.798640e+04	
13	6.500000e-01	1.877116e+04	
14	7.000000e-01	1.960695e+04	
15	7.500000e-01	2.049886e+04	
16	8.000000e-01	2.145271e+04	
17	8.500000e-01	2.247517e+04	
18	9.000000e-01	2.357394e+04	
19	9.500000e-01	2.475798e+04	
20	1.000000e+00	2.603781e+04	
21	1.050000e+00	2.742588e+04	
22	1.100000e+00	2.893720e+04	
23	1.150000e+00	3.059008e+04	
24	1.200000e+00	3.240741e+04	
25	1.250000e+00	3.441855e+04	
26	1.300000e+00	3.666249e+04	
27	1.350000e+00	3.919309e+04	
28	1.400000e+00	4.208799e+04	
29	1.450000e+00	4.546327e+04	
30	1.500000e+00	4.949537e+04	
31	1.550000e+00	5.444622e+04	
32	1.600000e+00	6.067157e+04	
33	1.650000e+00	6.857217e+04	
34	1.700000e+00	7.846497e+04	
35	1.750000e+00	9.044032e+04	
36	1.800000e+00	1.043264e+05	
37	1.850000e+00	1.197830e+05	
38	1.900000e+00	1.364301e+05	
39	1.950000e+00	1.539299e+05	
40	2.000000e+00	1.720150e+05	
41	2.050000e+00	1.904855e+05	
42	2.100000e+00	2.091961e+05	
43	2.150000e+00	2.280416e+05	
44	2.200000e+00	2.469461e+05	
45	2.250000e+00	2.658543e+05	
46	2.300000e+00	2.847259e+05	
47	2.350000e+00	3.035309e+05	
48	2.400000e+00	3.222469e+05	
49	2.450000e+00	3.408574e+05	
50	2.500000e+00	3.593498e+05	
51	2.550000e+00	3.777146e+05	
52	2.600000e+00	3.959448e+05	
53	2.650000e+00	4.140351e+05	
54	2.700000e+00	4.319817e+05	

Index   v-sweep         rds             
--------------------------------------------------------------------------------
55	2.750000e+00	4.497817e+05	
56	2.800000e+00	4.674332e+05	
57	2.850000e+00	4.849348e+05	
58	2.900000e+00	5.022860e+05	
59	2.950000e+00	5.194863e+05	
60	3.000000e+00	5.365355e+05	
61	3.050000e+00	5.534339e+05	
62	3.100000e+00	5.701813e+05	
63	3.150000e+00	5.867775e+05	
64	3.200000e+00	6.032215e+05	
65	3.250000e+00	6.195110e+05	
66	3.300000e+00	6.356420e+05	
Reset re-loads circuit ***************************

Circuit: ***************************

Note: No ".plot", ".print", or ".fourier" lines; no simulations run
