
Note: Compatibility modes selected: hs

Warning: m=xx on .subckt line will override multiplier m hierarchy!


Circuit: ***************************

Doing analysis at TEMP = 125.000000 and TNOM = 125.000000


No. of Data Rows : 67
                          ***************************
                          DC transfer characteristic  Mon Jan  9 13:57:20  2023
--------------------------------------------------------------------------------
Index   v-sweep         rds             
--------------------------------------------------------------------------------
0	0.000000e+00	2.453581e+04	
1	5.000000e-02	3.027114e+04	
2	1.000000e-01	3.871535e+04	
3	1.500000e-01	5.209677e+04	
4	2.000000e-01	7.502852e+04	
5	2.500000e-01	1.153534e+05	
6	3.000000e-01	1.773957e+05	
7	3.500000e-01	2.492610e+05	
8	4.000000e-01	3.140411e+05	
9	4.500000e-01	3.658543e+05	
10	5.000000e-01	4.060577e+05	
11	5.500000e-01	4.373899e+05	
12	6.000000e-01	4.621419e+05	
13	6.500000e-01	4.819739e+05	
14	7.000000e-01	4.980608e+05	
15	7.500000e-01	5.112419e+05	
16	8.000000e-01	5.221286e+05	
17	8.500000e-01	5.311750e+05	
18	9.000000e-01	5.387251e+05	
19	9.500000e-01	5.450441e+05	
20	1.000000e+00	5.503395e+05	
21	1.050000e+00	5.547759e+05	
22	1.100000e+00	5.584857e+05	
23	1.150000e+00	5.615763e+05	
24	1.200000e+00	5.641358e+05	
25	1.250000e+00	5.662372e+05	
26	1.300000e+00	5.679414e+05	
27	1.350000e+00	5.692995e+05	
28	1.400000e+00	5.703548e+05	
29	1.450000e+00	5.711442e+05	
30	1.500000e+00	5.716992e+05	
31	1.550000e+00	5.720470e+05	
32	1.600000e+00	5.722111e+05	
33	1.650000e+00	5.722118e+05	
34	1.700000e+00	5.720670e+05	
35	1.750000e+00	5.717921e+05	
36	1.800000e+00	5.714007e+05	
37	1.850000e+00	5.709046e+05	
38	1.900000e+00	5.703140e+05	
39	1.950000e+00	5.696377e+05	
40	2.000000e+00	5.688832e+05	
41	2.050000e+00	5.680563e+05	
42	2.100000e+00	5.671618e+05	
43	2.150000e+00	5.662025e+05	
44	2.200000e+00	5.651801e+05	
45	2.250000e+00	5.640940e+05	
46	2.300000e+00	5.629420e+05	
47	2.350000e+00	5.617194e+05	
48	2.400000e+00	5.604192e+05	
49	2.450000e+00	5.590315e+05	
50	2.500000e+00	5.575437e+05	
51	2.550000e+00	5.559398e+05	
52	2.600000e+00	5.542004e+05	
53	2.650000e+00	5.523025e+05	
54	2.700000e+00	5.502193e+05	

Index   v-sweep         rds             
--------------------------------------------------------------------------------
55	2.750000e+00	5.479204e+05	
56	2.800000e+00	5.453715e+05	
57	2.850000e+00	5.425350e+05	
58	2.900000e+00	5.393699e+05	
59	2.950000e+00	5.358327e+05	
60	3.000000e+00	5.318778e+05	
61	3.050000e+00	5.274585e+05	
62	3.100000e+00	5.225281e+05	
63	3.150000e+00	5.170410e+05	
64	3.200000e+00	5.109544e+05	
65	3.250000e+00	5.042298e+05	
66	3.300000e+00	4.968345e+05	
Reset re-loads circuit ***************************

Circuit: ***************************

Doing analysis at TEMP = 125.000000 and TNOM = 125.000000


No. of Data Rows : 67
                          ***************************
                          DC transfer characteristic  Mon Jan  9 13:57:20  2023
--------------------------------------------------------------------------------
Index   v-sweep         rds             
--------------------------------------------------------------------------------
0	0.000000e+00	9.396146e+03	
1	5.000000e-02	1.036461e+04	
2	1.000000e-01	1.148805e+04	
3	1.500000e-01	1.280600e+04	
4	2.000000e-01	1.437253e+04	
5	2.500000e-01	1.626336e+04	
6	3.000000e-01	1.858737e+04	
7	3.500000e-01	2.150552e+04	
8	4.000000e-01	2.526128e+04	
9	4.500000e-01	3.022509e+04	
10	5.000000e-01	3.693476e+04	
11	5.500000e-01	4.604127e+04	
12	6.000000e-01	5.798382e+04	
13	6.500000e-01	7.247708e+04	
14	7.000000e-01	8.846298e+04	
15	7.500000e-01	1.047155e+05	
16	8.000000e-01	1.203578e+05	
17	8.500000e-01	1.349387e+05	
18	9.000000e-01	1.482999e+05	
19	9.500000e-01	1.604418e+05	
20	1.000000e+00	1.714381e+05	
21	1.050000e+00	1.813903e+05	
22	1.100000e+00	1.904052e+05	
23	1.150000e+00	1.985847e+05	
24	1.200000e+00	2.060218e+05	
25	1.250000e+00	2.127995e+05	
26	1.300000e+00	2.189906e+05	
27	1.350000e+00	2.246591e+05	
28	1.400000e+00	2.298610e+05	
29	1.450000e+00	2.346450e+05	
30	1.500000e+00	2.390537e+05	
31	1.550000e+00	2.431246e+05	
32	1.600000e+00	2.468906e+05	
33	1.650000e+00	2.503804e+05	
34	1.700000e+00	2.536197e+05	
35	1.750000e+00	2.566311e+05	
36	1.800000e+00	2.594346e+05	
37	1.850000e+00	2.620481e+05	
38	1.900000e+00	2.644875e+05	
39	1.950000e+00	2.667670e+05	
40	2.000000e+00	2.688994e+05	
41	2.050000e+00	2.708961e+05	
42	2.100000e+00	2.727673e+05	
43	2.150000e+00	2.745221e+05	
44	2.200000e+00	2.761686e+05	
45	2.250000e+00	2.777136e+05	
46	2.300000e+00	2.791631e+05	
47	2.350000e+00	2.805218e+05	
48	2.400000e+00	2.817932e+05	
49	2.450000e+00	2.829793e+05	
50	2.500000e+00	2.840805e+05	
51	2.550000e+00	2.850954e+05	
52	2.600000e+00	2.860205e+05	
53	2.650000e+00	2.868497e+05	
54	2.700000e+00	2.875744e+05	

Index   v-sweep         rds             
--------------------------------------------------------------------------------
55	2.750000e+00	2.881826e+05	
56	2.800000e+00	2.886592e+05	
57	2.850000e+00	2.889852e+05	
58	2.900000e+00	2.891381e+05	
59	2.950000e+00	2.890909e+05	
60	3.000000e+00	2.888129e+05	
61	3.050000e+00	2.882696e+05	
62	3.100000e+00	2.874228e+05	
63	3.150000e+00	2.862317e+05	
64	3.200000e+00	2.846534e+05	
65	3.250000e+00	2.826444e+05	
66	3.300000e+00	2.801617e+05	
Reset re-loads circuit ***************************

Circuit: ***************************

Doing analysis at TEMP = 125.000000 and TNOM = 125.000000


No. of Data Rows : 67
                          ***************************
                          DC transfer characteristic  Mon Jan  9 13:57:20  2023
--------------------------------------------------------------------------------
Index   v-sweep         rds             
--------------------------------------------------------------------------------
0	0.000000e+00	6.346084e+03	
1	5.000000e-02	6.803608e+03	
2	1.000000e-01	7.306622e+03	
3	1.500000e-01	7.862064e+03	
4	2.000000e-01	8.478365e+03	
5	2.500000e-01	9.165883e+03	
6	3.000000e-01	9.937488e+03	
7	3.500000e-01	1.080939e+04	
8	4.000000e-01	1.180234e+04	
9	4.500000e-01	1.294336e+04	
10	5.000000e-01	1.426844e+04	
11	5.500000e-01	1.582671e+04	
12	6.000000e-01	1.768723e+04	
13	6.500000e-01	1.994954e+04	
14	7.000000e-01	2.275884e+04	
15	7.500000e-01	2.632005e+04	
16	8.000000e-01	3.088709e+04	
17	8.500000e-01	3.668450e+04	
18	9.000000e-01	4.376320e+04	
19	9.500000e-01	5.191331e+04	
20	1.000000e+00	6.074347e+04	
21	1.050000e+00	6.984304e+04	
22	1.100000e+00	7.888859e+04	
23	1.150000e+00	8.766731e+04	
24	1.200000e+00	9.605748e+04	
25	1.250000e+00	1.040002e+05	
26	1.300000e+00	1.114762e+05	
27	1.350000e+00	1.184896e+05	
28	1.400000e+00	1.250576e+05	
29	1.450000e+00	1.312042e+05	
30	1.500000e+00	1.369563e+05	
31	1.550000e+00	1.423415e+05	
32	1.600000e+00	1.473868e+05	
33	1.650000e+00	1.521179e+05	
34	1.700000e+00	1.565588e+05	
35	1.750000e+00	1.607318e+05	
36	1.800000e+00	1.646575e+05	
37	1.850000e+00	1.683547e+05	
38	1.900000e+00	1.718406e+05	
39	1.950000e+00	1.751309e+05	
40	2.000000e+00	1.782399e+05	
41	2.050000e+00	1.811807e+05	
42	2.100000e+00	1.839652e+05	
43	2.150000e+00	1.866045e+05	
44	2.200000e+00	1.891083e+05	
45	2.250000e+00	1.914859e+05	
46	2.300000e+00	1.937454e+05	
47	2.350000e+00	1.958944e+05	
48	2.400000e+00	1.979396e+05	
49	2.450000e+00	1.998870e+05	
50	2.500000e+00	2.017418e+05	
51	2.550000e+00	2.035082e+05	
52	2.600000e+00	2.051896e+05	
53	2.650000e+00	2.067879e+05	
54	2.700000e+00	2.083039e+05	

Index   v-sweep         rds             
--------------------------------------------------------------------------------
55	2.750000e+00	2.097367e+05	
56	2.800000e+00	2.110833e+05	
57	2.850000e+00	2.123385e+05	
58	2.900000e+00	2.134944e+05	
59	2.950000e+00	2.145402e+05	
60	3.000000e+00	2.154614e+05	
61	3.050000e+00	2.162399e+05	
62	3.100000e+00	2.168534e+05	
63	3.150000e+00	2.172755e+05	
64	3.200000e+00	2.174751e+05	
65	3.250000e+00	2.174173e+05	
66	3.300000e+00	2.170633e+05	
Reset re-loads circuit ***************************

Circuit: ***************************

Doing analysis at TEMP = 125.000000 and TNOM = 125.000000


No. of Data Rows : 67
                          ***************************
                          DC transfer characteristic  Mon Jan  9 13:57:20  2023
--------------------------------------------------------------------------------
Index   v-sweep         rds             
--------------------------------------------------------------------------------
0	0.000000e+00	5.036495e+03	
1	5.000000e-02	5.325200e+03	
2	1.000000e-01	5.635102e+03	
3	1.500000e-01	5.968531e+03	
4	2.000000e-01	6.328176e+03	
5	2.500000e-01	6.717157e+03	
6	3.000000e-01	7.139122e+03	
7	3.500000e-01	7.598360e+03	
8	4.000000e-01	8.099960e+03	
9	4.500000e-01	8.650017e+03	
10	5.000000e-01	9.255909e+03	
11	5.500000e-01	9.926695e+03	
12	6.000000e-01	1.067368e+04	
13	6.500000e-01	1.151125e+04	
14	7.000000e-01	1.245822e+04	
15	7.500000e-01	1.353992e+04	
16	8.000000e-01	1.479164e+04	
17	8.500000e-01	1.626417e+04	
18	9.000000e-01	1.803198e+04	
19	9.500000e-01	2.020238e+04	
20	1.000000e+00	2.291787e+04	
21	1.050000e+00	2.633428e+04	
22	1.100000e+00	3.056281e+04	
23	1.150000e+00	3.560267e+04	
24	1.200000e+00	4.132373e+04	
25	1.250000e+00	4.751613e+04	
26	1.300000e+00	5.396028e+04	
27	1.350000e+00	6.047201e+04	
28	1.400000e+00	6.691642e+04	
29	1.450000e+00	7.320351e+04	
30	1.500000e+00	7.927789e+04	
31	1.550000e+00	8.510875e+04	
32	1.600000e+00	9.068184e+04	
33	1.650000e+00	9.599377e+04	
34	1.700000e+00	1.010480e+05	
35	1.750000e+00	1.058524e+05	
36	1.800000e+00	1.104170e+05	
37	1.850000e+00	1.147533e+05	
38	1.900000e+00	1.188735e+05	
39	1.950000e+00	1.227894e+05	
40	2.000000e+00	1.265131e+05	
41	2.050000e+00	1.300559e+05	
42	2.100000e+00	1.334287e+05	
43	2.150000e+00	1.366418e+05	
44	2.200000e+00	1.397048e+05	
45	2.250000e+00	1.426267e+05	
46	2.300000e+00	1.454161e+05	
47	2.350000e+00	1.480808e+05	
48	2.400000e+00	1.506282e+05	
49	2.450000e+00	1.530650e+05	
50	2.500000e+00	1.553975e+05	
51	2.550000e+00	1.576316e+05	
52	2.600000e+00	1.597725e+05	
53	2.650000e+00	1.618249e+05	
54	2.700000e+00	1.637929e+05	

Index   v-sweep         rds             
--------------------------------------------------------------------------------
55	2.750000e+00	1.656798e+05	
56	2.800000e+00	1.674883e+05	
57	2.850000e+00	1.692197e+05	
58	2.900000e+00	1.708744e+05	
59	2.950000e+00	1.724509e+05	
60	3.000000e+00	1.739460e+05	
61	3.050000e+00	1.753543e+05	
62	3.100000e+00	1.766676e+05	
63	3.150000e+00	1.778747e+05	
64	3.200000e+00	1.789607e+05	
65	3.250000e+00	1.799068e+05	
66	3.300000e+00	1.806901e+05	
Reset re-loads circuit ***************************

Circuit: ***************************

Doing analysis at TEMP = 125.000000 and TNOM = 125.000000


No. of Data Rows : 67
                          ***************************
                          DC transfer characteristic  Mon Jan  9 13:57:20  2023
--------------------------------------------------------------------------------
Index   v-sweep         rds             
--------------------------------------------------------------------------------
0	0.000000e+00	4.302924e+03	
1	5.000000e-02	4.510971e+03	
2	1.000000e-01	4.731250e+03	
3	1.500000e-01	4.964817e+03	
4	2.000000e-01	5.212859e+03	
5	2.500000e-01	5.476707e+03	
6	3.000000e-01	5.757867e+03	
7	3.500000e-01	6.058046e+03	
8	4.000000e-01	6.379191e+03	
9	4.500000e-01	6.723533e+03	
10	5.000000e-01	7.093647e+03	
11	5.500000e-01	7.492525e+03	
12	6.000000e-01	7.923676e+03	
13	6.500000e-01	8.391262e+03	
14	7.000000e-01	8.900282e+03	
15	7.500000e-01	9.456845e+03	
16	8.000000e-01	1.006857e+04	
17	8.500000e-01	1.074521e+04	
18	9.000000e-01	1.149964e+04	
19	9.500000e-01	1.234945e+04	
20	1.000000e+00	1.331951e+04	
21	1.050000e+00	1.444599e+04	
22	1.100000e+00	1.578189e+04	
23	1.150000e+00	1.740282e+04	
24	1.200000e+00	1.940802e+04	
25	1.250000e+00	2.190747e+04	
26	1.300000e+00	2.498888e+04	
27	1.350000e+00	2.867737e+04	
28	1.400000e+00	3.291712e+04	
29	1.450000e+00	3.759002e+04	
30	1.500000e+00	4.255389e+04	
31	1.550000e+00	4.767491e+04	
32	1.600000e+00	5.284385e+04	
33	1.650000e+00	5.797924e+04	
34	1.700000e+00	6.302410e+04	
35	1.750000e+00	6.794066e+04	
36	1.800000e+00	7.270540e+04	
37	1.850000e+00	7.730489e+04	
38	1.900000e+00	8.173282e+04	
39	1.950000e+00	8.598767e+04	
40	2.000000e+00	9.007122e+04	
41	2.050000e+00	9.398736e+04	
42	2.100000e+00	9.774135e+04	
43	2.150000e+00	1.013393e+05	
44	2.200000e+00	1.047876e+05	
45	2.250000e+00	1.080932e+05	
46	2.300000e+00	1.112625e+05	
47	2.350000e+00	1.143024e+05	
48	2.400000e+00	1.172192e+05	
49	2.450000e+00	1.200190e+05	
50	2.500000e+00	1.227077e+05	
51	2.550000e+00	1.252911e+05	
52	2.600000e+00	1.277744e+05	
53	2.650000e+00	1.301626e+05	
54	2.700000e+00	1.324605e+05	

Index   v-sweep         rds             
--------------------------------------------------------------------------------
55	2.750000e+00	1.346723e+05	
56	2.800000e+00	1.368022e+05	
57	2.850000e+00	1.388536e+05	
58	2.900000e+00	1.408297e+05	
59	2.950000e+00	1.427329e+05	
60	3.000000e+00	1.445648e+05	
61	3.050000e+00	1.463262e+05	
62	3.100000e+00	1.480166e+05	
63	3.150000e+00	1.496337e+05	
64	3.200000e+00	1.511737e+05	
65	3.250000e+00	1.526302e+05	
66	3.300000e+00	1.539942e+05	
Reset re-loads circuit ***************************

Circuit: ***************************

Doing analysis at TEMP = 125.000000 and TNOM = 125.000000


No. of Data Rows : 67
                          ***************************
                          DC transfer characteristic  Mon Jan  9 13:57:20  2023
--------------------------------------------------------------------------------
Index   v-sweep         rds             
--------------------------------------------------------------------------------
0	0.000000e+00	3.830129e+03	
1	5.000000e-02	3.991753e+03	
2	1.000000e-01	4.161353e+03	
3	1.500000e-01	4.339497e+03	
4	2.000000e-01	4.526813e+03	
5	2.500000e-01	4.723992e+03	
6	3.000000e-01	4.931799e+03	
7	3.500000e-01	5.151080e+03	
8	4.000000e-01	5.382778e+03	
9	4.500000e-01	5.627947e+03	
10	5.000000e-01	5.887765e+03	
11	5.500000e-01	6.163562e+03	
12	6.000000e-01	6.456844e+03	
13	6.500000e-01	6.769326e+03	
14	7.000000e-01	7.102979e+03	
15	7.500000e-01	7.460088e+03	
16	8.000000e-01	7.843330e+03	
17	8.500000e-01	8.255891e+03	
18	9.000000e-01	8.701623e+03	
19	9.500000e-01	9.185292e+03	
20	1.000000e+00	9.712941e+03	
21	1.050000e+00	1.029248e+04	
22	1.100000e+00	1.093461e+04	
23	1.150000e+00	1.165427e+04	
24	1.200000e+00	1.247295e+04	
25	1.250000e+00	1.342196e+04	
26	1.300000e+00	1.454653e+04	
27	1.350000e+00	1.590912e+04	
28	1.400000e+00	1.758799e+04	
29	1.450000e+00	1.966545e+04	
30	1.500000e+00	2.220424e+04	
31	1.550000e+00	2.522217e+04	
32	1.600000e+00	2.868201e+04	
33	1.650000e+00	3.250343e+04	
34	1.700000e+00	3.658681e+04	
35	1.750000e+00	4.083439e+04	
36	1.800000e+00	4.516240e+04	
37	1.850000e+00	4.950484e+04	
38	1.900000e+00	5.381266e+04	
39	1.950000e+00	5.805091e+04	
40	2.000000e+00	6.219566e+04	
41	2.050000e+00	6.623128e+04	
42	2.100000e+00	7.014818e+04	
43	2.150000e+00	7.394116e+04	
44	2.200000e+00	7.760816e+04	
45	2.250000e+00	8.114930e+04	
46	2.300000e+00	8.456627e+04	
47	2.350000e+00	8.786178e+04	
48	2.400000e+00	9.103924e+04	
49	2.450000e+00	9.410251e+04	
50	2.500000e+00	9.705570e+04	
51	2.550000e+00	9.990304e+04	
52	2.600000e+00	1.026488e+05	
53	2.650000e+00	1.052972e+05	
54	2.700000e+00	1.078524e+05	

Index   v-sweep         rds             
--------------------------------------------------------------------------------
55	2.750000e+00	1.103184e+05	
56	2.800000e+00	1.126991e+05	
57	2.850000e+00	1.149982e+05	
58	2.900000e+00	1.172192e+05	
59	2.950000e+00	1.193653e+05	
60	3.000000e+00	1.214396e+05	
61	3.050000e+00	1.234447e+05	
62	3.100000e+00	1.253828e+05	
63	3.150000e+00	1.272555e+05	
64	3.200000e+00	1.290635e+05	
65	3.250000e+00	1.308068e+05	
66	3.300000e+00	1.324839e+05	
Reset re-loads circuit ***************************

Circuit: ***************************

Note: No ".plot", ".print", or ".fourier" lines; no simulations run
