
Note: Compatibility modes selected: hs

Warning: m=xx on .subckt line will override multiplier m hierarchy!


Circuit: ***************************

Doing analysis at TEMP = -40.000000 and TNOM = -40.000000


No. of Data Rows : 67
                          ***************************
                          DC transfer characteristic  Mon Jan  9 13:57:20  2023
--------------------------------------------------------------------------------
Index   v-sweep         rds             
--------------------------------------------------------------------------------
0	0.000000e+00	3.165160e+04	
1	5.000000e-02	5.474009e+04	
2	1.000000e-01	1.169934e+05	
3	1.500000e-01	2.533779e+05	
4	2.000000e-01	4.075688e+05	
5	2.500000e-01	5.171243e+05	
6	3.000000e-01	5.855724e+05	
7	3.500000e-01	6.284066e+05	
8	4.000000e-01	6.558197e+05	
9	4.500000e-01	6.735978e+05	
10	5.000000e-01	6.850745e+05	
11	5.500000e-01	6.922598e+05	
12	6.000000e-01	6.964236e+05	
13	6.500000e-01	6.984024e+05	
14	7.000000e-01	6.987672e+05	
15	7.500000e-01	6.979196e+05	
16	8.000000e-01	6.961494e+05	
17	8.500000e-01	6.936703e+05	
18	9.000000e-01	6.906427e+05	
19	9.500000e-01	6.871893e+05	
20	1.000000e+00	6.834047e+05	
21	1.050000e+00	6.793633e+05	
22	1.100000e+00	6.751239e+05	
23	1.150000e+00	6.707332e+05	
24	1.200000e+00	6.662292e+05	
25	1.250000e+00	6.616425e+05	
26	1.300000e+00	6.569978e+05	
27	1.350000e+00	6.523157e+05	
28	1.400000e+00	6.476129e+05	
29	1.450000e+00	6.429033e+05	
30	1.500000e+00	6.381983e+05	
31	1.550000e+00	6.335073e+05	
32	1.600000e+00	6.288381e+05	
33	1.650000e+00	6.241971e+05	
34	1.700000e+00	6.195895e+05	
35	1.750000e+00	6.150194e+05	
36	1.800000e+00	6.104900e+05	
37	1.850000e+00	6.060037e+05	
38	1.900000e+00	6.015619e+05	
39	1.950000e+00	5.971653e+05	
40	2.000000e+00	5.928135e+05	
41	2.050000e+00	5.885053e+05	
42	2.100000e+00	5.842386e+05	
43	2.150000e+00	5.800098e+05	
44	2.200000e+00	5.758144e+05	
45	2.250000e+00	5.716463e+05	
46	2.300000e+00	5.674980e+05	
47	2.350000e+00	5.633603e+05	
48	2.400000e+00	5.592221e+05	
49	2.450000e+00	5.550706e+05	
50	2.500000e+00	5.508906e+05	
51	2.550000e+00	5.466651e+05	
52	2.600000e+00	5.423748e+05	
53	2.650000e+00	5.379981e+05	
54	2.700000e+00	5.335113e+05	

Index   v-sweep         rds             
--------------------------------------------------------------------------------
55	2.750000e+00	5.288887e+05	
56	2.800000e+00	5.241025e+05	
57	2.850000e+00	5.191235e+05	
58	2.900000e+00	5.139210e+05	
59	2.950000e+00	5.084634e+05	
60	3.000000e+00	5.027188e+05	
61	3.050000e+00	4.966554e+05	
62	3.100000e+00	4.902426e+05	
63	3.150000e+00	4.834512e+05	
64	3.200000e+00	4.762550e+05	
65	3.250000e+00	4.686311e+05	
66	3.300000e+00	4.605611e+05	
Reset re-loads circuit ***************************

Circuit: ***************************

Doing analysis at TEMP = -40.000000 and TNOM = -40.000000


No. of Data Rows : 67
                          ***************************
                          DC transfer characteristic  Mon Jan  9 13:57:20  2023
--------------------------------------------------------------------------------
Index   v-sweep         rds             
--------------------------------------------------------------------------------
0	0.000000e+00	6.004259e+03	
1	5.000000e-02	6.941345e+03	
2	1.000000e-01	8.097735e+03	
3	1.500000e-01	9.558791e+03	
4	2.000000e-01	1.146115e+04	
5	2.500000e-01	1.403640e+04	
6	3.000000e-01	1.769566e+04	
7	3.500000e-01	2.314945e+04	
8	4.000000e-01	3.135559e+04	
9	4.500000e-01	4.283391e+04	
10	5.000000e-01	5.684637e+04	
11	5.500000e-01	7.185024e+04	
12	6.000000e-01	8.653427e+04	
13	6.500000e-01	1.001795e+05	
14	7.000000e-01	1.125186e+05	
15	7.500000e-01	1.235305e+05	
16	8.000000e-01	1.333049e+05	
17	8.500000e-01	1.419706e+05	
18	9.000000e-01	1.496622e+05	
19	9.500000e-01	1.565054e+05	
20	1.000000e+00	1.626119e+05	
21	1.050000e+00	1.680788e+05	
22	1.100000e+00	1.729894e+05	
23	1.150000e+00	1.774147e+05	
24	1.200000e+00	1.814154e+05	
25	1.250000e+00	1.850429e+05	
26	1.300000e+00	1.883415e+05	
27	1.350000e+00	1.913490e+05	
28	1.400000e+00	1.940980e+05	
29	1.450000e+00	1.966165e+05	
30	1.500000e+00	1.989290e+05	
31	1.550000e+00	2.010565e+05	
32	1.600000e+00	2.030176e+05	
33	1.650000e+00	2.048284e+05	
34	1.700000e+00	2.065033e+05	
35	1.750000e+00	2.080546e+05	
36	1.800000e+00	2.094936e+05	
37	1.850000e+00	2.108299e+05	
38	1.900000e+00	2.120724e+05	
39	1.950000e+00	2.132286e+05	
40	2.000000e+00	2.143053e+05	
41	2.050000e+00	2.153084e+05	
42	2.100000e+00	2.162427e+05	
43	2.150000e+00	2.171124e+05	
44	2.200000e+00	2.179207e+05	
45	2.250000e+00	2.186695e+05	
46	2.300000e+00	2.193600e+05	
47	2.350000e+00	2.199917e+05	
48	2.400000e+00	2.205629e+05	
49	2.450000e+00	2.210702e+05	
50	2.500000e+00	2.215083e+05	
51	2.550000e+00	2.218697e+05	
52	2.600000e+00	2.221448e+05	
53	2.650000e+00	2.223215e+05	
54	2.700000e+00	2.223849e+05	

Index   v-sweep         rds             
--------------------------------------------------------------------------------
55	2.750000e+00	2.223173e+05	
56	2.800000e+00	2.220983e+05	
57	2.850000e+00	2.217048e+05	
58	2.900000e+00	2.211109e+05	
59	2.950000e+00	2.202885e+05	
60	3.000000e+00	2.192079e+05	
61	3.050000e+00	2.178380e+05	
62	3.100000e+00	2.161479e+05	
63	3.150000e+00	2.141074e+05	
64	3.200000e+00	2.116884e+05	
65	3.250000e+00	2.088665e+05	
66	3.300000e+00	2.056224e+05	
Reset re-loads circuit ***************************

Circuit: ***************************

Doing analysis at TEMP = -40.000000 and TNOM = -40.000000


No. of Data Rows : 67
                          ***************************
                          DC transfer characteristic  Mon Jan  9 13:57:20  2023
--------------------------------------------------------------------------------
Index   v-sweep         rds             
--------------------------------------------------------------------------------
0	0.000000e+00	3.883040e+03	
1	5.000000e-02	4.271150e+03	
2	1.000000e-01	4.708820e+03	
3	1.500000e-01	5.205903e+03	
4	2.000000e-01	5.775221e+03	
5	2.500000e-01	6.433914e+03	
6	3.000000e-01	7.205710e+03	
7	3.500000e-01	8.124981e+03	
8	4.000000e-01	9.244441e+03	
9	4.500000e-01	1.065001e+04	
10	5.000000e-01	1.248783e+04	
11	5.500000e-01	1.500079e+04	
12	6.000000e-01	1.853284e+04	
13	6.500000e-01	2.340634e+04	
14	7.000000e-01	2.968457e+04	
15	7.500000e-01	3.707856e+04	
16	8.000000e-01	4.511630e+04	
17	8.500000e-01	5.335490e+04	
18	9.000000e-01	6.147469e+04	
19	9.500000e-01	6.927967e+04	
20	1.000000e+00	7.666581e+04	
21	1.050000e+00	8.358914e+04	
22	1.100000e+00	9.004202e+04	
23	1.150000e+00	9.603755e+04	
24	1.200000e+00	1.015998e+05	
25	1.250000e+00	1.067579e+05	
26	1.300000e+00	1.115426e+05	
27	1.350000e+00	1.159842e+05	
28	1.400000e+00	1.201117e+05	
29	1.450000e+00	1.239521e+05	
30	1.500000e+00	1.275303e+05	
31	1.550000e+00	1.308688e+05	
32	1.600000e+00	1.339883e+05	
33	1.650000e+00	1.369074e+05	
34	1.700000e+00	1.396428e+05	
35	1.750000e+00	1.422098e+05	
36	1.800000e+00	1.446219e+05	
37	1.850000e+00	1.468917e+05	
38	1.900000e+00	1.490302e+05	
39	1.950000e+00	1.510475e+05	
40	2.000000e+00	1.529527e+05	
41	2.050000e+00	1.547542e+05	
42	2.100000e+00	1.564592e+05	
43	2.150000e+00	1.580746e+05	
44	2.200000e+00	1.596061e+05	
45	2.250000e+00	1.610590e+05	
46	2.300000e+00	1.624377e+05	
47	2.350000e+00	1.637458e+05	
48	2.400000e+00	1.649858e+05	
49	2.450000e+00	1.661593e+05	
50	2.500000e+00	1.672665e+05	
51	2.550000e+00	1.683062e+05	
52	2.600000e+00	1.692755e+05	
53	2.650000e+00	1.701692e+05	
54	2.700000e+00	1.709803e+05	

Index   v-sweep         rds             
--------------------------------------------------------------------------------
55	2.750000e+00	1.716986e+05	
56	2.800000e+00	1.723114e+05	
57	2.850000e+00	1.728028e+05	
58	2.900000e+00	1.731535e+05	
59	2.950000e+00	1.733406e+05	
60	3.000000e+00	1.733381e+05	
61	3.050000e+00	1.731168e+05	
62	3.100000e+00	1.726445e+05	
63	3.150000e+00	1.718876e+05	
64	3.200000e+00	1.708110e+05	
65	3.250000e+00	1.693805e+05	
66	3.300000e+00	1.675637e+05	
Reset re-loads circuit ***************************

Circuit: ***************************

Doing analysis at TEMP = -40.000000 and TNOM = -40.000000


No. of Data Rows : 67
                          ***************************
                          DC transfer characteristic  Mon Jan  9 13:57:20  2023
--------------------------------------------------------------------------------
Index   v-sweep         rds             
--------------------------------------------------------------------------------
0	0.000000e+00	3.124677e+03	
1	5.000000e-02	3.362284e+03	
2	1.000000e-01	3.621179e+03	
3	1.500000e-01	3.904220e+03	
4	2.000000e-01	4.214839e+03	
5	2.500000e-01	4.557208e+03	
6	3.000000e-01	4.936493e+03	
7	3.500000e-01	5.359226e+03	
8	4.000000e-01	5.833912e+03	
9	4.500000e-01	6.372041e+03	
10	5.000000e-01	6.989892e+03	
11	5.500000e-01	7.711819e+03	
12	6.000000e-01	8.576352e+03	
13	6.500000e-01	9.647001e+03	
14	7.000000e-01	1.102865e+04	
15	7.500000e-01	1.288256e+04	
16	8.000000e-01	1.541400e+04	
17	8.500000e-01	1.880005e+04	
18	9.000000e-01	2.308559e+04	
19	9.500000e-01	2.814601e+04	
20	1.000000e+00	3.375104e+04	
21	1.050000e+00	3.965583e+04	
22	1.100000e+00	4.565600e+04	
23	1.150000e+00	5.160279e+04	
24	1.200000e+00	5.739735e+04	
25	1.250000e+00	6.297914e+04	
26	1.300000e+00	6.831470e+04	
27	1.350000e+00	7.338883e+04	
28	1.400000e+00	7.819832e+04	
29	1.450000e+00	8.274750e+04	
30	1.500000e+00	8.704534e+04	
31	1.550000e+00	9.110339e+04	
32	1.600000e+00	9.493457e+04	
33	1.650000e+00	9.855227e+04	
34	1.700000e+00	1.019698e+05	
35	1.750000e+00	1.052003e+05	
36	1.800000e+00	1.082559e+05	
37	1.850000e+00	1.111485e+05	
38	1.900000e+00	1.138890e+05	
39	1.950000e+00	1.164876e+05	
40	2.000000e+00	1.189540e+05	
41	2.050000e+00	1.212968e+05	
42	2.100000e+00	1.235242e+05	
43	2.150000e+00	1.256438e+05	
44	2.200000e+00	1.276625e+05	
45	2.250000e+00	1.295866e+05	
46	2.300000e+00	1.314220e+05	
47	2.350000e+00	1.331739e+05	
48	2.400000e+00	1.348469e+05	
49	2.450000e+00	1.364452e+05	
50	2.500000e+00	1.379720e+05	
51	2.550000e+00	1.394299e+05	
52	2.600000e+00	1.408203e+05	
53	2.650000e+00	1.421436e+05	
54	2.700000e+00	1.433987e+05	

Index   v-sweep         rds             
--------------------------------------------------------------------------------
55	2.750000e+00	1.445829e+05	
56	2.800000e+00	1.456911e+05	
57	2.850000e+00	1.467162e+05	
58	2.900000e+00	1.476481e+05	
59	2.950000e+00	1.484737e+05	
60	3.000000e+00	1.491763e+05	
61	3.050000e+00	1.497355e+05	
62	3.100000e+00	1.501272e+05	
63	3.150000e+00	1.503233e+05	
64	3.200000e+00	1.502920e+05	
65	3.250000e+00	1.499987e+05	
66	3.300000e+00	1.494065e+05	
Reset re-loads circuit ***************************

Circuit: ***************************

Doing analysis at TEMP = -40.000000 and TNOM = -40.000000


No. of Data Rows : 67
                          ***************************
                          DC transfer characteristic  Mon Jan  9 13:57:20  2023
--------------------------------------------------------------------------------
Index   v-sweep         rds             
--------------------------------------------------------------------------------
0	0.000000e+00	2.741113e+03	
1	5.000000e-02	2.911115e+03	
2	1.000000e-01	3.092947e+03	
3	1.500000e-01	3.287810e+03	
4	2.000000e-01	3.497087e+03	
5	2.500000e-01	3.722380e+03	
6	3.000000e-01	3.965561e+03	
7	3.500000e-01	4.228850e+03	
8	4.000000e-01	4.514912e+03	
9	4.500000e-01	4.827012e+03	
10	5.000000e-01	5.169247e+03	
11	5.500000e-01	5.546927e+03	
12	6.000000e-01	5.967201e+03	
13	6.500000e-01	6.440144e+03	
14	7.000000e-01	6.980674e+03	
15	7.500000e-01	7.611932e+03	
16	8.000000e-01	8.371028e+03	
17	8.500000e-01	9.317757e+03	
18	9.000000e-01	1.054440e+04	
19	9.500000e-01	1.217770e+04	
20	1.000000e+00	1.435648e+04	
21	1.050000e+00	1.717920e+04	
22	1.100000e+00	2.065302e+04	
23	1.150000e+00	2.468846e+04	
24	1.200000e+00	2.913927e+04	
25	1.250000e+00	3.384975e+04	
26	1.300000e+00	3.868417e+04	
27	1.350000e+00	4.353700e+04	
28	1.400000e+00	4.833203e+04	
29	1.450000e+00	5.301718e+04	
30	1.500000e+00	5.755884e+04	
31	1.550000e+00	6.193682e+04	
32	1.600000e+00	6.614047e+04	
33	1.650000e+00	7.016572e+04	
34	1.700000e+00	7.401302e+04	
35	1.750000e+00	7.768583e+04	
36	1.800000e+00	8.118951e+04	
37	1.850000e+00	8.453061e+04	
38	1.900000e+00	8.771637e+04	
39	1.950000e+00	9.075429e+04	
40	2.000000e+00	9.365197e+04	
41	2.050000e+00	9.641687e+04	
42	2.100000e+00	9.905626e+04	
43	2.150000e+00	1.015771e+05	
44	2.200000e+00	1.039861e+05	
45	2.250000e+00	1.062894e+05	
46	2.300000e+00	1.084931e+05	
47	2.350000e+00	1.106028e+05	
48	2.400000e+00	1.126236e+05	
49	2.450000e+00	1.145604e+05	
50	2.500000e+00	1.164176e+05	
51	2.550000e+00	1.181993e+05	
52	2.600000e+00	1.199090e+05	
53	2.650000e+00	1.215496e+05	
54	2.700000e+00	1.231233e+05	

Index   v-sweep         rds             
--------------------------------------------------------------------------------
55	2.750000e+00	1.246315e+05	
56	2.800000e+00	1.260746e+05	
57	2.850000e+00	1.274514e+05	
58	2.900000e+00	1.287592e+05	
59	2.950000e+00	1.299934e+05	
60	3.000000e+00	1.311469e+05	
61	3.050000e+00	1.322096e+05	
62	3.100000e+00	1.331685e+05	
63	3.150000e+00	1.340068e+05	
64	3.200000e+00	1.347036e+05	
65	3.250000e+00	1.352340e+05	
66	3.300000e+00	1.355688e+05	
Reset re-loads circuit ***************************

Circuit: ***************************

Doing analysis at TEMP = -40.000000 and TNOM = -40.000000


No. of Data Rows : 67
                          ***************************
                          DC transfer characteristic  Mon Jan  9 13:57:20  2023
--------------------------------------------------------------------------------
Index   v-sweep         rds             
--------------------------------------------------------------------------------
0	0.000000e+00	2.513342e+03	
1	5.000000e-02	2.645469e+03	
2	1.000000e-01	2.785142e+03	
3	1.500000e-01	2.932977e+03	
4	2.000000e-01	3.089667e+03	
5	2.500000e-01	3.255988e+03	
6	3.000000e-01	3.432822e+03	
7	3.500000e-01	3.621171e+03	
8	4.000000e-01	3.822190e+03	
9	4.500000e-01	4.037218e+03	
10	5.000000e-01	4.267835e+03	
11	5.500000e-01	4.515930e+03	
12	6.000000e-01	4.783818e+03	
13	6.500000e-01	5.074404e+03	
14	7.000000e-01	5.391462e+03	
15	7.500000e-01	5.740076e+03	
16	8.000000e-01	6.127394e+03	
17	8.500000e-01	6.563901e+03	
18	9.000000e-01	7.065573e+03	
19	9.500000e-01	7.657397e+03	
20	1.000000e+00	8.378630e+03	
21	1.050000e+00	9.289124e+03	
22	1.100000e+00	1.047302e+04	
23	1.150000e+00	1.203164e+04	
24	1.200000e+00	1.405819e+04	
25	1.250000e+00	1.660169e+04	
26	1.300000e+00	1.964479e+04	
27	1.350000e+00	2.311192e+04	
28	1.400000e+00	2.689719e+04	
29	1.450000e+00	3.089167e+04	
30	1.500000e+00	3.499959e+04	
31	1.550000e+00	3.914426e+04	
32	1.600000e+00	4.326784e+04	
33	1.650000e+00	4.732862e+04	
34	1.700000e+00	5.129769e+04	
35	1.750000e+00	5.515589e+04	
36	1.800000e+00	5.889131e+04	
37	1.850000e+00	6.249731e+04	
38	1.900000e+00	6.597105e+04	
39	1.950000e+00	6.931240e+04	
40	2.000000e+00	7.252312e+04	
41	2.050000e+00	7.560623e+04	
42	2.100000e+00	7.856564e+04	
43	2.150000e+00	8.140577e+04	
44	2.200000e+00	8.413135e+04	
45	2.250000e+00	8.674727e+04	
46	2.300000e+00	8.925843e+04	
47	2.350000e+00	9.166969e+04	
48	2.400000e+00	9.398578e+04	
49	2.450000e+00	9.621129e+04	
50	2.500000e+00	9.835060e+04	
51	2.550000e+00	1.004079e+05	
52	2.600000e+00	1.023872e+05	
53	2.650000e+00	1.042921e+05	
54	2.700000e+00	1.061260e+05	

Index   v-sweep         rds             
--------------------------------------------------------------------------------
55	2.750000e+00	1.078919e+05	
56	2.800000e+00	1.095923e+05	
57	2.850000e+00	1.112293e+05	
58	2.900000e+00	1.128039e+05	
59	2.950000e+00	1.143164e+05	
60	3.000000e+00	1.157658e+05	
61	3.050000e+00	1.171496e+05	
62	3.100000e+00	1.184633e+05	
63	3.150000e+00	1.197001e+05	
64	3.200000e+00	1.208504e+05	
65	3.250000e+00	1.219013e+05	
66	3.300000e+00	1.228363e+05	
Reset re-loads circuit ***************************

Circuit: ***************************

Note: No ".plot", ".print", or ".fourier" lines; no simulations run
