
Note: Compatibility modes selected: hs

Warning: m=xx on .subckt line will override multiplier m hierarchy!


Circuit: ***************************

Doing analysis at TEMP = 125.000000 and TNOM = 125.000000


No. of Data Rows : 67
                          ***************************
                          DC transfer characteristic  Mon Jan  9 13:58:14  2023
--------------------------------------------------------------------------------
Index   v-sweep         rds             
--------------------------------------------------------------------------------
0	0.000000e+00	4.141591e+05	
1	5.000000e-02	5.246043e+05	
2	1.000000e-01	7.140995e+05	
3	1.500000e-01	1.111666e+06	
4	2.000000e-01	2.366268e+06	
5	2.500000e-01	1.015423e+07	
6	3.000000e-01	4.776489e+07	
7	3.500000e-01	1.109395e+08	
8	4.000000e-01	1.687193e+08	
9	4.500000e-01	2.136285e+08	
10	5.000000e-01	2.484372e+08	
11	5.500000e-01	2.762226e+08	
12	6.000000e-01	2.990565e+08	
13	6.500000e-01	3.182660e+08	
14	7.000000e-01	3.347240e+08	
15	7.500000e-01	3.490286e+08	
16	8.000000e-01	3.616057e+08	
17	8.500000e-01	3.727692e+08	
18	9.000000e-01	3.827570e+08	
19	9.500000e-01	3.917536e+08	
20	1.000000e+00	3.999051e+08	
21	1.050000e+00	4.073292e+08	
22	1.100000e+00	4.141216e+08	
23	1.150000e+00	4.203617e+08	
24	1.200000e+00	4.261155e+08	
25	1.250000e+00	4.314387e+08	
26	1.300000e+00	4.363787e+08	
27	1.350000e+00	4.409759e+08	
28	1.400000e+00	4.452653e+08	
29	1.450000e+00	4.492770e+08	
30	1.500000e+00	4.530375e+08	
31	1.550000e+00	4.565697e+08	
32	1.600000e+00	4.598938e+08	
33	1.650000e+00	4.630279e+08	
34	1.700000e+00	4.659876e+08	
35	1.750000e+00	4.687868e+08	
36	1.800000e+00	4.714378e+08	
37	1.850000e+00	4.739514e+08	
38	1.900000e+00	4.763366e+08	
39	1.950000e+00	4.786012e+08	
40	2.000000e+00	4.807514e+08	
41	2.050000e+00	4.827914e+08	
42	2.100000e+00	4.847241e+08	
43	2.150000e+00	4.865498e+08	
44	2.200000e+00	4.882669e+08	
45	2.250000e+00	4.898707e+08	
46	2.300000e+00	4.913541e+08	
47	2.350000e+00	4.927062e+08	
48	2.400000e+00	4.939127e+08	
49	2.450000e+00	4.949551e+08	
50	2.500000e+00	4.958108e+08	
51	2.550000e+00	4.964526e+08	
52	2.600000e+00	4.968483e+08	
53	2.650000e+00	4.969614e+08	
54	2.700000e+00	4.967505e+08	

Index   v-sweep         rds             
--------------------------------------------------------------------------------
55	2.750000e+00	4.961698e+08	
56	2.800000e+00	4.951698e+08	
57	2.850000e+00	4.936978e+08	
58	2.900000e+00	4.916991e+08	
59	2.950000e+00	4.891181e+08	
60	3.000000e+00	4.859002e+08	
61	3.050000e+00	4.819933e+08	
62	3.100000e+00	4.773497e+08	
63	3.150000e+00	4.719288e+08	
64	3.200000e+00	4.656987e+08	
65	3.250000e+00	4.586384e+08	
66	3.300000e+00	4.507398e+08	
Reset re-loads circuit ***************************

Circuit: ***************************

Doing analysis at TEMP = 125.000000 and TNOM = 125.000000


No. of Data Rows : 67
                          ***************************
                          DC transfer characteristic  Mon Jan  9 13:58:14  2023
--------------------------------------------------------------------------------
Index   v-sweep         rds             
--------------------------------------------------------------------------------
0	0.000000e+00	1.510979e+05	
1	5.000000e-02	1.648231e+05	
2	1.000000e-01	1.812325e+05	
3	1.500000e-01	2.011982e+05	
4	2.000000e-01	2.260154e+05	
5	2.500000e-01	2.576939e+05	
6	3.000000e-01	2.995273e+05	
7	3.500000e-01	3.573043e+05	
8	4.000000e-01	4.421844e+05	
9	4.500000e-01	5.785811e+05	
10	5.000000e-01	8.302274e+05	
11	5.500000e-01	1.406872e+06	
12	6.000000e-01	3.115708e+06	
13	6.500000e-01	8.004571e+06	
14	7.000000e-01	1.676198e+07	
15	7.500000e-01	2.692550e+07	
16	8.000000e-01	3.660453e+07	
17	8.500000e-01	4.530045e+07	
18	9.000000e-01	5.304507e+07	
19	9.500000e-01	5.997672e+07	
20	1.000000e+00	6.622809e+07	
21	1.050000e+00	7.190704e+07	
22	1.100000e+00	7.709859e+07	
23	1.150000e+00	8.187008e+07	
24	1.200000e+00	8.627558e+07	
25	1.250000e+00	9.035922e+07	
26	1.300000e+00	9.415760e+07	
27	1.350000e+00	9.770143e+07	
28	1.400000e+00	1.010168e+08	
29	1.450000e+00	1.041261e+08	
30	1.500000e+00	1.070487e+08	
31	1.550000e+00	1.098014e+08	
32	1.600000e+00	1.123991e+08	
33	1.650000e+00	1.148548e+08	
34	1.700000e+00	1.171801e+08	
35	1.750000e+00	1.193853e+08	
36	1.800000e+00	1.214797e+08	
37	1.850000e+00	1.234714e+08	
38	1.900000e+00	1.253680e+08	
39	1.950000e+00	1.271762e+08	
40	2.000000e+00	1.289019e+08	
41	2.050000e+00	1.305508e+08	
42	2.100000e+00	1.321277e+08	
43	2.150000e+00	1.336371e+08	
44	2.200000e+00	1.350828e+08	
45	2.250000e+00	1.364682e+08	
46	2.300000e+00	1.377961e+08	
47	2.350000e+00	1.390685e+08	
48	2.400000e+00	1.402868e+08	
49	2.450000e+00	1.414515e+08	
50	2.500000e+00	1.425619e+08	
51	2.550000e+00	1.436161e+08	
52	2.600000e+00	1.446108e+08	
53	2.650000e+00	1.455409e+08	
54	2.700000e+00	1.463993e+08	

Index   v-sweep         rds             
--------------------------------------------------------------------------------
55	2.750000e+00	1.471769e+08	
56	2.800000e+00	1.478621e+08	
57	2.850000e+00	1.484404e+08	
58	2.900000e+00	1.488950e+08	
59	2.950000e+00	1.492060e+08	
60	3.000000e+00	1.493511e+08	
61	3.050000e+00	1.493053e+08	
62	3.100000e+00	1.490416e+08	
63	3.150000e+00	1.485318e+08	
64	3.200000e+00	1.477472e+08	
65	3.250000e+00	1.466595e+08	
66	3.300000e+00	1.452428e+08	
Reset re-loads circuit ***************************

Circuit: ***************************

Doing analysis at TEMP = 125.000000 and TNOM = 125.000000


No. of Data Rows : 67
                          ***************************
                          DC transfer characteristic  Mon Jan  9 13:58:14  2023
--------------------------------------------------------------------------------
Index   v-sweep         rds             
--------------------------------------------------------------------------------
0	0.000000e+00	9.601058e+04	
1	5.000000e-02	1.011513e+05	
2	1.000000e-01	1.068552e+05	
3	1.500000e-01	1.132202e+05	
4	2.000000e-01	1.203681e+05	
5	2.500000e-01	1.284529e+05	
6	3.000000e-01	1.376715e+05	
7	3.500000e-01	1.482804e+05	
8	4.000000e-01	1.606196e+05	
9	4.500000e-01	1.751493e+05	
10	5.000000e-01	1.925093e+05	
11	5.500000e-01	2.136140e+05	
12	6.000000e-01	2.398185e+05	
13	6.500000e-01	2.732177e+05	
14	7.000000e-01	3.172249e+05	
15	7.500000e-01	3.777837e+05	
16	8.000000e-01	4.661569e+05	
17	8.500000e-01	6.061257e+05	
18	9.000000e-01	8.548770e+05	
19	9.500000e-01	1.365977e+06	
20	1.000000e+00	2.520282e+06	
21	1.050000e+00	4.825154e+06	
22	1.100000e+00	8.217105e+06	
23	1.150000e+00	1.208182e+07	
24	1.200000e+00	1.595347e+07	
25	1.250000e+00	1.964483e+07	
26	1.300000e+00	2.310856e+07	
27	1.350000e+00	2.634701e+07	
28	1.400000e+00	2.937688e+07	
29	1.450000e+00	3.221741e+07	
30	1.500000e+00	3.488674e+07	
31	1.550000e+00	3.740099e+07	
32	1.600000e+00	3.977433e+07	
33	1.650000e+00	4.201908e+07	
34	1.700000e+00	4.414609e+07	
35	1.750000e+00	4.616487e+07	
36	1.800000e+00	4.808389e+07	
37	1.850000e+00	4.991067e+07	
38	1.900000e+00	5.165193e+07	
39	1.950000e+00	5.331374e+07	
40	2.000000e+00	5.490155e+07	
41	2.050000e+00	5.642031e+07	
42	2.100000e+00	5.787453e+07	
43	2.150000e+00	5.926831e+07	
44	2.200000e+00	6.060539e+07	
45	2.250000e+00	6.188922e+07	
46	2.300000e+00	6.312294e+07	
47	2.350000e+00	6.430945e+07	
48	2.400000e+00	6.545141e+07	
49	2.450000e+00	6.655124e+07	
50	2.500000e+00	6.761116e+07	
51	2.550000e+00	6.863313e+07	
52	2.600000e+00	6.961890e+07	
53	2.650000e+00	7.056989e+07	
54	2.700000e+00	7.148722e+07	

Index   v-sweep         rds             
--------------------------------------------------------------------------------
55	2.750000e+00	7.237158e+07	
56	2.800000e+00	7.322317e+07	
57	2.850000e+00	7.404155e+07	
58	2.900000e+00	7.482556e+07	
59	2.950000e+00	7.557308e+07	
60	3.000000e+00	7.628093e+07	
61	3.050000e+00	7.694461e+07	
62	3.100000e+00	7.755817e+07	
63	3.150000e+00	7.811396e+07	
64	3.200000e+00	7.860250e+07	
65	3.250000e+00	7.901236e+07	
66	3.300000e+00	7.933008e+07	
Reset re-loads circuit ***************************

Circuit: ***************************

Doing analysis at TEMP = 125.000000 and TNOM = 125.000000


No. of Data Rows : 67
                          ***************************
                          DC transfer characteristic  Mon Jan  9 13:58:14  2023
--------------------------------------------------------------------------------
Index   v-sweep         rds             
--------------------------------------------------------------------------------
0	0.000000e+00	7.269330e+04	
1	5.000000e-02	7.539950e+04	
2	1.000000e-01	7.830615e+04	
3	1.500000e-01	8.143638e+04	
4	2.000000e-01	8.481700e+04	
5	2.500000e-01	8.847930e+04	
6	3.000000e-01	9.246001e+04	
7	3.500000e-01	9.680252e+04	
8	4.000000e-01	1.015585e+05	
9	4.500000e-01	1.067899e+05	
10	5.000000e-01	1.125717e+05	
11	5.500000e-01	1.189957e+05	
12	6.000000e-01	1.261749e+05	
13	6.500000e-01	1.342509e+05	
14	7.000000e-01	1.434029e+05	
15	7.500000e-01	1.538608e+05	
16	8.000000e-01	1.659257e+05	
17	8.500000e-01	1.799980e+05	
18	9.000000e-01	1.966236e+05	
19	9.500000e-01	2.165649e+05	
20	1.000000e+00	2.409201e+05	
21	1.050000e+00	2.713293e+05	
22	1.100000e+00	3.103503e+05	
23	1.150000e+00	3.621897e+05	
24	1.200000e+00	4.342289e+05	
25	1.250000e+00	5.404680e+05	
26	1.300000e+00	7.098268e+05	
27	1.350000e+00	1.005931e+06	
28	1.400000e+00	1.561217e+06	
29	1.450000e+00	2.564747e+06	
30	1.500000e+00	4.088277e+06	
31	1.550000e+00	5.975013e+06	
32	1.600000e+00	8.011203e+06	
33	1.650000e+00	1.006073e+07	
34	1.700000e+00	1.206039e+07	
35	1.750000e+00	1.398570e+07	
36	1.800000e+00	1.582948e+07	
37	1.850000e+00	1.759181e+07	
38	1.900000e+00	1.927572e+07	
39	1.950000e+00	2.088530e+07	
40	2.000000e+00	2.242491e+07	
41	2.050000e+00	2.389881e+07	
42	2.100000e+00	2.531107e+07	
43	2.150000e+00	2.666546e+07	
44	2.200000e+00	2.796550e+07	
45	2.250000e+00	2.921441e+07	
46	2.300000e+00	3.041520e+07	
47	2.350000e+00	3.157062e+07	
48	2.400000e+00	3.268322e+07	
49	2.450000e+00	3.375537e+07	
50	2.500000e+00	3.478925e+07	
51	2.550000e+00	3.578689e+07	
52	2.600000e+00	3.675018e+07	
53	2.650000e+00	3.768088e+07	
54	2.700000e+00	3.858061e+07	

Index   v-sweep         rds             
--------------------------------------------------------------------------------
55	2.750000e+00	3.945091e+07	
56	2.800000e+00	4.029318e+07	
57	2.850000e+00	4.110874e+07	
58	2.900000e+00	4.189878e+07	
59	2.950000e+00	4.266438e+07	
60	3.000000e+00	4.340649e+07	
61	3.050000e+00	4.412591e+07	
62	3.100000e+00	4.482321e+07	
63	3.150000e+00	4.549873e+07	
64	3.200000e+00	4.615246e+07	
65	3.250000e+00	4.678400e+07	
66	3.300000e+00	4.739240e+07	
Reset re-loads circuit ***************************

Circuit: ***************************

Doing analysis at TEMP = 125.000000 and TNOM = 125.000000


No. of Data Rows : 67
                          ***************************
                          DC transfer characteristic  Mon Jan  9 13:58:14  2023
--------------------------------------------------------------------------------
Index   v-sweep         rds             
--------------------------------------------------------------------------------
0	0.000000e+00	6.040433e+04	
1	5.000000e-02	6.210392e+04	
2	1.000000e-01	6.389682e+04	
3	1.500000e-01	6.579091e+04	
4	2.000000e-01	6.779500e+04	
5	2.500000e-01	6.991896e+04	
6	3.000000e-01	7.217386e+04	
7	3.500000e-01	7.457220e+04	
8	4.000000e-01	7.712811e+04	
9	4.500000e-01	7.985763e+04	
10	5.000000e-01	8.277907e+04	
11	5.500000e-01	8.591340e+04	
12	6.000000e-01	8.928476e+04	
13	6.500000e-01	9.292108e+04	
14	7.000000e-01	9.685487e+04	
15	7.500000e-01	1.011242e+05	
16	8.000000e-01	1.057738e+05	
17	8.500000e-01	1.108569e+05	
18	9.000000e-01	1.164371e+05	
19	9.500000e-01	1.225909e+05	
20	1.000000e+00	1.294117e+05	
21	1.050000e+00	1.370139e+05	
22	1.100000e+00	1.455400e+05	
23	1.150000e+00	1.551690e+05	
24	1.200000e+00	1.661297e+05	
25	1.250000e+00	1.787184e+05	
26	1.300000e+00	1.933263e+05	
27	1.350000e+00	2.104808e+05	
28	1.400000e+00	2.309091e+05	
29	1.450000e+00	2.556431e+05	
30	1.500000e+00	2.861953e+05	
31	1.550000e+00	3.248693e+05	
32	1.600000e+00	3.753396e+05	
33	1.650000e+00	4.437895e+05	
34	1.700000e+00	5.412691e+05	
35	1.750000e+00	6.886658e+05	
36	1.800000e+00	9.262421e+05	
37	1.850000e+00	1.324276e+06	
38	1.900000e+00	1.967145e+06	
39	1.950000e+00	2.884467e+06	
40	2.000000e+00	4.013549e+06	
41	2.050000e+00	5.257804e+06	
42	2.100000e+00	6.543556e+06	
43	2.150000e+00	7.828341e+06	
44	2.200000e+00	9.090511e+06	
45	2.250000e+00	1.031979e+07	
46	2.300000e+00	1.151176e+07	
47	2.350000e+00	1.266498e+07	
48	2.400000e+00	1.377954e+07	
49	2.450000e+00	1.485630e+07	
50	2.500000e+00	1.589651e+07	
51	2.550000e+00	1.690161e+07	
52	2.600000e+00	1.787307e+07	
53	2.650000e+00	1.881239e+07	
54	2.700000e+00	1.972101e+07	

Index   v-sweep         rds             
--------------------------------------------------------------------------------
55	2.750000e+00	2.060034e+07	
56	2.800000e+00	2.145171e+07	
57	2.850000e+00	2.227639e+07	
58	2.900000e+00	2.307559e+07	
59	2.950000e+00	2.385044e+07	
60	3.000000e+00	2.460203e+07	
61	3.050000e+00	2.533138e+07	
62	3.100000e+00	2.603944e+07	
63	3.150000e+00	2.672713e+07	
64	3.200000e+00	2.739530e+07	
65	3.250000e+00	2.804475e+07	
66	3.300000e+00	2.867622e+07	
Reset re-loads circuit ***************************

Circuit: ***************************

Doing analysis at TEMP = 125.000000 and TNOM = 125.000000


No. of Data Rows : 67
                          ***************************
                          DC transfer characteristic  Mon Jan  9 13:58:14  2023
--------------------------------------------------------------------------------
Index   v-sweep         rds             
--------------------------------------------------------------------------------
0	0.000000e+00	5.301977e+04	
1	5.000000e-02	5.420122e+04	
2	1.000000e-01	5.543322e+04	
3	1.500000e-01	5.671909e+04	
4	2.000000e-01	5.806243e+04	
5	2.500000e-01	5.946719e+04	
6	3.000000e-01	6.093767e+04	
7	3.500000e-01	6.247858e+04	
8	4.000000e-01	6.409512e+04	
9	4.500000e-01	6.579298e+04	
10	5.000000e-01	6.757846e+04	
11	5.500000e-01	6.945851e+04	
12	6.000000e-01	7.144085e+04	
13	6.500000e-01	7.353406e+04	
14	7.000000e-01	7.574769e+04	
15	7.500000e-01	7.809245e+04	
16	8.000000e-01	8.058033e+04	
17	8.500000e-01	8.322484e+04	
18	9.000000e-01	8.604125e+04	
19	9.500000e-01	8.904689e+04	
20	1.000000e+00	9.226146e+04	
21	1.050000e+00	9.570754e+04	
22	1.100000e+00	9.941106e+04	
23	1.150000e+00	1.034020e+05	
24	1.200000e+00	1.077151e+05	
25	1.250000e+00	1.123910e+05	
26	1.300000e+00	1.174775e+05	
27	1.350000e+00	1.230311e+05	
28	1.400000e+00	1.291194e+05	
29	1.450000e+00	1.358232e+05	
30	1.500000e+00	1.432409e+05	
31	1.550000e+00	1.514930e+05	
32	1.600000e+00	1.607284e+05	
33	1.650000e+00	1.711339e+05	
34	1.700000e+00	1.829467e+05	
35	1.750000e+00	1.964727e+05	
36	1.800000e+00	2.121130e+05	
37	1.850000e+00	2.304043e+05	
38	1.900000e+00	2.520807e+05	
39	1.950000e+00	2.781731e+05	
40	2.000000e+00	3.101733e+05	
41	2.050000e+00	3.503177e+05	
42	2.100000e+00	4.020977e+05	
43	2.150000e+00	4.712147e+05	
44	2.200000e+00	5.674044e+05	
45	2.250000e+00	7.077763e+05	
46	2.300000e+00	9.216231e+05	
47	2.350000e+00	1.251675e+06	
48	2.400000e+00	1.738030e+06	
49	2.450000e+00	2.386327e+06	
50	2.500000e+00	3.160684e+06	
51	2.550000e+00	4.011361e+06	
52	2.600000e+00	4.898138e+06	
53	2.650000e+00	5.795080e+06	
54	2.700000e+00	6.687027e+06	

Index   v-sweep         rds             
--------------------------------------------------------------------------------
55	2.750000e+00	7.565500e+06	
56	2.800000e+00	8.425902e+06	
57	2.850000e+00	9.265863e+06	
58	2.900000e+00	1.008430e+07	
59	2.950000e+00	1.088086e+07	
60	3.000000e+00	1.165568e+07	
61	3.050000e+00	1.240910e+07	
62	3.100000e+00	1.314164e+07	
63	3.150000e+00	1.385392e+07	
64	3.200000e+00	1.454658e+07	
65	3.250000e+00	1.522028e+07	
66	3.300000e+00	1.587570e+07	
Reset re-loads circuit ***************************

Circuit: ***************************

Note: No ".plot", ".print", or ".fourier" lines; no simulations run
