
Note: Compatibility modes selected: hs

Warning: m=xx on .subckt line will override multiplier m hierarchy!


Circuit: ***************************

Doing analysis at TEMP = -40.000000 and TNOM = -40.000000


No. of Data Rows : 67
                          ***************************
                          DC transfer characteristic  Mon Jan  9 13:58:13  2023
--------------------------------------------------------------------------------
Index   v-sweep         rds             
--------------------------------------------------------------------------------
0	0.000000e+00	9.620225e+03	
1	5.000000e-02	2.540915e+04	
2	1.000000e-01	1.203413e+05	
3	1.500000e-01	3.746932e+05	
4	2.000000e-01	6.487945e+05	
5	2.500000e-01	8.597159e+05	
6	3.000000e-01	1.013604e+06	
7	3.500000e-01	1.128025e+06	
8	4.000000e-01	1.215673e+06	
9	4.500000e-01	1.284662e+06	
10	5.000000e-01	1.340203e+06	
11	5.500000e-01	1.385747e+06	
12	6.000000e-01	1.423660e+06	
13	6.500000e-01	1.455615e+06	
14	7.000000e-01	1.482829e+06	
15	7.500000e-01	1.506206e+06	
16	8.000000e-01	1.526436e+06	
17	8.500000e-01	1.544052e+06	
18	9.000000e-01	1.559474e+06	
19	9.500000e-01	1.573035e+06	
20	1.000000e+00	1.585007e+06	
21	1.050000e+00	1.595610e+06	
22	1.100000e+00	1.605025e+06	
23	1.150000e+00	1.613404e+06	
24	1.200000e+00	1.620874e+06	
25	1.250000e+00	1.627542e+06	
26	1.300000e+00	1.633500e+06	
27	1.350000e+00	1.638824e+06	
28	1.400000e+00	1.643583e+06	
29	1.450000e+00	1.647835e+06	
30	1.500000e+00	1.651630e+06	
31	1.550000e+00	1.655012e+06	
32	1.600000e+00	1.658019e+06	
33	1.650000e+00	1.660684e+06	
34	1.700000e+00	1.663036e+06	
35	1.750000e+00	1.665100e+06	
36	1.800000e+00	1.666894e+06	
37	1.850000e+00	1.668435e+06	
38	1.900000e+00	1.669734e+06	
39	1.950000e+00	1.670798e+06	
40	2.000000e+00	1.671628e+06	
41	2.050000e+00	1.672218e+06	
42	2.100000e+00	1.672558e+06	
43	2.150000e+00	1.672628e+06	
44	2.200000e+00	1.672402e+06	
45	2.250000e+00	1.671843e+06	
46	2.300000e+00	1.670906e+06	
47	2.350000e+00	1.669534e+06	
48	2.400000e+00	1.667659e+06	
49	2.450000e+00	1.665202e+06	
50	2.500000e+00	1.662070e+06	
51	2.550000e+00	1.658161e+06	
52	2.600000e+00	1.653359e+06	
53	2.650000e+00	1.647537e+06	
54	2.700000e+00	1.640562e+06	

Index   v-sweep         rds             
--------------------------------------------------------------------------------
55	2.750000e+00	1.632289e+06	
56	2.800000e+00	1.622572e+06	
57	2.850000e+00	1.611260e+06	
58	2.900000e+00	1.598207e+06	
59	2.950000e+00	1.583271e+06	
60	3.000000e+00	1.566323e+06	
61	3.050000e+00	1.547249e+06	
62	3.100000e+00	1.525958e+06	
63	3.150000e+00	1.502385e+06	
64	3.200000e+00	1.476495e+06	
65	3.250000e+00	1.448290e+06	
66	3.300000e+00	1.417811e+06	
Reset re-loads circuit ***************************

Circuit: ***************************

Doing analysis at TEMP = -40.000000 and TNOM = -40.000000


No. of Data Rows : 67
                          ***************************
                          DC transfer characteristic  Mon Jan  9 13:58:13  2023
--------------------------------------------------------------------------------
Index   v-sweep         rds             
--------------------------------------------------------------------------------
0	0.000000e+00	9.527368e+02	
1	5.000000e-02	1.099212e+03	
2	1.000000e-01	1.284938e+03	
3	1.500000e-01	1.527946e+03	
4	2.000000e-01	1.859382e+03	
5	2.500000e-01	2.337911e+03	
6	3.000000e-01	3.085954e+03	
7	3.500000e-01	4.379663e+03	
8	4.000000e-01	6.789045e+03	
9	4.500000e-01	1.102745e+04	
10	5.000000e-01	1.723345e+04	
11	5.500000e-01	2.481573e+04	
12	6.000000e-01	3.305721e+04	
13	6.500000e-01	4.145011e+04	
14	7.000000e-01	4.969902e+04	
15	7.500000e-01	5.764835e+04	
16	8.000000e-01	6.522436e+04	
17	8.500000e-01	7.239931e+04	
18	9.000000e-01	7.917096e+04	
19	9.500000e-01	8.555075e+04	
20	1.000000e+00	9.155718e+04	
21	1.050000e+00	9.721198e+04	
22	1.100000e+00	1.025379e+05	
23	1.150000e+00	1.075575e+05	
24	1.200000e+00	1.122925e+05	
25	1.250000e+00	1.167634e+05	
26	1.300000e+00	1.209892e+05	
27	1.350000e+00	1.249877e+05	
28	1.400000e+00	1.287752e+05	
29	1.450000e+00	1.323667e+05	
30	1.500000e+00	1.357760e+05	
31	1.550000e+00	1.390156e+05	
32	1.600000e+00	1.420973e+05	
33	1.650000e+00	1.450316e+05	
34	1.700000e+00	1.478282e+05	
35	1.750000e+00	1.504961e+05	
36	1.800000e+00	1.530435e+05	
37	1.850000e+00	1.554778e+05	
38	1.900000e+00	1.578058e+05	
39	1.950000e+00	1.600336e+05	
40	2.000000e+00	1.621666e+05	
41	2.050000e+00	1.642093e+05	
42	2.100000e+00	1.661655e+05	
43	2.150000e+00	1.680377e+05	
44	2.200000e+00	1.698272e+05	
45	2.250000e+00	1.715339e+05	
46	2.300000e+00	1.731557e+05	
47	2.350000e+00	1.746883e+05	
48	2.400000e+00	1.761246e+05	
49	2.450000e+00	1.774547e+05	
50	2.500000e+00	1.786649e+05	
51	2.550000e+00	1.797374e+05	
52	2.600000e+00	1.806503e+05	
53	2.650000e+00	1.813767e+05	
54	2.700000e+00	1.818851e+05	

Index   v-sweep         rds             
--------------------------------------------------------------------------------
55	2.750000e+00	1.821393e+05	
56	2.800000e+00	1.820988e+05	
57	2.850000e+00	1.817197e+05	
58	2.900000e+00	1.809561e+05	
59	2.950000e+00	1.797614e+05	
60	3.000000e+00	1.780914e+05	
61	3.050000e+00	1.759064e+05	
62	3.100000e+00	1.731743e+05	
63	3.150000e+00	1.698738e+05	
64	3.200000e+00	1.659972e+05	
65	3.250000e+00	1.615524e+05	
66	3.300000e+00	1.565648e+05	
Reset re-loads circuit ***************************

Circuit: ***************************

Doing analysis at TEMP = -40.000000 and TNOM = -40.000000


No. of Data Rows : 67
                          ***************************
                          DC transfer characteristic  Mon Jan  9 13:58:13  2023
--------------------------------------------------------------------------------
Index   v-sweep         rds             
--------------------------------------------------------------------------------
0	0.000000e+00	5.733240e+02	
1	5.000000e-02	6.243075e+02	
2	1.000000e-01	6.820375e+02	
3	1.500000e-01	7.479140e+02	
4	2.000000e-01	8.237644e+02	
5	2.500000e-01	9.120273e+02	
6	3.000000e-01	1.016049e+03	
7	3.500000e-01	1.140586e+03	
8	4.000000e-01	1.292718e+03	
9	4.500000e-01	1.483646e+03	
10	5.000000e-01	1.732478e+03	
11	5.500000e-01	2.074634e+03	
12	6.000000e-01	2.579299e+03	
13	6.500000e-01	3.374700e+03	
14	7.000000e-01	4.644106e+03	
15	7.500000e-01	6.532227e+03	
16	8.000000e-01	9.037112e+03	
17	8.500000e-01	1.203185e+04	
18	9.000000e-01	1.535667e+04	
19	9.500000e-01	1.887456e+04	
20	1.000000e+00	2.248408e+04	
21	1.050000e+00	2.611474e+04	
22	1.100000e+00	2.971901e+04	
23	1.150000e+00	3.326550e+04	
24	1.200000e+00	3.673394e+04	
25	1.250000e+00	4.011172e+04	
26	1.300000e+00	4.339144e+04	
27	1.350000e+00	4.656936e+04	
28	1.400000e+00	4.964417e+04	
29	1.450000e+00	5.261630e+04	
30	1.500000e+00	5.548732e+04	
31	1.550000e+00	5.825959e+04	
32	1.600000e+00	6.093597e+04	
33	1.650000e+00	6.351961e+04	
34	1.700000e+00	6.601387e+04	
35	1.750000e+00	6.842216e+04	
36	1.800000e+00	7.074791e+04	
37	1.850000e+00	7.299451e+04	
38	1.900000e+00	7.516527e+04	
39	1.950000e+00	7.726341e+04	
40	2.000000e+00	7.929201e+04	
41	2.050000e+00	8.125405e+04	
42	2.100000e+00	8.315232e+04	
43	2.150000e+00	8.498944e+04	
44	2.200000e+00	8.676780e+04	
45	2.250000e+00	8.848951e+04	
46	2.300000e+00	9.015631e+04	
47	2.350000e+00	9.176944e+04	
48	2.400000e+00	9.332951e+04	
49	2.450000e+00	9.483625e+04	
50	2.500000e+00	9.628831e+04	
51	2.550000e+00	9.768289e+04	
52	2.600000e+00	9.901540e+04	
53	2.650000e+00	1.002791e+05	
54	2.700000e+00	1.014644e+05	

Index   v-sweep         rds             
--------------------------------------------------------------------------------
55	2.750000e+00	1.025588e+05	
56	2.800000e+00	1.035462e+05	
57	2.850000e+00	1.044063e+05	
58	2.900000e+00	1.051149e+05	
59	2.950000e+00	1.056431e+05	
60	3.000000e+00	1.059583e+05	
61	3.050000e+00	1.060243e+05	
62	3.100000e+00	1.058024e+05	
63	3.150000e+00	1.052535e+05	
64	3.200000e+00	1.043400e+05	
65	3.250000e+00	1.030285e+05	
66	3.300000e+00	1.012931e+05	
Reset re-loads circuit ***************************

Circuit: ***************************

Doing analysis at TEMP = -40.000000 and TNOM = -40.000000


No. of Data Rows : 67
                          ***************************
                          DC transfer characteristic  Mon Jan  9 13:58:13  2023
--------------------------------------------------------------------------------
Index   v-sweep         rds             
--------------------------------------------------------------------------------
0	0.000000e+00	4.555420e+02	
1	5.000000e-02	4.850525e+02	
2	1.000000e-01	5.172162e+02	
3	1.500000e-01	5.523932e+02	
4	2.000000e-01	5.910131e+02	
5	2.500000e-01	6.335944e+02	
6	3.000000e-01	6.807693e+02	
7	3.500000e-01	7.333198e+02	
8	4.000000e-01	7.922284e+02	
9	4.500000e-01	8.587560e+02	
10	5.000000e-01	9.345625e+02	
11	5.500000e-01	1.021909e+03	
12	6.000000e-01	1.124013e+03	
13	6.500000e-01	1.245718e+03	
14	7.000000e-01	1.394820e+03	
15	7.500000e-01	1.584773e+03	
16	8.000000e-01	1.840046e+03	
17	8.500000e-01	2.205075e+03	
18	9.000000e-01	2.752417e+03	
19	9.500000e-01	3.572792e+03	
20	1.000000e+00	4.734137e+03	
21	1.050000e+00	6.243199e+03	
22	1.100000e+00	8.051479e+03	
23	1.150000e+00	1.008784e+04	
24	1.200000e+00	1.228345e+04	
25	1.250000e+00	1.458158e+04	
26	1.300000e+00	1.693873e+04	
27	1.350000e+00	1.932260e+04	
28	1.400000e+00	2.170963e+04	
29	1.450000e+00	2.408276e+04	
30	1.500000e+00	2.642975e+04	
31	1.550000e+00	2.874190e+04	
32	1.600000e+00	3.101312e+04	
33	1.650000e+00	3.323925e+04	
34	1.700000e+00	3.541759e+04	
35	1.750000e+00	3.754647e+04	
36	1.800000e+00	3.962505e+04	
37	1.850000e+00	4.165307e+04	
38	1.900000e+00	4.363072e+04	
39	1.950000e+00	4.555852e+04	
40	2.000000e+00	4.743723e+04	
41	2.050000e+00	4.926780e+04	
42	2.100000e+00	5.105127e+04	
43	2.150000e+00	5.278880e+04	
44	2.200000e+00	5.448160e+04	
45	2.250000e+00	5.613088e+04	
46	2.300000e+00	5.773787e+04	
47	2.350000e+00	5.930377e+04	
48	2.400000e+00	6.082970e+04	
49	2.450000e+00	6.231668e+04	
50	2.500000e+00	6.376555e+04	
51	2.550000e+00	6.517688e+04	
52	2.600000e+00	6.655085e+04	
53	2.650000e+00	6.788710e+04	
54	2.700000e+00	6.918447e+04	

Index   v-sweep         rds             
--------------------------------------------------------------------------------
55	2.750000e+00	7.044083e+04	
56	2.800000e+00	7.165266e+04	
57	2.850000e+00	7.281477e+04	
58	2.900000e+00	7.391981e+04	
59	2.950000e+00	7.495787e+04	
60	3.000000e+00	7.591599e+04	
61	3.050000e+00	7.677772e+04	
62	3.100000e+00	7.752280e+04	
63	3.150000e+00	7.812693e+04	
64	3.200000e+00	7.856191e+04	
65	3.250000e+00	7.879596e+04	
66	3.300000e+00	7.879472e+04	
Reset re-loads circuit ***************************

Circuit: ***************************

Doing analysis at TEMP = -40.000000 and TNOM = -40.000000


No. of Data Rows : 67
                          ***************************
                          DC transfer characteristic  Mon Jan  9 13:58:13  2023
--------------------------------------------------------------------------------
Index   v-sweep         rds             
--------------------------------------------------------------------------------
0	0.000000e+00	3.991973e+02	
1	5.000000e-02	4.196055e+02	
2	1.000000e-01	4.414060e+02	
3	1.500000e-01	4.647384e+02	
4	2.000000e-01	4.897625e+02	
5	2.500000e-01	5.166615e+02	
6	3.000000e-01	5.456471e+02	
7	3.500000e-01	5.769653e+02	
8	4.000000e-01	6.109046e+02	
9	4.500000e-01	6.478058e+02	
10	5.000000e-01	6.880764e+02	
11	5.500000e-01	7.322098e+02	
12	6.000000e-01	7.808136e+02	
13	6.500000e-01	8.346512e+02	
14	7.000000e-01	8.947072e+02	
15	7.500000e-01	9.622958e+02	
16	8.000000e-01	1.039245e+03	
17	8.500000e-01	1.128235e+03	
18	9.000000e-01	1.233419e+03	
19	9.500000e-01	1.361636e+03	
20	1.000000e+00	1.524653e+03	
21	1.050000e+00	1.743009e+03	
22	1.100000e+00	2.050916e+03	
23	1.150000e+00	2.497840e+03	
24	1.200000e+00	3.138197e+03	
25	1.250000e+00	4.008699e+03	
26	1.300000e+00	5.112014e+03	
27	1.350000e+00	6.421246e+03	
28	1.400000e+00	7.895807e+03	
29	1.450000e+00	9.494359e+03	
30	1.500000e+00	1.118093e+04	
31	1.550000e+00	1.292644e+04	
32	1.600000e+00	1.470822e+04	
33	1.650000e+00	1.650890e+04	
34	1.700000e+00	1.831525e+04	
35	1.750000e+00	2.011728e+04	
36	1.800000e+00	2.190746e+04	
37	1.850000e+00	2.368011e+04	
38	1.900000e+00	2.543102e+04	
39	1.950000e+00	2.715707e+04	
40	2.000000e+00	2.885598e+04	
41	2.050000e+00	3.052615e+04	
42	2.100000e+00	3.216649e+04	
43	2.150000e+00	3.377630e+04	
44	2.200000e+00	3.535522e+04	
45	2.250000e+00	3.690310e+04	
46	2.300000e+00	3.841999e+04	
47	2.350000e+00	3.990612e+04	
48	2.400000e+00	4.136178e+04	
49	2.450000e+00	4.278740e+04	
50	2.500000e+00	4.418342e+04	
51	2.550000e+00	4.555035e+04	
52	2.600000e+00	4.688870e+04	
53	2.650000e+00	4.819892e+04	
54	2.700000e+00	4.948142e+04	

Index   v-sweep         rds             
--------------------------------------------------------------------------------
55	2.750000e+00	5.073643e+04	
56	2.800000e+00	5.196398e+04	
57	2.850000e+00	5.316370e+04	
58	2.900000e+00	5.433472e+04	
59	2.950000e+00	5.547542e+04	
60	3.000000e+00	5.658320e+04	
61	3.050000e+00	5.765413e+04	
62	3.100000e+00	5.868260e+04	
63	3.150000e+00	5.966089e+04	
64	3.200000e+00	6.057875e+04	
65	3.250000e+00	6.142293e+04	
66	3.300000e+00	6.217677e+04	
Reset re-loads circuit ***************************

Circuit: ***************************

Doing analysis at TEMP = -40.000000 and TNOM = -40.000000


No. of Data Rows : 67
                          ***************************
                          DC transfer characteristic  Mon Jan  9 13:58:13  2023
--------------------------------------------------------------------------------
Index   v-sweep         rds             
--------------------------------------------------------------------------------
0	0.000000e+00	3.716803e+02	
1	5.000000e-02	3.874190e+02	
2	1.000000e-01	4.040282e+02	
3	1.500000e-01	4.215775e+02	
4	2.000000e-01	4.401446e+02	
5	2.500000e-01	4.598161e+02	
6	3.000000e-01	4.806889e+02	
7	3.500000e-01	5.028721e+02	
8	4.000000e-01	5.264890e+02	
9	4.500000e-01	5.516792e+02	
10	5.000000e-01	5.786026e+02	
11	5.500000e-01	6.074423e+02	
12	6.000000e-01	6.384108e+02	
13	6.500000e-01	6.717558e+02	
14	7.000000e-01	7.077703e+02	
15	7.500000e-01	7.468048e+02	
16	8.000000e-01	7.892860e+02	
17	8.500000e-01	8.357444e+02	
18	9.000000e-01	8.868571e+02	
19	9.500000e-01	9.435172e+02	
20	1.000000e+00	1.006950e+03	
21	1.050000e+00	1.078917e+03	
22	1.100000e+00	1.162077e+03	
23	1.150000e+00	1.260644e+03	
24	1.200000e+00	1.381569e+03	
25	1.250000e+00	1.536516e+03	
26	1.300000e+00	1.744642e+03	
27	1.350000e+00	2.034932e+03	
28	1.400000e+00	2.444383e+03	
29	1.450000e+00	3.008368e+03	
30	1.500000e+00	3.746904e+03	
31	1.550000e+00	4.657910e+03	
32	1.600000e+00	5.721823e+03	
33	1.650000e+00	6.911058e+03	
34	1.700000e+00	8.197439e+03	
35	1.750000e+00	9.555932e+03	
36	1.800000e+00	1.096576e+04	
37	1.850000e+00	1.241027e+04	
38	1.900000e+00	1.387635e+04	
39	1.950000e+00	1.535375e+04	
40	2.000000e+00	1.683450e+04	
41	2.050000e+00	1.831240e+04	
42	2.100000e+00	1.978264e+04	
43	2.150000e+00	2.124150e+04	
44	2.200000e+00	2.268613e+04	
45	2.250000e+00	2.411431e+04	
46	2.300000e+00	2.552439e+04	
47	2.350000e+00	2.691510e+04	
48	2.400000e+00	2.828555e+04	
49	2.450000e+00	2.963507e+04	
50	2.500000e+00	3.096324e+04	
51	2.550000e+00	3.226980e+04	
52	2.600000e+00	3.355461e+04	
53	2.650000e+00	3.481766e+04	
54	2.700000e+00	3.605903e+04	

Index   v-sweep         rds             
--------------------------------------------------------------------------------
55	2.750000e+00	3.727883e+04	
56	2.800000e+00	3.847724e+04	
57	2.850000e+00	3.965444e+04	
58	2.900000e+00	4.081057e+04	
59	2.950000e+00	4.194572e+04	
60	3.000000e+00	4.305980e+04	
61	3.050000e+00	4.415251e+04	
62	3.100000e+00	4.522317e+04	
63	3.150000e+00	4.627057e+04	
64	3.200000e+00	4.729273e+04	
65	3.250000e+00	4.828669e+04	
66	3.300000e+00	4.924811e+04	
Reset re-loads circuit ***************************

Circuit: ***************************

Note: No ".plot", ".print", or ".fourier" lines; no simulations run
