
Note: Compatibility modes selected: hs

Warning: m=xx on .subckt line will override multiplier m hierarchy!


Circuit: ***************************

Doing analysis at TEMP = -40.000000 and TNOM = -40.000000


No. of Data Rows : 67
                          ***************************
                          DC transfer characteristic  Mon Jan  9 13:58:14  2023
--------------------------------------------------------------------------------
Index   v-sweep         rds             
--------------------------------------------------------------------------------
0	0.000000e+00	2.748950e+05	
1	5.000000e-02	6.683646e+05	
2	1.000000e-01	7.444294e+06	
3	1.500000e-01	6.289149e+07	
4	2.000000e-01	1.379310e+08	
5	2.500000e-01	1.897705e+08	
6	3.000000e-01	2.231118e+08	
7	3.500000e-01	2.458404e+08	
8	4.000000e-01	2.623301e+08	
9	4.500000e-01	2.748904e+08	
10	5.000000e-01	2.848145e+08	
11	5.500000e-01	2.928773e+08	
12	6.000000e-01	2.995719e+08	
13	6.500000e-01	3.052282e+08	
14	7.000000e-01	3.100757e+08	
15	7.500000e-01	3.142798e+08	
16	8.000000e-01	3.179626e+08	
17	8.500000e-01	3.212170e+08	
18	9.000000e-01	3.241144e+08	
19	9.500000e-01	3.267111e+08	
20	1.000000e+00	3.290521e+08	
21	1.050000e+00	3.311736e+08	
22	1.100000e+00	3.331053e+08	
23	1.150000e+00	3.348716e+08	
24	1.200000e+00	3.364930e+08	
25	1.250000e+00	3.379867e+08	
26	1.300000e+00	3.393671e+08	
27	1.350000e+00	3.406468e+08	
28	1.400000e+00	3.418363e+08	
29	1.450000e+00	3.429448e+08	
30	1.500000e+00	3.439802e+08	
31	1.550000e+00	3.449496e+08	
32	1.600000e+00	3.458588e+08	
33	1.650000e+00	3.467132e+08	
34	1.700000e+00	3.475173e+08	
35	1.750000e+00	3.482749e+08	
36	1.800000e+00	3.489895e+08	
37	1.850000e+00	3.496636e+08	
38	1.900000e+00	3.502993e+08	
39	1.950000e+00	3.508981e+08	
40	2.000000e+00	3.514608e+08	
41	2.050000e+00	3.519872e+08	
42	2.100000e+00	3.524767e+08	
43	2.150000e+00	3.529273e+08	
44	2.200000e+00	3.533365e+08	
45	2.250000e+00	3.537004e+08	
46	2.300000e+00	3.540140e+08	
47	2.350000e+00	3.542709e+08	
48	2.400000e+00	3.544634e+08	
49	2.450000e+00	3.545826e+08	
50	2.500000e+00	3.546177e+08	
51	2.550000e+00	3.545567e+08	
52	2.600000e+00	3.543859e+08	
53	2.650000e+00	3.540902e+08	
54	2.700000e+00	3.536530e+08	

Index   v-sweep         rds             
--------------------------------------------------------------------------------
55	2.750000e+00	3.530565e+08	
56	2.800000e+00	3.522817e+08	
57	2.850000e+00	3.513087e+08	
58	2.900000e+00	3.501170e+08	
59	2.950000e+00	3.486857e+08	
60	3.000000e+00	3.469941e+08	
61	3.050000e+00	3.450218e+08	
62	3.100000e+00	3.427496e+08	
63	3.150000e+00	3.401597e+08	
64	3.200000e+00	3.372362e+08	
65	3.250000e+00	3.339659e+08	
66	3.300000e+00	3.303386e+08	
Reset re-loads circuit ***************************

Circuit: ***************************

Doing analysis at TEMP = -40.000000 and TNOM = -40.000000


No. of Data Rows : 67
                          ***************************
                          DC transfer characteristic  Mon Jan  9 13:58:14  2023
--------------------------------------------------------------------------------
Index   v-sweep         rds             
--------------------------------------------------------------------------------
0	0.000000e+00	4.140208e+04	
1	5.000000e-02	4.699350e+04	
2	1.000000e-01	5.427730e+04	
3	1.500000e-01	6.415723e+04	
4	2.000000e-01	7.831641e+04	
5	2.500000e-01	1.002766e+05	
6	3.000000e-01	1.387552e+05	
7	3.500000e-01	2.215074e+05	
8	4.000000e-01	4.710039e+05	
9	4.500000e-01	1.416810e+06	
10	5.000000e-01	3.752840e+06	
11	5.500000e-01	6.942951e+06	
12	6.000000e-01	1.017384e+07	
13	6.500000e-01	1.313316e+07	
14	7.000000e-01	1.577152e+07	
15	7.500000e-01	1.811532e+07	
16	8.000000e-01	2.020484e+07	
17	8.500000e-01	2.207786e+07	
18	9.000000e-01	2.376635e+07	
19	9.500000e-01	2.529667e+07	
20	1.000000e+00	2.669047e+07	
21	1.050000e+00	2.796558e+07	
22	1.100000e+00	2.913683e+07	
23	1.150000e+00	3.021663e+07	
24	1.200000e+00	3.121545e+07	
25	1.250000e+00	3.214220e+07	
26	1.300000e+00	3.300450e+07	
27	1.350000e+00	3.380892e+07	
28	1.400000e+00	3.456115e+07	
29	1.450000e+00	3.526615e+07	
30	1.500000e+00	3.592827e+07	
31	1.550000e+00	3.655133e+07	
32	1.600000e+00	3.713870e+07	
33	1.650000e+00	3.769338e+07	
34	1.700000e+00	3.821804e+07	
35	1.750000e+00	3.871505e+07	
36	1.800000e+00	3.918654e+07	
37	1.850000e+00	3.963441e+07	
38	1.900000e+00	4.006039e+07	
39	1.950000e+00	4.046599e+07	
40	2.000000e+00	4.085256e+07	
41	2.050000e+00	4.122130e+07	
42	2.100000e+00	4.157322e+07	
43	2.150000e+00	4.190914e+07	
44	2.200000e+00	4.222972e+07	
45	2.250000e+00	4.253537e+07	
46	2.300000e+00	4.282624e+07	
47	2.350000e+00	4.310222e+07	
48	2.400000e+00	4.336283e+07	
49	2.450000e+00	4.360722e+07	
50	2.500000e+00	4.383410e+07	
51	2.550000e+00	4.404170e+07	
52	2.600000e+00	4.422767e+07	
53	2.650000e+00	4.438909e+07	
54	2.700000e+00	4.452241e+07	

Index   v-sweep         rds             
--------------------------------------------------------------------------------
55	2.750000e+00	4.462341e+07	
56	2.800000e+00	4.468721e+07	
57	2.850000e+00	4.470828e+07	
58	2.900000e+00	4.468054e+07	
59	2.950000e+00	4.459738e+07	
60	3.000000e+00	4.445187e+07	
61	3.050000e+00	4.423692e+07	
62	3.100000e+00	4.394549e+07	
63	3.150000e+00	4.357095e+07	
64	3.200000e+00	4.310732e+07	
65	3.250000e+00	4.254967e+07	
66	3.300000e+00	4.189443e+07	
Reset re-loads circuit ***************************

Circuit: ***************************

Doing analysis at TEMP = -40.000000 and TNOM = -40.000000


No. of Data Rows : 67
                          ***************************
                          DC transfer characteristic  Mon Jan  9 13:58:14  2023
--------------------------------------------------------------------------------
Index   v-sweep         rds             
--------------------------------------------------------------------------------
0	0.000000e+00	2.336563e+04	
1	5.000000e-02	2.496558e+04	
2	1.000000e-01	2.678927e+04	
3	1.500000e-01	2.888713e+04	
4	2.000000e-01	3.132597e+04	
5	2.500000e-01	3.419621e+04	
6	3.000000e-01	3.762335e+04	
7	3.500000e-01	4.178670e+04	
8	4.000000e-01	4.695171e+04	
9	4.500000e-01	5.352855e+04	
10	5.000000e-01	6.218569e+04	
11	5.500000e-01	7.408918e+04	
12	6.000000e-01	9.146119e+04	
13	6.500000e-01	1.190644e+05	
14	7.000000e-01	1.687782e+05	
15	7.500000e-01	2.750880e+05	
16	8.000000e-01	5.336128e+05	
17	8.500000e-01	1.082867e+06	
18	9.000000e-01	1.918490e+06	
19	9.500000e-01	2.900529e+06	
20	1.000000e+00	3.915525e+06	
21	1.050000e+00	4.907702e+06	
22	1.100000e+00	5.854680e+06	
23	1.150000e+00	6.749307e+06	
24	1.200000e+00	7.590974e+06	
25	1.250000e+00	8.381792e+06	
26	1.300000e+00	9.124914e+06	
27	1.350000e+00	9.823780e+06	
28	1.400000e+00	1.048179e+07	
29	1.450000e+00	1.110215e+07	
30	1.500000e+00	1.168783e+07	
31	1.550000e+00	1.224155e+07	
32	1.600000e+00	1.276578e+07	
33	1.650000e+00	1.326277e+07	
34	1.700000e+00	1.373454e+07	
35	1.750000e+00	1.418294e+07	
36	1.800000e+00	1.460965e+07	
37	1.850000e+00	1.501619e+07	
38	1.900000e+00	1.540394e+07	
39	1.950000e+00	1.577417e+07	
40	2.000000e+00	1.612804e+07	
41	2.050000e+00	1.646659e+07	
42	2.100000e+00	1.679079e+07	
43	2.150000e+00	1.710154e+07	
44	2.200000e+00	1.739963e+07	
45	2.250000e+00	1.768582e+07	
46	2.300000e+00	1.796077e+07	
47	2.350000e+00	1.822508e+07	
48	2.400000e+00	1.847931e+07	
49	2.450000e+00	1.872389e+07	
50	2.500000e+00	1.895919e+07	
51	2.550000e+00	1.918548e+07	
52	2.600000e+00	1.940288e+07	
53	2.650000e+00	1.961139e+07	
54	2.700000e+00	1.981079e+07	

Index   v-sweep         rds             
--------------------------------------------------------------------------------
55	2.750000e+00	2.000067e+07	
56	2.800000e+00	2.018034e+07	
57	2.850000e+00	2.034883e+07	
58	2.900000e+00	2.050478e+07	
59	2.950000e+00	2.064650e+07	
60	3.000000e+00	2.077181e+07	
61	3.050000e+00	2.087810e+07	
62	3.100000e+00	2.096229e+07	
63	3.150000e+00	2.102082e+07	
64	3.200000e+00	2.104968e+07	
65	3.250000e+00	2.104449e+07	
66	3.300000e+00	2.100060e+07	
Reset re-loads circuit ***************************

Circuit: ***************************

Doing analysis at TEMP = -40.000000 and TNOM = -40.000000


No. of Data Rows : 67
                          ***************************
                          DC transfer characteristic  Mon Jan  9 13:58:14  2023
--------------------------------------------------------------------------------
Index   v-sweep         rds             
--------------------------------------------------------------------------------
0	0.000000e+00	1.720631e+04	
1	5.000000e-02	1.798214e+04	
2	1.000000e-01	1.882642e+04	
3	1.500000e-01	1.974863e+04	
4	2.000000e-01	2.076006e+04	
5	2.500000e-01	2.187432e+04	
6	3.000000e-01	2.310790e+04	
7	3.500000e-01	2.448106e+04	
8	4.000000e-01	2.601888e+04	
9	4.500000e-01	2.775285e+04	
10	5.000000e-01	2.972305e+04	
11	5.500000e-01	3.198125e+04	
12	6.000000e-01	3.459554e+04	
13	6.500000e-01	3.765733e+04	
14	7.000000e-01	4.129221e+04	
15	7.500000e-01	4.567758e+04	
16	8.000000e-01	5.107243e+04	
17	8.500000e-01	5.787012e+04	
18	9.000000e-01	6.669806e+04	
19	9.500000e-01	7.861987e+04	
20	1.000000e+00	9.558301e+04	
21	1.050000e+00	1.215097e+05	
22	1.100000e+00	1.651607e+05	
23	1.150000e+00	2.471302e+05	
24	1.200000e+00	4.080469e+05	
25	1.250000e+00	6.887736e+05	
26	1.300000e+00	1.084024e+06	
27	1.350000e+00	1.551771e+06	
28	1.400000e+00	2.052397e+06	
29	1.450000e+00	2.560949e+06	
30	1.500000e+00	3.063753e+06	
31	1.550000e+00	3.553740e+06	
32	1.600000e+00	4.027463e+06	
33	1.650000e+00	4.483443e+06	
34	1.700000e+00	4.921278e+06	
35	1.750000e+00	5.341158e+06	
36	1.800000e+00	5.743596e+06	
37	1.850000e+00	6.129273e+06	
38	1.900000e+00	6.498948e+06	
39	1.950000e+00	6.853407e+06	
40	2.000000e+00	7.193436e+06	
41	2.050000e+00	7.519797e+06	
42	2.100000e+00	7.833222e+06	
43	2.150000e+00	8.134407e+06	
44	2.200000e+00	8.424012e+06	
45	2.250000e+00	8.702657e+06	
46	2.300000e+00	8.970925e+06	
47	2.350000e+00	9.229362e+06	
48	2.400000e+00	9.478482e+06	
49	2.450000e+00	9.718764e+06	
50	2.500000e+00	9.950657e+06	
51	2.550000e+00	1.017458e+07	
52	2.600000e+00	1.039092e+07	
53	2.650000e+00	1.060005e+07	
54	2.700000e+00	1.080228e+07	

Index   v-sweep         rds             
--------------------------------------------------------------------------------
55	2.750000e+00	1.099792e+07	
56	2.800000e+00	1.118723e+07	
57	2.850000e+00	1.137042e+07	
58	2.900000e+00	1.154763e+07	
59	2.950000e+00	1.171894e+07	
60	3.000000e+00	1.188436e+07	
61	3.050000e+00	1.204373e+07	
62	3.100000e+00	1.219680e+07	
63	3.150000e+00	1.234313e+07	
64	3.200000e+00	1.248204e+07	
65	3.250000e+00	1.261265e+07	
66	3.300000e+00	1.273376e+07	
Reset re-loads circuit ***************************

Circuit: ***************************

Doing analysis at TEMP = -40.000000 and TNOM = -40.000000


No. of Data Rows : 67
                          ***************************
                          DC transfer characteristic  Mon Jan  9 13:58:14  2023
--------------------------------------------------------------------------------
Index   v-sweep         rds             
--------------------------------------------------------------------------------
0	0.000000e+00	1.433973e+04	
1	5.000000e-02	1.481506e+04	
2	1.000000e-01	1.532037e+04	
3	1.500000e-01	1.585858e+04	
4	2.000000e-01	1.643301e+04	
5	2.500000e-01	1.704744e+04	
6	3.000000e-01	1.770618e+04	
7	3.500000e-01	1.841421e+04	
8	4.000000e-01	1.917727e+04	
9	4.500000e-01	2.000203e+04	
10	5.000000e-01	2.089628e+04	
11	5.500000e-01	2.186918e+04	
12	6.000000e-01	2.293159e+04	
13	6.500000e-01	2.409643e+04	
14	7.000000e-01	2.537927e+04	
15	7.500000e-01	2.679898e+04	
16	8.000000e-01	2.837871e+04	
17	8.500000e-01	3.014711e+04	
18	9.000000e-01	3.214013e+04	
19	9.500000e-01	3.440347e+04	
20	1.000000e+00	3.699614e+04	
21	1.050000e+00	3.999572e+04	
22	1.100000e+00	4.350624e+04	
23	1.150000e+00	4.767056e+04	
24	1.200000e+00	5.269047e+04	
25	1.250000e+00	5.886050e+04	
26	1.300000e+00	6.662841e+04	
27	1.350000e+00	7.670935e+04	
28	1.400000e+00	9.031770e+04	
29	1.450000e+00	1.096727e+05	
30	1.500000e+00	1.391555e+05	
31	1.550000e+00	1.877803e+05	
32	1.600000e+00	2.723552e+05	
33	1.650000e+00	4.137926e+05	
34	1.700000e+00	6.204376e+05	
35	1.750000e+00	8.805440e+05	
36	1.800000e+00	1.174660e+06	
37	1.850000e+00	1.486487e+06	
38	1.900000e+00	1.805112e+06	
39	1.950000e+00	2.123808e+06	
40	2.000000e+00	2.438554e+06	
41	2.050000e+00	2.746993e+06	
42	2.100000e+00	3.047785e+06	
43	2.150000e+00	3.340217e+06	
44	2.200000e+00	3.623964e+06	
45	2.250000e+00	3.898944e+06	
46	2.300000e+00	4.165231e+06	
47	2.350000e+00	4.422993e+06	
48	2.400000e+00	4.672460e+06	
49	2.450000e+00	4.913894e+06	
50	2.500000e+00	5.147579e+06	
51	2.550000e+00	5.373804e+06	
52	2.600000e+00	5.592861e+06	
53	2.650000e+00	5.805038e+06	
54	2.700000e+00	6.010617e+06	

Index   v-sweep         rds             
--------------------------------------------------------------------------------
55	2.750000e+00	6.209869e+06	
56	2.800000e+00	6.403057e+06	
57	2.850000e+00	6.590434e+06	
58	2.900000e+00	6.772240e+06	
59	2.950000e+00	6.948704e+06	
60	3.000000e+00	7.120043e+06	
61	3.050000e+00	7.286461e+06	
62	3.100000e+00	7.448146e+06	
63	3.150000e+00	7.605269e+06	
64	3.200000e+00	7.757977e+06	
65	3.250000e+00	7.906390e+06	
66	3.300000e+00	8.050589e+06	
Reset re-loads circuit ***************************

Circuit: ***************************

Doing analysis at TEMP = -40.000000 and TNOM = -40.000000


No. of Data Rows : 67
                          ***************************
                          DC transfer characteristic  Mon Jan  9 13:58:14  2023
--------------------------------------------------------------------------------
Index   v-sweep         rds             
--------------------------------------------------------------------------------
0	0.000000e+00	1.293161e+04	
1	5.000000e-02	1.326764e+04	
2	1.000000e-01	1.361995e+04	
3	1.500000e-01	1.398975e+04	
4	2.000000e-01	1.437838e+04	
5	2.500000e-01	1.478730e+04	
6	3.000000e-01	1.521816e+04	
7	3.500000e-01	1.567275e+04	
8	4.000000e-01	1.615309e+04	
9	4.500000e-01	1.666144e+04	
10	5.000000e-01	1.720031e+04	
11	5.500000e-01	1.777252e+04	
12	6.000000e-01	1.838128e+04	
13	6.500000e-01	1.903020e+04	
14	7.000000e-01	1.972337e+04	
15	7.500000e-01	2.046548e+04	
16	8.000000e-01	2.126190e+04	
17	8.500000e-01	2.211882e+04	
18	9.000000e-01	2.304339e+04	
19	9.500000e-01	2.404396e+04	
20	1.000000e+00	2.513028e+04	
21	1.050000e+00	2.631388e+04	
22	1.100000e+00	2.760844e+04	
23	1.150000e+00	2.903031e+04	
24	1.200000e+00	3.059926e+04	
25	1.250000e+00	3.233936e+04	
26	1.300000e+00	3.428026e+04	
27	1.350000e+00	3.645888e+04	
28	1.400000e+00	3.892180e+04	
29	1.450000e+00	4.172869e+04	
30	1.500000e+00	4.495724e+04	
31	1.550000e+00	4.871056e+04	
32	1.600000e+00	5.312870e+04	
33	1.650000e+00	5.840688e+04	
34	1.700000e+00	6.482619e+04	
35	1.750000e+00	7.280721e+04	
36	1.800000e+00	8.301004e+04	
37	1.850000e+00	9.653186e+04	
38	1.900000e+00	1.153177e+05	
39	1.950000e+00	1.430099e+05	
40	2.000000e+00	1.864029e+05	
41	2.050000e+00	2.563322e+05	
42	2.100000e+00	3.639475e+05	
43	2.150000e+00	5.125037e+05	
44	2.200000e+00	6.953038e+05	
45	2.250000e+00	9.016835e+05	
46	2.300000e+00	1.122138e+06	
47	2.350000e+00	1.349771e+06	
48	2.400000e+00	1.579963e+06	
49	2.450000e+00	1.809715e+06	
50	2.500000e+00	2.037102e+06	
51	2.550000e+00	2.260904e+06	
52	2.600000e+00	2.480356e+06	
53	2.650000e+00	2.694999e+06	
54	2.700000e+00	2.904572e+06	

Index   v-sweep         rds             
--------------------------------------------------------------------------------
55	2.750000e+00	3.108952e+06	
56	2.800000e+00	3.308110e+06	
57	2.850000e+00	3.502075e+06	
58	2.900000e+00	3.690922e+06	
59	2.950000e+00	3.874753e+06	
60	3.000000e+00	4.053688e+06	
61	3.050000e+00	4.227860e+06	
62	3.100000e+00	4.397409e+06	
63	3.150000e+00	4.562476e+06	
64	3.200000e+00	4.723206e+06	
65	3.250000e+00	4.879740e+06	
66	3.300000e+00	5.032220e+06	
Reset re-loads circuit ***************************

Circuit: ***************************

Note: No ".plot", ".print", or ".fourier" lines; no simulations run
