
Note: Compatibility modes selected: hs

Warning: m=xx on .subckt line will override multiplier m hierarchy!


Circuit: ***************************

Doing analysis at TEMP = 125.000000 and TNOM = 125.000000


No. of Data Rows : 67
                          ***************************
                          DC transfer characteristic  Mon Jan  9 13:58:14  2023
--------------------------------------------------------------------------------
Index   v-sweep         rds             
--------------------------------------------------------------------------------
0	0.000000e+00	1.625960e+06	
1	5.000000e-02	2.012357e+06	
2	1.000000e-01	2.637395e+06	
3	1.500000e-01	3.816905e+06	
4	2.000000e-01	6.798063e+06	
5	2.500000e-01	2.057631e+07	
6	3.000000e-01	1.166891e+08	
7	3.500000e-01	4.070364e+08	
8	4.000000e-01	7.681719e+08	
9	4.500000e-01	1.067514e+09	
10	5.000000e-01	1.291315e+09	
11	5.500000e-01	1.459522e+09	
12	6.000000e-01	1.589883e+09	
13	6.500000e-01	1.694130e+09	
14	7.000000e-01	1.779728e+09	
15	7.500000e-01	1.851534e+09	
16	8.000000e-01	1.912815e+09	
17	8.500000e-01	1.965852e+09	
18	9.000000e-01	2.012287e+09	
19	9.500000e-01	2.053337e+09	
20	1.000000e+00	2.089927e+09	
21	1.050000e+00	2.122773e+09	
22	1.100000e+00	2.152442e+09	
23	1.150000e+00	2.179386e+09	
24	1.200000e+00	2.203976e+09	
25	1.250000e+00	2.226513e+09	
26	1.300000e+00	2.247251e+09	
27	1.350000e+00	2.266401e+09	
28	1.400000e+00	2.284141e+09	
29	1.450000e+00	2.300624e+09	
30	1.500000e+00	2.315981e+09	
31	1.550000e+00	2.330325e+09	
32	1.600000e+00	2.343754e+09	
33	1.650000e+00	2.356353e+09	
34	1.700000e+00	2.368198e+09	
35	1.750000e+00	2.379354e+09	
36	1.800000e+00	2.389878e+09	
37	1.850000e+00	2.399821e+09	
38	1.900000e+00	2.409225e+09	
39	1.950000e+00	2.418129e+09	
40	2.000000e+00	2.426564e+09	
41	2.050000e+00	2.434552e+09	
42	2.100000e+00	2.442112e+09	
43	2.150000e+00	2.449254e+09	
44	2.200000e+00	2.455980e+09	
45	2.250000e+00	2.462282e+09	
46	2.300000e+00	2.468144e+09	
47	2.350000e+00	2.473536e+09	
48	2.400000e+00	2.478419e+09	
49	2.450000e+00	2.482737e+09	
50	2.500000e+00	2.486423e+09	
51	2.550000e+00	2.489391e+09	
52	2.600000e+00	2.491540e+09	
53	2.650000e+00	2.492752e+09	
54	2.700000e+00	2.492893e+09	

Index   v-sweep         rds             
--------------------------------------------------------------------------------
55	2.750000e+00	2.491810e+09	
56	2.800000e+00	2.489335e+09	
57	2.850000e+00	2.485285e+09	
58	2.900000e+00	2.479465e+09	
59	2.950000e+00	2.471669e+09	
60	3.000000e+00	2.461685e+09	
61	3.050000e+00	2.449302e+09	
62	3.100000e+00	2.434311e+09	
63	3.150000e+00	2.416511e+09	
64	3.200000e+00	2.395719e+09	
65	3.250000e+00	2.371776e+09	
66	3.300000e+00	2.344553e+09	
Reset re-loads circuit ***************************

Circuit: ***************************

Doing analysis at TEMP = 125.000000 and TNOM = 125.000000


No. of Data Rows : 67
                          ***************************
                          DC transfer characteristic  Mon Jan  9 13:58:14  2023
--------------------------------------------------------------------------------
Index   v-sweep         rds             
--------------------------------------------------------------------------------
0	0.000000e+00	6.390553e+05	
1	5.000000e-02	6.945965e+05	
2	1.000000e-01	7.605804e+05	
3	1.500000e-01	8.402561e+05	
4	2.000000e-01	9.383751e+05	
5	2.500000e-01	1.062171e+06	
6	3.000000e-01	1.223220e+06	
7	3.500000e-01	1.441253e+06	
8	4.000000e-01	1.752793e+06	
9	4.500000e-01	2.233441e+06	
10	5.000000e-01	3.066243e+06	
11	5.500000e-01	4.804525e+06	
12	6.000000e-01	9.621813e+06	
13	6.500000e-01	2.609145e+07	
14	7.000000e-01	6.905461e+07	
15	7.500000e-01	1.348442e+08	
16	8.000000e-01	2.047119e+08	
17	8.500000e-01	2.681040e+08	
18	9.000000e-01	3.229413e+08	
19	9.500000e-01	3.701067e+08	
20	1.000000e+00	4.109776e+08	
21	1.050000e+00	4.467658e+08	
22	1.100000e+00	4.784230e+08	
23	1.150000e+00	5.066794e+08	
24	1.200000e+00	5.320970e+08	
25	1.250000e+00	5.551143e+08	
26	1.300000e+00	5.760787e+08	
27	1.350000e+00	5.952697e+08	
28	1.400000e+00	6.129152e+08	
29	1.450000e+00	6.292038e+08	
30	1.500000e+00	6.442927e+08	
31	1.550000e+00	6.583148e+08	
32	1.600000e+00	6.713832e+08	
33	1.650000e+00	6.835948e+08	
34	1.700000e+00	6.950336e+08	
35	1.750000e+00	7.057723e+08	
36	1.800000e+00	7.158748e+08	
37	1.850000e+00	7.253969e+08	
38	1.900000e+00	7.343882e+08	
39	1.950000e+00	7.428925e+08	
40	2.000000e+00	7.509488e+08	
41	2.050000e+00	7.585917e+08	
42	2.100000e+00	7.658524e+08	
43	2.150000e+00	7.727582e+08	
44	2.200000e+00	7.793337e+08	
45	2.250000e+00	7.856001e+08	
46	2.300000e+00	7.915757e+08	
47	2.350000e+00	7.972758e+08	
48	2.400000e+00	8.027120e+08	
49	2.450000e+00	8.078922e+08	
50	2.500000e+00	8.128201e+08	
51	2.550000e+00	8.174944e+08	
52	2.600000e+00	8.219082e+08	
53	2.650000e+00	8.260483e+08	
54	2.700000e+00	8.298940e+08	

Index   v-sweep         rds             
--------------------------------------------------------------------------------
55	2.750000e+00	8.334165e+08	
56	2.800000e+00	8.365780e+08	
57	2.850000e+00	8.393307e+08	
58	2.900000e+00	8.416161e+08	
59	2.950000e+00	8.433650e+08	
60	3.000000e+00	8.444967e+08	
61	3.050000e+00	8.449197e+08	
62	3.100000e+00	8.445319e+08	
63	3.150000e+00	8.432227e+08	
64	3.200000e+00	8.408743e+08	
65	3.250000e+00	8.373648e+08	
66	3.300000e+00	8.325716e+08	
Reset re-loads circuit ***************************

Circuit: ***************************

Doing analysis at TEMP = 125.000000 and TNOM = 125.000000


No. of Data Rows : 67
                          ***************************
                          DC transfer characteristic  Mon Jan  9 13:58:14  2023
--------------------------------------------------------------------------------
Index   v-sweep         rds             
--------------------------------------------------------------------------------
0	0.000000e+00	4.106975e+05	
1	5.000000e-02	4.319018e+05	
2	1.000000e-01	4.553726e+05	
3	1.500000e-01	4.814936e+05	
4	2.000000e-01	5.107405e+05	
5	2.500000e-01	5.437100e+05	
6	3.000000e-01	5.811609e+05	
7	3.500000e-01	6.240732e+05	
8	4.000000e-01	6.737347e+05	
9	4.500000e-01	7.318728e+05	
10	5.000000e-01	8.008580e+05	
11	5.500000e-01	8.840344e+05	
12	6.000000e-01	9.862745e+05	
13	6.500000e-01	1.114961e+06	
14	7.000000e-01	1.281829e+06	
15	7.500000e-01	1.506686e+06	
16	8.000000e-01	1.825631e+06	
17	8.500000e-01	2.311350e+06	
18	9.000000e-01	3.130404e+06	
19	9.500000e-01	4.727865e+06	
20	1.000000e+00	8.430205e+06	
21	1.050000e+00	1.757253e+07	
22	1.100000e+00	3.585385e+07	
23	1.150000e+00	6.174981e+07	
24	1.200000e+00	9.023088e+07	
25	1.250000e+00	1.178715e+08	
26	1.300000e+00	1.434115e+08	
27	1.350000e+00	1.666541e+08	
28	1.400000e+00	1.877653e+08	
29	1.450000e+00	2.069951e+08	
30	1.500000e+00	2.245863e+08	
31	1.550000e+00	2.407506e+08	
32	1.600000e+00	2.556665e+08	
33	1.650000e+00	2.694835e+08	
34	1.700000e+00	2.823268e+08	
35	1.750000e+00	2.943025e+08	
36	1.800000e+00	3.055005e+08	
37	1.850000e+00	3.159981e+08	
38	1.900000e+00	3.258621e+08	
39	1.950000e+00	3.351503e+08	
40	2.000000e+00	3.439138e+08	
41	2.050000e+00	3.521971e+08	
42	2.100000e+00	3.600398e+08	
43	2.150000e+00	3.674770e+08	
44	2.200000e+00	3.745402e+08	
45	2.250000e+00	3.812574e+08	
46	2.300000e+00	3.876540e+08	
47	2.350000e+00	3.937526e+08	
48	2.400000e+00	3.995740e+08	
49	2.450000e+00	4.051365e+08	
50	2.500000e+00	4.104572e+08	
51	2.550000e+00	4.155509e+08	
52	2.600000e+00	4.204312e+08	
53	2.650000e+00	4.251098e+08	
54	2.700000e+00	4.295966e+08	

Index   v-sweep         rds             
--------------------------------------------------------------------------------
55	2.750000e+00	4.338997e+08	
56	2.800000e+00	4.380246e+08	
57	2.850000e+00	4.419746e+08	
58	2.900000e+00	4.457497e+08	
59	2.950000e+00	4.493463e+08	
60	3.000000e+00	4.527565e+08	
61	3.050000e+00	4.559674e+08	
62	3.100000e+00	4.589604e+08	
63	3.150000e+00	4.617106e+08	
64	3.200000e+00	4.641855e+08	
65	3.250000e+00	4.663449e+08	
66	3.300000e+00	4.681404e+08	
Reset re-loads circuit ***************************

Circuit: ***************************

Doing analysis at TEMP = 125.000000 and TNOM = 125.000000


No. of Data Rows : 67
                          ***************************
                          DC transfer characteristic  Mon Jan  9 13:58:14  2023
--------------------------------------------------------------------------------
Index   v-sweep         rds             
--------------------------------------------------------------------------------
0	0.000000e+00	3.128789e+05	
1	5.000000e-02	3.241383e+05	
2	1.000000e-01	3.362178e+05	
3	1.500000e-01	3.492105e+05	
4	2.000000e-01	3.632239e+05	
5	2.500000e-01	3.783832e+05	
6	3.000000e-01	3.948350e+05	
7	3.500000e-01	4.127519e+05	
8	4.000000e-01	4.323386e+05	
9	4.500000e-01	4.538400e+05	
10	5.000000e-01	4.775511e+05	
11	5.500000e-01	5.038310e+05	
12	6.000000e-01	5.331209e+05	
13	6.500000e-01	5.659692e+05	
14	7.000000e-01	6.030658e+05	
15	7.500000e-01	6.452916e+05	
16	8.000000e-01	6.937884e+05	
17	8.500000e-01	7.500638e+05	
18	9.000000e-01	8.161501e+05	
19	9.500000e-01	8.948528e+05	
20	1.000000e+00	9.901565e+05	
21	1.050000e+00	1.107912e+06	
22	1.100000e+00	1.257061e+06	
23	1.150000e+00	1.451961e+06	
24	1.200000e+00	1.717093e+06	
25	1.250000e+00	2.097465e+06	
26	1.300000e+00	2.683761e+06	
27	1.350000e+00	3.678423e+06	
28	1.400000e+00	5.569337e+06	
29	1.450000e+00	9.457820e+06	
30	1.500000e+00	1.696668e+07	
31	1.550000e+00	2.865519e+07	
32	1.600000e+00	4.309788e+07	
33	1.650000e+00	5.843196e+07	
34	1.700000e+00	7.351080e+07	
35	1.750000e+00	8.784795e+07	
36	1.800000e+00	1.013011e+08	
37	1.850000e+00	1.138727e+08	
38	1.900000e+00	1.256172e+08	
39	1.950000e+00	1.366041e+08	
40	2.000000e+00	1.469022e+08	
41	2.050000e+00	1.565754e+08	
42	2.100000e+00	1.656808e+08	
43	2.150000e+00	1.742689e+08	
44	2.200000e+00	1.823845e+08	
45	2.250000e+00	1.900672e+08	
46	2.300000e+00	1.973521e+08	
47	2.350000e+00	2.042705e+08	
48	2.400000e+00	2.108501e+08	
49	2.450000e+00	2.171161e+08	
50	2.500000e+00	2.230909e+08	
51	2.550000e+00	2.287950e+08	
52	2.600000e+00	2.342466e+08	
53	2.650000e+00	2.394625e+08	
54	2.700000e+00	2.444580e+08	

Index   v-sweep         rds             
--------------------------------------------------------------------------------
55	2.750000e+00	2.492470e+08	
56	2.800000e+00	2.538420e+08	
57	2.850000e+00	2.582549e+08	
58	2.900000e+00	2.624960e+08	
59	2.950000e+00	2.665752e+08	
60	3.000000e+00	2.705010e+08	
61	3.050000e+00	2.742810e+08	
62	3.100000e+00	2.779219e+08	
63	3.150000e+00	2.814289e+08	
64	3.200000e+00	2.848059e+08	
65	3.250000e+00	2.880549e+08	
66	3.300000e+00	2.911759e+08	
Reset re-loads circuit ***************************

Circuit: ***************************

Doing analysis at TEMP = 125.000000 and TNOM = 125.000000


No. of Data Rows : 67
                          ***************************
                          DC transfer characteristic  Mon Jan  9 13:58:14  2023
--------------------------------------------------------------------------------
Index   v-sweep         rds             
--------------------------------------------------------------------------------
0	0.000000e+00	2.606622e+05	
1	5.000000e-02	2.677440e+05	
2	1.000000e-01	2.752094e+05	
3	1.500000e-01	2.830906e+05	
4	2.000000e-01	2.914230e+05	
5	2.500000e-01	3.002468e+05	
6	3.000000e-01	3.096067e+05	
7	3.500000e-01	3.195530e+05	
8	4.000000e-01	3.301426e+05	
9	4.500000e-01	3.414400e+05	
10	5.000000e-01	3.535186e+05	
11	5.500000e-01	3.664624e+05	
12	6.000000e-01	3.803677e+05	
13	6.500000e-01	3.953457e+05	
14	7.000000e-01	4.115256e+05	
15	7.500000e-01	4.290581e+05	
16	8.000000e-01	4.481200e+05	
17	8.500000e-01	4.689206e+05	
18	9.000000e-01	4.917092e+05	
19	9.500000e-01	5.167849e+05	
20	1.000000e+00	5.445100e+05	
21	1.050000e+00	5.753277e+05	
22	1.100000e+00	6.097857e+05	
23	1.150000e+00	6.485691e+05	
24	1.200000e+00	6.925463e+05	
25	1.250000e+00	7.428341e+05	
26	1.300000e+00	8.008942e+05	
27	1.350000e+00	8.686759e+05	
28	1.400000e+00	9.488377e+05	
29	1.450000e+00	1.045100e+06	
30	1.500000e+00	1.162828e+06	
31	1.550000e+00	1.310045e+06	
32	1.600000e+00	1.499269e+06	
33	1.650000e+00	1.751073e+06	
34	1.700000e+00	2.101404e+06	
35	1.750000e+00	2.617702e+06	
36	1.800000e+00	3.435856e+06	
37	1.850000e+00	4.840908e+06	
38	1.900000e+00	7.387835e+06	
39	1.950000e+00	1.184385e+07	
40	2.000000e+00	1.859333e+07	
41	2.050000e+00	2.714743e+07	
42	2.100000e+00	3.661020e+07	
43	2.150000e+00	4.627854e+07	
44	2.200000e+00	5.576432e+07	
45	2.250000e+00	6.489243e+07	
46	2.300000e+00	7.359948e+07	
47	2.350000e+00	8.187480e+07	
48	2.400000e+00	8.973103e+07	
49	2.450000e+00	9.719025e+07	
50	2.500000e+00	1.042776e+08	
51	2.550000e+00	1.110182e+08	
52	2.600000e+00	1.174362e+08	
53	2.650000e+00	1.235541e+08	
54	2.700000e+00	1.293925e+08	

Index   v-sweep         rds             
--------------------------------------------------------------------------------
55	2.750000e+00	1.349702e+08	
56	2.800000e+00	1.403047e+08	
57	2.850000e+00	1.454118e+08	
58	2.900000e+00	1.503058e+08	
59	2.950000e+00	1.550001e+08	
60	3.000000e+00	1.595068e+08	
61	3.050000e+00	1.638372e+08	
62	3.100000e+00	1.680014e+08	
63	3.150000e+00	1.720091e+08	
64	3.200000e+00	1.758689e+08	
65	3.250000e+00	1.795889e+08	
66	3.300000e+00	1.831766e+08	
Reset re-loads circuit ***************************

Circuit: ***************************

Doing analysis at TEMP = 125.000000 and TNOM = 125.000000


No. of Data Rows : 67
                          ***************************
                          DC transfer characteristic  Mon Jan  9 13:58:14  2023
--------------------------------------------------------------------------------
Index   v-sweep         rds             
--------------------------------------------------------------------------------
0	0.000000e+00	2.288660e+05	
1	5.000000e-02	2.337740e+05	
2	1.000000e-01	2.388894e+05	
3	1.500000e-01	2.442256e+05	
4	2.000000e-01	2.497974e+05	
5	2.500000e-01	2.556205e+05	
6	3.000000e-01	2.617125e+05	
7	3.500000e-01	2.680924e+05	
8	4.000000e-01	2.747811e+05	
9	4.500000e-01	2.818015e+05	
10	5.000000e-01	2.891789e+05	
11	5.500000e-01	2.969413e+05	
12	6.000000e-01	3.051196e+05	
13	6.500000e-01	3.137482e+05	
14	7.000000e-01	3.228653e+05	
15	7.500000e-01	3.325136e+05	
16	8.000000e-01	3.427409e+05	
17	8.500000e-01	3.536008e+05	
18	9.000000e-01	3.651540e+05	
19	9.500000e-01	3.774691e+05	
20	1.000000e+00	3.906238e+05	
21	1.050000e+00	4.047073e+05	
22	1.100000e+00	4.198213e+05	
23	1.150000e+00	4.360832e+05	
24	1.200000e+00	4.536290e+05	
25	1.250000e+00	4.726168e+05	
26	1.300000e+00	4.932322e+05	
27	1.350000e+00	5.156935e+05	
28	1.400000e+00	5.402603e+05	
29	1.450000e+00	5.672431e+05	
30	1.500000e+00	5.970165e+05	
31	1.550000e+00	6.300368e+05	
32	1.600000e+00	6.668654e+05	
33	1.650000e+00	7.082008e+05	
34	1.700000e+00	7.549234e+05	
35	1.750000e+00	8.081583e+05	
36	1.800000e+00	8.693665e+05	
37	1.850000e+00	9.404802e+05	
38	1.900000e+00	1.024108e+06	
39	1.950000e+00	1.123855e+06	
40	2.000000e+00	1.244848e+06	
41	2.050000e+00	1.394614e+06	
42	2.100000e+00	1.584635e+06	
43	2.150000e+00	1.833221e+06	
44	2.200000e+00	2.171106e+06	
45	2.250000e+00	2.652786e+06	
46	2.300000e+00	3.379631e+06	
47	2.350000e+00	4.542257e+06	
48	2.400000e+00	6.467138e+06	
49	2.450000e+00	9.562073e+06	
50	2.500000e+00	1.404014e+07	
51	2.550000e+00	1.969137e+07	
52	2.600000e+00	2.605468e+07	
53	2.650000e+00	3.271017e+07	
54	2.700000e+00	3.938589e+07	

Index   v-sweep         rds             
--------------------------------------------------------------------------------
55	2.750000e+00	4.593345e+07	
56	2.800000e+00	5.228046e+07	
57	2.850000e+00	5.839612e+07	
58	2.900000e+00	6.427136e+07	
59	2.950000e+00	6.990816e+07	
60	3.000000e+00	7.531397e+07	
61	3.050000e+00	8.049875e+07	
62	3.100000e+00	8.547344e+07	
63	3.150000e+00	9.024914e+07	
64	3.200000e+00	9.483670e+07	
65	3.250000e+00	9.924649e+07	
66	3.300000e+00	1.034883e+08	
Reset re-loads circuit ***************************

Circuit: ***************************

Note: No ".plot", ".print", or ".fourier" lines; no simulations run
