
Note: Compatibility modes selected: hs

Warning: m=xx on .subckt line will override multiplier m hierarchy!


Circuit: ***************************

Doing analysis at TEMP = 125.000000 and TNOM = 125.000000


No. of Data Rows : 67
                          ***************************
                          DC transfer characteristic  Mon Jan  9 13:58:14  2023
--------------------------------------------------------------------------------
Index   v-sweep         rds             
--------------------------------------------------------------------------------
0	0.000000e+00	5.246995e+03	
1	5.000000e-02	6.789025e+03	
2	1.000000e-01	9.421447e+03	
3	1.500000e-01	1.471128e+04	
4	2.000000e-01	2.776458e+04	
5	2.500000e-01	6.153501e+04	
6	3.000000e-01	1.236956e+05	
7	3.500000e-01	1.981259e+05	
8	4.000000e-01	2.688064e+05	
9	4.500000e-01	3.309438e+05	
10	5.000000e-01	3.847100e+05	
11	5.500000e-01	4.313651e+05	
12	6.000000e-01	4.721563e+05	
13	6.500000e-01	5.081105e+05	
14	7.000000e-01	5.400398e+05	
15	7.500000e-01	5.685848e+05	
16	8.000000e-01	5.942552e+05	
17	8.500000e-01	6.174615e+05	
18	9.000000e-01	6.385378e+05	
19	9.500000e-01	6.577595e+05	
20	1.000000e+00	6.753558e+05	
21	1.050000e+00	6.915189e+05	
22	1.100000e+00	7.064116e+05	
23	1.150000e+00	7.201728e+05	
24	1.200000e+00	7.329216e+05	
25	1.250000e+00	7.447611e+05	
26	1.300000e+00	7.557804e+05	
27	1.350000e+00	7.660577e+05	
28	1.400000e+00	7.756614e+05	
29	1.450000e+00	7.846517e+05	
30	1.500000e+00	7.930818e+05	
31	1.550000e+00	8.009990e+05	
32	1.600000e+00	8.084454e+05	
33	1.650000e+00	8.154583e+05	
34	1.700000e+00	8.220712e+05	
35	1.750000e+00	8.283136e+05	
36	1.800000e+00	8.342116e+05	
37	1.850000e+00	8.397882e+05	
38	1.900000e+00	8.450627e+05	
39	1.950000e+00	8.500508e+05	
40	2.000000e+00	8.547647e+05	
41	2.050000e+00	8.592118e+05	
42	2.100000e+00	8.633950e+05	
43	2.150000e+00	8.673112e+05	
44	2.200000e+00	8.709509e+05	
45	2.250000e+00	8.742971e+05	
46	2.300000e+00	8.773242e+05	
47	2.350000e+00	8.799970e+05	
48	2.400000e+00	8.822698e+05	
49	2.450000e+00	8.840850e+05	
50	2.500000e+00	8.853727e+05	
51	2.550000e+00	8.860503e+05	
52	2.600000e+00	8.860221e+05	
53	2.650000e+00	8.851796e+05	
54	2.700000e+00	8.834031e+05	

Index   v-sweep         rds             
--------------------------------------------------------------------------------
55	2.750000e+00	8.805631e+05	
56	2.800000e+00	8.765231e+05	
57	2.850000e+00	8.711435e+05	
58	2.900000e+00	8.642861e+05	
59	2.950000e+00	8.558200e+05	
60	3.000000e+00	8.456276e+05	
61	3.050000e+00	8.336120e+05	
62	3.100000e+00	8.197033e+05	
63	3.150000e+00	8.038657e+05	
64	3.200000e+00	7.861024e+05	
65	3.250000e+00	7.664600e+05	
66	3.300000e+00	7.450300e+05	
Reset re-loads circuit ***************************

Circuit: ***************************

Doing analysis at TEMP = 125.000000 and TNOM = 125.000000


No. of Data Rows : 67
                          ***************************
                          DC transfer characteristic  Mon Jan  9 13:58:14  2023
--------------------------------------------------------------------------------
Index   v-sweep         rds             
--------------------------------------------------------------------------------
0	0.000000e+00	1.589130e+03	
1	5.000000e-02	1.747480e+03	
2	1.000000e-01	1.933713e+03	
3	1.500000e-01	2.155822e+03	
4	2.000000e-01	2.425165e+03	
5	2.500000e-01	2.758424e+03	
6	3.000000e-01	3.181097e+03	
7	3.500000e-01	3.734027e+03	
8	4.000000e-01	4.486323e+03	
9	4.500000e-01	5.561991e+03	
10	5.000000e-01	7.193560e+03	
11	5.500000e-01	9.805690e+03	
12	6.000000e-01	1.402095e+04	
13	6.500000e-01	2.030733e+04	
14	7.000000e-01	2.847873e+04	
15	7.500000e-01	3.784557e+04	
16	8.000000e-01	4.773013e+04	
17	8.500000e-01	5.768248e+04	
18	9.000000e-01	6.745059e+04	
19	9.500000e-01	7.690577e+04	
20	1.000000e+00	8.598858e+04	
21	1.050000e+00	9.467733e+04	
22	1.100000e+00	1.029707e+05	
23	1.150000e+00	1.108783e+05	
24	1.200000e+00	1.184153e+05	
25	1.250000e+00	1.255994e+05	
26	1.300000e+00	1.324494e+05	
27	1.350000e+00	1.389843e+05	
28	1.400000e+00	1.452221e+05	
29	1.450000e+00	1.511806e+05	
30	1.500000e+00	1.568761e+05	
31	1.550000e+00	1.623244e+05	
32	1.600000e+00	1.675400e+05	
33	1.650000e+00	1.725365e+05	
34	1.700000e+00	1.773265e+05	
35	1.750000e+00	1.819220e+05	
36	1.800000e+00	1.863339e+05	
37	1.850000e+00	1.905724e+05	
38	1.900000e+00	1.946472e+05	
39	1.950000e+00	1.985669e+05	
40	2.000000e+00	2.023398e+05	
41	2.050000e+00	2.059735e+05	
42	2.100000e+00	2.094748e+05	
43	2.150000e+00	2.128499e+05	
44	2.200000e+00	2.161041e+05	
45	2.250000e+00	2.192419e+05	
46	2.300000e+00	2.222663e+05	
47	2.350000e+00	2.251792e+05	
48	2.400000e+00	2.279804e+05	
49	2.450000e+00	2.306674e+05	
50	2.500000e+00	2.332348e+05	
51	2.550000e+00	2.356737e+05	
52	2.600000e+00	2.379711e+05	
53	2.650000e+00	2.401087e+05	
54	2.700000e+00	2.420627e+05	

Index   v-sweep         rds             
--------------------------------------------------------------------------------
55	2.750000e+00	2.438026e+05	
56	2.800000e+00	2.452909e+05	
57	2.850000e+00	2.464827e+05	
58	2.900000e+00	2.473253e+05	
59	2.950000e+00	2.477589e+05	
60	3.000000e+00	2.477174e+05	
61	3.050000e+00	2.471303e+05	
62	3.100000e+00	2.459250e+05	
63	3.150000e+00	2.440304e+05	
64	3.200000e+00	2.413811e+05	
65	3.250000e+00	2.379220e+05	
66	3.300000e+00	2.336139e+05	
Reset re-loads circuit ***************************

Circuit: ***************************

Doing analysis at TEMP = 125.000000 and TNOM = 125.000000


No. of Data Rows : 67
                          ***************************
                          DC transfer characteristic  Mon Jan  9 13:58:14  2023
--------------------------------------------------------------------------------
Index   v-sweep         rds             
--------------------------------------------------------------------------------
0	0.000000e+00	1.023816e+03	
1	5.000000e-02	1.090230e+03	
2	1.000000e-01	1.163500e+03	
3	1.500000e-01	1.244727e+03	
4	2.000000e-01	1.335263e+03	
5	2.500000e-01	1.436784e+03	
6	3.000000e-01	1.551397e+03	
7	3.500000e-01	1.681788e+03	
8	4.000000e-01	1.831438e+03	
9	4.500000e-01	2.004942e+03	
10	5.000000e-01	2.208509e+03	
11	5.500000e-01	2.450745e+03	
12	6.000000e-01	2.743968e+03	
13	6.500000e-01	3.106495e+03	
14	7.000000e-01	3.566791e+03	
15	7.500000e-01	4.171154e+03	
16	8.000000e-01	4.997160e+03	
17	8.500000e-01	6.171425e+03	
18	9.000000e-01	7.871470e+03	
19	9.500000e-01	1.026670e+04	
20	1.000000e+00	1.340814e+04	
21	1.050000e+00	1.718981e+04	
22	1.100000e+00	2.142476e+04	
23	1.150000e+00	2.593209e+04	
24	1.200000e+00	3.057325e+04	
25	1.250000e+00	3.525279e+04	
26	1.300000e+00	3.990811e+04	
27	1.350000e+00	4.449923e+04	
28	1.400000e+00	4.900116e+04	
29	1.450000e+00	5.339879e+04	
30	1.500000e+00	5.768345e+04	
31	1.550000e+00	6.185080e+04	
32	1.600000e+00	6.589932e+04	
33	1.650000e+00	6.982940e+04	
34	1.700000e+00	7.364269e+04	
35	1.750000e+00	7.734165e+04	
36	1.800000e+00	8.092928e+04	
37	1.850000e+00	8.440890e+04	
38	1.900000e+00	8.778402e+04	
39	1.950000e+00	9.105821e+04	
40	2.000000e+00	9.423508e+04	
41	2.050000e+00	9.731819e+04	
42	2.100000e+00	1.003110e+05	
43	2.150000e+00	1.032170e+05	
44	2.200000e+00	1.060394e+05	
45	2.250000e+00	1.087813e+05	
46	2.300000e+00	1.114458e+05	
47	2.350000e+00	1.140358e+05	
48	2.400000e+00	1.165537e+05	
49	2.450000e+00	1.190021e+05	
50	2.500000e+00	1.213827e+05	
51	2.550000e+00	1.236971e+05	
52	2.600000e+00	1.259459e+05	
53	2.650000e+00	1.281291e+05	
54	2.700000e+00	1.302451e+05	

Index   v-sweep         rds             
--------------------------------------------------------------------------------
55	2.750000e+00	1.322908e+05	
56	2.800000e+00	1.342610e+05	
57	2.850000e+00	1.361479e+05	
58	2.900000e+00	1.379402e+05	
59	2.950000e+00	1.396229e+05	
60	3.000000e+00	1.411762e+05	
61	3.050000e+00	1.425753e+05	
62	3.100000e+00	1.437894e+05	
63	3.150000e+00	1.447818e+05	
64	3.200000e+00	1.455095e+05	
65	3.250000e+00	1.459242e+05	
66	3.300000e+00	1.459729e+05	
Reset re-loads circuit ***************************

Circuit: ***************************

Doing analysis at TEMP = 125.000000 and TNOM = 125.000000


No. of Data Rows : 67
                          ***************************
                          DC transfer characteristic  Mon Jan  9 13:58:14  2023
--------------------------------------------------------------------------------
Index   v-sweep         rds             
--------------------------------------------------------------------------------
0	0.000000e+00	7.970453e+02	
1	5.000000e-02	8.364082e+02	
2	1.000000e-01	8.786781e+02	
3	1.500000e-01	9.241813e+02	
4	2.000000e-01	9.732946e+02	
5	2.500000e-01	1.026456e+03	
6	3.000000e-01	1.084180e+03	
7	3.500000e-01	1.147068e+03	
8	4.000000e-01	1.215839e+03	
9	4.500000e-01	1.291349e+03	
10	5.000000e-01	1.374634e+03	
11	5.500000e-01	1.466955e+03	
12	6.000000e-01	1.569870e+03	
13	6.500000e-01	1.685328e+03	
14	7.000000e-01	1.815810e+03	
15	7.500000e-01	1.964531e+03	
16	8.000000e-01	2.135765e+03	
17	8.500000e-01	2.335361e+03	
18	9.000000e-01	2.571623e+03	
19	9.500000e-01	2.856849e+03	
20	1.000000e+00	3.210102e+03	
21	1.050000e+00	3.661992e+03	
22	1.100000e+00	4.261777e+03	
23	1.150000e+00	5.083361e+03	
24	1.200000e+00	6.218338e+03	
25	1.250000e+00	7.743456e+03	
26	1.300000e+00	9.679147e+03	
27	1.350000e+00	1.198039e+04	
28	1.400000e+00	1.456514e+04	
29	1.450000e+00	1.734728e+04	
30	1.500000e+00	2.025411e+04	
31	1.550000e+00	2.323025e+04	
32	1.600000e+00	2.623557e+04	
33	1.650000e+00	2.924168e+04	
34	1.700000e+00	3.222874e+04	
35	1.750000e+00	3.518299e+04	
36	1.800000e+00	3.809498e+04	
37	1.850000e+00	4.095832e+04	
38	1.900000e+00	4.376880e+04	
39	1.950000e+00	4.652377e+04	
40	2.000000e+00	4.922174e+04	
41	2.050000e+00	5.186200e+04	
42	2.100000e+00	5.444449e+04	
43	2.150000e+00	5.696953e+04	
44	2.200000e+00	5.943781e+04	
45	2.250000e+00	6.185020e+04	
46	2.300000e+00	6.420776e+04	
47	2.350000e+00	6.651166e+04	
48	2.400000e+00	6.876313e+04	
49	2.450000e+00	7.096346e+04	
50	2.500000e+00	7.311396e+04	
51	2.550000e+00	7.521591e+04	
52	2.600000e+00	7.727059e+04	
53	2.650000e+00	7.927919e+04	
54	2.700000e+00	8.124281e+04	

Index   v-sweep         rds             
--------------------------------------------------------------------------------
55	2.750000e+00	8.316235e+04	
56	2.800000e+00	8.503844e+04	
57	2.850000e+00	8.687131e+04	
58	2.900000e+00	8.866062e+04	
59	2.950000e+00	9.040519e+04	
60	3.000000e+00	9.210273e+04	
61	3.050000e+00	9.374949e+04	
62	3.100000e+00	9.533976e+04	
63	3.150000e+00	9.686544e+04	
64	3.200000e+00	9.831541e+04	
65	3.250000e+00	9.967496e+04	
66	3.300000e+00	1.009252e+05	
Reset re-loads circuit ***************************

Circuit: ***************************

Doing analysis at TEMP = 125.000000 and TNOM = 125.000000


No. of Data Rows : 67
                          ***************************
                          DC transfer characteristic  Mon Jan  9 13:58:14  2023
--------------------------------------------------------------------------------
Index   v-sweep         rds             
--------------------------------------------------------------------------------
0	0.000000e+00	6.795408e+02	
1	5.000000e-02	7.069790e+02	
2	1.000000e-01	7.360079e+02	
3	1.500000e-01	7.667651e+02	
4	2.000000e-01	7.994049e+02	
5	2.500000e-01	8.341008e+02	
6	3.000000e-01	8.710480e+02	
7	3.500000e-01	9.104679e+02	
8	4.000000e-01	9.526120e+02	
9	4.500000e-01	9.977674e+02	
10	5.000000e-01	1.046264e+03	
11	5.500000e-01	1.098482e+03	
12	6.000000e-01	1.154862e+03	
13	6.500000e-01	1.215920e+03	
14	7.000000e-01	1.282263e+03	
15	7.500000e-01	1.354611e+03	
16	8.000000e-01	1.433827e+03	
17	8.500000e-01	1.520957e+03	
18	9.000000e-01	1.617288e+03	
19	9.500000e-01	1.724429e+03	
20	1.000000e+00	1.844431e+03	
21	1.050000e+00	1.979982e+03	
22	1.100000e+00	2.134713e+03	
23	1.150000e+00	2.313719e+03	
24	1.200000e+00	2.524454e+03	
25	1.250000e+00	2.778296e+03	
26	1.300000e+00	3.093133e+03	
27	1.350000e+00	3.497115e+03	
28	1.400000e+00	4.032204e+03	
29	1.450000e+00	4.752817e+03	
30	1.500000e+00	5.713032e+03	
31	1.550000e+00	6.944633e+03	
32	1.600000e+00	8.442831e+03	
33	1.650000e+00	1.017178e+04	
34	1.700000e+00	1.208157e+04	
35	1.750000e+00	1.412267e+04	
36	1.800000e+00	1.625297e+04	
37	1.850000e+00	1.843933e+04	
38	1.900000e+00	2.065667e+04	
39	1.950000e+00	2.288639e+04	
40	2.000000e+00	2.511480e+04	
41	2.050000e+00	2.733189e+04	
42	2.100000e+00	2.953033e+04	
43	2.150000e+00	3.170482e+04	
44	2.200000e+00	3.385152e+04	
45	2.250000e+00	3.596769e+04	
46	2.300000e+00	3.805144e+04	
47	2.350000e+00	4.010151e+04	
48	2.400000e+00	4.211709e+04	
49	2.450000e+00	4.409774e+04	
50	2.500000e+00	4.604332e+04	
51	2.550000e+00	4.795388e+04	
52	2.600000e+00	4.982963e+04	
53	2.650000e+00	5.167092e+04	
54	2.700000e+00	5.347818e+04	

Index   v-sweep         rds             
--------------------------------------------------------------------------------
55	2.750000e+00	5.525190e+04	
56	2.800000e+00	5.699263e+04	
57	2.850000e+00	5.870092e+04	
58	2.900000e+00	6.037734e+04	
59	2.950000e+00	6.202238e+04	
60	3.000000e+00	6.363644e+04	
61	3.050000e+00	6.521975e+04	
62	3.100000e+00	6.677227e+04	
63	3.150000e+00	6.829350e+04	
64	3.200000e+00	6.978237e+04	
65	3.250000e+00	7.123693e+04	
66	3.300000e+00	7.265407e+04	
Reset re-loads circuit ***************************

Circuit: ***************************

Doing analysis at TEMP = 125.000000 and TNOM = 125.000000


No. of Data Rows : 67
                          ***************************
                          DC transfer characteristic  Mon Jan  9 13:58:14  2023
--------------------------------------------------------------------------------
Index   v-sweep         rds             
--------------------------------------------------------------------------------
0	0.000000e+00	6.076100e+02	
1	5.000000e-02	6.284373e+02	
2	1.000000e-01	6.502602e+02	
3	1.500000e-01	6.731490e+02	
4	2.000000e-01	6.971807e+02	
5	2.500000e-01	7.224401e+02	
6	3.000000e-01	7.490205e+02	
7	3.500000e-01	7.770251e+02	
8	4.000000e-01	8.065683e+02	
9	4.500000e-01	8.377771e+02	
10	5.000000e-01	8.707930e+02	
11	5.500000e-01	9.057745e+02	
12	6.000000e-01	9.428991e+02	
13	6.500000e-01	9.823669e+02	
14	7.000000e-01	1.024404e+03	
15	7.500000e-01	1.069268e+03	
16	8.000000e-01	1.117252e+03	
17	8.500000e-01	1.168694e+03	
18	9.000000e-01	1.223983e+03	
19	9.500000e-01	1.283573e+03	
20	1.000000e+00	1.347997e+03	
21	1.050000e+00	1.417887e+03	
22	1.100000e+00	1.494005e+03	
23	1.150000e+00	1.577277e+03	
24	1.200000e+00	1.668854e+03	
25	1.250000e+00	1.770202e+03	
26	1.300000e+00	1.883235e+03	
27	1.350000e+00	2.010538e+03	
28	1.400000e+00	2.155740e+03	
29	1.450000e+00	2.324138e+03	
30	1.500000e+00	2.523737e+03	
31	1.550000e+00	2.766916e+03	
32	1.600000e+00	3.072705e+03	
33	1.650000e+00	3.468955e+03	
34	1.700000e+00	3.991958e+03	
35	1.750000e+00	4.680080e+03	
36	1.800000e+00	5.561366e+03	
37	1.850000e+00	6.642627e+03	
38	1.900000e+00	7.908450e+03	
39	1.950000e+00	9.329311e+03	
40	2.000000e+00	1.087140e+04	
41	2.050000e+00	1.250316e+04	
42	2.100000e+00	1.419802e+04	
43	2.150000e+00	1.593479e+04	
44	2.200000e+00	1.769709e+04	
45	2.250000e+00	1.947237e+04	
46	2.300000e+00	2.125114e+04	
47	2.350000e+00	2.302621e+04	
48	2.400000e+00	2.479213e+04	
49	2.450000e+00	2.654480e+04	
50	2.500000e+00	2.828112e+04	
51	2.550000e+00	2.999878e+04	
52	2.600000e+00	3.169605e+04	
53	2.650000e+00	3.337169e+04	
54	2.700000e+00	3.502477e+04	

Index   v-sweep         rds             
--------------------------------------------------------------------------------
55	2.750000e+00	3.665469e+04	
56	2.800000e+00	3.826105e+04	
57	2.850000e+00	3.984363e+04	
58	2.900000e+00	4.140232e+04	
59	2.950000e+00	4.293716e+04	
60	3.000000e+00	4.444824e+04	
61	3.050000e+00	4.593572e+04	
62	3.100000e+00	4.739981e+04	
63	3.150000e+00	4.884073e+04	
64	3.200000e+00	5.025866e+04	
65	3.250000e+00	5.165376e+04	
66	3.300000e+00	5.302602e+04	
Reset re-loads circuit ***************************

Circuit: ***************************

Note: No ".plot", ".print", or ".fourier" lines; no simulations run
