
Note: Compatibility modes selected: hs

Warning: m=xx on .subckt line will override multiplier m hierarchy!


Circuit: ***************************

Doing analysis at TEMP = 25.000000 and TNOM = 25.000000


No. of Data Rows : 67
                          ***************************
                          DC transfer characteristic  Mon Jan  9 13:58:13  2023
--------------------------------------------------------------------------------
Index   v-sweep         rds             
--------------------------------------------------------------------------------
0	0.000000e+00	1.717116e+06	
1	5.000000e-02	2.473689e+06	
2	1.000000e-01	4.384974e+06	
3	1.500000e-01	1.441500e+07	
4	2.000000e-01	1.273610e+08	
5	2.500000e-01	5.393359e+08	
6	3.000000e-01	1.027913e+09	
7	3.500000e-01	1.395395e+09	
8	4.000000e-01	1.648563e+09	
9	4.500000e-01	1.827458e+09	
10	5.000000e-01	1.959683e+09	
11	5.500000e-01	2.061502e+09	
12	6.000000e-01	2.142556e+09	
13	6.500000e-01	2.208803e+09	
14	7.000000e-01	2.264098e+09	
15	7.500000e-01	2.311040e+09	
16	8.000000e-01	2.351452e+09	
17	8.500000e-01	2.386648e+09	
18	9.000000e-01	2.417607e+09	
19	9.500000e-01	2.445069e+09	
20	1.000000e+00	2.469609e+09	
21	1.050000e+00	2.491680e+09	
22	1.100000e+00	2.511644e+09	
23	1.150000e+00	2.529793e+09	
24	1.200000e+00	2.546369e+09	
25	1.250000e+00	2.561569e+09	
26	1.300000e+00	2.575561e+09	
27	1.350000e+00	2.588485e+09	
28	1.400000e+00	2.600460e+09	
29	1.450000e+00	2.611587e+09	
30	1.500000e+00	2.621954e+09	
31	1.550000e+00	2.631637e+09	
32	1.600000e+00	2.640702e+09	
33	1.650000e+00	2.649204e+09	
34	1.700000e+00	2.657196e+09	
35	1.750000e+00	2.664719e+09	
36	1.800000e+00	2.671811e+09	
37	1.850000e+00	2.678504e+09	
38	1.900000e+00	2.684825e+09	
39	1.950000e+00	2.690796e+09	
40	2.000000e+00	2.696432e+09	
41	2.050000e+00	2.701743e+09	
42	2.100000e+00	2.706735e+09	
43	2.150000e+00	2.711403e+09	
44	2.200000e+00	2.715738e+09	
45	2.250000e+00	2.719722e+09	
46	2.300000e+00	2.723327e+09	
47	2.350000e+00	2.726515e+09	
48	2.400000e+00	2.729238e+09	
49	2.450000e+00	2.731437e+09	
50	2.500000e+00	2.733041e+09	
51	2.550000e+00	2.733966e+09	
52	2.600000e+00	2.734113e+09	
53	2.650000e+00	2.733374e+09	
54	2.700000e+00	2.731624e+09	

Index   v-sweep         rds             
--------------------------------------------------------------------------------
55	2.750000e+00	2.728730e+09	
56	2.800000e+00	2.724545e+09	
57	2.850000e+00	2.718912e+09	
58	2.900000e+00	2.711667e+09	
59	2.950000e+00	2.702639e+09	
60	3.000000e+00	2.691656e+09	
61	3.050000e+00	2.678545e+09	
62	3.100000e+00	2.663136e+09	
63	3.150000e+00	2.645270e+09	
64	3.200000e+00	2.624798e+09	
65	3.250000e+00	2.601590e+09	
66	3.300000e+00	2.575538e+09	
Reset re-loads circuit ***************************

Circuit: ***************************

Doing analysis at TEMP = 25.000000 and TNOM = 25.000000


No. of Data Rows : 67
                          ***************************
                          DC transfer characteristic  Mon Jan  9 13:58:13  2023
--------------------------------------------------------------------------------
Index   v-sweep         rds             
--------------------------------------------------------------------------------
0	0.000000e+00	4.793615e+05	
1	5.000000e-02	5.304693e+05	
2	1.000000e-01	5.935980e+05	
3	1.500000e-01	6.735500e+05	
4	2.000000e-01	7.780734e+05	
5	2.500000e-01	9.205195e+05	
6	3.000000e-01	1.125982e+06	
7	3.500000e-01	1.447600e+06	
8	4.000000e-01	2.018943e+06	
9	4.500000e-01	3.272280e+06	
10	5.000000e-01	7.118986e+06	
11	5.500000e-01	2.182714e+07	
12	6.000000e-01	6.021499e+07	
13	6.500000e-01	1.160710e+08	
14	7.000000e-01	1.734211e+08	
15	7.500000e-01	2.247007e+08	
16	8.000000e-01	2.687374e+08	
17	8.500000e-01	3.063871e+08	
18	9.000000e-01	3.388041e+08	
19	9.500000e-01	3.669929e+08	
20	1.000000e+00	3.917468e+08	
21	1.050000e+00	4.136796e+08	
22	1.100000e+00	4.332666e+08	
23	1.150000e+00	4.508801e+08	
24	1.200000e+00	4.668155e+08	
25	1.250000e+00	4.813101e+08	
26	1.300000e+00	4.945574e+08	
27	1.350000e+00	5.067164e+08	
28	1.400000e+00	5.179195e+08	
29	1.450000e+00	5.282780e+08	
30	1.500000e+00	5.378859e+08	
31	1.550000e+00	5.468236e+08	
32	1.600000e+00	5.551601e+08	
33	1.650000e+00	5.629551e+08	
34	1.700000e+00	5.702604e+08	
35	1.750000e+00	5.771213e+08	
36	1.800000e+00	5.835777e+08	
37	1.850000e+00	5.896647e+08	
38	1.900000e+00	5.954133e+08	
39	1.950000e+00	6.008511e+08	
40	2.000000e+00	6.060025e+08	
41	2.050000e+00	6.108891e+08	
42	2.100000e+00	6.155301e+08	
43	2.150000e+00	6.199422e+08	
44	2.200000e+00	6.241397e+08	
45	2.250000e+00	6.281345e+08	
46	2.300000e+00	6.319358e+08	
47	2.350000e+00	6.355502e+08	
48	2.400000e+00	6.389810e+08	
49	2.450000e+00	6.422282e+08	
50	2.500000e+00	6.452875e+08	
51	2.550000e+00	6.481503e+08	
52	2.600000e+00	6.508029e+08	
53	2.650000e+00	6.532256e+08	
54	2.700000e+00	6.553929e+08	

Index   v-sweep         rds             
--------------------------------------------------------------------------------
55	2.750000e+00	6.572722e+08	
56	2.800000e+00	6.588235e+08	
57	2.850000e+00	6.599995e+08	
58	2.900000e+00	6.607451e+08	
59	2.950000e+00	6.609974e+08	
60	3.000000e+00	6.606864e+08	
61	3.050000e+00	6.597358e+08	
62	3.100000e+00	6.580641e+08	
63	3.150000e+00	6.555861e+08	
64	3.200000e+00	6.522157e+08	
65	3.250000e+00	6.478678e+08	
66	3.300000e+00	6.424622e+08	
Reset re-loads circuit ***************************

Circuit: ***************************

Doing analysis at TEMP = 25.000000 and TNOM = 25.000000


No. of Data Rows : 67
                          ***************************
                          DC transfer characteristic  Mon Jan  9 13:58:13  2023
--------------------------------------------------------------------------------
Index   v-sweep         rds             
--------------------------------------------------------------------------------
0	0.000000e+00	2.871134e+05	
1	5.000000e-02	3.039265e+05	
2	1.000000e-01	3.227839e+05	
3	1.500000e-01	3.440824e+05	
4	2.000000e-01	3.683286e+05	
5	2.500000e-01	3.961799e+05	
6	3.000000e-01	4.285045e+05	
7	3.500000e-01	4.664735e+05	
8	4.000000e-01	5.117056e+05	
9	4.500000e-01	5.665030e+05	
10	5.000000e-01	6.342535e+05	
11	5.500000e-01	7.201536e+05	
12	6.000000e-01	8.325924e+05	
13	6.500000e-01	9.860199e+05	
14	7.000000e-01	1.207499e+06	
15	7.500000e-01	1.553652e+06	
16	8.000000e-01	2.161528e+06	
17	8.500000e-01	3.424838e+06	
18	9.000000e-01	6.581443e+06	
19	9.500000e-01	1.450049e+07	
20	1.000000e+00	2.929791e+07	
21	1.050000e+00	4.884346e+07	
22	1.100000e+00	6.966191e+07	
23	1.150000e+00	8.973340e+07	
24	1.200000e+00	1.083274e+08	
25	1.250000e+00	1.253152e+08	
26	1.300000e+00	1.407878e+08	
27	1.350000e+00	1.548981e+08	
28	1.400000e+00	1.678038e+08	
29	1.450000e+00	1.796488e+08	
30	1.500000e+00	1.905586e+08	
31	1.550000e+00	2.006412e+08	
32	1.600000e+00	2.099888e+08	
33	1.650000e+00	2.186808e+08	
34	1.700000e+00	2.267851e+08	
35	1.750000e+00	2.343608e+08	
36	1.800000e+00	2.414587e+08	
37	1.850000e+00	2.481237e+08	
38	1.900000e+00	2.543948e+08	
39	1.950000e+00	2.603064e+08	
40	2.000000e+00	2.658891e+08	
41	2.050000e+00	2.711699e+08	
42	2.100000e+00	2.761729e+08	
43	2.150000e+00	2.809198e+08	
44	2.200000e+00	2.854299e+08	
45	2.250000e+00	2.897205e+08	
46	2.300000e+00	2.938075e+08	
47	2.350000e+00	2.977049e+08	
48	2.400000e+00	3.014255e+08	
49	2.450000e+00	3.049806e+08	
50	2.500000e+00	3.083804e+08	
51	2.550000e+00	3.116338e+08	
52	2.600000e+00	3.147480e+08	
53	2.650000e+00	3.177292e+08	
54	2.700000e+00	3.205816e+08	

Index   v-sweep         rds             
--------------------------------------------------------------------------------
55	2.750000e+00	3.233075e+08	
56	2.800000e+00	3.259069e+08	
57	2.850000e+00	3.283775e+08	
58	2.900000e+00	3.307134e+08	
59	2.950000e+00	3.329057e+08	
60	3.000000e+00	3.349409e+08	
61	3.050000e+00	3.368015e+08	
62	3.100000e+00	3.384646e+08	
63	3.150000e+00	3.399019e+08	
64	3.200000e+00	3.410795e+08	
65	3.250000e+00	3.419575e+08	
66	3.300000e+00	3.424903e+08	
Reset re-loads circuit ***************************

Circuit: ***************************

Doing analysis at TEMP = 25.000000 and TNOM = 25.000000


No. of Data Rows : 67
                          ***************************
                          DC transfer characteristic  Mon Jan  9 13:58:13  2023
--------------------------------------------------------------------------------
Index   v-sweep         rds             
--------------------------------------------------------------------------------
0	0.000000e+00	2.145695e+05	
1	5.000000e-02	2.230961e+05	
2	1.000000e-01	2.323067e+05	
3	1.500000e-01	2.422873e+05	
4	2.000000e-01	2.531385e+05	
5	2.500000e-01	2.649795e+05	
6	3.000000e-01	2.779521e+05	
7	3.500000e-01	2.922266e+05	
8	4.000000e-01	3.080093e+05	
9	4.500000e-01	3.255525e+05	
10	5.000000e-01	3.451680e+05	
11	5.500000e-01	3.672461e+05	
12	6.000000e-01	3.922813e+05	
13	6.500000e-01	4.209099e+05	
14	7.000000e-01	4.539651e+05	
15	7.500000e-01	4.925585e+05	
16	8.000000e-01	5.382076e+05	
17	8.500000e-01	5.930386e+05	
18	9.000000e-01	6.601248e+05	
19	9.500000e-01	7.440760e+05	
20	1.000000e+00	8.521263e+05	
21	1.050000e+00	9.962791e+05	
22	1.100000e+00	1.197891e+06	
23	1.150000e+00	1.498432e+06	
24	1.200000e+00	1.987428e+06	
25	1.250000e+00	2.880016e+06	
26	1.300000e+00	4.709421e+06	
27	1.350000e+00	8.519032e+06	
28	1.400000e+00	1.522982e+07	
29	1.450000e+00	2.446403e+07	
30	1.500000e+00	3.499146e+07	
31	1.550000e+00	4.579733e+07	
32	1.600000e+00	5.633438e+07	
33	1.650000e+00	6.636772e+07	
34	1.700000e+00	7.582086e+07	
35	1.750000e+00	8.468951e+07	
36	1.800000e+00	9.299993e+07	
37	1.850000e+00	1.007898e+08	
38	1.900000e+00	1.080995e+08	
39	1.950000e+00	1.149683e+08	
40	2.000000e+00	1.214330e+08	
41	2.050000e+00	1.275271e+08	
42	2.100000e+00	1.332811e+08	
43	2.150000e+00	1.387223e+08	
44	2.200000e+00	1.438756e+08	
45	2.250000e+00	1.487630e+08	
46	2.300000e+00	1.534048e+08	
47	2.350000e+00	1.578189e+08	
48	2.400000e+00	1.620219e+08	
49	2.450000e+00	1.660284e+08	
50	2.500000e+00	1.698521e+08	
51	2.550000e+00	1.735052e+08	
52	2.600000e+00	1.769990e+08	
53	2.650000e+00	1.803435e+08	
54	2.700000e+00	1.835483e+08	

Index   v-sweep         rds             
--------------------------------------------------------------------------------
55	2.750000e+00	1.866217e+08	
56	2.800000e+00	1.895716e+08	
57	2.850000e+00	1.924049e+08	
58	2.900000e+00	1.951280e+08	
59	2.950000e+00	1.977464e+08	
60	3.000000e+00	2.002646e+08	
61	3.050000e+00	2.026863e+08	
62	3.100000e+00	2.050139e+08	
63	3.150000e+00	2.072485e+08	
64	3.200000e+00	2.093895e+08	
65	3.250000e+00	2.114343e+08	
66	3.300000e+00	2.133779e+08	
Reset re-loads circuit ***************************

Circuit: ***************************

Doing analysis at TEMP = 25.000000 and TNOM = 25.000000


No. of Data Rows : 67
                          ***************************
                          DC transfer characteristic  Mon Jan  9 13:58:13  2023
--------------------------------------------------------------------------------
Index   v-sweep         rds             
--------------------------------------------------------------------------------
0	0.000000e+00	1.786219e+05	
1	5.000000e-02	1.839159e+05	
2	1.000000e-01	1.895211e+05	
3	1.500000e-01	1.954657e+05	
4	2.000000e-01	2.017816e+05	
5	2.500000e-01	2.085047e+05	
6	3.000000e-01	2.156755e+05	
7	3.500000e-01	2.233404e+05	
8	4.000000e-01	2.315523e+05	
9	4.500000e-01	2.403719e+05	
10	5.000000e-01	2.498691e+05	
11	5.500000e-01	2.601252e+05	
12	6.000000e-01	2.712349e+05	
13	6.500000e-01	2.833094e+05	
14	7.000000e-01	2.964800e+05	
15	7.500000e-01	3.109030e+05	
16	8.000000e-01	3.267661e+05	
17	8.500000e-01	3.442960e+05	
18	9.000000e-01	3.637700e+05	
19	9.500000e-01	3.855303e+05	
20	1.000000e+00	4.100045e+05	
21	1.050000e+00	4.377338e+05	
22	1.100000e+00	4.694134e+05	
23	1.150000e+00	5.059514e+05	
24	1.200000e+00	5.485569e+05	
25	1.250000e+00	5.988754e+05	
26	1.300000e+00	6.592048e+05	
27	1.350000e+00	7.328520e+05	
28	1.400000e+00	8.247490e+05	
29	1.450000e+00	9.425762e+05	
30	1.500000e+00	1.098934e+06	
31	1.550000e+00	1.315845e+06	
32	1.600000e+00	1.634780e+06	
33	1.650000e+00	2.140234e+06	
34	1.700000e+00	3.013554e+06	
35	1.750000e+00	4.621010e+06	
36	1.800000e+00	7.494570e+06	
37	1.850000e+00	1.194199e+07	
38	1.900000e+00	1.769808e+07	
39	1.950000e+00	2.419977e+07	
40	2.000000e+00	3.096959e+07	
41	2.050000e+00	3.771496e+07	
42	2.100000e+00	4.428228e+07	
43	2.150000e+00	5.059947e+07	
44	2.200000e+00	5.663823e+07	
45	2.250000e+00	6.239299e+07	
46	2.300000e+00	6.786966e+07	
47	2.350000e+00	7.307978e+07	
48	2.400000e+00	7.803729e+07	
49	2.450000e+00	8.275693e+07	
50	2.500000e+00	8.725335e+07	
51	2.550000e+00	9.154064e+07	
52	2.600000e+00	9.563210e+07	
53	2.650000e+00	9.954022e+07	
54	2.700000e+00	1.032766e+08	

Index   v-sweep         rds             
--------------------------------------------------------------------------------
55	2.750000e+00	1.068520e+08	
56	2.800000e+00	1.102763e+08	
57	2.850000e+00	1.135588e+08	
58	2.900000e+00	1.167079e+08	
59	2.950000e+00	1.197316e+08	
60	3.000000e+00	1.226371e+08	
61	3.050000e+00	1.254311e+08	
62	3.100000e+00	1.281198e+08	
63	3.150000e+00	1.307091e+08	
64	3.200000e+00	1.332042e+08	
65	3.250000e+00	1.356100e+08	
66	3.300000e+00	1.379310e+08	
Reset re-loads circuit ***************************

Circuit: ***************************

Doing analysis at TEMP = 25.000000 and TNOM = 25.000000


No. of Data Rows : 67
                          ***************************
                          DC transfer characteristic  Mon Jan  9 13:58:13  2023
--------------------------------------------------------------------------------
Index   v-sweep         rds             
--------------------------------------------------------------------------------
0	0.000000e+00	1.575322e+05	
1	5.000000e-02	1.611822e+05	
2	1.000000e-01	1.649976e+05	
3	1.500000e-01	1.689900e+05	
4	2.000000e-01	1.731720e+05	
5	2.500000e-01	1.775574e+05	
6	3.000000e-01	1.821613e+05	
7	3.500000e-01	1.870006e+05	
8	4.000000e-01	1.920937e+05	
9	4.500000e-01	1.974612e+05	
10	5.000000e-01	2.031258e+05	
11	5.500000e-01	2.091129e+05	
12	6.000000e-01	2.154509e+05	
13	6.500000e-01	2.221714e+05	
14	7.000000e-01	2.293103e+05	
15	7.500000e-01	2.369078e+05	
16	8.000000e-01	2.450096e+05	
17	8.500000e-01	2.536675e+05	
18	9.000000e-01	2.629409e+05	
19	9.500000e-01	2.728978e+05	
20	1.000000e+00	2.836167e+05	
21	1.050000e+00	2.951885e+05	
22	1.100000e+00	3.077191e+05	
23	1.150000e+00	3.213328e+05	
24	1.200000e+00	3.361765e+05	
25	1.250000e+00	3.524246e+05	
26	1.300000e+00	3.702863e+05	
27	1.350000e+00	3.900144e+05	
28	1.400000e+00	4.119175e+05	
29	1.450000e+00	4.363761e+05	
30	1.500000e+00	4.638649e+05	
31	1.550000e+00	4.949839e+05	
32	1.600000e+00	5.305024e+05	
33	1.650000e+00	5.714234e+05	
34	1.700000e+00	6.190793e+05	
35	1.750000e+00	6.752783e+05	
36	1.800000e+00	7.425369e+05	
37	1.850000e+00	8.244613e+05	
38	1.900000e+00	9.263999e+05	
39	1.950000e+00	1.056617e+06	
40	2.000000e+00	1.228511e+06	
41	2.050000e+00	1.465061e+06	
42	2.100000e+00	1.808083e+06	
43	2.150000e+00	2.337471e+06	
44	2.200000e+00	3.205178e+06	
45	2.250000e+00	4.661591e+06	
46	2.300000e+00	6.978244e+06	
47	2.350000e+00	1.023707e+07	
48	2.400000e+00	1.425039e+07	
49	2.450000e+00	1.872091e+07	
50	2.500000e+00	2.339621e+07	
51	2.550000e+00	2.810896e+07	
52	2.600000e+00	3.276041e+07	
53	2.650000e+00	3.729612e+07	
54	2.700000e+00	4.168809e+07	

Index   v-sweep         rds             
--------------------------------------------------------------------------------
55	2.750000e+00	4.592367e+07	
56	2.800000e+00	4.999904e+07	
57	2.850000e+00	5.391546e+07	
58	2.900000e+00	5.767697e+07	
59	2.950000e+00	6.128918e+07	
60	3.000000e+00	6.475846e+07	
61	3.050000e+00	6.809147e+07	
62	3.100000e+00	7.129489e+07	
63	3.150000e+00	7.437528e+07	
64	3.200000e+00	7.733893e+07	
65	3.250000e+00	8.019189e+07	
66	3.300000e+00	8.293986e+07	
Reset re-loads circuit ***************************

Circuit: ***************************

Note: No ".plot", ".print", or ".fourier" lines; no simulations run
