
Note: Compatibility modes selected: hs

Warning: m=xx on .subckt line will override multiplier m hierarchy!


Circuit: ***************************

Doing analysis at TEMP = 125.000000 and TNOM = 125.000000


No. of Data Rows : 67
                          ***************************
                          DC transfer characteristic  Mon Jan  9 13:58:14  2023
--------------------------------------------------------------------------------
Index   v-sweep         rds             
--------------------------------------------------------------------------------
0	0.000000e+00	4.844650e+04	
1	5.000000e-02	6.009602e+04	
2	1.000000e-01	7.817342e+04	
3	1.500000e-01	1.095147e+05	
4	2.000000e-01	1.729206e+05	
5	2.500000e-01	3.211458e+05	
6	3.000000e-01	6.386785e+05	
7	3.500000e-01	1.097512e+06	
8	4.000000e-01	1.565350e+06	
9	4.500000e-01	1.983274e+06	
10	5.000000e-01	2.350184e+06	
11	5.500000e-01	2.675977e+06	
12	6.000000e-01	2.969129e+06	
13	6.500000e-01	3.235683e+06	
14	7.000000e-01	3.479939e+06	
15	7.500000e-01	3.705078e+06	
16	8.000000e-01	3.913542e+06	
17	8.500000e-01	4.107281e+06	
18	9.000000e-01	4.287888e+06	
19	9.500000e-01	4.456699e+06	
20	1.000000e+00	4.614851e+06	
21	1.050000e+00	4.763323e+06	
22	1.100000e+00	4.902969e+06	
23	1.150000e+00	5.034537e+06	
24	1.200000e+00	5.158691e+06	
25	1.250000e+00	5.276019e+06	
26	1.300000e+00	5.387049e+06	
27	1.350000e+00	5.492253e+06	
28	1.400000e+00	5.592056e+06	
29	1.450000e+00	5.686844e+06	
30	1.500000e+00	5.776963e+06	
31	1.550000e+00	5.862732e+06	
32	1.600000e+00	5.944439e+06	
33	1.650000e+00	6.022346e+06	
34	1.700000e+00	6.096693e+06	
35	1.750000e+00	6.167698e+06	
36	1.800000e+00	6.235558e+06	
37	1.850000e+00	6.300451e+06	
38	1.900000e+00	6.362533e+06	
39	1.950000e+00	6.421939e+06	
40	2.000000e+00	6.478779e+06	
41	2.050000e+00	6.533135e+06	
42	2.100000e+00	6.585058e+06	
43	2.150000e+00	6.634558e+06	
44	2.200000e+00	6.681603e+06	
45	2.250000e+00	6.726107e+06	
46	2.300000e+00	6.767923e+06	
47	2.350000e+00	6.806834e+06	
48	2.400000e+00	6.842542e+06	
49	2.450000e+00	6.874661e+06	
50	2.500000e+00	6.902705e+06	
51	2.550000e+00	6.926085e+06	
52	2.600000e+00	6.944103e+06	
53	2.650000e+00	6.955946e+06	
54	2.700000e+00	6.960700e+06	

Index   v-sweep         rds             
--------------------------------------------------------------------------------
55	2.750000e+00	6.957346e+06	
56	2.800000e+00	6.944788e+06	
57	2.850000e+00	6.921868e+06	
58	2.900000e+00	6.887404e+06	
59	2.950000e+00	6.840228e+06	
60	3.000000e+00	6.779239e+06	
61	3.050000e+00	6.703454e+06	
62	3.100000e+00	6.612074e+06	
63	3.150000e+00	6.504539e+06	
64	3.200000e+00	6.380584e+06	
65	3.250000e+00	6.240289e+06	
66	3.300000e+00	6.084105e+06	
Reset re-loads circuit ***************************

Circuit: ***************************

Doing analysis at TEMP = 125.000000 and TNOM = 125.000000


No. of Data Rows : 67
                          ***************************
                          DC transfer characteristic  Mon Jan  9 13:58:14  2023
--------------------------------------------------------------------------------
Index   v-sweep         rds             
--------------------------------------------------------------------------------
0	0.000000e+00	1.694321e+04	
1	5.000000e-02	1.850110e+04	
2	1.000000e-01	2.031587e+04	
3	1.500000e-01	2.245612e+04	
4	2.000000e-01	2.501702e+04	
5	2.500000e-01	2.813448e+04	
6	3.000000e-01	3.200897e+04	
7	3.500000e-01	3.694768e+04	
8	4.000000e-01	4.344191e+04	
9	4.500000e-01	5.231380e+04	
10	5.000000e-01	6.499122e+04	
11	5.500000e-01	8.394826e+04	
12	6.000000e-01	1.129761e+05	
13	6.500000e-01	1.558131e+05	
14	7.000000e-01	2.124323e+05	
15	7.500000e-01	2.781127e+05	
16	8.000000e-01	3.475004e+05	
17	8.500000e-01	4.172640e+05	
18	9.000000e-01	4.858313e+05	
19	9.500000e-01	5.525534e+05	
20	1.000000e+00	6.171974e+05	
21	1.050000e+00	6.797106e+05	
22	1.100000e+00	7.401199e+05	
23	1.150000e+00	7.984863e+05	
24	1.200000e+00	8.548855e+05	
25	1.250000e+00	9.093981e+05	
26	1.300000e+00	9.621051e+05	
27	1.350000e+00	1.013086e+06	
28	1.400000e+00	1.062416e+06	
29	1.450000e+00	1.110170e+06	
30	1.500000e+00	1.156416e+06	
31	1.550000e+00	1.201220e+06	
32	1.600000e+00	1.244646e+06	
33	1.650000e+00	1.286751e+06	
34	1.700000e+00	1.327593e+06	
35	1.750000e+00	1.367225e+06	
36	1.800000e+00	1.405697e+06	
37	1.850000e+00	1.443056e+06	
38	1.900000e+00	1.479349e+06	
39	1.950000e+00	1.514617e+06	
40	2.000000e+00	1.548901e+06	
41	2.050000e+00	1.582239e+06	
42	2.100000e+00	1.614666e+06	
43	2.150000e+00	1.646216e+06	
44	2.200000e+00	1.676916e+06	
45	2.250000e+00	1.706793e+06	
46	2.300000e+00	1.735864e+06	
47	2.350000e+00	1.764143e+06	
48	2.400000e+00	1.791632e+06	
49	2.450000e+00	1.818321e+06	
50	2.500000e+00	1.844185e+06	
51	2.550000e+00	1.869179e+06	
52	2.600000e+00	1.893231e+06	
53	2.650000e+00	1.916242e+06	
54	2.700000e+00	1.938075e+06	

Index   v-sweep         rds             
--------------------------------------------------------------------------------
55	2.750000e+00	1.958550e+06	
56	2.800000e+00	1.977442e+06	
57	2.850000e+00	1.994469e+06	
58	2.900000e+00	2.009293e+06	
59	2.950000e+00	2.021516e+06	
60	3.000000e+00	2.030682e+06	
61	3.050000e+00	2.036281e+06	
62	3.100000e+00	2.037757e+06	
63	3.150000e+00	2.034527e+06	
64	3.200000e+00	2.026003e+06	
65	3.250000e+00	2.011619e+06	
66	3.300000e+00	1.990869e+06	
Reset re-loads circuit ***************************

Circuit: ***************************

Doing analysis at TEMP = 125.000000 and TNOM = 125.000000


No. of Data Rows : 67
                          ***************************
                          DC transfer characteristic  Mon Jan  9 13:58:14  2023
--------------------------------------------------------------------------------
Index   v-sweep         rds             
--------------------------------------------------------------------------------
0	0.000000e+00	1.091666e+04	
1	5.000000e-02	1.157748e+04	
2	1.000000e-01	1.230333e+04	
3	1.500000e-01	1.310416e+04	
4	2.000000e-01	1.399207e+04	
5	2.500000e-01	1.498190e+04	
6	3.000000e-01	1.609206e+04	
7	3.500000e-01	1.734570e+04	
8	4.000000e-01	1.877226e+04	
9	4.500000e-01	2.040982e+04	
10	5.000000e-01	2.230849e+04	
11	5.500000e-01	2.453548e+04	
12	6.000000e-01	2.718297e+04	
13	6.500000e-01	3.038064e+04	
14	7.000000e-01	3.431596e+04	
15	7.500000e-01	3.926764e+04	
16	8.000000e-01	4.565923e+04	
17	8.500000e-01	5.413359e+04	
18	9.000000e-01	6.560590e+04	
19	9.500000e-01	8.113527e+04	
20	1.000000e+00	1.014195e+05	
21	1.050000e+00	1.262148e+05	
22	1.100000e+00	1.544270e+05	
23	1.150000e+00	1.847637e+05	
24	1.200000e+00	2.161961e+05	
25	1.250000e+00	2.480404e+05	
26	1.300000e+00	2.798756e+05	
27	1.350000e+00	3.114501e+05	
28	1.400000e+00	3.426147e+05	
29	1.450000e+00	3.732819e+05	
30	1.500000e+00	4.034014e+05	
31	1.550000e+00	4.329461e+05	
32	1.600000e+00	4.619037e+05	
33	1.650000e+00	4.902710e+05	
34	1.700000e+00	5.180508e+05	
35	1.750000e+00	5.452500e+05	
36	1.800000e+00	5.718782e+05	
37	1.850000e+00	5.979463e+05	
38	1.900000e+00	6.234667e+05	
39	1.950000e+00	6.484520e+05	
40	2.000000e+00	6.729154e+05	
41	2.050000e+00	6.968702e+05	
42	2.100000e+00	7.203296e+05	
43	2.150000e+00	7.433066e+05	
44	2.200000e+00	7.658142e+05	
45	2.250000e+00	7.878648e+05	
46	2.300000e+00	8.094708e+05	
47	2.350000e+00	8.306437e+05	
48	2.400000e+00	8.513948e+05	
49	2.450000e+00	8.717342e+05	
50	2.500000e+00	8.916709e+05	
51	2.550000e+00	9.112119e+05	
52	2.600000e+00	9.303618e+05	
53	2.650000e+00	9.491213e+05	
54	2.700000e+00	9.674859e+05	

Index   v-sweep         rds             
--------------------------------------------------------------------------------
55	2.750000e+00	9.854439e+05	
56	2.800000e+00	1.002974e+06	
57	2.850000e+00	1.020043e+06	
58	2.900000e+00	1.036600e+06	
59	2.950000e+00	1.052576e+06	
60	3.000000e+00	1.067877e+06	
61	3.050000e+00	1.082379e+06	
62	3.100000e+00	1.095926e+06	
63	3.150000e+00	1.108322e+06	
64	3.200000e+00	1.119330e+06	
65	3.250000e+00	1.128670e+06	
66	3.300000e+00	1.136018e+06	
Reset re-loads circuit ***************************

Circuit: ***************************

Doing analysis at TEMP = 125.000000 and TNOM = 125.000000


No. of Data Rows : 67
                          ***************************
                          DC transfer characteristic  Mon Jan  9 13:58:14  2023
--------------------------------------------------------------------------------
Index   v-sweep         rds             
--------------------------------------------------------------------------------
0	0.000000e+00	8.357462e+03	
1	5.000000e-02	8.744636e+03	
2	1.000000e-01	9.159176e+03	
3	1.500000e-01	9.604025e+03	
4	2.000000e-01	1.008257e+04	
5	2.500000e-01	1.059871e+04	
6	3.000000e-01	1.115700e+04	
7	3.500000e-01	1.176273e+04	
8	4.000000e-01	1.242213e+04	
9	4.500000e-01	1.314259e+04	
10	5.000000e-01	1.393289e+04	
11	5.500000e-01	1.480361e+04	
12	6.000000e-01	1.576760e+04	
13	6.500000e-01	1.684059e+04	
14	7.000000e-01	1.804212e+04	
15	7.500000e-01	1.939673e+04	
16	8.000000e-01	2.093574e+04	
17	8.500000e-01	2.269983e+04	
18	9.000000e-01	2.474293e+04	
19	9.500000e-01	2.713834e+04	
20	1.000000e+00	2.998853e+04	
21	1.050000e+00	3.344102e+04	
22	1.100000e+00	3.771338e+04	
23	1.150000e+00	4.312618e+04	
24	1.200000e+00	5.012370e+04	
25	1.250000e+00	5.922002e+04	
26	1.300000e+00	7.080629e+04	
27	1.350000e+00	8.491380e+04	
28	1.400000e+00	1.011780e+05	
29	1.450000e+00	1.190378e+05	
30	1.500000e+00	1.379507e+05	
31	1.550000e+00	1.574912e+05	
32	1.600000e+00	1.773575e+05	
33	1.650000e+00	1.973446e+05	
34	1.700000e+00	2.173158e+05	
35	1.750000e+00	2.371797e+05	
36	1.800000e+00	2.568756e+05	
37	1.850000e+00	2.763629e+05	
38	1.900000e+00	2.956144e+05	
39	1.950000e+00	3.146125e+05	
40	2.000000e+00	3.333460e+05	
41	2.050000e+00	3.518081e+05	
42	2.100000e+00	3.699952e+05	
43	2.150000e+00	3.879063e+05	
44	2.200000e+00	4.055417e+05	
45	2.250000e+00	4.229032e+05	
46	2.300000e+00	4.399934e+05	
47	2.350000e+00	4.568156e+05	
48	2.400000e+00	4.733733e+05	
49	2.450000e+00	4.896708e+05	
50	2.500000e+00	5.057122e+05	
51	2.550000e+00	5.215019e+05	
52	2.600000e+00	5.370444e+05	
53	2.650000e+00	5.523441e+05	
54	2.700000e+00	5.674049e+05	

Index   v-sweep         rds             
--------------------------------------------------------------------------------
55	2.750000e+00	5.822307e+05	
56	2.800000e+00	5.968243e+05	
57	2.850000e+00	6.111875e+05	
58	2.900000e+00	6.253200e+05	
59	2.950000e+00	6.392188e+05	
60	3.000000e+00	6.528771e+05	
61	3.050000e+00	6.662821e+05	
62	3.100000e+00	6.794137e+05	
63	3.150000e+00	6.922417e+05	
64	3.200000e+00	7.047231e+05	
65	3.250000e+00	7.167986e+05	
66	3.300000e+00	7.283890e+05	
Reset re-loads circuit ***************************

Circuit: ***************************

Doing analysis at TEMP = 125.000000 and TNOM = 125.000000


No. of Data Rows : 67
                          ***************************
                          DC transfer characteristic  Mon Jan  9 13:58:14  2023
--------------------------------------------------------------------------------
Index   v-sweep         rds             
--------------------------------------------------------------------------------
0	0.000000e+00	6.949824e+03	
1	5.000000e-02	7.214204e+03	
2	1.000000e-01	7.493242e+03	
3	1.500000e-01	7.788154e+03	
4	2.000000e-01	8.100299e+03	
5	2.500000e-01	8.431195e+03	
6	3.000000e-01	8.782542e+03	
7	3.500000e-01	9.156257e+03	
8	4.000000e-01	9.554501e+03	
9	4.500000e-01	9.979727e+03	
10	5.000000e-01	1.043473e+04	
11	5.500000e-01	1.092270e+04	
12	6.000000e-01	1.144730e+04	
13	6.500000e-01	1.201278e+04	
14	7.000000e-01	1.262406e+04	
15	7.500000e-01	1.328691e+04	
16	8.000000e-01	1.400810e+04	
17	8.500000e-01	1.479568e+04	
18	9.000000e-01	1.565930e+04	
19	9.500000e-01	1.661061e+04	
20	1.000000e+00	1.766389e+04	
21	1.050000e+00	1.883690e+04	
22	1.100000e+00	2.015205e+04	
23	1.150000e+00	2.163836e+04	
24	1.200000e+00	2.333428e+04	
25	1.250000e+00	2.529247e+04	
26	1.300000e+00	2.758757e+04	
27	1.350000e+00	3.032864e+04	
28	1.400000e+00	3.367727e+04	
29	1.450000e+00	3.786613e+04	
30	1.500000e+00	4.319736e+04	
31	1.550000e+00	4.998376e+04	
32	1.600000e+00	5.842561e+04	
33	1.650000e+00	6.850552e+04	
34	1.700000e+00	8.000032e+04	
35	1.750000e+00	9.258808e+04	
36	1.800000e+00	1.059518e+05	
37	1.850000e+00	1.198302e+05	
38	1.900000e+00	1.340268e+05	
39	1.950000e+00	1.483996e+05	
40	2.000000e+00	1.628483e+05	
41	2.050000e+00	1.773020e+05	
42	2.100000e+00	1.917106e+05	
43	2.150000e+00	2.060385e+05	
44	2.200000e+00	2.202606e+05	
45	2.250000e+00	2.343585e+05	
46	2.300000e+00	2.483196e+05	
47	2.350000e+00	2.621347e+05	
48	2.400000e+00	2.757976e+05	
49	2.450000e+00	2.893039e+05	
50	2.500000e+00	3.026510e+05	
51	2.550000e+00	3.158373e+05	
52	2.600000e+00	3.288623e+05	
53	2.650000e+00	3.417260e+05	
54	2.700000e+00	3.544289e+05	

Index   v-sweep         rds             
--------------------------------------------------------------------------------
55	2.750000e+00	3.669721e+05	
56	2.800000e+00	3.793567e+05	
57	2.850000e+00	3.915844e+05	
58	2.900000e+00	4.036566e+05	
59	2.950000e+00	4.155750e+05	
60	3.000000e+00	4.273410e+05	
61	3.050000e+00	4.389557e+05	
62	3.100000e+00	4.504195e+05	
63	3.150000e+00	4.617317e+05	
64	3.200000e+00	4.728899e+05	
65	3.250000e+00	4.838887e+05	
66	3.300000e+00	4.947195e+05	
Reset re-loads circuit ***************************

Circuit: ***************************

Doing analysis at TEMP = 125.000000 and TNOM = 125.000000


No. of Data Rows : 67
                          ***************************
                          DC transfer characteristic  Mon Jan  9 13:58:14  2023
--------------------------------------------------------------------------------
Index   v-sweep         rds             
--------------------------------------------------------------------------------
0	0.000000e+00	6.152091e+03	
1	5.000000e-02	6.353895e+03	
2	1.000000e-01	6.565050e+03	
3	1.500000e-01	6.786197e+03	
4	2.000000e-01	7.018039e+03	
5	2.500000e-01	7.261347e+03	
6	3.000000e-01	7.516967e+03	
7	3.500000e-01	7.785832e+03	
8	4.000000e-01	8.068971e+03	
9	4.500000e-01	8.367526e+03	
10	5.000000e-01	8.682760e+03	
11	5.500000e-01	9.016084e+03	
12	6.000000e-01	9.369069e+03	
13	6.500000e-01	9.743478e+03	
14	7.000000e-01	1.014129e+04	
15	7.500000e-01	1.056475e+04	
16	8.000000e-01	1.101638e+04	
17	8.500000e-01	1.149906e+04	
18	9.000000e-01	1.201611e+04	
19	9.500000e-01	1.257129e+04	
20	1.000000e+00	1.316901e+04	
21	1.050000e+00	1.381437e+04	
22	1.100000e+00	1.451338e+04	
23	1.150000e+00	1.527314e+04	
24	1.200000e+00	1.610218e+04	
25	1.250000e+00	1.701086e+04	
26	1.300000e+00	1.801199e+04	
27	1.350000e+00	1.912171e+04	
28	1.400000e+00	2.036096e+04	
29	1.450000e+00	2.175766e+04	
30	1.500000e+00	2.335044e+04	
31	1.550000e+00	2.519460e+04	
32	1.600000e+00	2.737140e+04	
33	1.650000e+00	3.000067e+04	
34	1.700000e+00	3.325238e+04	
35	1.750000e+00	3.734321e+04	
36	1.800000e+00	4.249730e+04	
37	1.850000e+00	4.886942e+04	
38	1.900000e+00	5.647650e+04	
39	1.950000e+00	6.519441e+04	
40	2.000000e+00	7.481625e+04	
41	2.050000e+00	8.511990e+04	
42	2.100000e+00	9.590937e+04	
43	2.150000e+00	1.070286e+05	
44	2.200000e+00	1.183595e+05	
45	2.250000e+00	1.298154e+05	
46	2.300000e+00	1.413327e+05	
47	2.350000e+00	1.528652e+05	
48	2.400000e+00	1.643789e+05	
49	2.450000e+00	1.758490e+05	
50	2.500000e+00	1.872572e+05	
51	2.550000e+00	1.985896e+05	
52	2.600000e+00	2.098362e+05	
53	2.650000e+00	2.209896e+05	
54	2.700000e+00	2.320440e+05	

Index   v-sweep         rds             
--------------------------------------------------------------------------------
55	2.750000e+00	2.429956e+05	
56	2.800000e+00	2.538413e+05	
57	2.850000e+00	2.645794e+05	
58	2.900000e+00	2.752083e+05	
59	2.950000e+00	2.857274e+05	
60	3.000000e+00	2.961364e+05	
61	3.050000e+00	3.064353e+05	
62	3.100000e+00	3.166242e+05	
63	3.150000e+00	3.267037e+05	
64	3.200000e+00	3.366742e+05	
65	3.250000e+00	3.465361e+05	
66	3.300000e+00	3.562894e+05	
Reset re-loads circuit ***************************

Circuit: ***************************

Note: No ".plot", ".print", or ".fourier" lines; no simulations run
