
Note: Compatibility modes selected: hs

Warning: m=xx on .subckt line will override multiplier m hierarchy!


Circuit: ***************************

Doing analysis at TEMP = -40.000000 and TNOM = -40.000000


No. of Data Rows : 67
                          ***************************
                          DC transfer characteristic  Mon Jan  9 13:58:13  2023
--------------------------------------------------------------------------------
Index   v-sweep         rds             
--------------------------------------------------------------------------------
0	0.000000e+00	1.609172e+03	
1	5.000000e-02	3.025757e+03	
2	1.000000e-01	7.324598e+03	
3	1.500000e-01	1.660118e+04	
4	2.000000e-01	2.607763e+04	
5	2.500000e-01	3.221518e+04	
6	3.000000e-01	3.572947e+04	
7	3.500000e-01	3.773137e+04	
8	4.000000e-01	3.887922e+04	
9	4.500000e-01	3.952402e+04	
10	5.000000e-01	3.985739e+04	
11	5.500000e-01	3.998921e+04	
12	6.000000e-01	3.998581e+04	
13	6.500000e-01	3.988910e+04	
14	7.000000e-01	3.972658e+04	
15	7.500000e-01	3.951697e+04	
16	8.000000e-01	3.927331e+04	
17	8.500000e-01	3.900495e+04	
18	9.000000e-01	3.871874e+04	
19	9.500000e-01	3.841974e+04	
20	1.000000e+00	3.811179e+04	
21	1.050000e+00	3.779781e+04	
22	1.100000e+00	3.748005e+04	
23	1.150000e+00	3.716028e+04	
24	1.200000e+00	3.683986e+04	
25	1.250000e+00	3.651990e+04	
26	1.300000e+00	3.620123e+04	
27	1.350000e+00	3.588455e+04	
28	1.400000e+00	3.557038e+04	
29	1.450000e+00	3.525917e+04	
30	1.500000e+00	3.495124e+04	
31	1.550000e+00	3.464686e+04	
32	1.600000e+00	3.434622e+04	
33	1.650000e+00	3.404948e+04	
34	1.700000e+00	3.375674e+04	
35	1.750000e+00	3.346807e+04	
36	1.800000e+00	3.318350e+04	
37	1.850000e+00	3.290303e+04	
38	1.900000e+00	3.262661e+04	
39	1.950000e+00	3.235419e+04	
40	2.000000e+00	3.208563e+04	
41	2.050000e+00	3.182080e+04	
42	2.100000e+00	3.155948e+04	
43	2.150000e+00	3.130141e+04	
44	2.200000e+00	3.104628e+04	
45	2.250000e+00	3.079369e+04	
46	2.300000e+00	3.054318e+04	
47	2.350000e+00	3.029420e+04	
48	2.400000e+00	3.004612e+04	
49	2.450000e+00	2.979819e+04	
50	2.500000e+00	2.954958e+04	
51	2.550000e+00	2.929935e+04	
52	2.600000e+00	2.904642e+04	
53	2.650000e+00	2.878966e+04	
54	2.700000e+00	2.852777e+04	

Index   v-sweep         rds             
--------------------------------------------------------------------------------
55	2.750000e+00	2.825939e+04	
56	2.800000e+00	2.798306e+04	
57	2.850000e+00	2.769722e+04	
58	2.900000e+00	2.740028e+04	
59	2.950000e+00	2.709059e+04	
60	3.000000e+00	2.676650e+04	
61	3.050000e+00	2.642637e+04	
62	3.100000e+00	2.606862e+04	
63	3.150000e+00	2.569178e+04	
64	3.200000e+00	2.529450e+04	
65	3.250000e+00	2.487564e+04	
66	3.300000e+00	2.443428e+04	
Reset re-loads circuit ***************************

Circuit: ***************************

Doing analysis at TEMP = -40.000000 and TNOM = -40.000000


No. of Data Rows : 67
                          ***************************
                          DC transfer characteristic  Mon Jan  9 13:58:13  2023
--------------------------------------------------------------------------------
Index   v-sweep         rds             
--------------------------------------------------------------------------------
0	0.000000e+00	2.765764e+02	
1	5.000000e-02	3.219996e+02	
2	1.000000e-01	3.787341e+02	
3	1.500000e-01	4.516067e+02	
4	2.000000e-01	5.488404e+02	
5	2.500000e-01	6.856015e+02	
6	3.000000e-01	8.915305e+02	
7	3.500000e-01	1.221581e+03	
8	4.000000e-01	1.748841e+03	
9	4.500000e-01	2.503601e+03	
10	5.000000e-01	3.420023e+03	
11	5.500000e-01	4.384025e+03	
12	6.000000e-01	5.305534e+03	
13	6.500000e-01	6.138705e+03	
14	7.000000e-01	6.869975e+03	
15	7.500000e-01	7.502740e+03	
16	8.000000e-01	8.047340e+03	
17	8.500000e-01	8.515883e+03	
18	9.000000e-01	8.919945e+03	
19	9.500000e-01	9.269725e+03	
20	1.000000e+00	9.573878e+03	
21	1.050000e+00	9.839609e+03	
22	1.100000e+00	1.007287e+04	
23	1.150000e+00	1.027857e+04	
24	1.200000e+00	1.046076e+04	
25	1.250000e+00	1.062278e+04	
26	1.300000e+00	1.076741e+04	
27	1.350000e+00	1.089699e+04	
28	1.400000e+00	1.101345e+04	
29	1.450000e+00	1.111844e+04	
30	1.500000e+00	1.121335e+04	
31	1.550000e+00	1.129936e+04	
32	1.600000e+00	1.137749e+04	
33	1.650000e+00	1.144862e+04	
34	1.700000e+00	1.151348e+04	
35	1.750000e+00	1.157274e+04	
36	1.800000e+00	1.162696e+04	
37	1.850000e+00	1.167663e+04	
38	1.900000e+00	1.172219e+04	
39	1.950000e+00	1.176400e+04	
40	2.000000e+00	1.180238e+04	
41	2.050000e+00	1.183760e+04	
42	2.100000e+00	1.186990e+04	
43	2.150000e+00	1.189942e+04	
44	2.200000e+00	1.192630e+04	
45	2.250000e+00	1.195059e+04	
46	2.300000e+00	1.197228e+04	
47	2.350000e+00	1.199130e+04	
48	2.400000e+00	1.200747e+04	
49	2.450000e+00	1.202055e+04	
50	2.500000e+00	1.203016e+04	
51	2.550000e+00	1.203581e+04	
52	2.600000e+00	1.203691e+04	
53	2.650000e+00	1.203269e+04	
54	2.700000e+00	1.202227e+04	

Index   v-sweep         rds             
--------------------------------------------------------------------------------
55	2.750000e+00	1.200458e+04	
56	2.800000e+00	1.197845e+04	
57	2.850000e+00	1.194251e+04	
58	2.900000e+00	1.189532e+04	
59	2.950000e+00	1.183528e+04	
60	3.000000e+00	1.176076e+04	
61	3.050000e+00	1.167008e+04	
62	3.100000e+00	1.156158e+04	
63	3.150000e+00	1.143371e+04	
64	3.200000e+00	1.128506e+04	
65	3.250000e+00	1.111448e+04	
66	3.300000e+00	1.092113e+04	
Reset re-loads circuit ***************************

Circuit: ***************************

Doing analysis at TEMP = -40.000000 and TNOM = -40.000000


No. of Data Rows : 67
                          ***************************
                          DC transfer characteristic  Mon Jan  9 13:58:13  2023
--------------------------------------------------------------------------------
Index   v-sweep         rds             
--------------------------------------------------------------------------------
0	0.000000e+00	1.830900e+02	
1	5.000000e-02	2.016132e+02	
2	1.000000e-01	2.226011e+02	
3	1.500000e-01	2.465649e+02	
4	2.000000e-01	2.741863e+02	
5	2.500000e-01	3.064059e+02	
6	3.000000e-01	3.445829e+02	
7	3.500000e-01	3.907972e+02	
8	4.000000e-01	4.484487e+02	
9	4.500000e-01	5.234575e+02	
10	5.000000e-01	6.264714e+02	
11	5.500000e-01	7.757778e+02	
12	6.000000e-01	9.972926e+02	
13	6.500000e-01	1.314439e+03	
14	7.000000e-01	1.730686e+03	
15	7.500000e-01	2.224139e+03	
16	8.000000e-01	2.760093e+03	
17	8.500000e-01	3.305877e+03	
18	9.000000e-01	3.837764e+03	
19	9.500000e-01	4.341367e+03	
20	1.000000e+00	4.809485e+03	
21	1.050000e+00	5.239677e+03	
22	1.100000e+00	5.632360e+03	
23	1.150000e+00	5.989507e+03	
24	1.200000e+00	6.313834e+03	
25	1.250000e+00	6.608312e+03	
26	1.300000e+00	6.875893e+03	
27	1.350000e+00	7.119365e+03	
28	1.400000e+00	7.341288e+03	
29	1.450000e+00	7.543970e+03	
30	1.500000e+00	7.729470e+03	
31	1.550000e+00	7.899612e+03	
32	1.600000e+00	8.056008e+03	
33	1.650000e+00	8.200078e+03	
34	1.700000e+00	8.333074e+03	
35	1.750000e+00	8.456100e+03	
36	1.800000e+00	8.570126e+03	
37	1.850000e+00	8.676014e+03	
38	1.900000e+00	8.774523e+03	
39	1.950000e+00	8.866327e+03	
40	2.000000e+00	8.952023e+03	
41	2.050000e+00	9.032141e+03	
42	2.100000e+00	9.107147e+03	
43	2.150000e+00	9.177456e+03	
44	2.200000e+00	9.243425e+03	
45	2.250000e+00	9.305361e+03	
46	2.300000e+00	9.363517e+03	
47	2.350000e+00	9.418089e+03	
48	2.400000e+00	9.469210e+03	
49	2.450000e+00	9.516941e+03	
50	2.500000e+00	9.561263e+03	
51	2.550000e+00	9.602062e+03	
52	2.600000e+00	9.639114e+03	
53	2.650000e+00	9.672073e+03	
54	2.700000e+00	9.700451e+03	

Index   v-sweep         rds             
--------------------------------------------------------------------------------
55	2.750000e+00	9.723601e+03	
56	2.800000e+00	9.740707e+03	
57	2.850000e+00	9.750766e+03	
58	2.900000e+00	9.752587e+03	
59	2.950000e+00	9.744783e+03	
60	3.000000e+00	9.725787e+03	
61	3.050000e+00	9.693872e+03	
62	3.100000e+00	9.647182e+03	
63	3.150000e+00	9.583788e+03	
64	3.200000e+00	9.501756e+03	
65	3.250000e+00	9.399234e+03	
66	3.300000e+00	9.274553e+03	
Reset re-loads circuit ***************************

Circuit: ***************************

Doing analysis at TEMP = -40.000000 and TNOM = -40.000000


No. of Data Rows : 67
                          ***************************
                          DC transfer characteristic  Mon Jan  9 13:58:13  2023
--------------------------------------------------------------------------------
Index   v-sweep         rds             
--------------------------------------------------------------------------------
0	0.000000e+00	1.516313e+02	
1	5.000000e-02	1.629624e+02	
2	1.000000e-01	1.753419e+02	
3	1.500000e-01	1.889133e+02	
4	2.000000e-01	2.038506e+02	
5	2.500000e-01	2.203680e+02	
6	3.000000e-01	2.387360e+02	
7	3.500000e-01	2.593039e+02	
8	4.000000e-01	2.825398e+02	
9	4.500000e-01	3.090969e+02	
10	5.000000e-01	3.399338e+02	
11	5.500000e-01	3.765373e+02	
12	6.000000e-01	4.213365e+02	
13	6.500000e-01	4.784472e+02	
14	7.000000e-01	5.548370e+02	
15	7.500000e-01	6.615240e+02	
16	8.000000e-01	8.131339e+02	
17	8.500000e-01	1.023391e+03	
18	9.000000e-01	1.297697e+03	
19	9.500000e-01	1.629310e+03	
20	1.000000e+00	2.002610e+03	
21	1.050000e+00	2.399401e+03	
22	1.100000e+00	2.803528e+03	
23	1.150000e+00	3.202737e+03	
24	1.200000e+00	3.588716e+03	
25	1.250000e+00	3.956395e+03	
26	1.300000e+00	4.303101e+03	
27	1.350000e+00	4.627804e+03	
28	1.400000e+00	4.930554e+03	
29	1.450000e+00	5.212065e+03	
30	1.500000e+00	5.473429e+03	
31	1.550000e+00	5.715938e+03	
32	1.600000e+00	5.940950e+03	
33	1.650000e+00	6.149824e+03	
34	1.700000e+00	6.343867e+03	
35	1.750000e+00	6.524313e+03	
36	1.800000e+00	6.692309e+03	
37	1.850000e+00	6.848912e+03	
38	1.900000e+00	6.995086e+03	
39	1.950000e+00	7.131712e+03	
40	2.000000e+00	7.259588e+03	
41	2.050000e+00	7.379438e+03	
42	2.100000e+00	7.491918e+03	
43	2.150000e+00	7.597620e+03	
44	2.200000e+00	7.697079e+03	
45	2.250000e+00	7.790776e+03	
46	2.300000e+00	7.879146e+03	
47	2.350000e+00	7.962571e+03	
48	2.400000e+00	8.041389e+03	
49	2.450000e+00	8.115887e+03	
50	2.500000e+00	8.186301e+03	
51	2.550000e+00	8.252807e+03	
52	2.600000e+00	8.315512e+03	
53	2.650000e+00	8.374445e+03	
54	2.700000e+00	8.429540e+03	

Index   v-sweep         rds             
--------------------------------------------------------------------------------
55	2.750000e+00	8.480622e+03	
56	2.800000e+00	8.527386e+03	
57	2.850000e+00	8.569378e+03	
58	2.900000e+00	8.605973e+03	
59	2.950000e+00	8.636356e+03	
60	3.000000e+00	8.659506e+03	
61	3.050000e+00	8.674180e+03	
62	3.100000e+00	8.678914e+03	
63	3.150000e+00	8.672026e+03	
64	3.200000e+00	8.651638e+03	
65	3.250000e+00	8.615719e+03	
66	3.300000e+00	8.562145e+03	
Reset re-loads circuit ***************************

Circuit: ***************************

Doing analysis at TEMP = -40.000000 and TNOM = -40.000000


No. of Data Rows : 67
                          ***************************
                          DC transfer characteristic  Mon Jan  9 13:58:13  2023
--------------------------------------------------------------------------------
Index   v-sweep         rds             
--------------------------------------------------------------------------------
0	0.000000e+00	1.362939e+02	
1	5.000000e-02	1.443809e+02	
2	1.000000e-01	1.530432e+02	
3	1.500000e-01	1.623394e+02	
4	2.000000e-01	1.723369e+02	
5	2.500000e-01	1.831142e+02	
6	3.000000e-01	1.947639e+02	
7	3.500000e-01	2.073966e+02	
8	4.000000e-01	2.211463e+02	
9	4.500000e-01	2.361796e+02	
10	5.000000e-01	2.527082e+02	
11	5.500000e-01	2.710105e+02	
12	6.000000e-01	2.914662e+02	
13	6.500000e-01	3.146161e+02	
14	7.000000e-01	3.412661e+02	
15	7.500000e-01	3.726709e+02	
16	8.000000e-01	4.108504e+02	
17	8.500000e-01	4.591011e+02	
18	9.000000e-01	5.226839e+02	
19	9.500000e-01	6.093574e+02	
20	1.000000e+00	7.288383e+02	
21	1.050000e+00	8.901911e+02	
22	1.100000e+00	1.097884e+03	
23	1.150000e+00	1.349441e+03	
24	1.200000e+00	1.636506e+03	
25	1.250000e+00	1.947950e+03	
26	1.300000e+00	2.272716e+03	
27	1.350000e+00	2.601421e+03	
28	1.400000e+00	2.926873e+03	
29	1.450000e+00	3.243970e+03	
30	1.500000e+00	3.549353e+03	
31	1.550000e+00	3.841001e+03	
32	1.600000e+00	4.117876e+03	
33	1.650000e+00	4.379631e+03	
34	1.700000e+00	4.626389e+03	
35	1.750000e+00	4.858580e+03	
36	1.800000e+00	5.076822e+03	
37	1.850000e+00	5.281841e+03	
38	1.900000e+00	5.474415e+03	
39	1.950000e+00	5.655335e+03	
40	2.000000e+00	5.825378e+03	
41	2.050000e+00	5.985295e+03	
42	2.100000e+00	6.135801e+03	
43	2.150000e+00	6.277565e+03	
44	2.200000e+00	6.411214e+03	
45	2.250000e+00	6.537332e+03	
46	2.300000e+00	6.656456e+03	
47	2.350000e+00	6.769083e+03	
48	2.400000e+00	6.875669e+03	
49	2.450000e+00	6.976630e+03	
50	2.500000e+00	7.072345e+03	
51	2.550000e+00	7.163153e+03	
52	2.600000e+00	7.249352e+03	
53	2.650000e+00	7.331195e+03	
54	2.700000e+00	7.408886e+03	

Index   v-sweep         rds             
--------------------------------------------------------------------------------
55	2.750000e+00	7.482567e+03	
56	2.800000e+00	7.552313e+03	
57	2.850000e+00	7.618110e+03	
58	2.900000e+00	7.679844e+03	
59	2.950000e+00	7.737277e+03	
60	3.000000e+00	7.790027e+03	
61	3.050000e+00	7.837542e+03	
62	3.100000e+00	7.879075e+03	
63	3.150000e+00	7.913664e+03	
64	3.200000e+00	7.940114e+03	
65	3.250000e+00	7.956982e+03	
66	3.300000e+00	7.962581e+03	
Reset re-loads circuit ***************************

Circuit: ***************************

Doing analysis at TEMP = -40.000000 and TNOM = -40.000000


No. of Data Rows : 67
                          ***************************
                          DC transfer characteristic  Mon Jan  9 13:58:13  2023
--------------------------------------------------------------------------------
Index   v-sweep         rds             
--------------------------------------------------------------------------------
0	0.000000e+00	1.279200e+02	
1	5.000000e-02	1.342110e+02	
2	1.000000e-01	1.408663e+02	
3	1.500000e-01	1.479152e+02	
4	2.000000e-01	1.553908e+02	
5	2.500000e-01	1.633301e+02	
6	3.000000e-01	1.717752e+02	
7	3.500000e-01	1.807741e+02	
8	4.000000e-01	1.903824e+02	
9	4.500000e-01	2.006646e+02	
10	5.000000e-01	2.116971e+02	
11	5.500000e-01	2.235718e+02	
12	6.000000e-01	2.364013e+02	
13	6.500000e-01	2.503272e+02	
14	7.000000e-01	2.655326e+02	
15	7.500000e-01	2.822625e+02	
16	8.000000e-01	3.008570e+02	
17	8.500000e-01	3.218059e+02	
18	9.000000e-01	3.458423e+02	
19	9.500000e-01	3.740962e+02	
20	1.000000e+00	4.083433e+02	
21	1.050000e+00	4.513684e+02	
22	1.100000e+00	5.073898e+02	
23	1.150000e+00	5.822882e+02	
24	1.200000e+00	6.830982e+02	
25	1.250000e+00	8.163094e+02	
26	1.300000e+00	9.854772e+02	
27	1.350000e+00	1.189695e+03	
28	1.400000e+00	1.423967e+03	
29	1.450000e+00	1.680919e+03	
30	1.500000e+00	1.952637e+03	
31	1.550000e+00	2.231898e+03	
32	1.600000e+00	2.512744e+03	
33	1.650000e+00	2.790595e+03	
34	1.700000e+00	3.062127e+03	
35	1.750000e+00	3.325063e+03	
36	1.800000e+00	3.577946e+03	
37	1.850000e+00	3.819941e+03	
38	1.900000e+00	4.050671e+03	
39	1.950000e+00	4.270082e+03	
40	2.000000e+00	4.478348e+03	
41	2.050000e+00	4.675796e+03	
42	2.100000e+00	4.862848e+03	
43	2.150000e+00	5.039987e+03	
44	2.200000e+00	5.207723e+03	
45	2.250000e+00	5.366575e+03	
46	2.300000e+00	5.517060e+03	
47	2.350000e+00	5.659679e+03	
48	2.400000e+00	5.794915e+03	
49	2.450000e+00	5.923229e+03	
50	2.500000e+00	6.045053e+03	
51	2.550000e+00	6.160795e+03	
52	2.600000e+00	6.270837e+03	
53	2.650000e+00	6.375529e+03	
54	2.700000e+00	6.475195e+03	

Index   v-sweep         rds             
--------------------------------------------------------------------------------
55	2.750000e+00	6.570126e+03	
56	2.800000e+00	6.660578e+03	
57	2.850000e+00	6.746769e+03	
58	2.900000e+00	6.828865e+03	
59	2.950000e+00	6.906977e+03	
60	3.000000e+00	6.981142e+03	
61	3.050000e+00	7.051308e+03	
62	3.100000e+00	7.117315e+03	
63	3.150000e+00	7.178871e+03	
64	3.200000e+00	7.235527e+03	
65	3.250000e+00	7.286648e+03	
66	3.300000e+00	7.331389e+03	
Reset re-loads circuit ***************************

Circuit: ***************************

Note: No ".plot", ".print", or ".fourier" lines; no simulations run
