
Note: Compatibility modes selected: hs

Warning: m=xx on .subckt line will override multiplier m hierarchy!


Circuit: ***************************

Doing analysis at TEMP = -40.000000 and TNOM = -40.000000


No. of Data Rows : 67
                          ***************************
                          DC transfer characteristic  Mon Jan  9 13:58:14  2023
--------------------------------------------------------------------------------
Index   v-sweep         rds             
--------------------------------------------------------------------------------
0	0.000000e+00	3.247996e+04	
1	5.000000e-02	5.659681e+04	
2	1.000000e-01	1.224309e+05	
3	1.500000e-01	2.657723e+05	
4	2.000000e-01	4.246001e+05	
5	2.500000e-01	5.357711e+05	
6	3.000000e-01	6.046470e+05	
7	3.500000e-01	6.474887e+05	
8	4.000000e-01	6.747383e+05	
9	4.500000e-01	6.922733e+05	
10	5.000000e-01	7.034666e+05	
11	5.500000e-01	7.103476e+05	
12	6.000000e-01	7.141968e+05	
13	6.500000e-01	7.158569e+05	
14	7.000000e-01	7.159026e+05	
15	7.500000e-01	7.147379e+05	
16	8.000000e-01	7.126542e+05	
17	8.500000e-01	7.098663e+05	
18	9.000000e-01	7.065353e+05	
19	9.500000e-01	7.027841e+05	
20	1.000000e+00	6.987079e+05	
21	1.050000e+00	6.943810e+05	
22	1.100000e+00	6.898624e+05	
23	1.150000e+00	6.851988e+05	
24	1.200000e+00	6.804282e+05	
25	1.250000e+00	6.755808e+05	
26	1.300000e+00	6.706818e+05	
27	1.350000e+00	6.657512e+05	
28	1.400000e+00	6.608058e+05	
29	1.450000e+00	6.558593e+05	
30	1.500000e+00	6.509230e+05	
31	1.550000e+00	6.460062e+05	
32	1.600000e+00	6.411165e+05	
33	1.650000e+00	6.362602e+05	
34	1.700000e+00	6.314423e+05	
35	1.750000e+00	6.266669e+05	
36	1.800000e+00	6.219370e+05	
37	1.850000e+00	6.172548e+05	
38	1.900000e+00	6.126216e+05	
39	1.950000e+00	6.080380e+05	
40	2.000000e+00	6.035034e+05	
41	2.050000e+00	5.990165e+05	
42	2.100000e+00	5.945750e+05	
43	2.150000e+00	5.901754e+05	
44	2.200000e+00	5.858127e+05	
45	2.250000e+00	5.814810e+05	
46	2.300000e+00	5.771724e+05	
47	2.350000e+00	5.728777e+05	
48	2.400000e+00	5.685856e+05	
49	2.450000e+00	5.642831e+05	
50	2.500000e+00	5.599551e+05	
51	2.550000e+00	5.555842e+05	
52	2.600000e+00	5.511511e+05	
53	2.650000e+00	5.466340e+05	
54	2.700000e+00	5.420092e+05	

Index   v-sweep         rds             
--------------------------------------------------------------------------------
55	2.750000e+00	5.372507e+05	
56	2.800000e+00	5.323308e+05	
57	2.850000e+00	5.272200e+05	
58	2.900000e+00	5.218874e+05	
59	2.950000e+00	5.163015e+05	
60	3.000000e+00	5.104302e+05	
61	3.050000e+00	5.042415e+05	
62	3.100000e+00	4.977047e+05	
63	3.150000e+00	4.907905e+05	
64	3.200000e+00	4.834724e+05	
65	3.250000e+00	4.757273e+05	
66	3.300000e+00	4.675366e+05	
Reset re-loads circuit ***************************

Circuit: ***************************

Doing analysis at TEMP = -40.000000 and TNOM = -40.000000


No. of Data Rows : 67
                          ***************************
                          DC transfer characteristic  Mon Jan  9 13:58:14  2023
--------------------------------------------------------------------------------
Index   v-sweep         rds             
--------------------------------------------------------------------------------
0	0.000000e+00	5.868231e+03	
1	5.000000e-02	6.740249e+03	
2	1.000000e-01	7.809284e+03	
3	1.500000e-01	9.148524e+03	
4	2.000000e-01	1.087307e+04	
5	2.500000e-01	1.317427e+04	
6	3.000000e-01	1.638735e+04	
7	3.500000e-01	2.110123e+04	
8	4.000000e-01	2.819476e+04	
9	4.500000e-01	3.838951e+04	
10	5.000000e-01	5.137190e+04	
11	5.500000e-01	6.580752e+04	
12	6.000000e-01	8.030937e+04	
13	6.500000e-01	9.400768e+04	
14	7.000000e-01	1.065195e+05	
15	7.500000e-01	1.177549e+05	
16	8.000000e-01	1.277664e+05	
17	8.500000e-01	1.366647e+05	
18	9.000000e-01	1.445758e+05	
19	9.500000e-01	1.516221e+05	
20	1.000000e+00	1.579149e+05	
21	1.050000e+00	1.635517e+05	
22	1.100000e+00	1.686172e+05	
23	1.150000e+00	1.731838e+05	
24	1.200000e+00	1.773134e+05	
25	1.250000e+00	1.810590e+05	
26	1.300000e+00	1.844660e+05	
27	1.350000e+00	1.875733e+05	
28	1.400000e+00	1.904145e+05	
29	1.450000e+00	1.930184e+05	
30	1.500000e+00	1.954101e+05	
31	1.550000e+00	1.976115e+05	
32	1.600000e+00	1.996416e+05	
33	1.650000e+00	2.015171e+05	
34	1.700000e+00	2.032527e+05	
35	1.750000e+00	2.048612e+05	
36	1.800000e+00	2.063541e+05	
37	1.850000e+00	2.077416e+05	
38	1.900000e+00	2.090325e+05	
39	1.950000e+00	2.102348e+05	
40	2.000000e+00	2.113555e+05	
41	2.050000e+00	2.124006e+05	
42	2.100000e+00	2.133755e+05	
43	2.150000e+00	2.142843e+05	
44	2.200000e+00	2.151306e+05	
45	2.250000e+00	2.159167e+05	
46	2.300000e+00	2.166441e+05	
47	2.350000e+00	2.173127e+05	
48	2.400000e+00	2.179213e+05	
49	2.450000e+00	2.184669e+05	
50	2.500000e+00	2.189449e+05	
51	2.550000e+00	2.193486e+05	
52	2.600000e+00	2.196688e+05	
53	2.650000e+00	2.198944e+05	
54	2.700000e+00	2.200111e+05	

Index   v-sweep         rds             
--------------------------------------------------------------------------------
55	2.750000e+00	2.200023e+05	
56	2.800000e+00	2.198484e+05	
57	2.850000e+00	2.195269e+05	
58	2.900000e+00	2.190128e+05	
59	2.950000e+00	2.182786e+05	
60	3.000000e+00	2.172951e+05	
61	3.050000e+00	2.160316e+05	
62	3.100000e+00	2.144570e+05	
63	3.150000e+00	2.125409e+05	
64	3.200000e+00	2.102547e+05	
65	3.250000e+00	2.075729e+05	
66	3.300000e+00	2.044749e+05	
Reset re-loads circuit ***************************

Circuit: ***************************

Doing analysis at TEMP = -40.000000 and TNOM = -40.000000


No. of Data Rows : 67
                          ***************************
                          DC transfer characteristic  Mon Jan  9 13:58:14  2023
--------------------------------------------------------------------------------
Index   v-sweep         rds             
--------------------------------------------------------------------------------
0	0.000000e+00	3.772240e+03	
1	5.000000e-02	4.123110e+03	
2	1.000000e-01	4.516998e+03	
3	1.500000e-01	4.961943e+03	
4	2.000000e-01	5.468249e+03	
5	2.500000e-01	6.049438e+03	
6	3.000000e-01	6.723803e+03	
7	3.500000e-01	7.517090e+03	
8	4.000000e-01	8.467417e+03	
9	4.500000e-01	9.634674e+03	
10	5.000000e-01	1.111834e+04	
11	5.500000e-01	1.308716e+04	
12	6.000000e-01	1.580890e+04	
13	6.500000e-01	1.962129e+04	
14	7.000000e-01	2.476852e+04	
15	7.500000e-01	3.119964e+04	
16	8.000000e-01	3.856977e+04	
17	8.500000e-01	4.643145e+04	
18	9.000000e-01	5.439962e+04	
19	9.500000e-01	6.220703e+04	
20	1.000000e+00	6.969296e+04	
21	1.050000e+00	7.677359e+04	
22	1.100000e+00	8.341490e+04	
23	1.150000e+00	8.961307e+04	
24	1.200000e+00	9.538157e+04	
25	1.250000e+00	1.007431e+05	
26	1.300000e+00	1.057246e+05	
27	1.350000e+00	1.103543e+05	
28	1.400000e+00	1.146603e+05	
29	1.450000e+00	1.186691e+05	
30	1.500000e+00	1.224057e+05	
31	1.550000e+00	1.258930e+05	
32	1.600000e+00	1.291521e+05	
33	1.650000e+00	1.322022e+05	
34	1.700000e+00	1.350606e+05	
35	1.750000e+00	1.377430e+05	
36	1.800000e+00	1.402636e+05	
37	1.850000e+00	1.426354e+05	
38	1.900000e+00	1.448700e+05	
39	1.950000e+00	1.469778e+05	
40	2.000000e+00	1.489686e+05	
41	2.050000e+00	1.508509e+05	
42	2.100000e+00	1.526325e+05	
43	2.150000e+00	1.543205e+05	
44	2.200000e+00	1.559212e+05	
45	2.250000e+00	1.574402e+05	
46	2.300000e+00	1.588824e+05	
47	2.350000e+00	1.602519e+05	
48	2.400000e+00	1.615517e+05	
49	2.450000e+00	1.627843e+05	
50	2.500000e+00	1.639506e+05	
51	2.550000e+00	1.650504e+05	
52	2.600000e+00	1.660820e+05	
53	2.650000e+00	1.670416e+05	
54	2.700000e+00	1.679235e+05	

Index   v-sweep         rds             
--------------------------------------------------------------------------------
55	2.750000e+00	1.687197e+05	
56	2.800000e+00	1.694191e+05	
57	2.850000e+00	1.700079e+05	
58	2.900000e+00	1.704690e+05	
59	2.950000e+00	1.707818e+05	
60	3.000000e+00	1.709225e+05	
61	3.050000e+00	1.708638e+05	
62	3.100000e+00	1.705752e+05	
63	3.150000e+00	1.700241e+05	
64	3.200000e+00	1.691762e+05	
65	3.250000e+00	1.679965e+05	
66	3.300000e+00	1.664514e+05	
Reset re-loads circuit ***************************

Circuit: ***************************

Doing analysis at TEMP = -40.000000 and TNOM = -40.000000


No. of Data Rows : 67
                          ***************************
                          DC transfer characteristic  Mon Jan  9 13:58:14  2023
--------------------------------------------------------------------------------
Index   v-sweep         rds             
--------------------------------------------------------------------------------
0	0.000000e+00	3.119767e+03	
1	5.000000e-02	3.342880e+03	
2	1.000000e-01	3.585833e+03	
3	1.500000e-01	3.851209e+03	
4	2.000000e-01	4.142088e+03	
5	2.500000e-01	4.462193e+03	
6	3.000000e-01	4.816087e+03	
7	3.500000e-01	5.209474e+03	
8	4.000000e-01	5.649665e+03	
9	4.500000e-01	6.146335e+03	
10	5.000000e-01	6.712829e+03	
11	5.500000e-01	7.368499e+03	
12	6.000000e-01	8.142992e+03	
13	6.500000e-01	9.084032e+03	
14	7.000000e-01	1.027043e+04	
15	7.500000e-01	1.182897e+04	
16	8.000000e-01	1.394141e+04	
17	8.500000e-01	1.680973e+04	
18	9.000000e-01	2.056426e+04	
19	9.500000e-01	2.517833e+04	
20	1.000000e+00	3.047586e+04	
21	1.050000e+00	3.621460e+04	
22	1.100000e+00	4.216462e+04	
23	1.150000e+00	4.814500e+04	
24	1.200000e+00	5.402875e+04	
25	1.250000e+00	5.973384e+04	
26	1.300000e+00	6.521158e+04	
27	1.350000e+00	7.043648e+04	
28	1.400000e+00	7.539852e+04	
29	1.450000e+00	8.009773e+04	
30	1.500000e+00	8.454039e+04	
31	1.550000e+00	8.873657e+04	
32	1.600000e+00	9.269837e+04	
33	1.650000e+00	9.643891e+04	
34	1.700000e+00	9.997155e+04	
35	1.750000e+00	1.033095e+05	
36	1.800000e+00	1.064654e+05	
37	1.850000e+00	1.094514e+05	
38	1.900000e+00	1.122788e+05	
39	1.950000e+00	1.149585e+05	
40	2.000000e+00	1.175002e+05	
41	2.050000e+00	1.199133e+05	
42	2.100000e+00	1.222062e+05	
43	2.150000e+00	1.243869e+05	
44	2.200000e+00	1.264626e+05	
45	2.250000e+00	1.284400e+05	
46	2.300000e+00	1.303253e+05	
47	2.350000e+00	1.321241e+05	
48	2.400000e+00	1.338413e+05	
49	2.450000e+00	1.354815e+05	
50	2.500000e+00	1.370484e+05	
51	2.550000e+00	1.385450e+05	
52	2.600000e+00	1.399736e+05	
53	2.650000e+00	1.413353e+05	
54	2.700000e+00	1.426300e+05	

Index   v-sweep         rds             
--------------------------------------------------------------------------------
55	2.750000e+00	1.438561e+05	
56	2.800000e+00	1.450100e+05	
57	2.850000e+00	1.460863e+05	
58	2.900000e+00	1.470768e+05	
59	2.950000e+00	1.479706e+05	
60	3.000000e+00	1.487535e+05	
61	3.050000e+00	1.494079e+05	
62	3.100000e+00	1.499122e+05	
63	3.150000e+00	1.502412e+05	
64	3.200000e+00	1.503659e+05	
65	3.250000e+00	1.502538e+05	
66	3.300000e+00	1.498696e+05	
Reset re-loads circuit ***************************

Circuit: ***************************

Doing analysis at TEMP = -40.000000 and TNOM = -40.000000


No. of Data Rows : 67
                          ***************************
                          DC transfer characteristic  Mon Jan  9 13:58:14  2023
--------------------------------------------------------------------------------
Index   v-sweep         rds             
--------------------------------------------------------------------------------
0	0.000000e+00	2.770160e+03	
1	5.000000e-02	2.931989e+03	
2	1.000000e-01	3.105170e+03	
3	1.500000e-01	3.290838e+03	
4	2.000000e-01	3.490291e+03	
5	2.500000e-01	3.705030e+03	
6	3.000000e-01	3.936802e+03	
7	3.500000e-01	4.187662e+03	
8	4.000000e-01	4.460063e+03	
9	4.500000e-01	4.756976e+03	
10	5.000000e-01	5.082080e+03	
11	5.500000e-01	5.440056e+03	
12	6.000000e-01	5.837057e+03	
13	6.500000e-01	6.281519e+03	
14	7.000000e-01	6.785553e+03	
15	7.500000e-01	7.367393e+03	
16	8.000000e-01	8.055657e+03	
17	8.500000e-01	8.896277e+03	
18	9.000000e-01	9.962051e+03	
19	9.500000e-01	1.136063e+04	
20	1.000000e+00	1.322838e+04	
21	1.050000e+00	1.569482e+04	
22	1.100000e+00	1.882527e+04	
23	1.150000e+00	2.258472e+04	
24	1.200000e+00	2.685367e+04	
25	1.250000e+00	3.147560e+04	
26	1.300000e+00	3.629887e+04	
27	1.350000e+00	4.119806e+04	
28	1.400000e+00	4.607881e+04	
29	1.450000e+00	5.087468e+04	
30	1.500000e+00	5.554136e+04	
31	1.550000e+00	6.005111e+04	
32	1.600000e+00	6.438809e+04	
33	1.650000e+00	6.854478e+04	
34	1.700000e+00	7.251941e+04	
35	1.750000e+00	7.631408e+04	
36	1.800000e+00	7.993338e+04	
37	1.850000e+00	8.338352e+04	
38	1.900000e+00	8.667163e+04	
39	1.950000e+00	8.980534e+04	
40	2.000000e+00	9.279245e+04	
41	2.050000e+00	9.564070e+04	
42	2.100000e+00	9.835767e+04	
43	2.150000e+00	1.009507e+05	
44	2.200000e+00	1.034267e+05	
45	2.250000e+00	1.057925e+05	
46	2.300000e+00	1.080541e+05	
47	2.350000e+00	1.102177e+05	
48	2.400000e+00	1.122886e+05	
49	2.450000e+00	1.142721e+05	
50	2.500000e+00	1.161729e+05	
51	2.550000e+00	1.179953e+05	
52	2.600000e+00	1.197433e+05	
53	2.650000e+00	1.214203e+05	
54	2.700000e+00	1.230290e+05	

Index   v-sweep         rds             
--------------------------------------------------------------------------------
55	2.750000e+00	1.245714e+05	
56	2.800000e+00	1.260487e+05	
57	2.850000e+00	1.274608e+05	
58	2.900000e+00	1.288063e+05	
59	2.950000e+00	1.300819e+05	
60	3.000000e+00	1.312825e+05	
61	3.050000e+00	1.324003e+05	
62	3.100000e+00	1.334246e+05	
63	3.150000e+00	1.343416e+05	
64	3.200000e+00	1.351334e+05	
65	3.250000e+00	1.357787e+05	
66	3.300000e+00	1.362515e+05	
Reset re-loads circuit ***************************

Circuit: ***************************

Doing analysis at TEMP = -40.000000 and TNOM = -40.000000


No. of Data Rows : 67
                          ***************************
                          DC transfer characteristic  Mon Jan  9 13:58:14  2023
--------------------------------------------------------------------------------
Index   v-sweep         rds             
--------------------------------------------------------------------------------
0	0.000000e+00	2.510240e+03	
1	5.000000e-02	2.632476e+03	
2	1.000000e-01	2.761668e+03	
3	1.500000e-01	2.898366e+03	
4	2.000000e-01	3.043182e+03	
5	2.500000e-01	3.196803e+03	
6	3.000000e-01	3.360002e+03	
7	3.500000e-01	3.533653e+03	
8	4.000000e-01	3.718755e+03	
9	4.500000e-01	3.916456e+03	
10	5.000000e-01	4.128094e+03	
11	5.500000e-01	4.355245e+03	
12	6.000000e-01	4.599802e+03	
13	6.500000e-01	4.864085e+03	
14	7.000000e-01	5.151015e+03	
15	7.500000e-01	5.464388e+03	
16	8.000000e-01	5.809326e+03	
17	8.500000e-01	6.193022e+03	
18	9.000000e-01	6.626003e+03	
19	9.500000e-01	7.124240e+03	
20	1.000000e+00	7.712562e+03	
21	1.050000e+00	8.429695e+03	
22	1.100000e+00	9.334270e+03	
23	1.150000e+00	1.050830e+04	
24	1.200000e+00	1.205054e+04	
25	1.250000e+00	1.405269e+04	
26	1.300000e+00	1.656493e+04	
27	1.350000e+00	1.957360e+04	
28	1.400000e+00	2.300738e+04	
29	1.450000e+00	2.676345e+04	
30	1.500000e+00	3.073432e+04	
31	1.550000e+00	3.482437e+04	
32	1.600000e+00	3.895631e+04	
33	1.650000e+00	4.307144e+04	
34	1.700000e+00	4.712717e+04	
35	1.750000e+00	5.109378e+04	
36	1.800000e+00	5.495143e+04	
37	1.850000e+00	5.868769e+04	
38	1.900000e+00	6.229547e+04	
39	1.950000e+00	6.577162e+04	
40	2.000000e+00	6.911576e+04	
41	2.050000e+00	7.232945e+04	
42	2.100000e+00	7.541559e+04	
43	2.150000e+00	7.837798e+04	
44	2.200000e+00	8.122096e+04	
45	2.250000e+00	8.394923e+04	
46	2.300000e+00	8.656764e+04	
47	2.350000e+00	8.908106e+04	
48	2.400000e+00	9.149435e+04	
49	2.450000e+00	9.381224e+04	
50	2.500000e+00	9.603930e+04	
51	2.550000e+00	9.817995e+04	
52	2.600000e+00	1.002384e+05	
53	2.650000e+00	1.022185e+05	
54	2.700000e+00	1.041242e+05	

Index   v-sweep         rds             
--------------------------------------------------------------------------------
55	2.750000e+00	1.059586e+05	
56	2.800000e+00	1.077250e+05	
57	2.850000e+00	1.094259e+05	
58	2.900000e+00	1.110632e+05	
59	2.950000e+00	1.126384e+05	
60	3.000000e+00	1.141518e+05	
61	3.050000e+00	1.156026e+05	
62	3.100000e+00	1.169886e+05	
63	3.150000e+00	1.183055e+05	
64	3.200000e+00	1.195471e+05	
65	3.250000e+00	1.207043e+05	
66	3.300000e+00	1.217647e+05	
Reset re-loads circuit ***************************

Circuit: ***************************

Note: No ".plot", ".print", or ".fourier" lines; no simulations run
