
Note: Compatibility modes selected: hs

Warning: m=xx on .subckt line will override multiplier m hierarchy!


Circuit: ***************************

Doing analysis at TEMP = 125.000000 and TNOM = 125.000000


No. of Data Rows : 67
                          ***************************
                          DC transfer characteristic  Mon Jan  9 13:58:14  2023
--------------------------------------------------------------------------------
Index   v-sweep         rds             
--------------------------------------------------------------------------------
0	0.000000e+00	2.381085e+03	
1	5.000000e-02	2.956854e+03	
2	1.000000e-01	3.814332e+03	
3	1.500000e-01	5.197715e+03	
4	2.000000e-01	7.635592e+03	
5	2.500000e-01	1.208589e+04	
6	3.000000e-01	1.920332e+04	
7	3.500000e-01	2.772765e+04	
8	4.000000e-01	3.555307e+04	
9	4.500000e-01	4.177641e+04	
10	5.000000e-01	4.648218e+04	
11	5.500000e-01	5.001694e+04	
12	6.000000e-01	5.269701e+04	
13	6.500000e-01	5.475657e+04	
14	7.000000e-01	5.636007e+04	
15	7.500000e-01	5.762241e+04	
16	8.000000e-01	5.862477e+04	
17	8.500000e-01	5.942554e+04	
18	9.000000e-01	6.006747e+04	
19	9.500000e-01	6.058246e+04	
20	1.000000e+00	6.099471e+04	
21	1.050000e+00	6.132285e+04	
22	1.100000e+00	6.158147e+04	
23	1.150000e+00	6.178210e+04	
24	1.200000e+00	6.193397e+04	
25	1.250000e+00	6.204456e+04	
26	1.300000e+00	6.211999e+04	
27	1.350000e+00	6.216530e+04	
28	1.400000e+00	6.218467e+04	
29	1.450000e+00	6.218162e+04	
30	1.500000e+00	6.215910e+04	
31	1.550000e+00	6.211961e+04	
32	1.600000e+00	6.206530e+04	
33	1.650000e+00	6.199799e+04	
34	1.700000e+00	6.191927e+04	
35	1.750000e+00	6.183049e+04	
36	1.800000e+00	6.173281e+04	
37	1.850000e+00	6.162725e+04	
38	1.900000e+00	6.151467e+04	
39	1.950000e+00	6.139577e+04	
40	2.000000e+00	6.127114e+04	
41	2.050000e+00	6.114122e+04	
42	2.100000e+00	6.100632e+04	
43	2.150000e+00	6.086658e+04	
44	2.200000e+00	6.072199e+04	
45	2.250000e+00	6.057233e+04	
46	2.300000e+00	6.041718e+04	
47	2.350000e+00	6.025590e+04	
48	2.400000e+00	6.008756e+04	
49	2.450000e+00	5.991095e+04	
50	2.500000e+00	5.972454e+04	
51	2.550000e+00	5.952647e+04	
52	2.600000e+00	5.931449e+04	
53	2.650000e+00	5.908599e+04	
54	2.700000e+00	5.883793e+04	

Index   v-sweep         rds             
--------------------------------------------------------------------------------
55	2.750000e+00	5.856691e+04	
56	2.800000e+00	5.826911e+04	
57	2.850000e+00	5.794038e+04	
58	2.900000e+00	5.757622e+04	
59	2.950000e+00	5.717187e+04	
60	3.000000e+00	5.672238e+04	
61	3.050000e+00	5.622273e+04	
62	3.100000e+00	5.566791e+04	
63	3.150000e+00	5.505310e+04	
64	3.200000e+00	5.437381e+04	
65	3.250000e+00	5.362607e+04	
66	3.300000e+00	5.280656e+04	
Reset re-loads circuit ***************************

Circuit: ***************************

Doing analysis at TEMP = 125.000000 and TNOM = 125.000000


No. of Data Rows : 67
                          ***************************
                          DC transfer characteristic  Mon Jan  9 13:58:14  2023
--------------------------------------------------------------------------------
Index   v-sweep         rds             
--------------------------------------------------------------------------------
0	0.000000e+00	9.240096e+02	
1	5.000000e-02	1.021538e+03	
2	1.000000e-01	1.135155e+03	
3	1.500000e-01	1.269103e+03	
4	2.000000e-01	1.429271e+03	
5	2.500000e-01	1.624072e+03	
6	3.000000e-01	1.865957e+03	
7	3.500000e-01	2.174079e+03	
8	4.000000e-01	2.579073e+03	
9	4.500000e-01	3.131078e+03	
10	5.000000e-01	3.909423e+03	
11	5.500000e-01	5.019141e+03	
12	6.000000e-01	6.540749e+03	
13	6.500000e-01	8.443007e+03	
14	7.000000e-01	1.056890e+04	
15	7.500000e-01	1.272866e+04	
16	8.000000e-01	1.478381e+04	
17	8.500000e-01	1.666363e+04	
18	9.000000e-01	1.834599e+04	
19	9.500000e-01	1.983538e+04	
20	1.000000e+00	2.114818e+04	
21	1.050000e+00	2.230461e+04	
22	1.100000e+00	2.332479e+04	
23	1.150000e+00	2.422717e+04	
24	1.200000e+00	2.502792e+04	
25	1.250000e+00	2.574096e+04	
26	1.300000e+00	2.637813e+04	
27	1.350000e+00	2.694947e+04	
28	1.400000e+00	2.746348e+04	
29	1.450000e+00	2.792737e+04	
30	1.500000e+00	2.834726e+04	
31	1.550000e+00	2.872837e+04	
32	1.600000e+00	2.907517e+04	
33	1.650000e+00	2.939151e+04	
34	1.700000e+00	2.968069e+04	
35	1.750000e+00	2.994558e+04	
36	1.800000e+00	3.018868e+04	
37	1.850000e+00	3.041215e+04	
38	1.900000e+00	3.061791e+04	
39	1.950000e+00	3.080762e+04	
40	2.000000e+00	3.098276e+04	
41	2.050000e+00	3.114462e+04	
42	2.100000e+00	3.129433e+04	
43	2.150000e+00	3.143288e+04	
44	2.200000e+00	3.156114e+04	
45	2.250000e+00	3.167984e+04	
46	2.300000e+00	3.178955e+04	
47	2.350000e+00	3.189073e+04	
48	2.400000e+00	3.198368e+04	
49	2.450000e+00	3.206851e+04	
50	2.500000e+00	3.214516e+04	
51	2.550000e+00	3.221333e+04	
52	2.600000e+00	3.227246e+04	
53	2.650000e+00	3.232171e+04	
54	2.700000e+00	3.235993e+04	

Index   v-sweep         rds             
--------------------------------------------------------------------------------
55	2.750000e+00	3.238558e+04	
56	2.800000e+00	3.239676e+04	
57	2.850000e+00	3.239113e+04	
58	2.900000e+00	3.236593e+04	
59	2.950000e+00	3.231794e+04	
60	3.000000e+00	3.224352e+04	
61	3.050000e+00	3.213861e+04	
62	3.100000e+00	3.199882e+04	
63	3.150000e+00	3.181948e+04	
64	3.200000e+00	3.159579e+04	
65	3.250000e+00	3.132294e+04	
66	3.300000e+00	3.099631e+04	
Reset re-loads circuit ***************************

Circuit: ***************************

Doing analysis at TEMP = 125.000000 and TNOM = 125.000000


No. of Data Rows : 67
                          ***************************
                          DC transfer characteristic  Mon Jan  9 13:58:14  2023
--------------------------------------------------------------------------------
Index   v-sweep         rds             
--------------------------------------------------------------------------------
0	0.000000e+00	6.261402e+02	
1	5.000000e-02	6.711544e+02	
2	1.000000e-01	7.207106e+02	
3	1.500000e-01	7.755062e+02	
4	2.000000e-01	8.363928e+02	
5	2.500000e-01	9.044223e+02	
6	3.000000e-01	9.809124e+02	
7	3.500000e-01	1.067542e+03	
8	4.000000e-01	1.166491e+03	
9	4.500000e-01	1.280664e+03	
10	5.000000e-01	1.414043e+03	
11	5.500000e-01	1.572288e+03	
12	6.000000e-01	1.763767e+03	
13	6.500000e-01	2.001313e+03	
14	7.000000e-01	2.304971e+03	
15	7.500000e-01	2.705119e+03	
16	8.000000e-01	3.242363e+03	
17	8.500000e-01	3.956772e+03	
18	9.000000e-01	4.864754e+03	
19	9.500000e-01	5.941635e+03	
20	1.000000e+00	7.129876e+03	
21	1.050000e+00	8.363883e+03	
22	1.100000e+00	9.589292e+03	
23	1.150000e+00	1.076932e+04	
24	1.200000e+00	1.188295e+04	
25	1.250000e+00	1.292054e+04	
26	1.300000e+00	1.387975e+04	
27	1.350000e+00	1.476255e+04	
28	1.400000e+00	1.557320e+04	
29	1.450000e+00	1.631700e+04	
30	1.500000e+00	1.699961e+04	
31	1.550000e+00	1.762658e+04	
32	1.600000e+00	1.820315e+04	
33	1.650000e+00	1.873419e+04	
34	1.700000e+00	1.922409e+04	
35	1.750000e+00	1.967682e+04	
36	1.800000e+00	2.009595e+04	
37	1.850000e+00	2.048464e+04	
38	1.900000e+00	2.084575e+04	
39	1.950000e+00	2.118179e+04	
40	2.000000e+00	2.149501e+04	
41	2.050000e+00	2.178743e+04	
42	2.100000e+00	2.206085e+04	
43	2.150000e+00	2.231688e+04	
44	2.200000e+00	2.255694e+04	
45	2.250000e+00	2.278233e+04	
46	2.300000e+00	2.299420e+04	
47	2.350000e+00	2.319358e+04	
48	2.400000e+00	2.338137e+04	
49	2.450000e+00	2.355836e+04	
50	2.500000e+00	2.372523e+04	
51	2.550000e+00	2.388251e+04	
52	2.600000e+00	2.403062e+04	
53	2.650000e+00	2.416980e+04	
54	2.700000e+00	2.430012e+04	

Index   v-sweep         rds             
--------------------------------------------------------------------------------
55	2.750000e+00	2.442143e+04	
56	2.800000e+00	2.453333e+04	
57	2.850000e+00	2.463515e+04	
58	2.900000e+00	2.472587e+04	
59	2.950000e+00	2.480412e+04	
60	3.000000e+00	2.486808e+04	
61	3.050000e+00	2.491552e+04	
62	3.100000e+00	2.494369e+04	
63	3.150000e+00	2.494937e+04	
64	3.200000e+00	2.492883e+04	
65	3.250000e+00	2.487790e+04	
66	3.300000e+00	2.479200e+04	
Reset re-loads circuit ***************************

Circuit: ***************************

Doing analysis at TEMP = 125.000000 and TNOM = 125.000000


No. of Data Rows : 67
                          ***************************
                          DC transfer characteristic  Mon Jan  9 13:58:14  2023
--------------------------------------------------------------------------------
Index   v-sweep         rds             
--------------------------------------------------------------------------------
0	0.000000e+00	5.078597e+02	
1	5.000000e-02	5.363563e+02	
2	1.000000e-01	5.669718e+02	
3	1.500000e-01	5.999387e+02	
4	2.000000e-01	6.355261e+02	
5	2.500000e-01	6.740469e+02	
6	3.000000e-01	7.158678e+02	
7	3.500000e-01	7.614222e+02	
8	4.000000e-01	8.112273e+02	
9	4.500000e-01	8.659072e+02	
10	5.000000e-01	9.262259e+02	
11	5.500000e-01	9.931342e+02	
12	6.000000e-01	1.067840e+03	
13	6.500000e-01	1.151920e+03	
14	7.000000e-01	1.247490e+03	
15	7.500000e-01	1.357502e+03	
16	8.000000e-01	1.486229e+03	
17	8.500000e-01	1.640075e+03	
18	9.000000e-01	1.828825e+03	
19	9.500000e-01	2.067253e+03	
20	1.000000e+00	2.376161e+03	
21	1.050000e+00	2.780474e+03	
22	1.100000e+00	3.301783e+03	
23	1.150000e+00	3.947325e+03	
24	1.200000e+00	4.703835e+03	
25	1.250000e+00	5.541937e+03	
26	1.300000e+00	6.426601e+03	
27	1.350000e+00	7.325973e+03	
28	1.400000e+00	8.215459e+03	
29	1.450000e+00	9.078176e+03	
30	1.500000e+00	9.903694e+03	
31	1.550000e+00	1.068638e+04	
32	1.600000e+00	1.142391e+04	
33	1.650000e+00	1.211615e+04	
34	1.700000e+00	1.276429e+04	
35	1.750000e+00	1.337034e+04	
36	1.800000e+00	1.393671e+04	
37	1.850000e+00	1.446600e+04	
38	1.900000e+00	1.496081e+04	
39	1.950000e+00	1.542371e+04	
40	2.000000e+00	1.585710e+04	
41	2.050000e+00	1.626327e+04	
42	2.100000e+00	1.664433e+04	
43	2.150000e+00	1.700222e+04	
44	2.200000e+00	1.733874e+04	
45	2.250000e+00	1.765553e+04	
46	2.300000e+00	1.795409e+04	
47	2.350000e+00	1.823577e+04	
48	2.400000e+00	1.850183e+04	
49	2.450000e+00	1.875341e+04	
50	2.500000e+00	1.899152e+04	
51	2.550000e+00	1.921711e+04	
52	2.600000e+00	1.943100e+04	
53	2.650000e+00	1.963395e+04	
54	2.700000e+00	1.982659e+04	

Index   v-sweep         rds             
--------------------------------------------------------------------------------
55	2.750000e+00	2.000944e+04	
56	2.800000e+00	2.018293e+04	
57	2.850000e+00	2.034731e+04	
58	2.900000e+00	2.050267e+04	
59	2.950000e+00	2.064890e+04	
60	3.000000e+00	2.078566e+04	
61	3.050000e+00	2.091230e+04	
62	3.100000e+00	2.102786e+04	
63	3.150000e+00	2.113098e+04	
64	3.200000e+00	2.121987e+04	
65	3.250000e+00	2.129226e+04	
66	3.300000e+00	2.134538e+04	
Reset re-loads circuit ***************************

Circuit: ***************************

Doing analysis at TEMP = 125.000000 and TNOM = 125.000000


No. of Data Rows : 67
                          ***************************
                          DC transfer characteristic  Mon Jan  9 13:58:14  2023
--------------------------------------------------------------------------------
Index   v-sweep         rds             
--------------------------------------------------------------------------------
0	0.000000e+00	4.419517e+02	
1	5.000000e-02	4.624086e+02	
2	1.000000e-01	4.840743e+02	
3	1.500000e-01	5.070521e+02	
4	2.000000e-01	5.314574e+02	
5	2.500000e-01	5.574204e+02	
6	3.000000e-01	5.850878e+02	
7	3.500000e-01	6.146264e+02	
8	4.000000e-01	6.462265e+02	
9	4.500000e-01	6.801068e+02	
10	5.000000e-01	7.165201e+02	
11	5.500000e-01	7.557618e+02	
12	6.000000e-01	7.981799e+02	
13	6.500000e-01	8.441899e+02	
14	7.000000e-01	8.942955e+02	
15	7.500000e-01	9.491185e+02	
16	8.000000e-01	1.009444e+03	
17	8.500000e-01	1.076291e+03	
18	9.000000e-01	1.151022e+03	
19	9.500000e-01	1.235527e+03	
20	1.000000e+00	1.332513e+03	
21	1.050000e+00	1.445977e+03	
22	1.100000e+00	1.581910e+03	
23	1.150000e+00	1.749216e+03	
24	1.200000e+00	1.960488e+03	
25	1.250000e+00	2.231703e+03	
26	1.300000e+00	2.579415e+03	
27	1.350000e+00	3.015211e+03	
28	1.400000e+00	3.540148e+03	
29	1.450000e+00	4.143314e+03	
30	1.500000e+00	4.805418e+03	
31	1.550000e+00	5.504407e+03	
32	1.600000e+00	6.219906e+03	
33	1.650000e+00	6.935401e+03	
34	1.700000e+00	7.638682e+03	
35	1.750000e+00	8.321381e+03	
36	1.800000e+00	8.978189e+03	
37	1.850000e+00	9.606082e+03	
38	1.900000e+00	1.020367e+04	
39	1.950000e+00	1.077068e+04	
40	2.000000e+00	1.130761e+04	
41	2.050000e+00	1.181541e+04	
42	2.100000e+00	1.229534e+04	
43	2.150000e+00	1.274881e+04	
44	2.200000e+00	1.317730e+04	
45	2.250000e+00	1.358231e+04	
46	2.300000e+00	1.396529e+04	
47	2.350000e+00	1.432766e+04	
48	2.400000e+00	1.467075e+04	
49	2.450000e+00	1.499583e+04	
50	2.500000e+00	1.530408e+04	
51	2.550000e+00	1.559662e+04	
52	2.600000e+00	1.587445e+04	
53	2.650000e+00	1.613855e+04	
54	2.700000e+00	1.638979e+04	

Index   v-sweep         rds             
--------------------------------------------------------------------------------
55	2.750000e+00	1.662897e+04	
56	2.800000e+00	1.685682e+04	
57	2.850000e+00	1.707402e+04	
58	2.900000e+00	1.728113e+04	
59	2.950000e+00	1.747865e+04	
60	3.000000e+00	1.766694e+04	
61	3.050000e+00	1.784627e+04	
62	3.100000e+00	1.801671e+04	
63	3.150000e+00	1.817819e+04	
64	3.200000e+00	1.833036e+04	
65	3.250000e+00	1.847263e+04	
66	3.300000e+00	1.860406e+04	
Reset re-loads circuit ***************************

Circuit: ***************************

Doing analysis at TEMP = 125.000000 and TNOM = 125.000000


No. of Data Rows : 67
                          ***************************
                          DC transfer characteristic  Mon Jan  9 13:58:14  2023
--------------------------------------------------------------------------------
Index   v-sweep         rds             
--------------------------------------------------------------------------------
0	0.000000e+00	4.040337e+02	
1	5.000000e-02	4.200540e+02	
2	1.000000e-01	4.368665e+02	
3	1.500000e-01	4.545268e+02	
4	2.000000e-01	4.730959e+02	
5	2.500000e-01	4.926414e+02	
6	3.000000e-01	5.132375e+02	
7	3.500000e-01	5.349667e+02	
8	4.000000e-01	5.579208e+02	
9	4.500000e-01	5.822021e+02	
10	5.000000e-01	6.079255e+02	
11	5.500000e-01	6.352203e+02	
12	6.000000e-01	6.642334e+02	
13	6.500000e-01	6.951320e+02	
14	7.000000e-01	7.281089e+02	
15	7.500000e-01	7.633877e+02	
16	8.000000e-01	8.012316e+02	
17	8.500000e-01	8.419536e+02	
18	9.000000e-01	8.859338e+02	
19	9.500000e-01	9.336417e+02	
20	1.000000e+00	9.856728e+02	
21	1.050000e+00	1.042802e+03	
22	1.100000e+00	1.106071e+03	
23	1.150000e+00	1.176920e+03	
24	1.200000e+00	1.257407e+03	
25	1.250000e+00	1.350530e+03	
26	1.300000e+00	1.460704e+03	
27	1.350000e+00	1.594354e+03	
28	1.400000e+00	1.760432e+03	
29	1.450000e+00	1.970336e+03	
30	1.500000e+00	2.236466e+03	
31	1.550000e+00	2.569052e+03	
32	1.600000e+00	2.972371e+03	
33	1.650000e+00	3.442658e+03	
34	1.700000e+00	3.969071e+03	
35	1.750000e+00	4.536814e+03	
36	1.800000e+00	5.130433e+03	
37	1.850000e+00	5.736060e+03	
38	1.900000e+00	6.342413e+03	
39	1.950000e+00	6.940945e+03	
40	2.000000e+00	7.525549e+03	
41	2.050000e+00	8.092105e+03	
42	2.100000e+00	8.638030e+03	
43	2.150000e+00	9.161884e+03	
44	2.200000e+00	9.663054e+03	
45	2.250000e+00	1.014151e+04	
46	2.300000e+00	1.059764e+04	
47	2.350000e+00	1.103206e+04	
48	2.400000e+00	1.144560e+04	
49	2.450000e+00	1.183917e+04	
50	2.500000e+00	1.221374e+04	
51	2.550000e+00	1.257027e+04	
52	2.600000e+00	1.290974e+04	
53	2.650000e+00	1.323309e+04	
54	2.700000e+00	1.354125e+04	

Index   v-sweep         rds             
--------------------------------------------------------------------------------
55	2.750000e+00	1.383508e+04	
56	2.800000e+00	1.411540e+04	
57	2.850000e+00	1.438300e+04	
58	2.900000e+00	1.463861e+04	
59	2.950000e+00	1.488291e+04	
60	3.000000e+00	1.511651e+04	
61	3.050000e+00	1.534000e+04	
62	3.100000e+00	1.555387e+04	
63	3.150000e+00	1.575855e+04	
64	3.200000e+00	1.595435e+04	
65	3.250000e+00	1.614151e+04	
66	3.300000e+00	1.632007e+04	
Reset re-loads circuit ***************************

Circuit: ***************************

Note: No ".plot", ".print", or ".fourier" lines; no simulations run
