
Note: Compatibility modes selected: hs

Warning: m=xx on .subckt line will override multiplier m hierarchy!


Circuit: ***************************

Doing analysis at TEMP = -40.000000 and TNOM = -40.000000


No. of Data Rows : 67
                          ***************************
                          DC transfer characteristic  Mon Jan  9 13:58:14  2023
--------------------------------------------------------------------------------
Index   v-sweep         rds             
--------------------------------------------------------------------------------
0	0.000000e+00	6.932205e+04	
1	5.000000e-02	1.336466e+05	
2	1.000000e-01	4.033283e+05	
3	1.500000e-01	1.344713e+06	
4	2.000000e-01	2.700030e+06	
5	2.500000e-01	3.886695e+06	
6	3.000000e-01	4.828745e+06	
7	3.500000e-01	5.584881e+06	
8	4.000000e-01	6.206461e+06	
9	4.500000e-01	6.727949e+06	
10	5.000000e-01	7.172469e+06	
11	5.500000e-01	7.556141e+06	
12	6.000000e-01	7.890640e+06	
13	6.500000e-01	8.184700e+06	
14	7.000000e-01	8.445028e+06	
15	7.500000e-01	8.676883e+06	
16	8.000000e-01	8.884461e+06	
17	8.500000e-01	9.071162e+06	
18	9.000000e-01	9.239771e+06	
19	9.500000e-01	9.392595e+06	
20	1.000000e+00	9.531566e+06	
21	1.050000e+00	9.658311e+06	
22	1.100000e+00	9.774212e+06	
23	1.150000e+00	9.880453e+06	
24	1.200000e+00	9.978051e+06	
25	1.250000e+00	1.006789e+07	
26	1.300000e+00	1.015073e+07	
27	1.350000e+00	1.022725e+07	
28	1.400000e+00	1.029802e+07	
29	1.450000e+00	1.036358e+07	
30	1.500000e+00	1.042438e+07	
31	1.550000e+00	1.048081e+07	
32	1.600000e+00	1.053325e+07	
33	1.650000e+00	1.058201e+07	
34	1.700000e+00	1.062737e+07	
35	1.750000e+00	1.066957e+07	
36	1.800000e+00	1.070884e+07	
37	1.850000e+00	1.074533e+07	
38	1.900000e+00	1.077921e+07	
39	1.950000e+00	1.081057e+07	
40	2.000000e+00	1.083947e+07	
41	2.050000e+00	1.086594e+07	
42	2.100000e+00	1.088995e+07	
43	2.150000e+00	1.091141e+07	
44	2.200000e+00	1.093016e+07	
45	2.250000e+00	1.094600e+07	
46	2.300000e+00	1.095863e+07	
47	2.350000e+00	1.096766e+07	
48	2.400000e+00	1.097264e+07	
49	2.450000e+00	1.097301e+07	
50	2.500000e+00	1.096812e+07	
51	2.550000e+00	1.095722e+07	
52	2.600000e+00	1.093946e+07	
53	2.650000e+00	1.091392e+07	
54	2.700000e+00	1.087959e+07	

Index   v-sweep         rds             
--------------------------------------------------------------------------------
55	2.750000e+00	1.083541e+07	
56	2.800000e+00	1.078026e+07	
57	2.850000e+00	1.071303e+07	
58	2.900000e+00	1.063258e+07	
59	2.950000e+00	1.053788e+07	
60	3.000000e+00	1.042793e+07	
61	3.050000e+00	1.030190e+07	
62	3.100000e+00	1.015913e+07	
63	3.150000e+00	9.999159e+06	
64	3.200000e+00	9.821799e+06	
65	3.250000e+00	9.627139e+06	
66	3.300000e+00	9.415575e+06	
Reset re-loads circuit ***************************

Circuit: ***************************

Doing analysis at TEMP = -40.000000 and TNOM = -40.000000


No. of Data Rows : 67
                          ***************************
                          DC transfer characteristic  Mon Jan  9 13:58:14  2023
--------------------------------------------------------------------------------
Index   v-sweep         rds             
--------------------------------------------------------------------------------
0	0.000000e+00	1.062097e+04	
1	5.000000e-02	1.209256e+04	
2	1.000000e-01	1.392588e+04	
3	1.500000e-01	1.627061e+04	
4	2.000000e-01	1.937098e+04	
5	2.500000e-01	2.365167e+04	
6	3.000000e-01	2.990702e+04	
7	3.500000e-01	3.972556e+04	
8	4.000000e-01	5.625715e+04	
9	4.500000e-01	8.429301e+04	
10	5.000000e-01	1.266203e+05	
11	5.500000e-01	1.802039e+05	
12	6.000000e-01	2.395397e+05	
13	6.500000e-01	3.005948e+05	
14	7.000000e-01	3.611868e+05	
15	7.500000e-01	4.202571e+05	
16	8.000000e-01	4.773250e+05	
17	8.500000e-01	5.321995e+05	
18	9.000000e-01	5.848360e+05	
19	9.500000e-01	6.352653e+05	
20	1.000000e+00	6.835566e+05	
21	1.050000e+00	7.297978e+05	
22	1.100000e+00	7.740848e+05	
23	1.150000e+00	8.165157e+05	
24	1.200000e+00	8.571872e+05	
25	1.250000e+00	8.961929e+05	
26	1.300000e+00	9.336220e+05	
27	1.350000e+00	9.695596e+05	
28	1.400000e+00	1.004085e+06	
29	1.450000e+00	1.037275e+06	
30	1.500000e+00	1.069199e+06	
31	1.550000e+00	1.099924e+06	
32	1.600000e+00	1.129512e+06	
33	1.650000e+00	1.158021e+06	
34	1.700000e+00	1.185506e+06	
35	1.750000e+00	1.212018e+06	
36	1.800000e+00	1.237605e+06	
37	1.850000e+00	1.262311e+06	
38	1.900000e+00	1.286179e+06	
39	1.950000e+00	1.309245e+06	
40	2.000000e+00	1.331544e+06	
41	2.050000e+00	1.353108e+06	
42	2.100000e+00	1.373961e+06	
43	2.150000e+00	1.394124e+06	
44	2.200000e+00	1.413608e+06	
45	2.250000e+00	1.432417e+06	
46	2.300000e+00	1.450543e+06	
47	2.350000e+00	1.467964e+06	
48	2.400000e+00	1.484638e+06	
49	2.450000e+00	1.500506e+06	
50	2.500000e+00	1.515482e+06	
51	2.550000e+00	1.529451e+06	
52	2.600000e+00	1.542267e+06	
53	2.650000e+00	1.553745e+06	
54	2.700000e+00	1.563664e+06	

Index   v-sweep         rds             
--------------------------------------------------------------------------------
55	2.750000e+00	1.571760e+06	
56	2.800000e+00	1.577731e+06	
57	2.850000e+00	1.581235e+06	
58	2.900000e+00	1.581900e+06	
59	2.950000e+00	1.579330e+06	
60	3.000000e+00	1.573120e+06	
61	3.050000e+00	1.562874e+06	
62	3.100000e+00	1.548225e+06	
63	3.150000e+00	1.528862e+06	
64	3.200000e+00	1.504552e+06	
65	3.250000e+00	1.475169e+06	
66	3.300000e+00	1.440712e+06	
Reset re-loads circuit ***************************

Circuit: ***************************

Doing analysis at TEMP = -40.000000 and TNOM = -40.000000


No. of Data Rows : 67
                          ***************************
                          DC transfer characteristic  Mon Jan  9 13:58:14  2023
--------------------------------------------------------------------------------
Index   v-sweep         rds             
--------------------------------------------------------------------------------
0	0.000000e+00	6.302667e+03	
1	5.000000e-02	6.818952e+03	
2	1.000000e-01	7.399820e+03	
3	1.500000e-01	8.057903e+03	
4	2.000000e-01	8.809388e+03	
5	2.500000e-01	9.675379e+03	
6	3.000000e-01	1.068396e+04	
7	3.500000e-01	1.187342e+04	
8	4.000000e-01	1.329759e+04	
9	4.500000e-01	1.503501e+04	
10	5.000000e-01	1.720603e+04	
11	5.500000e-01	2.000623e+04	
12	6.000000e-01	2.377384e+04	
13	6.500000e-01	2.911165e+04	
14	7.000000e-01	3.701050e+04	
15	7.500000e-01	4.866108e+04	
16	8.000000e-01	6.468841e+04	
17	8.500000e-01	8.461622e+04	
18	9.000000e-01	1.073188e+05	
19	9.500000e-01	1.316947e+05	
20	1.000000e+00	1.569313e+05	
21	1.050000e+00	1.824920e+05	
22	1.100000e+00	2.080359e+05	
23	1.150000e+00	2.333490e+05	
24	1.200000e+00	2.582977e+05	
25	1.250000e+00	2.827995e+05	
26	1.300000e+00	3.068043e+05	
27	1.350000e+00	3.302840e+05	
28	1.400000e+00	3.532243e+05	
29	1.450000e+00	3.756207e+05	
30	1.500000e+00	3.974749e+05	
31	1.550000e+00	4.187933e+05	
32	1.600000e+00	4.395849e+05	
33	1.650000e+00	4.598609e+05	
34	1.700000e+00	4.796337e+05	
35	1.750000e+00	4.989164e+05	
36	1.800000e+00	5.177227e+05	
37	1.850000e+00	5.360663e+05	
38	1.900000e+00	5.539610e+05	
39	1.950000e+00	5.714205e+05	
40	2.000000e+00	5.884581e+05	
41	2.050000e+00	6.050870e+05	
42	2.100000e+00	6.213197e+05	
43	2.150000e+00	6.371684e+05	
44	2.200000e+00	6.526443e+05	
45	2.250000e+00	6.677579e+05	
46	2.300000e+00	6.825180e+05	
47	2.350000e+00	6.969316e+05	
48	2.400000e+00	7.110030e+05	
49	2.450000e+00	7.247327e+05	
50	2.500000e+00	7.381161e+05	
51	2.550000e+00	7.511416e+05	
52	2.600000e+00	7.637890e+05	
53	2.650000e+00	7.760263e+05	
54	2.700000e+00	7.878075e+05	

Index   v-sweep         rds             
--------------------------------------------------------------------------------
55	2.750000e+00	7.990690e+05	
56	2.800000e+00	8.097264e+05	
57	2.850000e+00	8.196708e+05	
58	2.900000e+00	8.287659e+05	
59	2.950000e+00	8.368452e+05	
60	3.000000e+00	8.437099e+05	
61	3.050000e+00	8.491296e+05	
62	3.100000e+00	8.528441e+05	
63	3.150000e+00	8.545682e+05	
64	3.200000e+00	8.540011e+05	
65	3.250000e+00	8.508388e+05	
66	3.300000e+00	8.447907e+05	
Reset re-loads circuit ***************************

Circuit: ***************************

Doing analysis at TEMP = -40.000000 and TNOM = -40.000000


No. of Data Rows : 67
                          ***************************
                          DC transfer characteristic  Mon Jan  9 13:58:14  2023
--------------------------------------------------------------------------------
Index   v-sweep         rds             
--------------------------------------------------------------------------------
0	0.000000e+00	4.919783e+03	
1	5.000000e-02	5.219998e+03	
2	1.000000e-01	5.546259e+03	
3	1.500000e-01	5.901985e+03	
4	2.000000e-01	6.291229e+03	
5	2.500000e-01	6.718838e+03	
6	3.000000e-01	7.190651e+03	
7	3.500000e-01	7.713788e+03	
8	4.000000e-01	8.297028e+03	
9	4.500000e-01	8.951356e+03	
10	5.000000e-01	9.690757e+03	
11	5.500000e-01	1.053343e+04	
12	6.000000e-01	1.150373e+04	
13	6.500000e-01	1.263545e+04	
14	7.000000e-01	1.397780e+04	
15	7.500000e-01	1.560667e+04	
16	8.000000e-01	1.764683e+04	
17	8.500000e-01	2.031294e+04	
18	9.000000e-01	2.396985e+04	
19	9.500000e-01	2.916179e+04	
20	1.000000e+00	3.647705e+04	
21	1.050000e+00	4.622350e+04	
22	1.100000e+00	5.823578e+04	
23	1.150000e+00	7.203066e+04	
24	1.200000e+00	8.707047e+04	
25	1.250000e+00	1.029068e+05	
26	1.300000e+00	1.192088e+05	
27	1.350000e+00	1.357444e+05	
28	1.400000e+00	1.523534e+05	
29	1.450000e+00	1.689260e+05	
30	1.500000e+00	1.853864e+05	
31	1.550000e+00	2.016823e+05	
32	1.600000e+00	2.177779e+05	
33	1.650000e+00	2.336485e+05	
34	1.700000e+00	2.492778e+05	
35	1.750000e+00	2.646550e+05	
36	1.800000e+00	2.797738e+05	
37	1.850000e+00	2.946308e+05	
38	1.900000e+00	3.092251e+05	
39	1.950000e+00	3.235572e+05	
40	2.000000e+00	3.376291e+05	
41	2.050000e+00	3.514437e+05	
42	2.100000e+00	3.650044e+05	
43	2.150000e+00	3.783152e+05	
44	2.200000e+00	3.913806e+05	
45	2.250000e+00	4.042052e+05	
46	2.300000e+00	4.167935e+05	
47	2.350000e+00	4.291505e+05	
48	2.400000e+00	4.412806e+05	
49	2.450000e+00	4.531882e+05	
50	2.500000e+00	4.648769e+05	
51	2.550000e+00	4.763496e+05	
52	2.600000e+00	4.876075e+05	
53	2.650000e+00	4.986498e+05	
54	2.700000e+00	5.094723e+05	

Index   v-sweep         rds             
--------------------------------------------------------------------------------
55	2.750000e+00	5.200668e+05	
56	2.800000e+00	5.304186e+05	
57	2.850000e+00	5.405056e+05	
58	2.900000e+00	5.502953e+05	
59	2.950000e+00	5.597421e+05	
60	3.000000e+00	5.687849e+05	
61	3.050000e+00	5.773437e+05	
62	3.100000e+00	5.853164e+05	
63	3.150000e+00	5.925759e+05	
64	3.200000e+00	5.989684e+05	
65	3.250000e+00	6.043119e+05	
66	3.300000e+00	6.083973e+05	
Reset re-loads circuit ***************************

Circuit: ***************************

Doing analysis at TEMP = -40.000000 and TNOM = -40.000000


No. of Data Rows : 67
                          ***************************
                          DC transfer characteristic  Mon Jan  9 13:58:14  2023
--------------------------------------------------------------------------------
Index   v-sweep         rds             
--------------------------------------------------------------------------------
0	0.000000e+00	4.186976e+03	
1	5.000000e-02	4.391169e+03	
2	1.000000e-01	4.608877e+03	
3	1.500000e-01	4.841422e+03	
4	2.000000e-01	5.090311e+03	
5	2.500000e-01	5.357261e+03	
6	3.000000e-01	5.644245e+03	
7	3.500000e-01	5.953542e+03	
8	4.000000e-01	6.287795e+03	
9	4.500000e-01	6.650097e+03	
10	5.000000e-01	7.044094e+03	
11	5.500000e-01	7.474124e+03	
12	6.000000e-01	7.945406e+03	
13	6.500000e-01	8.464312e+03	
14	7.000000e-01	9.038745e+03	
15	7.500000e-01	9.678742e+03	
16	8.000000e-01	1.039741e+04	
17	8.500000e-01	1.121251e+04	
18	9.000000e-01	1.214929e+04	
19	9.500000e-01	1.324565e+04	
20	1.000000e+00	1.456185e+04	
21	1.050000e+00	1.619813e+04	
22	1.100000e+00	1.832280e+04	
23	1.150000e+00	2.120206e+04	
24	1.200000e+00	2.519149e+04	
25	1.250000e+00	3.063187e+04	
26	1.300000e+00	3.768195e+04	
27	1.350000e+00	4.624457e+04	
28	1.400000e+00	5.604953e+04	
29	1.450000e+00	6.678272e+04	
30	1.500000e+00	7.816542e+04	
31	1.550000e+00	8.997857e+04	
32	1.600000e+00	1.020592e+05	
33	1.650000e+00	1.142887e+05	
34	1.700000e+00	1.265815e+05	
35	1.750000e+00	1.388755e+05	
36	1.800000e+00	1.511256e+05	
37	1.850000e+00	1.632991e+05	
38	1.900000e+00	1.753719e+05	
39	1.950000e+00	1.873265e+05	
40	2.000000e+00	1.991501e+05	
41	2.050000e+00	2.108335e+05	
42	2.100000e+00	2.223703e+05	
43	2.150000e+00	2.337559e+05	
44	2.200000e+00	2.449875e+05	
45	2.250000e+00	2.560635e+05	
46	2.300000e+00	2.669831e+05	
47	2.350000e+00	2.777464e+05	
48	2.400000e+00	2.883538e+05	
49	2.450000e+00	2.988065e+05	
50	2.500000e+00	3.091059e+05	
51	2.550000e+00	3.192534e+05	
52	2.600000e+00	3.292507e+05	
53	2.650000e+00	3.390996e+05	
54	2.700000e+00	3.488014e+05	

Index   v-sweep         rds             
--------------------------------------------------------------------------------
55	2.750000e+00	3.583573e+05	
56	2.800000e+00	3.677675e+05	
57	2.850000e+00	3.770307e+05	
58	2.900000e+00	3.861441e+05	
59	2.950000e+00	3.951015e+05	
60	3.000000e+00	4.038928e+05	
61	3.050000e+00	4.125025e+05	
62	3.100000e+00	4.209074e+05	
63	3.150000e+00	4.290747e+05	
64	3.200000e+00	4.369596e+05	
65	3.250000e+00	4.445026e+05	
66	3.300000e+00	4.516263e+05	
Reset re-loads circuit ***************************

Circuit: ***************************

Doing analysis at TEMP = -40.000000 and TNOM = -40.000000


No. of Data Rows : 67
                          ***************************
                          DC transfer characteristic  Mon Jan  9 13:58:14  2023
--------------------------------------------------------------------------------
Index   v-sweep         rds             
--------------------------------------------------------------------------------
0	0.000000e+00	3.782617e+03	
1	5.000000e-02	3.937128e+03	
2	1.000000e-01	4.099956e+03	
3	1.500000e-01	4.271755e+03	
4	2.000000e-01	4.453246e+03	
5	2.500000e-01	4.645235e+03	
6	3.000000e-01	4.848620e+03	
7	3.500000e-01	5.064405e+03	
8	4.000000e-01	5.293720e+03	
9	4.500000e-01	5.537840e+03	
10	5.000000e-01	5.798208e+03	
11	5.500000e-01	6.076469e+03	
12	6.000000e-01	6.374511e+03	
13	6.500000e-01	6.694505e+03	
14	7.000000e-01	7.038980e+03	
15	7.500000e-01	7.410902e+03	
16	8.000000e-01	7.813792e+03	
17	8.500000e-01	8.251892e+03	
18	9.000000e-01	8.730404e+03	
19	9.500000e-01	9.255866e+03	
20	1.000000e+00	9.836738e+03	
21	1.050000e+00	1.048439e+04	
22	1.100000e+00	1.121482e+04	
23	1.150000e+00	1.205166e+04	
24	1.200000e+00	1.303169e+04	
25	1.250000e+00	1.421436e+04	
26	1.300000e+00	1.569706e+04	
27	1.350000e+00	1.763410e+04	
28	1.400000e+00	2.024525e+04	
29	1.450000e+00	2.378418e+04	
30	1.500000e+00	2.845186e+04	
31	1.550000e+00	3.430717e+04	
32	1.600000e+00	4.125371e+04	
33	1.650000e+00	4.910204e+04	
34	1.700000e+00	5.764226e+04	
35	1.750000e+00	6.668679e+04	
36	1.800000e+00	7.608433e+04	
37	1.850000e+00	8.571876e+04	
38	1.900000e+00	9.550283e+04	
39	1.950000e+00	1.053715e+05	
40	2.000000e+00	1.152762e+05	
41	2.050000e+00	1.251807e+05	
42	2.100000e+00	1.350576e+05	
43	2.150000e+00	1.448863e+05	
44	2.200000e+00	1.546512e+05	
45	2.250000e+00	1.643404e+05	
46	2.300000e+00	1.739450e+05	
47	2.350000e+00	1.834582e+05	
48	2.400000e+00	1.928749e+05	
49	2.450000e+00	2.021913e+05	
50	2.500000e+00	2.114049e+05	
51	2.550000e+00	2.205138e+05	
52	2.600000e+00	2.295167e+05	
53	2.650000e+00	2.384130e+05	
54	2.700000e+00	2.472024e+05	

Index   v-sweep         rds             
--------------------------------------------------------------------------------
55	2.750000e+00	2.558851e+05	
56	2.800000e+00	2.644612e+05	
57	2.850000e+00	2.729312e+05	
58	2.900000e+00	2.812954e+05	
59	2.950000e+00	2.895540e+05	
60	3.000000e+00	2.977066e+05	
61	3.050000e+00	3.057523e+05	
62	3.100000e+00	3.136883e+05	
63	3.150000e+00	3.215103e+05	
64	3.200000e+00	3.292106e+05	
65	3.250000e+00	3.367776e+05	
66	3.300000e+00	3.441938e+05	
Reset re-loads circuit ***************************

Circuit: ***************************

Note: No ".plot", ".print", or ".fourier" lines; no simulations run
