
Note: Compatibility modes selected: hs

Warning: m=xx on .subckt line will override multiplier m hierarchy!


Circuit: ***************************

Doing analysis at TEMP = -40.000000 and TNOM = -40.000000


No. of Data Rows : 67
                          ***************************
                          DC transfer characteristic  Mon Jan  9 13:58:14  2023
--------------------------------------------------------------------------------
Index   v-sweep         rds             
--------------------------------------------------------------------------------
0	0.000000e+00	1.121996e+06	
1	5.000000e-02	2.678361e+06	
2	1.000000e-01	3.128064e+07	
3	1.500000e-01	3.285931e+08	
4	2.000000e-01	8.008671e+08	
5	2.500000e-01	1.126160e+09	
6	3.000000e-01	1.317240e+09	
7	3.500000e-01	1.435137e+09	
8	4.000000e-01	1.513692e+09	
9	4.500000e-01	1.569587e+09	
10	5.000000e-01	1.611436e+09	
11	5.500000e-01	1.644013e+09	
12	6.000000e-01	1.670150e+09	
13	6.500000e-01	1.691624e+09	
14	7.000000e-01	1.709607e+09	
15	7.500000e-01	1.724906e+09	
16	8.000000e-01	1.738092e+09	
17	8.500000e-01	1.749583e+09	
18	9.000000e-01	1.759691e+09	
19	9.500000e-01	1.768657e+09	
20	1.000000e+00	1.776666e+09	
21	1.050000e+00	1.783865e+09	
22	1.100000e+00	1.790374e+09	
23	1.150000e+00	1.796287e+09	
24	1.200000e+00	1.801685e+09	
25	1.250000e+00	1.806631e+09	
26	1.300000e+00	1.811181e+09	
27	1.350000e+00	1.815381e+09	
28	1.400000e+00	1.819270e+09	
29	1.450000e+00	1.822881e+09	
30	1.500000e+00	1.826243e+09	
31	1.550000e+00	1.829381e+09	
32	1.600000e+00	1.832316e+09	
33	1.650000e+00	1.835067e+09	
34	1.700000e+00	1.837650e+09	
35	1.750000e+00	1.840078e+09	
36	1.800000e+00	1.842363e+09	
37	1.850000e+00	1.844514e+09	
38	1.900000e+00	1.846538e+09	
39	1.950000e+00	1.848441e+09	
40	2.000000e+00	1.850225e+09	
41	2.050000e+00	1.851890e+09	
42	2.100000e+00	1.853434e+09	
43	2.150000e+00	1.854850e+09	
44	2.200000e+00	1.856130e+09	
45	2.250000e+00	1.857262e+09	
46	2.300000e+00	1.858228e+09	
47	2.350000e+00	1.859007e+09	
48	2.400000e+00	1.859575e+09	
49	2.450000e+00	1.859900e+09	
50	2.500000e+00	1.859948e+09	
51	2.550000e+00	1.859678e+09	
52	2.600000e+00	1.859044e+09	
53	2.650000e+00	1.857995e+09	
54	2.700000e+00	1.856476e+09	

Index   v-sweep         rds             
--------------------------------------------------------------------------------
55	2.750000e+00	1.854425e+09	
56	2.800000e+00	1.851776e+09	
57	2.850000e+00	1.848461e+09	
58	2.900000e+00	1.844406e+09	
59	2.950000e+00	1.839535e+09	
60	3.000000e+00	1.833772e+09	
61	3.050000e+00	1.827037e+09	
62	3.100000e+00	1.819254e+09	
63	3.150000e+00	1.810347e+09	
64	3.200000e+00	1.800244e+09	
65	3.250000e+00	1.788877e+09	
66	3.300000e+00	1.776186e+09	
Reset re-loads circuit ***************************

Circuit: ***************************

Doing analysis at TEMP = -40.000000 and TNOM = -40.000000


No. of Data Rows : 67
                          ***************************
                          DC transfer characteristic  Mon Jan  9 13:58:14  2023
--------------------------------------------------------------------------------
Index   v-sweep         rds             
--------------------------------------------------------------------------------
0	0.000000e+00	1.711058e+05	
1	5.000000e-02	1.937341e+05	
2	1.000000e-01	2.231540e+05	
3	1.500000e-01	2.629573e+05	
4	2.000000e-01	3.198000e+05	
5	2.500000e-01	4.075144e+05	
6	3.000000e-01	5.600491e+05	
7	3.500000e-01	8.848368e+05	
8	4.000000e-01	1.873436e+06	
9	4.500000e-01	6.202859e+06	
10	5.000000e-01	2.012994e+07	
11	5.500000e-01	4.301065e+07	
12	6.000000e-01	6.752032e+07	
13	6.500000e-01	8.949041e+07	
14	7.000000e-01	1.080937e+08	
15	7.500000e-01	1.236859e+08	
16	8.000000e-01	1.368307e+08	
17	8.500000e-01	1.480298e+08	
18	9.000000e-01	1.576783e+08	
19	9.500000e-01	1.660785e+08	
20	1.000000e+00	1.734611e+08	
21	1.050000e+00	1.800035e+08	
22	1.100000e+00	1.858442e+08	
23	1.150000e+00	1.910927e+08	
24	1.200000e+00	1.958362e+08	
25	1.250000e+00	2.001458e+08	
26	1.300000e+00	2.040792e+08	
27	1.350000e+00	2.076846e+08	
28	1.400000e+00	2.110019e+08	
29	1.450000e+00	2.140648e+08	
30	1.500000e+00	2.169018e+08	
31	1.550000e+00	2.195373e+08	
32	1.600000e+00	2.219923e+08	
33	1.650000e+00	2.242848e+08	
34	1.700000e+00	2.264307e+08	
35	1.750000e+00	2.284436e+08	
36	1.800000e+00	2.303357e+08	
37	1.850000e+00	2.321175e+08	
38	1.900000e+00	2.337983e+08	
39	1.950000e+00	2.353863e+08	
40	2.000000e+00	2.368888e+08	
41	2.050000e+00	2.383121e+08	
42	2.100000e+00	2.396616e+08	
43	2.150000e+00	2.409417e+08	
44	2.200000e+00	2.421561e+08	
45	2.250000e+00	2.433073e+08	
46	2.300000e+00	2.443970e+08	
47	2.350000e+00	2.454254e+08	
48	2.400000e+00	2.463915e+08	
49	2.450000e+00	2.472930e+08	
50	2.500000e+00	2.481256e+08	
51	2.550000e+00	2.488833e+08	
52	2.600000e+00	2.495580e+08	
53	2.650000e+00	2.501394e+08	
54	2.700000e+00	2.506147e+08	

Index   v-sweep         rds             
--------------------------------------------------------------------------------
55	2.750000e+00	2.509687e+08	
56	2.800000e+00	2.511836e+08	
57	2.850000e+00	2.512390e+08	
58	2.900000e+00	2.511119e+08	
59	2.950000e+00	2.507773e+08	
60	3.000000e+00	2.502081e+08	
61	3.050000e+00	2.493757e+08	
62	3.100000e+00	2.482506e+08	
63	3.150000e+00	2.468035e+08	
64	3.200000e+00	2.450056e+08	
65	3.250000e+00	2.428303e+08	
66	3.300000e+00	2.402541e+08	
Reset re-loads circuit ***************************

Circuit: ***************************

Doing analysis at TEMP = -40.000000 and TNOM = -40.000000


No. of Data Rows : 67
                          ***************************
                          DC transfer characteristic  Mon Jan  9 13:58:14  2023
--------------------------------------------------------------------------------
Index   v-sweep         rds             
--------------------------------------------------------------------------------
0	0.000000e+00	9.676206e+04	
1	5.000000e-02	1.032741e+05	
2	1.000000e-01	1.107030e+05	
3	1.500000e-01	1.192570e+05	
4	2.000000e-01	1.292125e+05	
5	2.500000e-01	1.409445e+05	
6	3.000000e-01	1.549748e+05	
7	3.500000e-01	1.720515e+05	
8	4.000000e-01	1.932863e+05	
9	4.500000e-01	2.204051e+05	
10	5.000000e-01	2.562380e+05	
11	5.500000e-01	3.057606e+05	
12	6.000000e-01	3.785601e+05	
13	6.500000e-01	4.955369e+05	
14	7.000000e-01	7.105031e+05	
15	7.500000e-01	1.192054e+06	
16	8.000000e-01	2.508489e+06	
17	8.500000e-01	5.892402e+06	
18	9.000000e-01	1.194394e+07	
19	9.500000e-01	1.961960e+07	
20	1.000000e+00	2.763978e+07	
21	1.050000e+00	3.530613e+07	
22	1.100000e+00	4.236543e+07	
23	1.150000e+00	4.877427e+07	
24	1.200000e+00	5.456984e+07	
25	1.250000e+00	5.981412e+07	
26	1.300000e+00	6.457189e+07	
27	1.350000e+00	6.890290e+07	
28	1.400000e+00	7.285973e+07	
29	1.450000e+00	7.648773e+07	
30	1.500000e+00	7.982575e+07	
31	1.550000e+00	8.290702e+07	
32	1.600000e+00	8.576002e+07	
33	1.650000e+00	8.840922e+07	
34	1.700000e+00	9.087578e+07	
35	1.750000e+00	9.317801e+07	
36	1.800000e+00	9.533187e+07	
37	1.850000e+00	9.735132e+07	
38	1.900000e+00	9.924861e+07	
39	1.950000e+00	1.010346e+08	
40	2.000000e+00	1.027187e+08	
41	2.050000e+00	1.043096e+08	
42	2.100000e+00	1.058147e+08	
43	2.150000e+00	1.072409e+08	
44	2.200000e+00	1.085941e+08	
45	2.250000e+00	1.098798e+08	
46	2.300000e+00	1.111029e+08	
47	2.350000e+00	1.122676e+08	
48	2.400000e+00	1.133778e+08	
49	2.450000e+00	1.144366e+08	
50	2.500000e+00	1.154470e+08	
51	2.550000e+00	1.164110e+08	
52	2.600000e+00	1.173302e+08	
53	2.650000e+00	1.182054e+08	
54	2.700000e+00	1.190367e+08	

Index   v-sweep         rds             
--------------------------------------------------------------------------------
55	2.750000e+00	1.198231e+08	
56	2.800000e+00	1.205625e+08	
57	2.850000e+00	1.212517e+08	
58	2.900000e+00	1.218858e+08	
59	2.950000e+00	1.224586e+08	
60	3.000000e+00	1.229620e+08	
61	3.050000e+00	1.233860e+08	
62	3.100000e+00	1.237188e+08	
63	3.150000e+00	1.239464e+08	
64	3.200000e+00	1.240530e+08	
65	3.250000e+00	1.240209e+08	
66	3.300000e+00	1.238309e+08	
Reset re-loads circuit ***************************

Circuit: ***************************

Doing analysis at TEMP = -40.000000 and TNOM = -40.000000


No. of Data Rows : 67
                          ***************************
                          DC transfer characteristic  Mon Jan  9 13:58:14  2023
--------------------------------------------------------------------------------
Index   v-sweep         rds             
--------------------------------------------------------------------------------
0	0.000000e+00	7.081972e+04	
1	5.000000e-02	7.394280e+04	
2	1.000000e-01	7.734441e+04	
3	1.500000e-01	8.106353e+04	
4	2.000000e-01	8.514680e+04	
5	2.500000e-01	8.965042e+04	
6	3.000000e-01	9.464282e+04	
7	3.500000e-01	1.002081e+05	
8	4.000000e-01	1.064508e+05	
9	4.500000e-01	1.135027e+05	
10	5.000000e-01	1.215320e+05	
11	5.500000e-01	1.307567e+05	
12	6.000000e-01	1.414652e+05	
13	6.500000e-01	1.540467e+05	
14	7.000000e-01	1.690390e+05	
15	7.500000e-01	1.872077e+05	
16	8.000000e-01	2.096796e+05	
17	8.500000e-01	2.381837e+05	
18	9.000000e-01	2.755113e+05	
19	9.500000e-01	3.264657e+05	
20	1.000000e+00	4.000108e+05	
21	1.050000e+00	5.146920e+05	
22	1.100000e+00	7.138955e+05	
23	1.150000e+00	1.110435e+06	
24	1.200000e+00	1.982987e+06	
25	1.250000e+00	3.767156e+06	
26	1.300000e+00	6.633795e+06	
27	1.350000e+00	1.026695e+07	
28	1.400000e+00	1.422899e+07	
29	1.450000e+00	1.821814e+07	
30	1.500000e+00	2.207632e+07	
31	1.550000e+00	2.573415e+07	
32	1.600000e+00	2.916863e+07	
33	1.650000e+00	3.237931e+07	
34	1.700000e+00	3.537614e+07	
35	1.750000e+00	3.817328e+07	
36	1.800000e+00	4.078616e+07	
37	1.850000e+00	4.323000e+07	
38	1.900000e+00	4.551917e+07	
39	1.950000e+00	4.766690e+07	
40	2.000000e+00	4.968524e+07	
41	2.050000e+00	5.158509e+07	
42	2.100000e+00	5.337627e+07	
43	2.150000e+00	5.506764e+07	
44	2.200000e+00	5.666714e+07	
45	2.250000e+00	5.818195e+07	
46	2.300000e+00	5.961854e+07	
47	2.350000e+00	6.098274e+07	
48	2.400000e+00	6.227985e+07	
49	2.450000e+00	6.351466e+07	
50	2.500000e+00	6.469152e+07	
51	2.550000e+00	6.581437e+07	
52	2.600000e+00	6.688681e+07	
53	2.650000e+00	6.791211e+07	
54	2.700000e+00	6.889320e+07	

Index   v-sweep         rds             
--------------------------------------------------------------------------------
55	2.750000e+00	6.983273e+07	
56	2.800000e+00	7.073305e+07	
57	2.850000e+00	7.159616e+07	
58	2.900000e+00	7.242372e+07	
59	2.950000e+00	7.321700e+07	
60	3.000000e+00	7.397677e+07	
61	3.050000e+00	7.470328e+07	
62	3.100000e+00	7.539609e+07	
63	3.150000e+00	7.605400e+07	
64	3.200000e+00	7.667489e+07	
65	3.250000e+00	7.725560e+07	
66	3.300000e+00	7.779173e+07	
Reset re-loads circuit ***************************

Circuit: ***************************

Doing analysis at TEMP = -40.000000 and TNOM = -40.000000


No. of Data Rows : 67
                          ***************************
                          DC transfer characteristic  Mon Jan  9 13:58:14  2023
--------------------------------------------------------------------------------
Index   v-sweep         rds             
--------------------------------------------------------------------------------
0	0.000000e+00	5.856555e+04	
1	5.000000e-02	6.045130e+04	
2	1.000000e-01	6.245730e+04	
3	1.500000e-01	6.459545e+04	
4	2.000000e-01	6.687924e+04	
5	2.500000e-01	6.932405e+04	
6	3.000000e-01	7.194755e+04	
7	3.500000e-01	7.477006e+04	
8	4.000000e-01	7.781510e+04	
9	4.500000e-01	8.111008e+04	
10	5.000000e-01	8.468706e+04	
11	5.500000e-01	8.858386e+04	
12	6.000000e-01	9.284538e+04	
13	6.500000e-01	9.752530e+04	
14	7.000000e-01	1.026884e+05	
15	7.500000e-01	1.084136e+05	
16	8.000000e-01	1.147980e+05	
17	8.500000e-01	1.219622e+05	
18	9.000000e-01	1.300585e+05	
19	9.500000e-01	1.392812e+05	
20	1.000000e+00	1.498830e+05	
21	1.050000e+00	1.621980e+05	
22	1.100000e+00	1.766776e+05	
23	1.150000e+00	1.939469e+05	
24	1.200000e+00	2.148966e+05	
25	1.250000e+00	2.408402e+05	
26	1.300000e+00	2.737967e+05	
27	1.350000e+00	3.170292e+05	
28	1.400000e+00	3.761500e+05	
29	1.450000e+00	4.615694e+05	
30	1.500000e+00	5.943576e+05	
31	1.550000e+00	8.206816e+05	
32	1.600000e+00	1.242079e+06	
33	1.650000e+00	2.038661e+06	
34	1.700000e+00	3.380471e+06	
35	1.750000e+00	5.258510e+06	
36	1.800000e+00	7.502951e+06	
37	1.850000e+00	9.927069e+06	
38	1.900000e+00	1.239768e+07	
39	1.950000e+00	1.483547e+07	
40	2.000000e+00	1.719771e+07	
41	2.050000e+00	1.946348e+07	
42	2.100000e+00	2.162428e+07	
43	2.150000e+00	2.367859e+07	
44	2.200000e+00	2.562862e+07	
45	2.250000e+00	2.747859e+07	
46	2.300000e+00	2.923362e+07	
47	2.350000e+00	3.089925e+07	
48	2.400000e+00	3.248100e+07	
49	2.450000e+00	3.398426e+07	
50	2.500000e+00	3.541413e+07	
51	2.550000e+00	3.677545e+07	
52	2.600000e+00	3.807269e+07	
53	2.650000e+00	3.931005e+07	
54	2.700000e+00	4.049138e+07	

Index   v-sweep         rds             
--------------------------------------------------------------------------------
55	2.750000e+00	4.162025e+07	
56	2.800000e+00	4.269999e+07	
57	2.850000e+00	4.373362e+07	
58	2.900000e+00	4.472397e+07	
59	2.950000e+00	4.567364e+07	
60	3.000000e+00	4.658502e+07	
61	3.050000e+00	4.746031e+07	
62	3.100000e+00	4.830154e+07	
63	3.150000e+00	4.911055e+07	
64	3.200000e+00	4.988898e+07	
65	3.250000e+00	5.063826e+07	
66	3.300000e+00	5.135961e+07	
Reset re-loads circuit ***************************

Circuit: ***************************

Doing analysis at TEMP = -40.000000 and TNOM = -40.000000


No. of Data Rows : 67
                          ***************************
                          DC transfer characteristic  Mon Jan  9 13:58:14  2023
--------------------------------------------------------------------------------
Index   v-sweep         rds             
--------------------------------------------------------------------------------
0	0.000000e+00	5.209396e+04	
1	5.000000e-02	5.339428e+04	
2	1.000000e-01	5.475795e+04	
3	1.500000e-01	5.618968e+04	
4	2.000000e-01	5.769472e+04	
5	2.500000e-01	5.927884e+04	
6	3.000000e-01	6.094843e+04	
7	3.500000e-01	6.271060e+04	
8	4.000000e-01	6.457326e+04	
9	4.500000e-01	6.654527e+04	
10	5.000000e-01	6.863653e+04	
11	5.500000e-01	7.085821e+04	
12	6.000000e-01	7.322287e+04	
13	6.500000e-01	7.574480e+04	
14	7.000000e-01	7.844019e+04	
15	7.500000e-01	8.132760e+04	
16	8.000000e-01	8.442828e+04	
17	8.500000e-01	8.776676e+04	
18	9.000000e-01	9.137149e+04	
19	9.500000e-01	9.527564e+04	
20	1.000000e+00	9.951811e+04	
21	1.050000e+00	1.041449e+05	
22	1.100000e+00	1.092106e+05	
23	1.150000e+00	1.147809e+05	
24	1.200000e+00	1.209350e+05	
25	1.250000e+00	1.277698e+05	
26	1.300000e+00	1.354049e+05	
27	1.350000e+00	1.439895e+05	
28	1.400000e+00	1.537125e+05	
29	1.450000e+00	1.648162e+05	
30	1.500000e+00	1.776174e+05	
31	1.550000e+00	1.925373e+05	
32	1.600000e+00	2.101490e+05	
33	1.650000e+00	2.312527e+05	
34	1.700000e+00	2.569993e+05	
35	1.750000e+00	2.891058e+05	
36	1.800000e+00	3.302453e+05	
37	1.850000e+00	3.848017e+05	
38	1.900000e+00	4.604176e+05	
39	1.950000e+00	5.713404e+05	
40	2.000000e+00	7.456803e+05	
41	2.050000e+00	1.038817e+06	
42	2.100000e+00	1.544129e+06	
43	2.150000e+00	2.362645e+06	
44	2.200000e+00	3.525008e+06	
45	2.250000e+00	4.967074e+06	
46	2.300000e+00	6.586443e+06	
47	2.350000e+00	8.293425e+06	
48	2.400000e+00	1.002539e+07	
49	2.450000e+00	1.174294e+07	
50	2.500000e+00	1.342271e+07	
51	2.550000e+00	1.505159e+07	
52	2.600000e+00	1.662282e+07	
53	2.650000e+00	1.813355e+07	
54	2.700000e+00	1.958327e+07	

Index   v-sweep         rds             
--------------------------------------------------------------------------------
55	2.750000e+00	2.097294e+07	
56	2.800000e+00	2.230434e+07	
57	2.850000e+00	2.357970e+07	
58	2.900000e+00	2.480153e+07	
59	2.950000e+00	2.597240e+07	
60	3.000000e+00	2.709489e+07	
61	3.050000e+00	2.817152e+07	
62	3.100000e+00	2.920474e+07	
63	3.150000e+00	3.019687e+07	
64	3.200000e+00	3.115011e+07	
65	3.250000e+00	3.206655e+07	
66	3.300000e+00	3.294816e+07	
Reset re-loads circuit ***************************

Circuit: ***************************

Note: No ".plot", ".print", or ".fourier" lines; no simulations run
