
Note: Compatibility modes selected: hs

Warning: m=xx on .subckt line will override multiplier m hierarchy!


Circuit: ***************************

Doing analysis at TEMP = -40.000000 and TNOM = -40.000000


No. of Data Rows : 67
                          ***************************
                          DC transfer characteristic  Mon Jan  9 13:58:13  2023
--------------------------------------------------------------------------------
Index   v-sweep         rds             
--------------------------------------------------------------------------------
0	0.000000e+00	6.763428e+03	
1	5.000000e-02	1.614788e+04	
2	1.000000e-01	1.023465e+05	
3	1.500000e-01	5.215639e+05	
4	2.000000e-01	1.067169e+06	
5	2.500000e-01	1.481359e+06	
6	3.000000e-01	1.768479e+06	
7	3.500000e-01	1.972549e+06	
8	4.000000e-01	2.123728e+06	
9	4.500000e-01	2.239974e+06	
10	5.000000e-01	2.332122e+06	
11	5.500000e-01	2.406981e+06	
12	6.000000e-01	2.469019e+06	
13	6.500000e-01	2.521283e+06	
14	7.000000e-01	2.565919e+06	
15	7.500000e-01	2.604488e+06	
16	8.000000e-01	2.638148e+06	
17	8.500000e-01	2.667778e+06	
18	9.000000e-01	2.694060e+06	
19	9.500000e-01	2.717528e+06	
20	1.000000e+00	2.738609e+06	
21	1.050000e+00	2.757646e+06	
22	1.100000e+00	2.774921e+06	
23	1.150000e+00	2.790665e+06	
24	1.200000e+00	2.805070e+06	
25	1.250000e+00	2.818299e+06	
26	1.300000e+00	2.830488e+06	
27	1.350000e+00	2.841753e+06	
28	1.400000e+00	2.852193e+06	
29	1.450000e+00	2.861894e+06	
30	1.500000e+00	2.870931e+06	
31	1.550000e+00	2.879366e+06	
32	1.600000e+00	2.887256e+06	
33	1.650000e+00	2.894648e+06	
34	1.700000e+00	2.901583e+06	
35	1.750000e+00	2.908094e+06	
36	1.800000e+00	2.914209e+06	
37	1.850000e+00	2.919949e+06	
38	1.900000e+00	2.925325e+06	
39	1.950000e+00	2.930343e+06	
40	2.000000e+00	2.934998e+06	
41	2.050000e+00	2.939274e+06	
42	2.100000e+00	2.943145e+06	
43	2.150000e+00	2.946569e+06	
44	2.200000e+00	2.949492e+06	
45	2.250000e+00	2.951841e+06	
46	2.300000e+00	2.953525e+06	
47	2.350000e+00	2.954434e+06	
48	2.400000e+00	2.954436e+06	
49	2.450000e+00	2.953376e+06	
50	2.500000e+00	2.951080e+06	
51	2.550000e+00	2.947348e+06	
52	2.600000e+00	2.941959e+06	
53	2.650000e+00	2.934673e+06	
54	2.700000e+00	2.925232e+06	

Index   v-sweep         rds             
--------------------------------------------------------------------------------
55	2.750000e+00	2.913365e+06	
56	2.800000e+00	2.898792e+06	
57	2.850000e+00	2.881229e+06	
58	2.900000e+00	2.860399e+06	
59	2.950000e+00	2.836037e+06	
60	3.000000e+00	2.807901e+06	
61	3.050000e+00	2.775781e+06	
62	3.100000e+00	2.739508e+06	
63	3.150000e+00	2.698965e+06	
64	3.200000e+00	2.654097e+06	
65	3.250000e+00	2.604913e+06	
66	3.300000e+00	2.551495e+06	
Reset re-loads circuit ***************************

Circuit: ***************************

Doing analysis at TEMP = -40.000000 and TNOM = -40.000000


No. of Data Rows : 67
                          ***************************
                          DC transfer characteristic  Mon Jan  9 13:58:13  2023
--------------------------------------------------------------------------------
Index   v-sweep         rds             
--------------------------------------------------------------------------------
0	0.000000e+00	8.260747e+02	
1	5.000000e-02	9.365726e+02	
2	1.000000e-01	1.075714e+03	
3	1.500000e-01	1.256253e+03	
4	2.000000e-01	1.499855e+03	
5	2.500000e-01	1.846517e+03	
6	3.000000e-01	2.378890e+03	
7	3.500000e-01	3.295625e+03	
8	4.000000e-01	5.158332e+03	
9	4.500000e-01	9.521837e+03	
10	5.000000e-01	1.875396e+04	
11	5.500000e-01	3.315392e+04	
12	6.000000e-01	5.066016e+04	
13	6.500000e-01	6.923690e+04	
14	7.000000e-01	8.765807e+04	
15	7.500000e-01	1.053106e+05	
16	8.000000e-01	1.219302e+05	
17	8.500000e-01	1.374356e+05	
18	9.000000e-01	1.518372e+05	
19	9.500000e-01	1.651891e+05	
20	1.000000e+00	1.775645e+05	
21	1.050000e+00	1.890418e+05	
22	1.100000e+00	1.996986e+05	
23	1.150000e+00	2.096081e+05	
24	1.200000e+00	2.188380e+05	
25	1.250000e+00	2.274497e+05	
26	1.300000e+00	2.354988e+05	
27	1.350000e+00	2.430353e+05	
28	1.400000e+00	2.501040e+05	
29	1.450000e+00	2.567451e+05	
30	1.500000e+00	2.629946e+05	
31	1.550000e+00	2.688850e+05	
32	1.600000e+00	2.744452e+05	
33	1.650000e+00	2.797014e+05	
34	1.700000e+00	2.846771e+05	
35	1.750000e+00	2.893936e+05	
36	1.800000e+00	2.938700e+05	
37	1.850000e+00	2.981237e+05	
38	1.900000e+00	3.021701e+05	
39	1.950000e+00	3.060233e+05	
40	2.000000e+00	3.096954e+05	
41	2.050000e+00	3.131970e+05	
42	2.100000e+00	3.165370e+05	
43	2.150000e+00	3.197221e+05	
44	2.200000e+00	3.227566e+05	
45	2.250000e+00	3.256421e+05	
46	2.300000e+00	3.283766e+05	
47	2.350000e+00	3.309544e+05	
48	2.400000e+00	3.333647e+05	
49	2.450000e+00	3.355910e+05	
50	2.500000e+00	3.376106e+05	
51	2.550000e+00	3.393931e+05	
52	2.600000e+00	3.408998e+05	
53	2.650000e+00	3.420836e+05	
54	2.700000e+00	3.428877e+05	

Index   v-sweep         rds             
--------------------------------------------------------------------------------
55	2.750000e+00	3.432464e+05	
56	2.800000e+00	3.430855e+05	
57	2.850000e+00	3.423232e+05	
58	2.900000e+00	3.408729e+05	
59	2.950000e+00	3.386460e+05	
60	3.000000e+00	3.355559e+05	
61	3.050000e+00	3.315234e+05	
62	3.100000e+00	3.264818e+05	
63	3.150000e+00	3.203837e+05	
64	3.200000e+00	3.132057e+05	
65	3.250000e+00	3.049541e+05	
66	3.300000e+00	2.956676e+05	
Reset re-loads circuit ***************************

Circuit: ***************************

Doing analysis at TEMP = -40.000000 and TNOM = -40.000000


No. of Data Rows : 67
                          ***************************
                          DC transfer characteristic  Mon Jan  9 13:58:13  2023
--------------------------------------------------------------------------------
Index   v-sweep         rds             
--------------------------------------------------------------------------------
0	0.000000e+00	4.884064e+02	
1	5.000000e-02	5.250459e+02	
2	1.000000e-01	5.663302e+02	
3	1.500000e-01	6.131938e+02	
4	2.000000e-01	6.668419e+02	
5	2.500000e-01	7.288563e+02	
6	3.000000e-01	8.013585e+02	
7	3.500000e-01	8.872651e+02	
8	4.000000e-01	9.907100e+02	
9	4.500000e-01	1.117780e+03	
10	5.000000e-01	1.277890e+03	
11	5.500000e-01	1.486572e+03	
12	6.000000e-01	1.771801e+03	
13	6.500000e-01	2.189858e+03	
14	7.000000e-01	2.867048e+03	
15	7.500000e-01	4.089260e+03	
16	8.000000e-01	6.351029e+03	
17	8.500000e-01	1.006824e+04	
18	9.000000e-01	1.519746e+04	
19	9.500000e-01	2.136336e+04	
20	1.000000e+00	2.815780e+04	
21	1.050000e+00	3.526367e+04	
22	1.100000e+00	4.246231e+04	
23	1.150000e+00	4.961053e+04	
24	1.200000e+00	5.661759e+04	
25	1.250000e+00	6.342797e+04	
26	1.300000e+00	7.000956e+04	
27	1.350000e+00	7.634575e+04	
28	1.400000e+00	8.243014e+04	
29	1.450000e+00	8.826303e+04	
30	1.500000e+00	9.384900e+04	
31	1.550000e+00	9.919539e+04	
32	1.600000e+00	1.043111e+05	
33	1.650000e+00	1.092061e+05	
34	1.700000e+00	1.138907e+05	
35	1.750000e+00	1.183750e+05	
36	1.800000e+00	1.226695e+05	
37	1.850000e+00	1.267839e+05	
38	1.900000e+00	1.307279e+05	
39	1.950000e+00	1.345105e+05	
40	2.000000e+00	1.381404e+05	
41	2.050000e+00	1.416257e+05	
42	2.100000e+00	1.449742e+05	
43	2.150000e+00	1.481930e+05	
44	2.200000e+00	1.512889e+05	
45	2.250000e+00	1.542680e+05	
46	2.300000e+00	1.571358e+05	
47	2.350000e+00	1.598971e+05	
48	2.400000e+00	1.625559e+05	
49	2.450000e+00	1.651150e+05	
50	2.500000e+00	1.675757e+05	
51	2.550000e+00	1.699375e+05	
52	2.600000e+00	1.721978e+05	
53	2.650000e+00	1.743508e+05	
54	2.700000e+00	1.763871e+05	

Index   v-sweep         rds             
--------------------------------------------------------------------------------
55	2.750000e+00	1.782931e+05	
56	2.800000e+00	1.800496e+05	
57	2.850000e+00	1.816319e+05	
58	2.900000e+00	1.830079e+05	
59	2.950000e+00	1.841386e+05	
60	3.000000e+00	1.849772e+05	
61	3.050000e+00	1.854694e+05	
62	3.100000e+00	1.855542e+05	
63	3.150000e+00	1.851656e+05	
64	3.200000e+00	1.842351e+05	
65	3.250000e+00	1.826955e+05	
66	3.300000e+00	1.804850e+05	
Reset re-loads circuit ***************************

Circuit: ***************************

Doing analysis at TEMP = -40.000000 and TNOM = -40.000000


No. of Data Rows : 67
                          ***************************
                          DC transfer characteristic  Mon Jan  9 13:58:13  2023
--------------------------------------------------------------------------------
Index   v-sweep         rds             
--------------------------------------------------------------------------------
0	0.000000e+00	3.771906e+02	
1	5.000000e-02	3.973163e+02	
2	1.000000e-01	4.191332e+02	
3	1.500000e-01	4.428602e+02	
4	2.000000e-01	4.687558e+02	
5	2.500000e-01	4.971278e+02	
6	3.000000e-01	5.283457e+02	
7	3.500000e-01	5.628572e+02	
8	4.000000e-01	6.012106e+02	
9	4.500000e-01	6.440850e+02	
10	5.000000e-01	6.923339e+02	
11	5.500000e-01	7.470468e+02	
12	6.000000e-01	8.096422e+02	
13	6.500000e-01	8.820110e+02	
14	7.000000e-01	9.667521e+02	
15	7.500000e-01	1.067580e+03	
16	8.000000e-01	1.190086e+03	
17	8.500000e-01	1.343290e+03	
18	9.000000e-01	1.543065e+03	
19	9.500000e-01	1.820166e+03	
20	1.000000e+00	2.238569e+03	
21	1.050000e+00	2.927813e+03	
22	1.100000e+00	4.097408e+03	
23	1.150000e+00	5.950565e+03	
24	1.200000e+00	8.543133e+03	
25	1.250000e+00	1.177406e+04	
26	1.300000e+00	1.547997e+04	
27	1.350000e+00	1.950504e+04	
28	1.400000e+00	2.372425e+04	
29	1.450000e+00	2.804406e+04	
30	1.500000e+00	3.239664e+04	
31	1.550000e+00	3.673359e+04	
32	1.600000e+00	4.102085e+04	
33	1.650000e+00	4.523478e+04	
34	1.700000e+00	4.935930e+04	
35	1.750000e+00	5.338386e+04	
36	1.800000e+00	5.730192e+04	
37	1.850000e+00	6.110987e+04	
38	1.900000e+00	6.480621e+04	
39	1.950000e+00	6.839101e+04	
40	2.000000e+00	7.186543e+04	
41	2.050000e+00	7.523142e+04	
42	2.100000e+00	7.849152e+04	
43	2.150000e+00	8.164860e+04	
44	2.200000e+00	8.470580e+04	
45	2.250000e+00	8.766640e+04	
46	2.300000e+00	9.053373e+04	
47	2.350000e+00	9.331115e+04	
48	2.400000e+00	9.600197e+04	
49	2.450000e+00	9.860942e+04	
50	2.500000e+00	1.011366e+05	
51	2.550000e+00	1.035864e+05	
52	2.600000e+00	1.059614e+05	
53	2.650000e+00	1.082639e+05	
54	2.700000e+00	1.104956e+05	

Index   v-sweep         rds             
--------------------------------------------------------------------------------
55	2.750000e+00	1.126574e+05	
56	2.800000e+00	1.147491e+05	
57	2.850000e+00	1.167691e+05	
58	2.900000e+00	1.187141e+05	
59	2.950000e+00	1.205779e+05	
60	3.000000e+00	1.223516e+05	
61	3.050000e+00	1.240224e+05	
62	3.100000e+00	1.255725e+05	
63	3.150000e+00	1.269791e+05	
64	3.200000e+00	1.282132e+05	
65	3.250000e+00	1.292389e+05	
66	3.300000e+00	1.300137e+05	
Reset re-loads circuit ***************************

Circuit: ***************************

Doing analysis at TEMP = -40.000000 and TNOM = -40.000000


No. of Data Rows : 67
                          ***************************
                          DC transfer characteristic  Mon Jan  9 13:58:13  2023
--------------------------------------------------------------------------------
Index   v-sweep         rds             
--------------------------------------------------------------------------------
0	0.000000e+00	3.270594e+02	
1	5.000000e-02	3.406813e+02	
2	1.000000e-01	3.551593e+02	
3	1.500000e-01	3.705748e+02	
4	2.000000e-01	3.870198e+02	
5	2.500000e-01	4.045991e+02	
6	3.000000e-01	4.234322e+02	
7	3.500000e-01	4.436561e+02	
8	4.000000e-01	4.654287e+02	
9	4.500000e-01	4.889331e+02	
10	5.000000e-01	5.143831e+02	
11	5.500000e-01	5.420296e+02	
12	6.000000e-01	5.721694e+02	
13	6.500000e-01	6.051573e+02	
14	7.000000e-01	6.414207e+02	
15	7.500000e-01	6.814815e+02	
16	8.000000e-01	7.259851e+02	
17	8.500000e-01	7.757436e+02	
18	9.000000e-01	8.318009e+02	
19	9.500000e-01	8.955346e+02	
20	1.000000e+00	9.688278e+02	
21	1.050000e+00	1.054373e+03	
22	1.100000e+00	1.156249e+03	
23	1.150000e+00	1.281098e+03	
24	1.200000e+00	1.440621e+03	
25	1.250000e+00	1.656998e+03	
26	1.300000e+00	1.973696e+03	
27	1.350000e+00	2.471156e+03	
28	1.400000e+00	3.270010e+03	
29	1.450000e+00	4.489054e+03	
30	1.500000e+00	6.177985e+03	
31	1.550000e+00	8.301498e+03	
32	1.600000e+00	1.077767e+04	
33	1.650000e+00	1.351680e+04	
34	1.700000e+00	1.643993e+04	
35	1.750000e+00	1.948352e+04	
36	1.800000e+00	2.259842e+04	
37	1.850000e+00	2.574732e+04	
38	1.900000e+00	2.890219e+04	
39	1.950000e+00	3.204211e+04	
40	2.000000e+00	3.515154e+04	
41	2.050000e+00	3.821909e+04	
42	2.100000e+00	4.123647e+04	
43	2.150000e+00	4.419780e+04	
44	2.200000e+00	4.709900e+04	
45	2.250000e+00	4.993742e+04	
46	2.300000e+00	5.271147e+04	
47	2.350000e+00	5.542037e+04	
48	2.400000e+00	5.806401e+04	
49	2.450000e+00	6.064272e+04	
50	2.500000e+00	6.315723e+04	
51	2.550000e+00	6.560852e+04	
52	2.600000e+00	6.799778e+04	
53	2.650000e+00	7.032635e+04	
54	2.700000e+00	7.259565e+04	

Index   v-sweep         rds             
--------------------------------------------------------------------------------
55	2.750000e+00	7.480715e+04	
56	2.800000e+00	7.696231e+04	
57	2.850000e+00	7.906254e+04	
58	2.900000e+00	8.110908e+04	
59	2.950000e+00	8.310294e+04	
60	3.000000e+00	8.504469e+04	
61	3.050000e+00	8.693433e+04	
62	3.100000e+00	8.877095e+04	
63	3.150000e+00	9.055242e+04	
64	3.200000e+00	9.227495e+04	
65	3.250000e+00	9.393254e+04	
66	3.300000e+00	9.551636e+04	
Reset re-loads circuit ***************************

Circuit: ***************************

Doing analysis at TEMP = -40.000000 and TNOM = -40.000000


No. of Data Rows : 67
                          ***************************
                          DC transfer characteristic  Mon Jan  9 13:58:13  2023
--------------------------------------------------------------------------------
Index   v-sweep         rds             
--------------------------------------------------------------------------------
0	0.000000e+00	3.012689e+02	
1	5.000000e-02	3.115370e+02	
2	1.000000e-01	3.223186e+02	
3	1.500000e-01	3.336522e+02	
4	2.000000e-01	3.455799e+02	
5	2.500000e-01	3.581487e+02	
6	3.000000e-01	3.714104e+02	
7	3.500000e-01	3.854227e+02	
8	4.000000e-01	4.002500e+02	
9	4.500000e-01	4.159642e+02	
10	5.000000e-01	4.326460e+02	
11	5.500000e-01	4.503867e+02	
12	6.000000e-01	4.692891e+02	
13	6.500000e-01	4.894702e+02	
14	7.000000e-01	5.110637e+02	
15	7.500000e-01	5.342229e+02	
16	8.000000e-01	5.591248e+02	
17	8.500000e-01	5.859750e+02	
18	9.000000e-01	6.150145e+02	
19	9.500000e-01	6.465278e+02	
20	1.000000e+00	6.808542e+02	
21	1.050000e+00	7.184040e+02	
22	1.100000e+00	7.596804e+02	
23	1.150000e+00	8.053122e+02	
24	1.200000e+00	8.561044e+02	
25	1.250000e+00	9.131194e+02	
26	1.300000e+00	9.778137e+02	
27	1.350000e+00	1.052283e+03	
28	1.400000e+00	1.139726e+03	
29	1.450000e+00	1.245348e+03	
30	1.500000e+00	1.378204e+03	
31	1.550000e+00	1.554868e+03	
32	1.600000e+00	1.806067e+03	
33	1.650000e+00	2.185353e+03	
34	1.700000e+00	2.770718e+03	
35	1.750000e+00	3.643149e+03	
36	1.800000e+00	4.848398e+03	
37	1.850000e+00	6.379493e+03	
38	1.900000e+00	8.192235e+03	
39	1.950000e+00	1.022925e+04	
40	2.000000e+00	1.243519e+04	
41	2.050000e+00	1.476269e+04	
42	2.100000e+00	1.717336e+04	
43	2.150000e+00	1.963691e+04	
44	2.200000e+00	2.212968e+04	
45	2.250000e+00	2.463337e+04	
46	2.300000e+00	2.713382e+04	
47	2.350000e+00	2.962017e+04	
48	2.400000e+00	3.208408e+04	
49	2.450000e+00	3.451921e+04	
50	2.500000e+00	3.692077e+04	
51	2.550000e+00	3.928522e+04	
52	2.600000e+00	4.160997e+04	
53	2.650000e+00	4.389320e+04	
54	2.700000e+00	4.613369e+04	

Index   v-sweep         rds             
--------------------------------------------------------------------------------
55	2.750000e+00	4.833071e+04	
56	2.800000e+00	5.048389e+04	
57	2.850000e+00	5.259320e+04	
58	2.900000e+00	5.465880e+04	
59	2.950000e+00	5.668107e+04	
60	3.000000e+00	5.866050e+04	
61	3.050000e+00	6.059769e+04	
62	3.100000e+00	6.249328e+04	
63	3.150000e+00	6.434791e+04	
64	3.200000e+00	6.616212e+04	
65	3.250000e+00	6.793630e+04	
66	3.300000e+00	6.967053e+04	
Reset re-loads circuit ***************************

Circuit: ***************************

Note: No ".plot", ".print", or ".fourier" lines; no simulations run
