
Note: Compatibility modes selected: hs

Warning: m=xx on .subckt line will override multiplier m hierarchy!


Circuit: ***************************

Doing analysis at TEMP = -40.000000 and TNOM = -40.000000


No. of Data Rows : 67
                          ***************************
                          DC transfer characteristic  Mon Jan  9 13:58:14  2023
--------------------------------------------------------------------------------
Index   v-sweep         rds             
--------------------------------------------------------------------------------
0	0.000000e+00	1.043177e+05	
1	5.000000e-02	1.811129e+05	
2	1.000000e-01	4.380039e+05	
3	1.500000e-01	1.331936e+06	
4	2.000000e-01	2.830859e+06	
5	2.500000e-01	4.269912e+06	
6	3.000000e-01	5.477978e+06	
7	3.500000e-01	6.492638e+06	
8	4.000000e-01	7.360015e+06	
9	4.500000e-01	8.112852e+06	
10	5.000000e-01	8.773905e+06	
11	5.500000e-01	9.359606e+06	
12	6.000000e-01	9.882301e+06	
13	6.500000e-01	1.035157e+07	
14	7.000000e-01	1.077502e+07	
15	7.500000e-01	1.115884e+07	
16	8.000000e-01	1.150808e+07	
17	8.500000e-01	1.182699e+07	
18	9.000000e-01	1.211911e+07	
19	9.500000e-01	1.238747e+07	
20	1.000000e+00	1.263463e+07	
21	1.050000e+00	1.286282e+07	
22	1.100000e+00	1.307395e+07	
23	1.150000e+00	1.326970e+07	
24	1.200000e+00	1.345154e+07	
25	1.250000e+00	1.362073e+07	
26	1.300000e+00	1.377842e+07	
27	1.350000e+00	1.392560e+07	
28	1.400000e+00	1.406317e+07	
29	1.450000e+00	1.419192e+07	
30	1.500000e+00	1.431256e+07	
31	1.550000e+00	1.442573e+07	
32	1.600000e+00	1.453199e+07	
33	1.650000e+00	1.463186e+07	
34	1.700000e+00	1.472578e+07	
35	1.750000e+00	1.481417e+07	
36	1.800000e+00	1.489737e+07	
37	1.850000e+00	1.497569e+07	
38	1.900000e+00	1.504938e+07	
39	1.950000e+00	1.511864e+07	
40	2.000000e+00	1.518360e+07	
41	2.050000e+00	1.524433e+07	
42	2.100000e+00	1.530083e+07	
43	2.150000e+00	1.535301e+07	
44	2.200000e+00	1.540069e+07	
45	2.250000e+00	1.544357e+07	
46	2.300000e+00	1.548126e+07	
47	2.350000e+00	1.551323e+07	
48	2.400000e+00	1.553881e+07	
49	2.450000e+00	1.555720e+07	
50	2.500000e+00	1.556744e+07	
51	2.550000e+00	1.556842e+07	
52	2.600000e+00	1.555889e+07	
53	2.650000e+00	1.553746e+07	
54	2.700000e+00	1.550261e+07	

Index   v-sweep         rds             
--------------------------------------------------------------------------------
55	2.750000e+00	1.545271e+07	
56	2.800000e+00	1.538608e+07	
57	2.850000e+00	1.530098e+07	
58	2.900000e+00	1.519571e+07	
59	2.950000e+00	1.506862e+07	
60	3.000000e+00	1.491823e+07	
61	3.050000e+00	1.474321e+07	
62	3.100000e+00	1.454256e+07	
63	3.150000e+00	1.431557e+07	
64	3.200000e+00	1.406197e+07	
65	3.250000e+00	1.378190e+07	
66	3.300000e+00	1.347602e+07	
Reset re-loads circuit ***************************

Circuit: ***************************

Doing analysis at TEMP = -40.000000 and TNOM = -40.000000


No. of Data Rows : 67
                          ***************************
                          DC transfer characteristic  Mon Jan  9 13:58:14  2023
--------------------------------------------------------------------------------
Index   v-sweep         rds             
--------------------------------------------------------------------------------
0	0.000000e+00	1.831949e+04	
1	5.000000e-02	2.076923e+04	
2	1.000000e-01	2.376510e+04	
3	1.500000e-01	2.750875e+04	
4	2.000000e-01	3.231449e+04	
5	2.500000e-01	3.869920e+04	
6	3.000000e-01	4.756927e+04	
7	3.500000e-01	6.062502e+04	
8	4.000000e-01	8.115230e+04	
9	4.500000e-01	1.146748e+05	
10	5.000000e-01	1.663328e+05	
11	5.500000e-01	2.350460e+05	
12	6.000000e-01	3.145028e+05	
13	6.500000e-01	3.988201e+05	
14	7.000000e-01	4.844130e+05	
15	7.500000e-01	5.693796e+05	
16	8.000000e-01	6.527480e+05	
17	8.500000e-01	7.340317e+05	
18	9.000000e-01	8.130009e+05	
19	9.500000e-01	8.895649e+05	
20	1.000000e+00	9.637107e+05	
21	1.050000e+00	1.035469e+06	
22	1.100000e+00	1.104897e+06	
23	1.150000e+00	1.172065e+06	
24	1.200000e+00	1.237049e+06	
25	1.250000e+00	1.299932e+06	
26	1.300000e+00	1.360793e+06	
27	1.350000e+00	1.419716e+06	
28	1.400000e+00	1.476777e+06	
29	1.450000e+00	1.532054e+06	
30	1.500000e+00	1.585620e+06	
31	1.550000e+00	1.637545e+06	
32	1.600000e+00	1.687898e+06	
33	1.650000e+00	1.736743e+06	
34	1.700000e+00	1.784141e+06	
35	1.750000e+00	1.830152e+06	
36	1.800000e+00	1.874830e+06	
37	1.850000e+00	1.918228e+06	
38	1.900000e+00	1.960396e+06	
39	1.950000e+00	2.001380e+06	
40	2.000000e+00	2.041223e+06	
41	2.050000e+00	2.079962e+06	
42	2.100000e+00	2.117630e+06	
43	2.150000e+00	2.154251e+06	
44	2.200000e+00	2.189841e+06	
45	2.250000e+00	2.224402e+06	
46	2.300000e+00	2.257922e+06	
47	2.350000e+00	2.290367e+06	
48	2.400000e+00	2.321681e+06	
49	2.450000e+00	2.351774e+06	
50	2.500000e+00	2.380522e+06	
51	2.550000e+00	2.407754e+06	
52	2.600000e+00	2.433251e+06	
53	2.650000e+00	2.456736e+06	
54	2.700000e+00	2.477869e+06	

Index   v-sweep         rds             
--------------------------------------------------------------------------------
55	2.750000e+00	2.496244e+06	
56	2.800000e+00	2.511387e+06	
57	2.850000e+00	2.522754e+06	
58	2.900000e+00	2.529745e+06	
59	2.950000e+00	2.531708e+06	
60	3.000000e+00	2.527965e+06	
61	3.050000e+00	2.517833e+06	
62	3.100000e+00	2.500659e+06	
63	3.150000e+00	2.475859e+06	
64	3.200000e+00	2.442961e+06	
65	3.250000e+00	2.401649e+06	
66	3.300000e+00	2.351801e+06	
Reset re-loads circuit ***************************

Circuit: ***************************

Doing analysis at TEMP = -40.000000 and TNOM = -40.000000


No. of Data Rows : 67
                          ***************************
                          DC transfer characteristic  Mon Jan  9 13:58:14  2023
--------------------------------------------------------------------------------
Index   v-sweep         rds             
--------------------------------------------------------------------------------
0	0.000000e+00	1.158358e+04	
1	5.000000e-02	1.257270e+04	
2	1.000000e-01	1.368424e+04	
3	1.500000e-01	1.494170e+04	
4	2.000000e-01	1.637507e+04	
5	2.500000e-01	1.802334e+04	
6	3.000000e-01	1.993822e+04	
7	3.500000e-01	2.219013e+04	
8	4.000000e-01	2.487812e+04	
9	4.500000e-01	2.814772e+04	
10	5.000000e-01	3.222525e+04	
11	5.500000e-01	3.748842e+04	
12	6.000000e-01	4.461065e+04	
13	6.500000e-01	5.479763e+04	
14	7.000000e-01	6.988128e+04	
15	7.500000e-01	9.158270e+04	
16	8.000000e-01	1.201413e+05	
17	8.500000e-01	1.541800e+05	
18	9.000000e-01	1.918451e+05	
19	9.500000e-01	2.316151e+05	
20	1.000000e+00	2.724486e+05	
21	1.050000e+00	3.136770e+05	
22	1.100000e+00	3.548773e+05	
23	1.150000e+00	3.957816e+05	
24	1.200000e+00	4.362189e+05	
25	1.250000e+00	4.760806e+05	
26	1.300000e+00	5.152978e+05	
27	1.350000e+00	5.538284e+05	
28	1.400000e+00	5.916485e+05	
29	1.450000e+00	6.287460e+05	
30	1.500000e+00	6.651177e+05	
31	1.550000e+00	7.007662e+05	
32	1.600000e+00	7.356984e+05	
33	1.650000e+00	7.699240e+05	
34	1.700000e+00	8.034548e+05	
35	1.750000e+00	8.363040e+05	
36	1.800000e+00	8.684858e+05	
37	1.850000e+00	9.000150e+05	
38	1.900000e+00	9.309066e+05	
39	1.950000e+00	9.611759e+05	
40	2.000000e+00	9.908379e+05	
41	2.050000e+00	1.019908e+06	
42	2.100000e+00	1.048400e+06	
43	2.150000e+00	1.076328e+06	
44	2.200000e+00	1.103706e+06	
45	2.250000e+00	1.130544e+06	
46	2.300000e+00	1.156852e+06	
47	2.350000e+00	1.182636e+06	
48	2.400000e+00	1.207897e+06	
49	2.450000e+00	1.232630e+06	
50	2.500000e+00	1.256821e+06	
51	2.550000e+00	1.280443e+06	
52	2.600000e+00	1.303454e+06	
53	2.650000e+00	1.325793e+06	
54	2.700000e+00	1.347373e+06	

Index   v-sweep         rds             
--------------------------------------------------------------------------------
55	2.750000e+00	1.368075e+06	
56	2.800000e+00	1.387746e+06	
57	2.850000e+00	1.406189e+06	
58	2.900000e+00	1.423161e+06	
59	2.950000e+00	1.438363e+06	
60	3.000000e+00	1.451444e+06	
61	3.050000e+00	1.461998e+06	
62	3.100000e+00	1.469568e+06	
63	3.150000e+00	1.473655e+06	
64	3.200000e+00	1.473735e+06	
65	3.250000e+00	1.469279e+06	
66	3.300000e+00	1.459785e+06	
Reset re-loads circuit ***************************

Circuit: ***************************

Doing analysis at TEMP = -40.000000 and TNOM = -40.000000


No. of Data Rows : 67
                          ***************************
                          DC transfer characteristic  Mon Jan  9 13:58:14  2023
--------------------------------------------------------------------------------
Index   v-sweep         rds             
--------------------------------------------------------------------------------
0	0.000000e+00	8.894043e+03	
1	5.000000e-02	9.462741e+03	
2	1.000000e-01	1.008009e+04	
3	1.500000e-01	1.075231e+04	
4	2.000000e-01	1.148673e+04	
5	2.500000e-01	1.229211e+04	
6	3.000000e-01	1.317894e+04	
7	3.500000e-01	1.416000e+04	
8	4.000000e-01	1.525100e+04	
9	4.500000e-01	1.647162e+04	
10	5.000000e-01	1.784696e+04	
11	5.500000e-01	1.940996e+04	
12	6.000000e-01	2.120547e+04	
13	6.500000e-01	2.329753e+04	
14	7.000000e-01	2.578363e+04	
15	7.500000e-01	2.882333e+04	
16	8.000000e-01	3.269482e+04	
17	8.500000e-01	3.789134e+04	
18	9.000000e-01	4.521474e+04	
19	9.500000e-01	5.567333e+04	
20	1.000000e+00	7.000167e+04	
21	1.050000e+00	8.818201e+04	
22	1.100000e+00	1.095419e+05	
23	1.150000e+00	1.332054e+05	
24	1.200000e+00	1.584038e+05	
25	1.250000e+00	1.845601e+05	
26	1.300000e+00	2.112683e+05	
27	1.350000e+00	2.382485e+05	
28	1.400000e+00	2.653077e+05	
29	1.450000e+00	2.923122e+05	
30	1.500000e+00	3.191687e+05	
31	1.550000e+00	3.458116e+05	
32	1.600000e+00	3.721945e+05	
33	1.650000e+00	3.982847e+05	
34	1.700000e+00	4.240595e+05	
35	1.750000e+00	4.495032e+05	
36	1.800000e+00	4.746054e+05	
37	1.850000e+00	4.993598e+05	
38	1.900000e+00	5.237627e+05	
39	1.950000e+00	5.478131e+05	
40	2.000000e+00	5.715114e+05	
41	2.050000e+00	5.948593e+05	
42	2.100000e+00	6.178596e+05	
43	2.150000e+00	6.405159e+05	
44	2.200000e+00	6.628322e+05	
45	2.250000e+00	6.848129e+05	
46	2.300000e+00	7.064628e+05	
47	2.350000e+00	7.277865e+05	
48	2.400000e+00	7.487885e+05	
49	2.450000e+00	7.694725e+05	
50	2.500000e+00	7.898413e+05	
51	2.550000e+00	8.098957e+05	
52	2.600000e+00	8.296337e+05	
53	2.650000e+00	8.490490e+05	
54	2.700000e+00	8.681291e+05	

Index   v-sweep         rds             
--------------------------------------------------------------------------------
55	2.750000e+00	8.868533e+05	
56	2.800000e+00	9.051892e+05	
57	2.850000e+00	9.230897e+05	
58	2.900000e+00	9.404887e+05	
59	2.950000e+00	9.572962e+05	
60	3.000000e+00	9.733933e+05	
61	3.050000e+00	9.886269e+05	
62	3.100000e+00	1.002804e+06	
63	3.150000e+00	1.015690e+06	
64	3.200000e+00	1.026999e+06	
65	3.250000e+00	1.036400e+06	
66	3.300000e+00	1.043518e+06	
Reset re-loads circuit ***************************

Circuit: ***************************

Doing analysis at TEMP = -40.000000 and TNOM = -40.000000


No. of Data Rows : 67
                          ***************************
                          DC transfer characteristic  Mon Jan  9 13:58:14  2023
--------------------------------------------------------------------------------
Index   v-sweep         rds             
--------------------------------------------------------------------------------
0	0.000000e+00	7.632670e+03	
1	5.000000e-02	8.031501e+03	
2	1.000000e-01	8.456960e+03	
3	1.500000e-01	8.911635e+03	
4	2.000000e-01	9.398473e+03	
5	2.500000e-01	9.920838e+03	
6	3.000000e-01	1.048259e+04	
7	3.500000e-01	1.108821e+04	
8	4.000000e-01	1.174287e+04	
9	4.500000e-01	1.245269e+04	
10	5.000000e-01	1.322486e+04	
11	5.500000e-01	1.406804e+04	
12	6.000000e-01	1.499277e+04	
13	6.500000e-01	1.601209e+04	
14	7.000000e-01	1.714265e+04	
15	7.500000e-01	1.840641e+04	
16	8.000000e-01	1.983364e+04	
17	8.500000e-01	2.146859e+04	
18	9.000000e-01	2.338017e+04	
19	9.500000e-01	2.568262e+04	
20	1.000000e+00	2.857330e+04	
21	1.050000e+00	3.238999e+04	
22	1.100000e+00	3.765820e+04	
23	1.150000e+00	4.503017e+04	
24	1.200000e+00	5.503128e+04	
25	1.250000e+00	6.777732e+04	
26	1.300000e+00	8.295641e+04	
27	1.350000e+00	1.000473e+05	
28	1.400000e+00	1.185274e+05	
29	1.450000e+00	1.379668e+05	
30	1.500000e+00	1.580409e+05	
31	1.550000e+00	1.785136e+05	
32	1.600000e+00	1.992150e+05	
33	1.650000e+00	2.200226e+05	
34	1.700000e+00	2.408477e+05	
35	1.750000e+00	2.616252e+05	
36	1.800000e+00	2.823076e+05	
37	1.850000e+00	3.028593e+05	
38	1.900000e+00	3.232542e+05	
39	1.950000e+00	3.434727e+05	
40	2.000000e+00	3.635002e+05	
41	2.050000e+00	3.833261e+05	
42	2.100000e+00	4.029426e+05	
43	2.150000e+00	4.223443e+05	
44	2.200000e+00	4.415274e+05	
45	2.250000e+00	4.604898e+05	
46	2.300000e+00	4.792301e+05	
47	2.350000e+00	4.977480e+05	
48	2.400000e+00	5.160439e+05	
49	2.450000e+00	5.341185e+05	
50	2.500000e+00	5.519732e+05	
51	2.550000e+00	5.696091e+05	
52	2.600000e+00	5.870276e+05	
53	2.650000e+00	6.042297e+05	
54	2.700000e+00	6.212153e+05	

Index   v-sweep         rds             
--------------------------------------------------------------------------------
55	2.750000e+00	6.379832e+05	
56	2.800000e+00	6.545295e+05	
57	2.850000e+00	6.708470e+05	
58	2.900000e+00	6.869230e+05	
59	2.950000e+00	7.027378e+05	
60	3.000000e+00	7.182615e+05	
61	3.050000e+00	7.334513e+05	
62	3.100000e+00	7.482474e+05	
63	3.150000e+00	7.625687e+05	
64	3.200000e+00	7.763084e+05	
65	3.250000e+00	7.893286e+05	
66	3.300000e+00	8.014557e+05	
Reset re-loads circuit ***************************

Circuit: ***************************

Doing analysis at TEMP = -40.000000 and TNOM = -40.000000


No. of Data Rows : 67
                          ***************************
                          DC transfer characteristic  Mon Jan  9 13:58:14  2023
--------------------------------------------------------------------------------
Index   v-sweep         rds             
--------------------------------------------------------------------------------
0	0.000000e+00	6.859368e+03	
1	5.000000e-02	7.162945e+03	
2	1.000000e-01	7.483151e+03	
3	1.500000e-01	7.821287e+03	
4	2.000000e-01	8.178800e+03	
5	2.500000e-01	8.557298e+03	
6	3.000000e-01	8.958579e+03	
7	3.500000e-01	9.384659e+03	
8	4.000000e-01	9.837807e+03	
9	4.500000e-01	1.032059e+04	
10	5.000000e-01	1.083593e+04	
11	5.500000e-01	1.138716e+04	
12	6.000000e-01	1.197815e+04	
13	6.500000e-01	1.261337e+04	
14	7.000000e-01	1.329812e+04	
15	7.500000e-01	1.403872e+04	
16	8.000000e-01	1.484285e+04	
17	8.500000e-01	1.572015e+04	
18	9.000000e-01	1.668305e+04	
19	9.500000e-01	1.774827e+04	
20	1.000000e+00	1.893946e+04	
21	1.050000e+00	2.029203e+04	
22	1.100000e+00	2.186206e+04	
23	1.150000e+00	2.374239e+04	
24	1.200000e+00	2.608981e+04	
25	1.250000e+00	2.916186e+04	
26	1.300000e+00	3.334108e+04	
27	1.350000e+00	3.908967e+04	
28	1.400000e+00	4.679353e+04	
29	1.450000e+00	5.658437e+04	
30	1.500000e+00	6.830324e+04	
31	1.550000e+00	8.161612e+04	
32	1.600000e+00	9.615208e+04	
33	1.650000e+00	1.115828e+05	
34	1.700000e+00	1.276466e+05	
35	1.750000e+00	1.441446e+05	
36	1.800000e+00	1.609289e+05	
37	1.850000e+00	1.778896e+05	
38	1.900000e+00	1.949452e+05	
39	1.950000e+00	2.120345e+05	
40	2.000000e+00	2.291115e+05	
41	2.050000e+00	2.461413e+05	
42	2.100000e+00	2.630972e+05	
43	2.150000e+00	2.799586e+05	
44	2.200000e+00	2.967100e+05	
45	2.250000e+00	3.133390e+05	
46	2.300000e+00	3.298362e+05	
47	2.350000e+00	3.461947e+05	
48	2.400000e+00	3.624088e+05	
49	2.450000e+00	3.784745e+05	
50	2.500000e+00	3.943890e+05	
51	2.550000e+00	4.101499e+05	
52	2.600000e+00	4.257560e+05	
53	2.650000e+00	4.412065e+05	
54	2.700000e+00	4.565008e+05	

Index   v-sweep         rds             
--------------------------------------------------------------------------------
55	2.750000e+00	4.716386e+05	
56	2.800000e+00	4.866199e+05	
57	2.850000e+00	5.014441e+05	
58	2.900000e+00	5.161100e+05	
59	2.950000e+00	5.306153e+05	
60	3.000000e+00	5.449555e+05	
61	3.050000e+00	5.591229e+05	
62	3.100000e+00	5.731054e+05	
63	3.150000e+00	5.868839e+05	
64	3.200000e+00	6.004308e+05	
65	3.250000e+00	6.137064e+05	
66	3.300000e+00	6.266554e+05	
Reset re-loads circuit ***************************

Circuit: ***************************

Note: No ".plot", ".print", or ".fourier" lines; no simulations run
