
Note: Compatibility modes selected: hs

Warning: m=xx on .subckt line will override multiplier m hierarchy!


Circuit: ***************************

Doing analysis at TEMP = -40.000000 and TNOM = -40.000000


No. of Data Rows : 67
                          ***************************
                          DC transfer characteristic  Mon Jan  9 13:58:14  2023
--------------------------------------------------------------------------------
Index   v-sweep         rds             
--------------------------------------------------------------------------------
0	0.000000e+00	5.547998e+04	
1	5.000000e-02	1.429421e+05	
2	1.000000e-01	6.509307e+05	
3	1.500000e-01	1.934108e+06	
4	2.000000e-01	3.227485e+06	
5	2.500000e-01	4.209603e+06	
6	3.000000e-01	4.945274e+06	
7	3.500000e-01	5.514232e+06	
8	4.000000e-01	5.967943e+06	
9	4.500000e-01	6.338545e+06	
10	5.000000e-01	6.646926e+06	
11	5.500000e-01	6.907300e+06	
12	6.000000e-01	7.129739e+06	
13	6.500000e-01	7.321611e+06	
14	7.000000e-01	7.488460e+06	
15	7.500000e-01	7.634543e+06	
16	8.000000e-01	7.763197e+06	
17	8.500000e-01	7.877075e+06	
18	9.000000e-01	7.978315e+06	
19	9.500000e-01	8.068663e+06	
20	1.000000e+00	8.149558e+06	
21	1.050000e+00	8.222198e+06	
22	1.100000e+00	8.287587e+06	
23	1.150000e+00	8.346576e+06	
24	1.200000e+00	8.399886e+06	
25	1.250000e+00	8.448139e+06	
26	1.300000e+00	8.491869e+06	
27	1.350000e+00	8.531537e+06	
28	1.400000e+00	8.567546e+06	
29	1.450000e+00	8.600249e+06	
30	1.500000e+00	8.629953e+06	
31	1.550000e+00	8.656929e+06	
32	1.600000e+00	8.681416e+06	
33	1.650000e+00	8.703623e+06	
34	1.700000e+00	8.723732e+06	
35	1.750000e+00	8.741901e+06	
36	1.800000e+00	8.758264e+06	
37	1.850000e+00	8.772931e+06	
38	1.900000e+00	8.785985e+06	
39	1.950000e+00	8.797485e+06	
40	2.000000e+00	8.807459e+06	
41	2.050000e+00	8.815907e+06	
42	2.100000e+00	8.822788e+06	
43	2.150000e+00	8.828027e+06	
44	2.200000e+00	8.831502e+06	
45	2.250000e+00	8.833046e+06	
46	2.300000e+00	8.832439e+06	
47	2.350000e+00	8.829404e+06	
48	2.400000e+00	8.823607e+06	
49	2.450000e+00	8.814651e+06	
50	2.500000e+00	8.802074e+06	
51	2.550000e+00	8.785352e+06	
52	2.600000e+00	8.763899e+06	
53	2.650000e+00	8.737071e+06	
54	2.700000e+00	8.704173e+06	

Index   v-sweep         rds             
--------------------------------------------------------------------------------
55	2.750000e+00	8.664468e+06	
56	2.800000e+00	8.617190e+06	
57	2.850000e+00	8.561558e+06	
58	2.900000e+00	8.496800e+06	
59	2.950000e+00	8.422167e+06	
60	3.000000e+00	8.336968e+06	
61	3.050000e+00	8.240586e+06	
62	3.100000e+00	8.132514e+06	
63	3.150000e+00	8.012376e+06	
64	3.200000e+00	7.879957e+06	
65	3.250000e+00	7.735217e+06	
66	3.300000e+00	7.578318e+06	
Reset re-loads circuit ***************************

Circuit: ***************************

Doing analysis at TEMP = -40.000000 and TNOM = -40.000000


No. of Data Rows : 67
                          ***************************
                          DC transfer characteristic  Mon Jan  9 13:58:14  2023
--------------------------------------------------------------------------------
Index   v-sweep         rds             
--------------------------------------------------------------------------------
0	0.000000e+00	5.459678e+03	
1	5.000000e-02	6.269205e+03	
2	1.000000e-01	7.292119e+03	
3	1.500000e-01	8.624007e+03	
4	2.000000e-01	1.042671e+04	
5	2.500000e-01	1.299500e+04	
6	3.000000e-01	1.691212e+04	
7	3.500000e-01	2.340341e+04	
8	4.000000e-01	3.484699e+04	
9	4.500000e-01	5.411696e+04	
10	5.000000e-01	8.152022e+04	
11	5.500000e-01	1.142041e+05	
12	6.000000e-01	1.490959e+05	
13	6.500000e-01	1.842827e+05	
14	7.000000e-01	2.187838e+05	
15	7.500000e-01	2.521373e+05	
16	8.000000e-01	2.841463e+05	
17	8.500000e-01	3.147479e+05	
18	9.000000e-01	3.439476e+05	
19	9.500000e-01	3.717861e+05	
20	1.000000e+00	3.983206e+05	
21	1.050000e+00	4.236163e+05	
22	1.100000e+00	4.477405e+05	
23	1.150000e+00	4.707596e+05	
24	1.200000e+00	4.927380e+05	
25	1.250000e+00	5.137370e+05	
26	1.300000e+00	5.338145e+05	
27	1.350000e+00	5.530246e+05	
28	1.400000e+00	5.714183e+05	
29	1.450000e+00	5.890428e+05	
30	1.500000e+00	6.059423e+05	
31	1.550000e+00	6.221580e+05	
32	1.600000e+00	6.377282e+05	
33	1.650000e+00	6.526885e+05	
34	1.700000e+00	6.670723e+05	
35	1.750000e+00	6.809102e+05	
36	1.800000e+00	6.942312e+05	
37	1.850000e+00	7.070618e+05	
38	1.900000e+00	7.194265e+05	
39	1.950000e+00	7.313477e+05	
40	2.000000e+00	7.428454e+05	
41	2.050000e+00	7.539371e+05	
42	2.100000e+00	7.646369e+05	
43	2.150000e+00	7.749554e+05	
44	2.200000e+00	7.848983e+05	
45	2.250000e+00	7.944656e+05	
46	2.300000e+00	8.036504e+05	
47	2.350000e+00	8.124367e+05	
48	2.400000e+00	8.207984e+05	
49	2.450000e+00	8.286965e+05	
50	2.500000e+00	8.360777e+05	
51	2.550000e+00	8.428719e+05	
52	2.600000e+00	8.489905e+05	
53	2.650000e+00	8.543244e+05	
54	2.700000e+00	8.587430e+05	

Index   v-sweep         rds             
--------------------------------------------------------------------------------
55	2.750000e+00	8.620940e+05	
56	2.800000e+00	8.642040e+05	
57	2.850000e+00	8.648811e+05	
58	2.900000e+00	8.639185e+05	
59	2.950000e+00	8.611011e+05	
60	3.000000e+00	8.562136e+05	
61	3.050000e+00	8.490515e+05	
62	3.100000e+00	8.394327e+05	
63	3.150000e+00	8.272118e+05	
64	3.200000e+00	8.122934e+05	
65	3.250000e+00	7.946443e+05	
66	3.300000e+00	7.743038e+05	
Reset re-loads circuit ***************************

Circuit: ***************************

Doing analysis at TEMP = -40.000000 and TNOM = -40.000000


No. of Data Rows : 67
                          ***************************
                          DC transfer characteristic  Mon Jan  9 13:58:14  2023
--------------------------------------------------------------------------------
Index   v-sweep         rds             
--------------------------------------------------------------------------------
0	0.000000e+00	3.161993e+03	
1	5.000000e-02	3.431880e+03	
2	1.000000e-01	3.736613e+03	
3	1.500000e-01	4.083231e+03	
4	2.000000e-01	4.480830e+03	
5	2.500000e-01	4.941391e+03	
6	3.000000e-01	5.481051e+03	
7	3.500000e-01	6.122161e+03	
8	4.000000e-01	6.896772e+03	
9	4.500000e-01	7.852943e+03	
10	5.000000e-01	9.066981e+03	
11	5.500000e-01	1.066858e+04	
12	6.000000e-01	1.289214e+04	
13	6.500000e-01	1.616118e+04	
14	7.000000e-01	2.112626e+04	
15	7.500000e-01	2.841589e+04	
16	8.000000e-01	3.815157e+04	
17	8.500000e-01	4.987056e+04	
18	9.000000e-01	6.290983e+04	
19	9.500000e-01	7.670376e+04	
20	1.000000e+00	9.085397e+04	
21	1.050000e+00	1.050998e+05	
22	1.100000e+00	1.192750e+05	
23	1.150000e+00	1.332747e+05	
24	1.200000e+00	1.470332e+05	
25	1.250000e+00	1.605103e+05	
26	1.300000e+00	1.736822e+05	
27	1.350000e+00	1.865363e+05	
28	1.400000e+00	1.990670e+05	
29	1.450000e+00	2.112739e+05	
30	1.500000e+00	2.231600e+05	
31	1.550000e+00	2.347303e+05	
32	1.600000e+00	2.459916e+05	
33	1.650000e+00	2.569514e+05	
34	1.700000e+00	2.676181e+05	
35	1.750000e+00	2.780002e+05	
36	1.800000e+00	2.881064e+05	
37	1.850000e+00	2.979455e+05	
38	1.900000e+00	3.075262e+05	
39	1.950000e+00	3.168571e+05	
40	2.000000e+00	3.259464e+05	
41	2.050000e+00	3.348023e+05	
42	2.100000e+00	3.434324e+05	
43	2.150000e+00	3.518441e+05	
44	2.200000e+00	3.600443e+05	
45	2.250000e+00	3.680390e+05	
46	2.300000e+00	3.758334e+05	
47	2.350000e+00	3.834312e+05	
48	2.400000e+00	3.908346e+05	
49	2.450000e+00	3.980429e+05	
50	2.500000e+00	4.050524e+05	
51	2.550000e+00	4.118548e+05	
52	2.600000e+00	4.184361e+05	
53	2.650000e+00	4.247754e+05	
54	2.700000e+00	4.308429e+05	

Index   v-sweep         rds             
--------------------------------------------------------------------------------
55	2.750000e+00	4.365979e+05	
56	2.800000e+00	4.419876e+05	
57	2.850000e+00	4.469445e+05	
58	2.900000e+00	4.513853e+05	
59	2.950000e+00	4.552094e+05	
60	3.000000e+00	4.582988e+05	
61	3.050000e+00	4.605184e+05	
62	3.100000e+00	4.617187e+05	
63	3.150000e+00	4.617392e+05	
64	3.200000e+00	4.604147e+05	
65	3.250000e+00	4.575840e+05	
66	3.300000e+00	4.530997e+05	
Reset re-loads circuit ***************************

Circuit: ***************************

Doing analysis at TEMP = -40.000000 and TNOM = -40.000000


No. of Data Rows : 67
                          ***************************
                          DC transfer characteristic  Mon Jan  9 13:58:14  2023
--------------------------------------------------------------------------------
Index   v-sweep         rds             
--------------------------------------------------------------------------------
0	0.000000e+00	2.454650e+03	
1	5.000000e-02	2.608909e+03	
2	1.000000e-01	2.776783e+03	
3	1.500000e-01	2.960084e+03	
4	2.000000e-01	3.160969e+03	
5	2.500000e-01	3.382024e+03	
6	3.000000e-01	3.626378e+03	
7	3.500000e-01	3.897865e+03	
8	4.000000e-01	4.201239e+03	
9	4.500000e-01	4.542491e+03	
10	5.000000e-01	4.929328e+03	
11	5.500000e-01	5.371905e+03	
12	6.000000e-01	5.884056e+03	
13	6.500000e-01	6.485448e+03	
14	7.000000e-01	7.205623e+03	
15	7.500000e-01	8.091919e+03	
16	8.000000e-01	9.225125e+03	
17	8.500000e-01	1.074754e+04	
18	9.000000e-01	1.289791e+04	
19	9.500000e-01	1.600693e+04	
20	1.000000e+00	2.037650e+04	
21	1.050000e+00	2.609609e+04	
22	1.100000e+00	3.300288e+04	
23	1.150000e+00	4.080880e+04	
24	1.200000e+00	4.922882e+04	
25	1.250000e+00	5.803489e+04	
26	1.300000e+00	6.706040e+04	
27	1.350000e+00	7.618794e+04	
28	1.400000e+00	8.533586e+04	
29	1.450000e+00	9.444743e+04	
30	1.500000e+00	1.034833e+05	
31	1.550000e+00	1.124161e+05	
32	1.600000e+00	1.212269e+05	
33	1.650000e+00	1.299030e+05	
34	1.700000e+00	1.384358e+05	
35	1.750000e+00	1.468199e+05	
36	1.800000e+00	1.550522e+05	
37	1.850000e+00	1.631312e+05	
38	1.900000e+00	1.710569e+05	
39	1.950000e+00	1.788300e+05	
40	2.000000e+00	1.864519e+05	
41	2.050000e+00	1.939247e+05	
42	2.100000e+00	2.012506e+05	
43	2.150000e+00	2.084322e+05	
44	2.200000e+00	2.154724e+05	
45	2.250000e+00	2.223740e+05	
46	2.300000e+00	2.291400e+05	
47	2.350000e+00	2.357732e+05	
48	2.400000e+00	2.422766e+05	
49	2.450000e+00	2.486526e+05	
50	2.500000e+00	2.549034e+05	
51	2.550000e+00	2.610304e+05	
52	2.600000e+00	2.670343e+05	
53	2.650000e+00	2.729140e+05	
54	2.700000e+00	2.786665e+05	

Index   v-sweep         rds             
--------------------------------------------------------------------------------
55	2.750000e+00	2.842859e+05	
56	2.800000e+00	2.897626e+05	
57	2.850000e+00	2.950818e+05	
58	2.900000e+00	3.002224e+05	
59	2.950000e+00	3.051554e+05	
60	3.000000e+00	3.098422e+05	
61	3.050000e+00	3.142329e+05	
62	3.100000e+00	3.182642e+05	
63	3.150000e+00	3.218588e+05	
64	3.200000e+00	3.249240e+05	
65	3.250000e+00	3.273517e+05	
66	3.300000e+00	3.290196e+05	
Reset re-loads circuit ***************************

Circuit: ***************************

Doing analysis at TEMP = -40.000000 and TNOM = -40.000000


No. of Data Rows : 67
                          ***************************
                          DC transfer characteristic  Mon Jan  9 13:58:14  2023
--------------------------------------------------------------------------------
Index   v-sweep         rds             
--------------------------------------------------------------------------------
0	0.000000e+00	2.101898e+03	
1	5.000000e-02	2.207134e+03	
2	1.000000e-01	2.319442e+03	
3	1.500000e-01	2.439523e+03	
4	2.000000e-01	2.568174e+03	
5	2.500000e-01	2.706309e+03	
6	3.000000e-01	2.854980e+03	
7	3.500000e-01	3.015402e+03	
8	4.000000e-01	3.188991e+03	
9	4.500000e-01	3.377410e+03	
10	5.000000e-01	3.582626e+03	
11	5.500000e-01	3.806994e+03	
12	6.000000e-01	4.053366e+03	
13	6.500000e-01	4.325251e+03	
14	7.000000e-01	4.627057e+03	
15	7.500000e-01	4.964458e+03	
16	8.000000e-01	5.345020e+03	
17	8.500000e-01	5.779259e+03	
18	9.000000e-01	6.282587e+03	
19	9.500000e-01	6.878954e+03	
20	1.000000e+00	7.607710e+03	
21	1.050000e+00	8.535764e+03	
22	1.100000e+00	9.775280e+03	
23	1.150000e+00	1.149669e+04	
24	1.200000e+00	1.390695e+04	
25	1.250000e+00	1.717086e+04	
26	1.300000e+00	2.132644e+04	
27	1.350000e+00	2.627893e+04	
28	1.400000e+00	3.186462e+04	
29	1.450000e+00	3.791450e+04	
30	1.500000e+00	4.428528e+04	
31	1.550000e+00	5.086602e+04	
32	1.600000e+00	5.757419e+04	
33	1.650000e+00	6.434934e+04	
34	1.700000e+00	7.114741e+04	
35	1.750000e+00	7.793620e+04	
36	1.800000e+00	8.469215e+04	
37	1.850000e+00	9.139794e+04	
38	1.900000e+00	9.804087e+04	
39	1.950000e+00	1.046116e+05	
40	2.000000e+00	1.111035e+05	
41	2.050000e+00	1.175116e+05	
42	2.100000e+00	1.238326e+05	
43	2.150000e+00	1.300642e+05	
44	2.200000e+00	1.362051e+05	
45	2.250000e+00	1.422544e+05	
46	2.300000e+00	1.482121e+05	
47	2.350000e+00	1.540783e+05	
48	2.400000e+00	1.598535e+05	
49	2.450000e+00	1.655384e+05	
50	2.500000e+00	1.711341e+05	
51	2.550000e+00	1.766415e+05	
52	2.600000e+00	1.820617e+05	
53	2.650000e+00	1.873958e+05	
54	2.700000e+00	1.926447e+05	

Index   v-sweep         rds             
--------------------------------------------------------------------------------
55	2.750000e+00	1.978088e+05	
56	2.800000e+00	2.028880e+05	
57	2.850000e+00	2.078816e+05	
58	2.900000e+00	2.127871e+05	
59	2.950000e+00	2.176002e+05	
60	3.000000e+00	2.223141e+05	
61	3.050000e+00	2.269181e+05	
62	3.100000e+00	2.313967e+05	
63	3.150000e+00	2.357287e+05	
64	3.200000e+00	2.398848e+05	
65	3.250000e+00	2.438270e+05	
66	3.300000e+00	2.475062e+05	
Reset re-loads circuit ***************************

Circuit: ***************************

Doing analysis at TEMP = -40.000000 and TNOM = -40.000000


No. of Data Rows : 67
                          ***************************
                          DC transfer characteristic  Mon Jan  9 13:58:14  2023
--------------------------------------------------------------------------------
Index   v-sweep         rds             
--------------------------------------------------------------------------------
0	0.000000e+00	1.919646e+03	
1	5.000000e-02	2.000085e+03	
2	1.000000e-01	2.084930e+03	
3	1.500000e-01	2.174530e+03	
4	2.000000e-01	2.269276e+03	
5	2.500000e-01	2.369600e+03	
6	3.000000e-01	2.475987e+03	
7	3.500000e-01	2.588981e+03	
8	4.000000e-01	2.709194e+03	
9	4.500000e-01	2.837319e+03	
10	5.000000e-01	2.974144e+03	
11	5.500000e-01	3.120568e+03	
12	6.000000e-01	3.277626e+03	
13	6.500000e-01	3.446518e+03	
14	7.000000e-01	3.628647e+03	
15	7.500000e-01	3.825668e+03	
16	8.000000e-01	4.039565e+03	
17	8.500000e-01	4.272755e+03	
18	9.000000e-01	4.528242e+03	
19	9.500000e-01	4.809867e+03	
20	1.000000e+00	5.122717e+03	
21	1.050000e+00	5.473810e+03	
22	1.100000e+00	5.873326e+03	
23	1.150000e+00	6.336804e+03	
24	1.200000e+00	6.889117e+03	
25	1.250000e+00	7.571247e+03	
26	1.300000e+00	8.450339e+03	
27	1.350000e+00	9.629600e+03	
28	1.400000e+00	1.124559e+04	
29	1.450000e+00	1.343589e+04	
30	1.500000e+00	1.628361e+04	
31	1.550000e+00	1.978260e+04	
32	1.600000e+00	2.385221e+04	
33	1.650000e+00	2.837869e+04	
34	1.700000e+00	3.324897e+04	
35	1.750000e+00	3.836664e+04	
36	1.800000e+00	4.365530e+04	
37	1.850000e+00	4.905651e+04	
38	1.900000e+00	5.452622e+04	
39	1.950000e+00	6.003134e+04	
40	2.000000e+00	6.554701e+04	
41	2.050000e+00	7.105447e+04	
42	2.100000e+00	7.653954e+04	
43	2.150000e+00	8.199144e+04	
44	2.200000e+00	8.740198e+04	
45	2.250000e+00	9.276495e+04	
46	2.300000e+00	9.807564e+04	
47	2.350000e+00	1.033305e+05	
48	2.400000e+00	1.085270e+05	
49	2.450000e+00	1.136632e+05	
50	2.500000e+00	1.187377e+05	
51	2.550000e+00	1.237497e+05	
52	2.600000e+00	1.286986e+05	
53	2.650000e+00	1.335843e+05	
54	2.700000e+00	1.384068e+05	

Index   v-sweep         rds             
--------------------------------------------------------------------------------
55	2.750000e+00	1.431661e+05	
56	2.800000e+00	1.478626e+05	
57	2.850000e+00	1.524964e+05	
58	2.900000e+00	1.570680e+05	
59	2.950000e+00	1.615773e+05	
60	3.000000e+00	1.660240e+05	
61	3.050000e+00	1.704072e+05	
62	3.100000e+00	1.747250e+05	
63	3.150000e+00	1.789740e+05	
64	3.200000e+00	1.831488e+05	
65	3.250000e+00	1.872412e+05	
66	3.300000e+00	1.912392e+05	
Reset re-loads circuit ***************************

Circuit: ***************************

Note: No ".plot", ".print", or ".fourier" lines; no simulations run
