
Note: Compatibility modes selected: hs

Warning: m=xx on .subckt line will override multiplier m hierarchy!


Circuit: ***************************

Doing analysis at TEMP = 25.000000 and TNOM = 25.000000


No. of Data Rows : 67
                          ***************************
                          DC transfer characteristic  Mon Jan  9 13:58:13  2023
--------------------------------------------------------------------------------
Index   v-sweep         rds             
--------------------------------------------------------------------------------
0	0.000000e+00	8.402012e+04	
1	5.000000e-02	1.153756e+05	
2	1.000000e-01	1.763582e+05	
3	1.500000e-01	3.243483e+05	
4	2.000000e-01	7.262782e+05	
5	2.500000e-01	1.487211e+06	
6	3.000000e-01	2.350708e+06	
7	3.500000e-01	3.134928e+06	
8	4.000000e-01	3.822787e+06	
9	4.500000e-01	4.431726e+06	
10	5.000000e-01	4.977586e+06	
11	5.500000e-01	5.471694e+06	
12	6.000000e-01	5.922196e+06	
13	6.500000e-01	6.335204e+06	
14	7.000000e-01	6.715496e+06	
15	7.500000e-01	7.066929e+06	
16	8.000000e-01	7.392696e+06	
17	8.500000e-01	7.695487e+06	
18	9.000000e-01	7.977601e+06	
19	9.500000e-01	8.241020e+06	
20	1.000000e+00	8.487474e+06	
21	1.050000e+00	8.718477e+06	
22	1.100000e+00	8.935366e+06	
23	1.150000e+00	9.139326e+06	
24	1.200000e+00	9.331410e+06	
25	1.250000e+00	9.512562e+06	
26	1.300000e+00	9.683627e+06	
27	1.350000e+00	9.845367e+06	
28	1.400000e+00	9.998466e+06	
29	1.450000e+00	1.014355e+07	
30	1.500000e+00	1.028117e+07	
31	1.550000e+00	1.041186e+07	
32	1.600000e+00	1.053606e+07	
33	1.650000e+00	1.065421e+07	
34	1.700000e+00	1.076668e+07	
35	1.750000e+00	1.087384e+07	
36	1.800000e+00	1.097598e+07	
37	1.850000e+00	1.107338e+07	
38	1.900000e+00	1.116629e+07	
39	1.950000e+00	1.125489e+07	
40	2.000000e+00	1.133933e+07	
41	2.050000e+00	1.141973e+07	
42	2.100000e+00	1.149611e+07	
43	2.150000e+00	1.156844e+07	
44	2.200000e+00	1.163663e+07	
45	2.250000e+00	1.170046e+07	
46	2.300000e+00	1.175964e+07	
47	2.350000e+00	1.181374e+07	
48	2.400000e+00	1.186222e+07	
49	2.450000e+00	1.190441e+07	
50	2.500000e+00	1.193945e+07	
51	2.550000e+00	1.196637e+07	
52	2.600000e+00	1.198402e+07	
53	2.650000e+00	1.199111e+07	
54	2.700000e+00	1.198621e+07	

Index   v-sweep         rds             
--------------------------------------------------------------------------------
55	2.750000e+00	1.196774e+07	
56	2.800000e+00	1.193407e+07	
57	2.850000e+00	1.188349e+07	
58	2.900000e+00	1.181429e+07	
59	2.950000e+00	1.172481e+07	
60	3.000000e+00	1.161355e+07	
61	3.050000e+00	1.147917e+07	
62	3.100000e+00	1.132065e+07	
63	3.150000e+00	1.113731e+07	
64	3.200000e+00	1.092890e+07	
65	3.250000e+00	1.069566e+07	
66	3.300000e+00	1.043834e+07	
Reset re-loads circuit ***************************

Circuit: ***************************

Doing analysis at TEMP = 25.000000 and TNOM = 25.000000


No. of Data Rows : 67
                          ***************************
                          DC transfer characteristic  Mon Jan  9 13:58:13  2023
--------------------------------------------------------------------------------
Index   v-sweep         rds             
--------------------------------------------------------------------------------
0	0.000000e+00	2.340414e+04	
1	5.000000e-02	2.607353e+04	
2	1.000000e-01	2.926199e+04	
3	1.500000e-01	3.313454e+04	
4	2.000000e-01	3.793387e+04	
5	2.500000e-01	4.403100e+04	
6	3.000000e-01	5.201980e+04	
7	3.500000e-01	6.290125e+04	
8	4.000000e-01	7.844850e+04	
9	4.500000e-01	1.018575e+05	
10	5.000000e-01	1.383126e+05	
11	5.500000e-01	1.932154e+05	
12	6.000000e-01	2.667959e+05	
13	6.500000e-01	3.530338e+05	
14	7.000000e-01	4.452207e+05	
15	7.500000e-01	5.390738e+05	
16	8.000000e-01	6.323692e+05	
17	8.500000e-01	7.240229e+05	
18	9.000000e-01	8.135197e+05	
19	9.500000e-01	9.006285e+05	
20	1.000000e+00	9.852640e+05	
21	1.050000e+00	1.067419e+06	
22	1.100000e+00	1.147127e+06	
23	1.150000e+00	1.224445e+06	
24	1.200000e+00	1.299445e+06	
25	1.250000e+00	1.372202e+06	
26	1.300000e+00	1.442794e+06	
27	1.350000e+00	1.511300e+06	
28	1.400000e+00	1.577799e+06	
29	1.450000e+00	1.642367e+06	
30	1.500000e+00	1.705077e+06	
31	1.550000e+00	1.766000e+06	
32	1.600000e+00	1.825205e+06	
33	1.650000e+00	1.882758e+06	
34	1.700000e+00	1.938721e+06	
35	1.750000e+00	1.993155e+06	
36	1.800000e+00	2.046116e+06	
37	1.850000e+00	2.097660e+06	
38	1.900000e+00	2.147839e+06	
39	1.950000e+00	2.196701e+06	
40	2.000000e+00	2.244293e+06	
41	2.050000e+00	2.290657e+06	
42	2.100000e+00	2.335831e+06	
43	2.150000e+00	2.379849e+06	
44	2.200000e+00	2.422736e+06	
45	2.250000e+00	2.464509e+06	
46	2.300000e+00	2.505170e+06	
47	2.350000e+00	2.544709e+06	
48	2.400000e+00	2.583092e+06	
49	2.450000e+00	2.620261e+06	
50	2.500000e+00	2.656125e+06	
51	2.550000e+00	2.690553e+06	
52	2.600000e+00	2.723369e+06	
53	2.650000e+00	2.754338e+06	
54	2.700000e+00	2.783165e+06	

Index   v-sweep         rds             
--------------------------------------------------------------------------------
55	2.750000e+00	2.809483e+06	
56	2.800000e+00	2.832852e+06	
57	2.850000e+00	2.852748e+06	
58	2.900000e+00	2.868570e+06	
59	2.950000e+00	2.879643e+06	
60	3.000000e+00	2.885230e+06	
61	3.050000e+00	2.884546e+06	
62	3.100000e+00	2.876791e+06	
63	3.150000e+00	2.861183e+06	
64	3.200000e+00	2.837002e+06	
65	3.250000e+00	2.803637e+06	
66	3.300000e+00	2.760639e+06	
Reset re-loads circuit ***************************

Circuit: ***************************

Doing analysis at TEMP = 25.000000 and TNOM = 25.000000


No. of Data Rows : 67
                          ***************************
                          DC transfer characteristic  Mon Jan  9 13:58:13  2023
--------------------------------------------------------------------------------
Index   v-sweep         rds             
--------------------------------------------------------------------------------
0	0.000000e+00	1.443581e+04	
1	5.000000e-02	1.548597e+04	
2	1.000000e-01	1.665022e+04	
3	1.500000e-01	1.794774e+04	
4	2.000000e-01	1.940224e+04	
5	2.500000e-01	2.104349e+04	
6	3.000000e-01	2.290932e+04	
7	3.500000e-01	2.504861e+04	
8	4.000000e-01	2.752575e+04	
9	4.500000e-01	3.042744e+04	
10	5.000000e-01	3.387372e+04	
11	5.500000e-01	3.803647e+04	
12	6.000000e-01	4.317242e+04	
13	6.500000e-01	4.968429e+04	
14	7.000000e-01	5.823230e+04	
15	7.500000e-01	6.989913e+04	
16	8.000000e-01	8.625227e+04	
17	8.500000e-01	1.088410e+05	
18	9.000000e-01	1.380956e+05	
19	9.500000e-01	1.729344e+05	
20	1.000000e+00	2.116077e+05	
21	1.050000e+00	2.525606e+05	
22	1.100000e+00	2.946956e+05	
23	1.150000e+00	3.373048e+05	
24	1.200000e+00	3.799443e+05	
25	1.250000e+00	4.223364e+05	
26	1.300000e+00	4.643061e+05	
27	1.350000e+00	5.057430e+05	
28	1.400000e+00	5.465779e+05	
29	1.450000e+00	5.867680e+05	
30	1.500000e+00	6.262886e+05	
31	1.550000e+00	6.651266e+05	
32	1.600000e+00	7.032776e+05	
33	1.650000e+00	7.407424e+05	
34	1.700000e+00	7.775261e+05	
35	1.750000e+00	8.136366e+05	
36	1.800000e+00	8.490836e+05	
37	1.850000e+00	8.838784e+05	
38	1.900000e+00	9.180328e+05	
39	1.950000e+00	9.515597e+05	
40	2.000000e+00	9.844721e+05	
41	2.050000e+00	1.016783e+06	
42	2.100000e+00	1.048506e+06	
43	2.150000e+00	1.079654e+06	
44	2.200000e+00	1.110239e+06	
45	2.250000e+00	1.140275e+06	
46	2.300000e+00	1.169772e+06	
47	2.350000e+00	1.198741e+06	
48	2.400000e+00	1.227190e+06	
49	2.450000e+00	1.255124e+06	
50	2.500000e+00	1.282544e+06	
51	2.550000e+00	1.309445e+06	
52	2.600000e+00	1.335813e+06	
53	2.650000e+00	1.361622e+06	
54	2.700000e+00	1.386831e+06	

Index   v-sweep         rds             
--------------------------------------------------------------------------------
55	2.750000e+00	1.411382e+06	
56	2.800000e+00	1.435187e+06	
57	2.850000e+00	1.458131e+06	
58	2.900000e+00	1.480062e+06	
59	2.950000e+00	1.500783e+06	
60	3.000000e+00	1.520049e+06	
61	3.050000e+00	1.537559e+06	
62	3.100000e+00	1.552954e+06	
63	3.150000e+00	1.565815e+06	
64	3.200000e+00	1.575666e+06	
65	3.250000e+00	1.581982e+06	
66	3.300000e+00	1.584203e+06	
Reset re-loads circuit ***************************

Circuit: ***************************

Doing analysis at TEMP = 25.000000 and TNOM = 25.000000


No. of Data Rows : 67
                          ***************************
                          DC transfer characteristic  Mon Jan  9 13:58:13  2023
--------------------------------------------------------------------------------
Index   v-sweep         rds             
--------------------------------------------------------------------------------
0	0.000000e+00	1.131492e+04	
1	5.000000e-02	1.195466e+04	
2	1.000000e-01	1.264481e+04	
3	1.500000e-01	1.339137e+04	
4	2.000000e-01	1.420130e+04	
5	2.500000e-01	1.508277e+04	
6	3.000000e-01	1.604545e+04	
7	3.500000e-01	1.710084e+04	
8	4.000000e-01	1.826276e+04	
9	4.500000e-01	1.954800e+04	
10	5.000000e-01	2.097716e+04	
11	5.500000e-01	2.257589e+04	
12	6.000000e-01	2.437668e+04	
13	6.500000e-01	2.642158e+04	
14	7.000000e-01	2.876652e+04	
15	7.500000e-01	3.148864e+04	
16	8.000000e-01	3.469945e+04	
17	8.500000e-01	3.856924e+04	
18	9.000000e-01	4.337248e+04	
19	9.500000e-01	4.956246e+04	
20	1.000000e+00	5.784999e+04	
21	1.050000e+00	6.915493e+04	
22	1.100000e+00	8.425064e+04	
23	1.150000e+00	1.032809e+05	
24	1.200000e+00	1.256915e+05	
25	1.250000e+00	1.506107e+05	
26	1.300000e+00	1.772144e+05	
27	1.350000e+00	2.048670e+05	
28	1.400000e+00	2.331205e+05	
29	1.450000e+00	2.616690e+05	
30	1.500000e+00	2.903054e+05	
31	1.550000e+00	3.188890e+05	
32	1.600000e+00	3.473232e+05	
33	1.650000e+00	3.755412e+05	
34	1.700000e+00	4.034967e+05	
35	1.750000e+00	4.311575e+05	
36	1.800000e+00	4.585016e+05	
37	1.850000e+00	4.855140e+05	
38	1.900000e+00	5.121847e+05	
39	1.950000e+00	5.385079e+05	
40	2.000000e+00	5.644804e+05	
41	2.050000e+00	5.901012e+05	
42	2.100000e+00	6.153709e+05	
43	2.150000e+00	6.402913e+05	
44	2.200000e+00	6.648650e+05	
45	2.250000e+00	6.890956e+05	
46	2.300000e+00	7.129869e+05	
47	2.350000e+00	7.365431e+05	
48	2.400000e+00	7.597688e+05	
49	2.450000e+00	7.826684e+05	
50	2.500000e+00	8.052463e+05	
51	2.550000e+00	8.275062e+05	
52	2.600000e+00	8.494510e+05	
53	2.650000e+00	8.710818e+05	
54	2.700000e+00	8.923974e+05	

Index   v-sweep         rds             
--------------------------------------------------------------------------------
55	2.750000e+00	9.133925e+05	
56	2.800000e+00	9.340563e+05	
57	2.850000e+00	9.543706e+05	
58	2.900000e+00	9.743061e+05	
59	2.950000e+00	9.938201e+05	
60	3.000000e+00	1.012852e+06	
61	3.050000e+00	1.031317e+06	
62	3.100000e+00	1.049105e+06	
63	3.150000e+00	1.066070e+06	
64	3.200000e+00	1.082029e+06	
65	3.250000e+00	1.096754e+06	
66	3.300000e+00	1.109968e+06	
Reset re-loads circuit ***************************

Circuit: ***************************

Doing analysis at TEMP = 25.000000 and TNOM = 25.000000


No. of Data Rows : 67
                          ***************************
                          DC transfer characteristic  Mon Jan  9 13:58:13  2023
--------------------------------------------------------------------------------
Index   v-sweep         rds             
--------------------------------------------------------------------------------
0	0.000000e+00	9.681198e+03	
1	5.000000e-02	1.013672e+04	
2	1.000000e-01	1.062082e+04	
3	1.500000e-01	1.113614e+04	
4	2.000000e-01	1.168565e+04	
5	2.500000e-01	1.227275e+04	
6	3.000000e-01	1.290127e+04	
7	3.500000e-01	1.357562e+04	
8	4.000000e-01	1.430085e+04	
9	4.500000e-01	1.508280e+04	
10	5.000000e-01	1.592826e+04	
11	5.500000e-01	1.684520e+04	
12	6.000000e-01	1.784301e+04	
13	6.500000e-01	1.893292e+04	
14	7.000000e-01	2.012848e+04	
15	7.500000e-01	2.144632e+04	
16	8.000000e-01	2.290723e+04	
17	8.500000e-01	2.453788e+04	
18	9.000000e-01	2.637363e+04	
19	9.500000e-01	2.846343e+04	
20	1.000000e+00	3.087864e+04	
21	1.050000e+00	3.372918e+04	
22	1.100000e+00	3.719247e+04	
23	1.150000e+00	4.155879e+04	
24	1.200000e+00	4.727881e+04	
25	1.250000e+00	5.494964e+04	
26	1.300000e+00	6.514393e+04	
27	1.350000e+00	7.812674e+04	
28	1.400000e+00	9.371985e+04	
29	1.450000e+00	1.114412e+05	
30	1.500000e+00	1.307363e+05	
31	1.550000e+00	1.511213e+05	
32	1.600000e+00	1.722245e+05	
33	1.650000e+00	1.937756e+05	
34	1.700000e+00	2.155827e+05	
35	1.750000e+00	2.375098e+05	
36	1.800000e+00	2.594604e+05	
37	1.850000e+00	2.813652e+05	
38	1.900000e+00	3.031741e+05	
39	1.950000e+00	3.248506e+05	
40	2.000000e+00	3.463682e+05	
41	2.050000e+00	3.677072e+05	
42	2.100000e+00	3.888535e+05	
43	2.150000e+00	4.097966e+05	
44	2.200000e+00	4.305291e+05	
45	2.250000e+00	4.510458e+05	
46	2.300000e+00	4.713434e+05	
47	2.350000e+00	4.914198e+05	
48	2.400000e+00	5.112739e+05	
49	2.450000e+00	5.309055e+05	
50	2.500000e+00	5.503151e+05	
51	2.550000e+00	5.695035e+05	
52	2.600000e+00	5.884720e+05	
53	2.650000e+00	6.072220e+05	
54	2.700000e+00	6.257550e+05	

Index   v-sweep         rds             
--------------------------------------------------------------------------------
55	2.750000e+00	6.440722e+05	
56	2.800000e+00	6.621741e+05	
57	2.850000e+00	6.800601e+05	
58	2.900000e+00	6.977276e+05	
59	2.950000e+00	7.151711e+05	
60	3.000000e+00	7.323808e+05	
61	3.050000e+00	7.493405e+05	
62	3.100000e+00	7.660255e+05	
63	3.150000e+00	7.823995e+05	
64	3.200000e+00	7.984113e+05	
65	3.250000e+00	8.139905e+05	
66	3.300000e+00	8.290431e+05	
Reset re-loads circuit ***************************

Circuit: ***************************

Doing analysis at TEMP = 25.000000 and TNOM = 25.000000


No. of Data Rows : 67
                          ***************************
                          DC transfer characteristic  Mon Jan  9 13:58:13  2023
--------------------------------------------------------------------------------
Index   v-sweep         rds             
--------------------------------------------------------------------------------
0	0.000000e+00	8.516898e+03	
1	5.000000e-02	8.857929e+03	
2	1.000000e-01	9.216510e+03	
3	1.500000e-01	9.593948e+03	
4	2.000000e-01	9.991688e+03	
5	2.500000e-01	1.041133e+04	
6	3.000000e-01	1.085463e+04	
7	3.500000e-01	1.132358e+04	
8	4.000000e-01	1.182037e+04	
9	4.500000e-01	1.234747e+04	
10	5.000000e-01	1.290764e+04	
11	5.500000e-01	1.350402e+04	
12	6.000000e-01	1.414015e+04	
13	6.500000e-01	1.482008e+04	
14	7.000000e-01	1.554847e+04	
15	7.500000e-01	1.633067e+04	
16	8.000000e-01	1.717295e+04	
17	8.500000e-01	1.808270e+04	
18	9.000000e-01	1.906875e+04	
19	9.500000e-01	2.014181e+04	
20	1.000000e+00	2.131526e+04	
21	1.050000e+00	2.260618e+04	
22	1.100000e+00	2.403731e+04	
23	1.150000e+00	2.564025e+04	
24	1.200000e+00	2.746117e+04	
25	1.250000e+00	2.957109e+04	
26	1.300000e+00	3.208335e+04	
27	1.350000e+00	3.518081e+04	
28	1.400000e+00	3.914705e+04	
29	1.450000e+00	4.437380e+04	
30	1.500000e+00	5.129270e+04	
31	1.550000e+00	6.021666e+04	
32	1.600000e+00	7.119547e+04	
33	1.650000e+00	8.401574e+04	
34	1.700000e+00	9.832347e+04	
35	1.750000e+00	1.137500e+05	
36	1.800000e+00	1.299789e+05	
37	1.850000e+00	1.467631e+05	
38	1.900000e+00	1.639177e+05	
39	1.950000e+00	1.813072e+05	
40	2.000000e+00	1.988321e+05	
41	2.050000e+00	2.164196e+05	
42	2.100000e+00	2.340159e+05	
43	2.150000e+00	2.515806e+05	
44	2.200000e+00	2.690837e+05	
45	2.250000e+00	2.865024e+05	
46	2.300000e+00	3.038193e+05	
47	2.350000e+00	3.210213e+05	
48	2.400000e+00	3.380982e+05	
49	2.450000e+00	3.550425e+05	
50	2.500000e+00	3.718483e+05	
51	2.550000e+00	3.885114e+05	
52	2.600000e+00	4.050285e+05	
53	2.650000e+00	4.213975e+05	
54	2.700000e+00	4.376167e+05	

Index   v-sweep         rds             
--------------------------------------------------------------------------------
55	2.750000e+00	4.536853e+05	
56	2.800000e+00	4.696028e+05	
57	2.850000e+00	4.853688e+05	
58	2.900000e+00	5.009835e+05	
59	2.950000e+00	5.164465e+05	
60	3.000000e+00	5.317576e+05	
61	3.050000e+00	5.469154e+05	
62	3.100000e+00	5.619173e+05	
63	3.150000e+00	5.767588e+05	
64	3.200000e+00	5.914317e+05	
65	3.250000e+00	6.059234e+05	
66	3.300000e+00	6.202143e+05	
Reset re-loads circuit ***************************

Circuit: ***************************

Note: No ".plot", ".print", or ".fourier" lines; no simulations run
