
Note: Compatibility modes selected: hs

Warning: m=xx on .subckt line will override multiplier m hierarchy!


Circuit: ***************************

Doing analysis at TEMP = 25.000000 and TNOM = 25.000000


No. of Data Rows : 67
                          ***************************
                          DC transfer characteristic  Mon Jan  9 13:58:13  2023
--------------------------------------------------------------------------------
Index   v-sweep         rds             
--------------------------------------------------------------------------------
0	0.000000e+00	2.462438e+03	
1	5.000000e-02	3.494271e+03	
2	1.000000e-01	5.508806e+03	
3	1.500000e-01	9.979710e+03	
4	2.000000e-01	1.887700e+04	
5	2.500000e-01	3.043437e+04	
6	3.000000e-01	4.043252e+04	
7	3.500000e-01	4.756736e+04	
8	4.000000e-01	5.241316e+04	
9	4.500000e-01	5.571797e+04	
10	5.000000e-01	5.801058e+04	
11	5.500000e-01	5.962630e+04	
12	6.000000e-01	6.077619e+04	
13	6.500000e-01	6.159605e+04	
14	7.000000e-01	6.217583e+04	
15	7.500000e-01	6.257687e+04	
16	8.000000e-01	6.284220e+04	
17	8.500000e-01	6.300273e+04	
18	9.000000e-01	6.308117e+04	
19	9.500000e-01	6.309451e+04	
20	1.000000e+00	6.305572e+04	
21	1.050000e+00	6.297481e+04	
22	1.100000e+00	6.285964e+04	
23	1.150000e+00	6.271644e+04	
24	1.200000e+00	6.255021e+04	
25	1.250000e+00	6.236501e+04	
26	1.300000e+00	6.216415e+04	
27	1.350000e+00	6.195033e+04	
28	1.400000e+00	6.172584e+04	
29	1.450000e+00	6.149254e+04	
30	1.500000e+00	6.125203e+04	
31	1.550000e+00	6.100562e+04	
32	1.600000e+00	6.075446e+04	
33	1.650000e+00	6.049949e+04	
34	1.700000e+00	6.024153e+04	
35	1.750000e+00	5.998125e+04	
36	1.800000e+00	5.971922e+04	
37	1.850000e+00	5.945591e+04	
38	1.900000e+00	5.919169e+04	
39	1.950000e+00	5.892682e+04	
40	2.000000e+00	5.866147e+04	
41	2.050000e+00	5.839570e+04	
42	2.100000e+00	5.812946e+04	
43	2.150000e+00	5.786254e+04	
44	2.200000e+00	5.759462e+04	
45	2.250000e+00	5.732520e+04	
46	2.300000e+00	5.705360e+04	
47	2.350000e+00	5.677895e+04	
48	2.400000e+00	5.650014e+04	
49	2.450000e+00	5.621582e+04	
50	2.500000e+00	5.592442e+04	
51	2.550000e+00	5.562404e+04	
52	2.600000e+00	5.531256e+04	
53	2.650000e+00	5.498752e+04	
54	2.700000e+00	5.464619e+04	

Index   v-sweep         rds             
--------------------------------------------------------------------------------
55	2.750000e+00	5.428558e+04	
56	2.800000e+00	5.390242e+04	
57	2.850000e+00	5.349321e+04	
58	2.900000e+00	5.305425e+04	
59	2.950000e+00	5.258173e+04	
60	3.000000e+00	5.207175e+04	
61	3.050000e+00	5.152044e+04	
62	3.100000e+00	5.092402e+04	
63	3.150000e+00	5.027894e+04	
64	3.200000e+00	4.958199e+04	
65	3.250000e+00	4.883043e+04	
66	3.300000e+00	4.802206e+04	
Reset re-loads circuit ***************************

Circuit: ***************************

Doing analysis at TEMP = 25.000000 and TNOM = 25.000000


No. of Data Rows : 67
                          ***************************
                          DC transfer characteristic  Mon Jan  9 13:58:13  2023
--------------------------------------------------------------------------------
Index   v-sweep         rds             
--------------------------------------------------------------------------------
0	0.000000e+00	7.019533e+02	
1	5.000000e-02	7.957522e+02	
2	1.000000e-01	9.088373e+02	
3	1.500000e-01	1.047722e+03	
4	2.000000e-01	1.222314e+03	
5	2.500000e-01	1.448481e+03	
6	3.000000e-01	1.753162e+03	
7	3.500000e-01	2.184321e+03	
8	4.000000e-01	2.826104e+03	
9	4.500000e-01	3.800892e+03	
10	5.000000e-01	5.205315e+03	
11	5.500000e-01	6.995137e+03	
12	6.000000e-01	8.984663e+03	
13	6.500000e-01	1.097314e+04	
14	7.000000e-01	1.283018e+04	
15	7.500000e-01	1.449860e+04	
16	8.000000e-01	1.596759e+04	
17	8.500000e-01	1.724908e+04	
18	9.000000e-01	1.836373e+04	
19	9.500000e-01	1.933384e+04	
20	1.000000e+00	2.018028e+04	
21	1.050000e+00	2.092147e+04	
22	1.100000e+00	2.157308e+04	
23	1.150000e+00	2.214833e+04	
24	1.200000e+00	2.265825e+04	
25	1.250000e+00	2.311207e+04	
26	1.300000e+00	2.351747e+04	
27	1.350000e+00	2.388091e+04	
28	1.400000e+00	2.420780e+04	
29	1.450000e+00	2.450271e+04	
30	1.500000e+00	2.476953e+04	
31	1.550000e+00	2.501157e+04	
32	1.600000e+00	2.523165e+04	
33	1.650000e+00	2.543220e+04	
34	1.700000e+00	2.561532e+04	
35	1.750000e+00	2.578283e+04	
36	1.800000e+00	2.593632e+04	
37	1.850000e+00	2.607716e+04	
38	1.900000e+00	2.620657e+04	
39	1.950000e+00	2.632559e+04	
40	2.000000e+00	2.643516e+04	
41	2.050000e+00	2.653608e+04	
42	2.100000e+00	2.662903e+04	
43	2.150000e+00	2.671459e+04	
44	2.200000e+00	2.679323e+04	
45	2.250000e+00	2.686528e+04	
46	2.300000e+00	2.693098e+04	
47	2.350000e+00	2.699040e+04	
48	2.400000e+00	2.704344e+04	
49	2.450000e+00	2.708985e+04	
50	2.500000e+00	2.712916e+04	
51	2.550000e+00	2.716065e+04	
52	2.600000e+00	2.718336e+04	
53	2.650000e+00	2.719604e+04	
54	2.700000e+00	2.719712e+04	

Index   v-sweep         rds             
--------------------------------------------------------------------------------
55	2.750000e+00	2.718469e+04	
56	2.800000e+00	2.715652e+04	
57	2.850000e+00	2.711000e+04	
58	2.900000e+00	2.704220e+04	
59	2.950000e+00	2.694986e+04	
60	3.000000e+00	2.682944e+04	
61	3.050000e+00	2.667721e+04	
62	3.100000e+00	2.648930e+04	
63	3.150000e+00	2.626186e+04	
64	3.200000e+00	2.599117e+04	
65	3.250000e+00	2.567383e+04	
66	3.300000e+00	2.530690e+04	
Reset re-loads circuit ***************************

Circuit: ***************************

Doing analysis at TEMP = 25.000000 and TNOM = 25.000000


No. of Data Rows : 67
                          ***************************
                          DC transfer characteristic  Mon Jan  9 13:58:13  2023
--------------------------------------------------------------------------------
Index   v-sweep         rds             
--------------------------------------------------------------------------------
0	0.000000e+00	4.681207e+02	
1	5.000000e-02	5.086621e+02	
2	1.000000e-01	5.539729e+02	
3	1.500000e-01	6.049138e+02	
4	2.000000e-01	6.625788e+02	
5	2.500000e-01	7.283863e+02	
6	3.000000e-01	8.042246e+02	
7	3.500000e-01	8.926899e+02	
8	4.000000e-01	9.975015e+02	
9	4.500000e-01	1.124258e+03	
10	5.000000e-01	1.281856e+03	
11	5.500000e-01	1.485081e+03	
12	6.000000e-01	1.758722e+03	
13	6.500000e-01	2.141380e+03	
14	7.000000e-01	2.681126e+03	
15	7.500000e-01	3.413335e+03	
16	8.000000e-01	4.332342e+03	
17	8.500000e-01	5.388643e+03	
18	9.000000e-01	6.514221e+03	
19	9.500000e-01	7.648179e+03	
20	1.000000e+00	8.747541e+03	
21	1.050000e+00	9.786886e+03	
22	1.100000e+00	1.075392e+04	
23	1.150000e+00	1.164490e+04	
24	1.200000e+00	1.246116e+04	
25	1.250000e+00	1.320674e+04	
26	1.300000e+00	1.388697e+04	
27	1.350000e+00	1.450761e+04	
28	1.400000e+00	1.507435e+04	
29	1.450000e+00	1.559255e+04	
30	1.500000e+00	1.606716e+04	
31	1.550000e+00	1.650264e+04	
32	1.600000e+00	1.690300e+04	
33	1.650000e+00	1.727179e+04	
34	1.700000e+00	1.761219e+04	
35	1.750000e+00	1.792700e+04	
36	1.800000e+00	1.821870e+04	
37	1.850000e+00	1.848948e+04	
38	1.900000e+00	1.874130e+04	
39	1.950000e+00	1.897589e+04	
40	2.000000e+00	1.919479e+04	
41	2.050000e+00	1.939936e+04	
42	2.100000e+00	1.959084e+04	
43	2.150000e+00	1.977029e+04	
44	2.200000e+00	1.993869e+04	
45	2.250000e+00	2.009690e+04	
46	2.300000e+00	2.024565e+04	
47	2.350000e+00	2.038558e+04	
48	2.400000e+00	2.051722e+04	
49	2.450000e+00	2.064096e+04	
50	2.500000e+00	2.075709e+04	
51	2.550000e+00	2.086571e+04	
52	2.600000e+00	2.096677e+04	
53	2.650000e+00	2.106002e+04	
54	2.700000e+00	2.114494e+04	

Index   v-sweep         rds             
--------------------------------------------------------------------------------
55	2.750000e+00	2.122077e+04	
56	2.800000e+00	2.128644e+04	
57	2.850000e+00	2.134054e+04	
58	2.900000e+00	2.138125e+04	
59	2.950000e+00	2.140640e+04	
60	3.000000e+00	2.141337e+04	
61	3.050000e+00	2.139913e+04	
62	3.100000e+00	2.136026e+04	
63	3.150000e+00	2.129297e+04	
64	3.200000e+00	2.119321e+04	
65	3.250000e+00	2.105676e+04	
66	3.300000e+00	2.087940e+04	
Reset re-loads circuit ***************************

Circuit: ***************************

Doing analysis at TEMP = 25.000000 and TNOM = 25.000000


No. of Data Rows : 67
                          ***************************
                          DC transfer characteristic  Mon Jan  9 13:58:13  2023
--------------------------------------------------------------------------------
Index   v-sweep         rds             
--------------------------------------------------------------------------------
0	0.000000e+00	3.774270e+02	
1	5.000000e-02	4.020059e+02	
2	1.000000e-01	4.286261e+02	
3	1.500000e-01	4.575371e+02	
4	2.000000e-01	4.890333e+02	
5	2.500000e-01	5.234653e+02	
6	3.000000e-01	5.612564e+02	
7	3.500000e-01	6.029247e+02	
8	4.000000e-01	6.491165e+02	
9	4.500000e-01	7.006565e+02	
10	5.000000e-01	7.586286e+02	
11	5.500000e-01	8.245083e+02	
12	6.000000e-01	9.003923e+02	
13	6.500000e-01	9.894027e+02	
14	7.000000e-01	1.096405e+03	
15	7.500000e-01	1.229238e+03	
16	8.000000e-01	1.400552e+03	
17	8.500000e-01	1.629714e+03	
18	9.000000e-01	1.942413e+03	
19	9.500000e-01	2.364213e+03	
20	1.000000e+00	2.908278e+03	
21	1.050000e+00	3.566453e+03	
22	1.100000e+00	4.312078e+03	
23	1.150000e+00	5.110804e+03	
24	1.200000e+00	5.930357e+03	
25	1.250000e+00	6.745334e+03	
26	1.300000e+00	7.538009e+03	
27	1.350000e+00	8.297227e+03	
28	1.400000e+00	9.016787e+03	
29	1.450000e+00	9.693950e+03	
30	1.500000e+00	1.032827e+04	
31	1.550000e+00	1.092074e+04	
32	1.600000e+00	1.147321e+04	
33	1.650000e+00	1.198798e+04	
34	1.700000e+00	1.246756e+04	
35	1.750000e+00	1.291451e+04	
36	1.800000e+00	1.333130e+04	
37	1.850000e+00	1.372032e+04	
38	1.900000e+00	1.408377e+04	
39	1.950000e+00	1.442373e+04	
40	2.000000e+00	1.474209e+04	
41	2.050000e+00	1.504059e+04	
42	2.100000e+00	1.532081e+04	
43	2.150000e+00	1.558420e+04	
44	2.200000e+00	1.583207e+04	
45	2.250000e+00	1.606563e+04	
46	2.300000e+00	1.628595e+04	
47	2.350000e+00	1.649401e+04	
48	2.400000e+00	1.669071e+04	
49	2.450000e+00	1.687683e+04	
50	2.500000e+00	1.705308e+04	
51	2.550000e+00	1.722007e+04	
52	2.600000e+00	1.737829e+04	
53	2.650000e+00	1.752815e+04	
54	2.700000e+00	1.766990e+04	

Index   v-sweep         rds             
--------------------------------------------------------------------------------
55	2.750000e+00	1.780366e+04	
56	2.800000e+00	1.792935e+04	
57	2.850000e+00	1.804668e+04	
58	2.900000e+00	1.815511e+04	
59	2.950000e+00	1.825381e+04	
60	3.000000e+00	1.834159e+04	
61	3.050000e+00	1.841690e+04	
62	3.100000e+00	1.847775e+04	
63	3.150000e+00	1.852170e+04	
64	3.200000e+00	1.854585e+04	
65	3.250000e+00	1.854681e+04	
66	3.300000e+00	1.852076e+04	
Reset re-loads circuit ***************************

Circuit: ***************************

Doing analysis at TEMP = 25.000000 and TNOM = 25.000000


No. of Data Rows : 67
                          ***************************
                          DC transfer characteristic  Mon Jan  9 13:58:13  2023
--------------------------------------------------------------------------------
Index   v-sweep         rds             
--------------------------------------------------------------------------------
0	0.000000e+00	3.370181e+02	
1	5.000000e-02	3.548698e+02	
2	1.000000e-01	3.738896e+02	
3	1.500000e-01	3.941870e+02	
4	2.000000e-01	4.158865e+02	
5	2.500000e-01	4.391302e+02	
6	3.000000e-01	4.640820e+02	
7	3.500000e-01	4.909317e+02	
8	4.000000e-01	5.199017e+02	
9	4.500000e-01	5.512557e+02	
10	5.000000e-01	5.853108e+02	
11	5.500000e-01	6.224549e+02	
12	6.000000e-01	6.631736e+02	
13	6.500000e-01	7.080906e+02	
14	7.000000e-01	7.580343e+02	
15	7.500000e-01	8.141457e+02	
16	8.000000e-01	8.780622e+02	
17	8.500000e-01	9.522288e+02	
18	9.000000e-01	1.040420e+03	
19	9.500000e-01	1.148560e+03	
20	1.000000e+00	1.285841e+03	
21	1.050000e+00	1.465703e+03	
22	1.100000e+00	1.705423e+03	
23	1.150000e+00	2.022537e+03	
24	1.200000e+00	2.428188e+03	
25	1.250000e+00	2.921457e+03	
26	1.300000e+00	3.489183e+03	
27	1.350000e+00	4.110860e+03	
28	1.400000e+00	4.764527e+03	
29	1.450000e+00	5.430729e+03	
30	1.500000e+00	6.094151e+03	
31	1.550000e+00	6.743712e+03	
32	1.600000e+00	7.371967e+03	
33	1.650000e+00	7.974309e+03	
34	1.700000e+00	8.548225e+03	
35	1.750000e+00	9.092683e+03	
36	1.800000e+00	9.607664e+03	
37	1.850000e+00	1.009382e+04	
38	1.900000e+00	1.055222e+04	
39	1.950000e+00	1.098419e+04	
40	2.000000e+00	1.139116e+04	
41	2.050000e+00	1.177464e+04	
42	2.100000e+00	1.213611e+04	
43	2.150000e+00	1.247701e+04	
44	2.200000e+00	1.279873e+04	
45	2.250000e+00	1.310257e+04	
46	2.300000e+00	1.338976e+04	
47	2.350000e+00	1.366144e+04	
48	2.400000e+00	1.391868e+04	
49	2.450000e+00	1.416247e+04	
50	2.500000e+00	1.439370e+04	
51	2.550000e+00	1.461323e+04	
52	2.600000e+00	1.482180e+04	
53	2.650000e+00	1.502011e+04	
54	2.700000e+00	1.520877e+04	

Index   v-sweep         rds             
--------------------------------------------------------------------------------
55	2.750000e+00	1.538831e+04	
56	2.800000e+00	1.555918e+04	
57	2.850000e+00	1.572171e+04	
58	2.900000e+00	1.587609e+04	
59	2.950000e+00	1.602238e+04	
60	3.000000e+00	1.616044e+04	
61	3.050000e+00	1.628990e+04	
62	3.100000e+00	1.641011e+04	
63	3.150000e+00	1.652013e+04	
64	3.200000e+00	1.661863e+04	
65	3.250000e+00	1.670384e+04	
66	3.300000e+00	1.677358e+04	
Reset re-loads circuit ***************************

Circuit: ***************************

Doing analysis at TEMP = 25.000000 and TNOM = 25.000000


No. of Data Rows : 67
                          ***************************
                          DC transfer characteristic  Mon Jan  9 13:58:13  2023
--------------------------------------------------------------------------------
Index   v-sweep         rds             
--------------------------------------------------------------------------------
0	0.000000e+00	3.110617e+02	
1	5.000000e-02	3.248900e+02	
2	1.000000e-01	3.394615e+02	
3	1.500000e-01	3.548324e+02	
4	2.000000e-01	3.710647e+02	
5	2.500000e-01	3.882277e+02	
6	3.000000e-01	4.063987e+02	
7	3.500000e-01	4.256646e+02	
8	4.000000e-01	4.461235e+02	
9	4.500000e-01	4.678867e+02	
10	5.000000e-01	4.910820e+02	
11	5.500000e-01	5.158569e+02	
12	6.000000e-01	5.423841e+02	
13	6.500000e-01	5.708680e+02	
14	7.000000e-01	6.015553e+02	
15	7.500000e-01	6.347492e+02	
16	8.000000e-01	6.708322e+02	
17	8.500000e-01	7.103002e+02	
18	9.000000e-01	7.538171e+02	
19	9.500000e-01	8.023043e+02	
20	1.000000e+00	8.570844e+02	
21	1.050000e+00	9.201177e+02	
22	1.100000e+00	9.943759e+02	
23	1.150000e+00	1.084397e+03	
24	1.200000e+00	1.196987e+03	
25	1.250000e+00	1.341802e+03	
26	1.300000e+00	1.531112e+03	
27	1.350000e+00	1.777805e+03	
28	1.400000e+00	2.091519e+03	
29	1.450000e+00	2.474755e+03	
30	1.500000e+00	2.921615e+03	
31	1.550000e+00	3.419821e+03	
32	1.600000e+00	3.954262e+03	
33	1.650000e+00	4.510061e+03	
34	1.700000e+00	5.074358e+03	
35	1.750000e+00	5.636950e+03	
36	1.800000e+00	6.190245e+03	
37	1.850000e+00	6.728900e+03	
38	1.900000e+00	7.249374e+03	
39	1.950000e+00	7.749506e+03	
40	2.000000e+00	8.228158e+03	
41	2.050000e+00	8.684927e+03	
42	2.100000e+00	9.119925e+03	
43	2.150000e+00	9.533621e+03	
44	2.200000e+00	9.926714e+03	
45	2.250000e+00	1.030005e+04	
46	2.300000e+00	1.065455e+04	
47	2.350000e+00	1.099119e+04	
48	2.400000e+00	1.131092e+04	
49	2.450000e+00	1.161471e+04	
50	2.500000e+00	1.190349e+04	
51	2.550000e+00	1.217813e+04	
52	2.600000e+00	1.243949e+04	
53	2.650000e+00	1.268836e+04	
54	2.700000e+00	1.292549e+04	

Index   v-sweep         rds             
--------------------------------------------------------------------------------
55	2.750000e+00	1.315158e+04	
56	2.800000e+00	1.336728e+04	
57	2.850000e+00	1.357318e+04	
58	2.900000e+00	1.376980e+04	
59	2.950000e+00	1.395761e+04	
60	3.000000e+00	1.413699e+04	
61	3.050000e+00	1.430822e+04	
62	3.100000e+00	1.447146e+04	
63	3.150000e+00	1.462672e+04	
64	3.200000e+00	1.477381e+04	
65	3.250000e+00	1.491233e+04	
66	3.300000e+00	1.504158e+04	
Reset re-loads circuit ***************************

Circuit: ***************************

Note: No ".plot", ".print", or ".fourier" lines; no simulations run
