
Note: Compatibility modes selected: hs

Warning: m=xx on .subckt line will override multiplier m hierarchy!


Circuit: ***************************

Doing analysis at TEMP = -40.000000 and TNOM = -40.000000


No. of Data Rows : 67
                          ***************************
                          DC transfer characteristic  Mon Jan  9 13:58:14  2023
--------------------------------------------------------------------------------
Index   v-sweep         rds             
--------------------------------------------------------------------------------
0	0.000000e+00	1.967423e+06	
1	5.000000e-02	3.768302e+06	
2	1.000000e-01	1.837329e+07	
3	1.500000e-01	2.603904e+08	
4	2.000000e-01	9.528802e+08	
5	2.500000e-01	1.581719e+09	
6	3.000000e-01	1.985665e+09	
7	3.500000e-01	2.241757e+09	
8	4.000000e-01	2.414110e+09	
9	4.500000e-01	2.537386e+09	
10	5.000000e-01	2.630020e+09	
11	5.500000e-01	2.702345e+09	
12	6.000000e-01	2.760519e+09	
13	6.500000e-01	2.808422e+09	
14	7.000000e-01	2.848619e+09	
15	7.500000e-01	2.882876e+09	
16	8.000000e-01	2.912446e+09	
17	8.500000e-01	2.938251e+09	
18	9.000000e-01	2.960980e+09	
19	9.500000e-01	2.981162e+09	
20	1.000000e+00	2.999209e+09	
21	1.050000e+00	3.015447e+09	
22	1.100000e+00	3.030139e+09	
23	1.150000e+00	3.043497e+09	
24	1.200000e+00	3.055699e+09	
25	1.250000e+00	3.066888e+09	
26	1.300000e+00	3.077187e+09	
27	1.350000e+00	3.086698e+09	
28	1.400000e+00	3.095510e+09	
29	1.450000e+00	3.103696e+09	
30	1.500000e+00	3.111322e+09	
31	1.550000e+00	3.118442e+09	
32	1.600000e+00	3.125106e+09	
33	1.650000e+00	3.131355e+09	
34	1.700000e+00	3.137224e+09	
35	1.750000e+00	3.142746e+09	
36	1.800000e+00	3.147947e+09	
37	1.850000e+00	3.152849e+09	
38	1.900000e+00	3.157469e+09	
39	1.950000e+00	3.161821e+09	
40	2.000000e+00	3.165913e+09	
41	2.050000e+00	3.169749e+09	
42	2.100000e+00	3.173326e+09	
43	2.150000e+00	3.176637e+09	
44	2.200000e+00	3.179666e+09	
45	2.250000e+00	3.182391e+09	
46	2.300000e+00	3.184783e+09	
47	2.350000e+00	3.186803e+09	
48	2.400000e+00	3.188403e+09	
49	2.450000e+00	3.189528e+09	
50	2.500000e+00	3.190109e+09	
51	2.550000e+00	3.190070e+09	
52	2.600000e+00	3.189323e+09	
53	2.650000e+00	3.187769e+09	
54	2.700000e+00	3.185299e+09	

Index   v-sweep         rds             
--------------------------------------------------------------------------------
55	2.750000e+00	3.181795e+09	
56	2.800000e+00	3.177130e+09	
57	2.850000e+00	3.171168e+09	
58	2.900000e+00	3.163767e+09	
59	2.950000e+00	3.154780e+09	
60	3.000000e+00	3.144056e+09	
61	3.050000e+00	3.131445e+09	
62	3.100000e+00	3.116797e+09	
63	3.150000e+00	3.099968e+09	
64	3.200000e+00	3.080822e+09	
65	3.250000e+00	3.059233e+09	
66	3.300000e+00	3.035090e+09	
Reset re-loads circuit ***************************

Circuit: ***************************

Doing analysis at TEMP = -40.000000 and TNOM = -40.000000


No. of Data Rows : 67
                          ***************************
                          DC transfer characteristic  Mon Jan  9 13:58:14  2023
--------------------------------------------------------------------------------
Index   v-sweep         rds             
--------------------------------------------------------------------------------
0	0.000000e+00	3.741283e+05	
1	5.000000e-02	4.209548e+05	
2	1.000000e-01	4.809481e+05	
3	1.500000e-01	5.605617e+05	
4	2.000000e-01	6.712755e+05	
5	2.500000e-01	8.356272e+05	
6	3.000000e-01	1.104466e+06	
7	3.500000e-01	1.618867e+06	
8	4.000000e-01	2.913372e+06	
9	4.500000e-01	7.778460e+06	
10	5.000000e-01	2.653160e+07	
11	5.500000e-01	6.609355e+07	
12	6.000000e-01	1.147927e+08	
13	6.500000e-01	1.612075e+08	
14	7.000000e-01	2.016276e+08	
15	7.500000e-01	2.360219e+08	
16	8.000000e-01	2.653052e+08	
17	8.500000e-01	2.904392e+08	
18	9.000000e-01	3.122246e+08	
19	9.500000e-01	3.312896e+08	
20	1.000000e+00	3.481207e+08	
21	1.050000e+00	3.630962e+08	
22	1.100000e+00	3.765136e+08	
23	1.150000e+00	3.886092e+08	
24	1.200000e+00	3.995732e+08	
25	1.250000e+00	4.095605e+08	
26	1.300000e+00	4.186984e+08	
27	1.350000e+00	4.270926e+08	
28	1.400000e+00	4.348318e+08	
29	1.450000e+00	4.419909e+08	
30	1.500000e+00	4.486336e+08	
31	1.550000e+00	4.548144e+08	
32	1.600000e+00	4.605805e+08	
33	1.650000e+00	4.659727e+08	
34	1.700000e+00	4.710264e+08	
35	1.750000e+00	4.757729e+08	
36	1.800000e+00	4.802394e+08	
37	1.850000e+00	4.844502e+08	
38	1.900000e+00	4.884265e+08	
39	1.950000e+00	4.921873e+08	
40	2.000000e+00	4.957492e+08	
41	2.050000e+00	4.991268e+08	
42	2.100000e+00	5.023329e+08	
43	2.150000e+00	5.053781e+08	
44	2.200000e+00	5.082716e+08	
45	2.250000e+00	5.110199e+08	
46	2.300000e+00	5.136279e+08	
47	2.350000e+00	5.160977e+08	
48	2.400000e+00	5.184288e+08	
49	2.450000e+00	5.206175e+08	
50	2.500000e+00	5.226567e+08	
51	2.550000e+00	5.245355e+08	
52	2.600000e+00	5.262387e+08	
53	2.650000e+00	5.277462e+08	
54	2.700000e+00	5.290332e+08	

Index   v-sweep         rds             
--------------------------------------------------------------------------------
55	2.750000e+00	5.300691e+08	
56	2.800000e+00	5.308182e+08	
57	2.850000e+00	5.312388e+08	
58	2.900000e+00	5.312839e+08	
59	2.950000e+00	5.309012e+08	
60	3.000000e+00	5.300340e+08	
61	3.050000e+00	5.286217e+08	
62	3.100000e+00	5.266013e+08	
63	3.150000e+00	5.239092e+08	
64	3.200000e+00	5.204823e+08	
65	3.250000e+00	5.162612e+08	
66	3.300000e+00	5.111920e+08	
Reset re-loads circuit ***************************

Circuit: ***************************

Doing analysis at TEMP = -40.000000 and TNOM = -40.000000


No. of Data Rows : 67
                          ***************************
                          DC transfer characteristic  Mon Jan  9 13:58:14  2023
--------------------------------------------------------------------------------
Index   v-sweep         rds             
--------------------------------------------------------------------------------
0	0.000000e+00	2.139867e+05	
1	5.000000e-02	2.278838e+05	
2	1.000000e-01	2.436580e+05	
3	1.500000e-01	2.617171e+05	
4	2.000000e-01	2.825961e+05	
5	2.500000e-01	3.070111e+05	
6	3.000000e-01	3.359430e+05	
7	3.500000e-01	3.707719e+05	
8	4.000000e-01	4.135035e+05	
9	4.500000e-01	4.671670e+05	
10	5.000000e-01	5.365610e+05	
11	5.500000e-01	6.297560e+05	
12	6.000000e-01	7.614157e+05	
13	6.500000e-01	9.610512e+05	
14	7.000000e-01	1.296825e+06	
15	7.500000e-01	1.956854e+06	
16	8.000000e-01	3.552706e+06	
17	8.500000e-01	7.862339e+06	
18	9.000000e-01	1.722402e+07	
19	9.500000e-01	3.117924e+07	
20	1.000000e+00	4.710864e+07	
21	1.050000e+00	6.302621e+07	
22	1.100000e+00	7.803600e+07	
23	1.150000e+00	9.186035e+07	
24	1.200000e+00	1.044861e+08	
25	1.250000e+00	1.159971e+08	
26	1.300000e+00	1.265045e+08	
27	1.350000e+00	1.361195e+08	
28	1.400000e+00	1.449442e+08	
29	1.450000e+00	1.530688e+08	
30	1.500000e+00	1.605718e+08	
31	1.550000e+00	1.675211e+08	
32	1.600000e+00	1.739757e+08	
33	1.650000e+00	1.799864e+08	
34	1.700000e+00	1.855976e+08	
35	1.750000e+00	1.908479e+08	
36	1.800000e+00	1.957712e+08	
37	1.850000e+00	2.003972e+08	
38	1.900000e+00	2.047522e+08	
39	1.950000e+00	2.088594e+08	
40	2.000000e+00	2.127394e+08	
41	2.050000e+00	2.164106e+08	
42	2.100000e+00	2.198895e+08	
43	2.150000e+00	2.231909e+08	
44	2.200000e+00	2.263280e+08	
45	2.250000e+00	2.293128e+08	
46	2.300000e+00	2.321558e+08	
47	2.350000e+00	2.348668e+08	
48	2.400000e+00	2.374543e+08	
49	2.450000e+00	2.399259e+08	
50	2.500000e+00	2.422878e+08	
51	2.550000e+00	2.445456e+08	
52	2.600000e+00	2.467033e+08	
53	2.650000e+00	2.487636e+08	
54	2.700000e+00	2.507276e+08	

Index   v-sweep         rds             
--------------------------------------------------------------------------------
55	2.750000e+00	2.525945e+08	
56	2.800000e+00	2.543615e+08	
57	2.850000e+00	2.560231e+08	
58	2.900000e+00	2.575711e+08	
59	2.950000e+00	2.589940e+08	
60	3.000000e+00	2.602771e+08	
61	3.050000e+00	2.614013e+08	
62	3.100000e+00	2.623438e+08	
63	3.150000e+00	2.630773e+08	
64	3.200000e+00	2.635704e+08	
65	3.250000e+00	2.637875e+08	
66	3.300000e+00	2.636891e+08	
Reset re-loads circuit ***************************

Circuit: ***************************

Doing analysis at TEMP = -40.000000 and TNOM = -40.000000


No. of Data Rows : 67
                          ***************************
                          DC transfer characteristic  Mon Jan  9 13:58:14  2023
--------------------------------------------------------------------------------
Index   v-sweep         rds             
--------------------------------------------------------------------------------
0	0.000000e+00	1.574570e+05	
1	5.000000e-02	1.642365e+05	
2	1.000000e-01	1.716031e+05	
3	1.500000e-01	1.796365e+05	
4	2.000000e-01	1.884315e+05	
5	2.500000e-01	1.981018e+05	
6	3.000000e-01	2.087848e+05	
7	3.500000e-01	2.206484e+05	
8	4.000000e-01	2.338997e+05	
9	4.500000e-01	2.487971e+05	
10	5.000000e-01	2.656677e+05	
11	5.500000e-01	2.849311e+05	
12	6.000000e-01	3.071350e+05	
13	6.500000e-01	3.330078e+05	
14	7.000000e-01	3.635402e+05	
15	7.500000e-01	4.001140e+05	
16	8.000000e-01	4.447164e+05	
17	8.500000e-01	5.003101e+05	
18	9.000000e-01	5.715125e+05	
19	9.500000e-01	6.659228e+05	
20	1.000000e+00	7.969383e+05	
21	1.050000e+00	9.903330e+05	
22	1.100000e+00	1.301383e+06	
23	1.150000e+00	1.863579e+06	
24	1.200000e+00	3.019302e+06	
25	1.250000e+00	5.496505e+06	
26	1.300000e+00	1.006043e+07	
27	1.350000e+00	1.660636e+07	
28	1.400000e+00	2.431296e+07	
29	1.450000e+00	3.241202e+07	
30	1.500000e+00	4.044150e+07	
31	1.550000e+00	4.817330e+07	
32	1.600000e+00	5.551134e+07	
33	1.650000e+00	6.242679e+07	
34	1.700000e+00	6.892351e+07	
35	1.750000e+00	7.502044e+07	
36	1.800000e+00	8.074275e+07	
37	1.850000e+00	8.611745e+07	
38	1.900000e+00	9.117118e+07	
39	1.950000e+00	9.592921e+07	
40	2.000000e+00	1.004150e+08	
41	2.050000e+00	1.046500e+08	
42	2.100000e+00	1.086539e+08	
43	2.150000e+00	1.124445e+08	
44	2.200000e+00	1.160380e+08	
45	2.250000e+00	1.194491e+08	
46	2.300000e+00	1.226911e+08	
47	2.350000e+00	1.257760e+08	
48	2.400000e+00	1.287150e+08	
49	2.450000e+00	1.315179e+08	
50	2.500000e+00	1.341941e+08	
51	2.550000e+00	1.367517e+08	
52	2.600000e+00	1.391984e+08	
53	2.650000e+00	1.415412e+08	
54	2.700000e+00	1.437864e+08	

Index   v-sweep         rds             
--------------------------------------------------------------------------------
55	2.750000e+00	1.459398e+08	
56	2.800000e+00	1.480064e+08	
57	2.850000e+00	1.499909e+08	
58	2.900000e+00	1.518970e+08	
59	2.950000e+00	1.537279e+08	
60	3.000000e+00	1.554857e+08	
61	3.050000e+00	1.571718e+08	
62	3.100000e+00	1.587860e+08	
63	3.150000e+00	1.603268e+08	
64	3.200000e+00	1.617912e+08	
65	3.250000e+00	1.631737e+08	
66	3.300000e+00	1.644668e+08	
Reset re-loads circuit ***************************

Circuit: ***************************

Doing analysis at TEMP = -40.000000 and TNOM = -40.000000


No. of Data Rows : 67
                          ***************************
                          DC transfer characteristic  Mon Jan  9 13:58:14  2023
--------------------------------------------------------------------------------
Index   v-sweep         rds             
--------------------------------------------------------------------------------
0	0.000000e+00	1.296014e+05	
1	5.000000e-02	1.336841e+05	
2	1.000000e-01	1.380199e+05	
3	1.500000e-01	1.426331e+05	
4	2.000000e-01	1.475512e+05	
5	2.500000e-01	1.528055e+05	
6	3.000000e-01	1.584315e+05	
7	3.500000e-01	1.644703e+05	
8	4.000000e-01	1.709690e+05	
9	4.500000e-01	1.779821e+05	
10	5.000000e-01	1.855732e+05	
11	5.500000e-01	1.938168e+05	
12	6.000000e-01	2.028009e+05	
13	6.500000e-01	2.126298e+05	
14	7.000000e-01	2.234287e+05	
15	7.500000e-01	2.353483e+05	
16	8.000000e-01	2.485728e+05	
17	8.500000e-01	2.633288e+05	
18	9.000000e-01	2.798986e+05	
19	9.500000e-01	2.986384e+05	
20	1.000000e+00	3.200042e+05	
21	1.050000e+00	3.445893e+05	
22	1.100000e+00	3.731803e+05	
23	1.150000e+00	4.068421e+05	
24	1.200000e+00	4.470538e+05	
25	1.250000e+00	4.959297e+05	
26	1.300000e+00	5.566006e+05	
27	1.350000e+00	6.339011e+05	
28	1.400000e+00	7.356918e+05	
29	1.450000e+00	8.755849e+05	
30	1.500000e+00	1.079019e+06	
31	1.550000e+00	1.397729e+06	
32	1.600000e+00	1.944183e+06	
33	1.650000e+00	2.954914e+06	
34	1.700000e+00	4.803683e+06	
35	1.750000e+00	7.763071e+06	
36	1.800000e+00	1.172495e+07	
37	1.850000e+00	1.633180e+07	
38	1.900000e+00	2.124089e+07	
39	1.950000e+00	2.621917e+07	
40	2.000000e+00	3.112964e+07	
41	2.050000e+00	3.589806e+07	
42	2.100000e+00	4.048737e+07	
43	2.150000e+00	4.488184e+07	
44	2.200000e+00	4.907783e+07	
45	2.250000e+00	5.307839e+07	
46	2.300000e+00	5.689024e+07	
47	2.350000e+00	6.052195e+07	
48	2.400000e+00	6.398290e+07	
49	2.450000e+00	6.728268e+07	
50	2.500000e+00	7.043070e+07	
51	2.550000e+00	7.343606e+07	
52	2.600000e+00	7.630737e+07	
53	2.650000e+00	7.905276e+07	
54	2.700000e+00	8.167984e+07	

Index   v-sweep         rds             
--------------------------------------------------------------------------------
55	2.750000e+00	8.419571e+07	
56	2.800000e+00	8.660699e+07	
57	2.850000e+00	8.891983e+07	
58	2.900000e+00	9.113993e+07	
59	2.950000e+00	9.327262e+07	
60	3.000000e+00	9.532280e+07	
61	3.050000e+00	9.729506e+07	
62	3.100000e+00	9.919360e+07	
63	3.150000e+00	1.010223e+08	
64	3.200000e+00	1.027847e+08	
65	3.250000e+00	1.044839e+08	
66	3.300000e+00	1.061228e+08	
Reset re-loads circuit ***************************

Circuit: ***************************

Doing analysis at TEMP = -40.000000 and TNOM = -40.000000


No. of Data Rows : 67
                          ***************************
                          DC transfer characteristic  Mon Jan  9 13:58:14  2023
--------------------------------------------------------------------------------
Index   v-sweep         rds             
--------------------------------------------------------------------------------
0	0.000000e+00	1.155018e+05	
1	5.000000e-02	1.183421e+05	
2	1.000000e-01	1.213178e+05	
3	1.500000e-01	1.244388e+05	
4	2.000000e-01	1.277160e+05	
5	2.500000e-01	1.311614e+05	
6	3.000000e-01	1.347883e+05	
7	3.500000e-01	1.386115e+05	
8	4.000000e-01	1.426472e+05	
9	4.500000e-01	1.469138e+05	
10	5.000000e-01	1.514315e+05	
11	5.500000e-01	1.562233e+05	
12	6.000000e-01	1.613149e+05	
13	6.500000e-01	1.667352e+05	
14	7.000000e-01	1.725172e+05	
15	7.500000e-01	1.786983e+05	
16	8.000000e-01	1.853213e+05	
17	8.500000e-01	1.924353e+05	
18	9.000000e-01	2.000970e+05	
19	9.500000e-01	2.083723e+05	
20	1.000000e+00	2.173377e+05	
21	1.050000e+00	2.270836e+05	
22	1.100000e+00	2.377162e+05	
23	1.150000e+00	2.493625e+05	
24	1.200000e+00	2.621746e+05	
25	1.250000e+00	2.763368e+05	
26	1.300000e+00	2.920743e+05	
27	1.350000e+00	3.096654e+05	
28	1.400000e+00	3.294580e+05	
29	1.450000e+00	3.518932e+05	
30	1.500000e+00	3.775377e+05	
31	1.550000e+00	4.071335e+05	
32	1.600000e+00	4.416696e+05	
33	1.650000e+00	4.824957e+05	
34	1.700000e+00	5.315013e+05	
35	1.750000e+00	5.914152e+05	
36	1.800000e+00	6.663260e+05	
37	1.850000e+00	7.626354e+05	
38	1.900000e+00	8.909113e+05	
39	1.950000e+00	1.069706e+06	
40	2.000000e+00	1.333763e+06	
41	2.050000e+00	1.751221e+06	
42	2.100000e+00	2.451625e+06	
43	2.150000e+00	3.634015e+06	
44	2.200000e+00	5.475466e+06	
45	2.250000e+00	7.984595e+06	
46	2.300000e+00	1.100438e+07	
47	2.350000e+00	1.433497e+07	
48	2.400000e+00	1.781383e+07	
49	2.450000e+00	2.133060e+07	
50	2.500000e+00	2.481626e+07	
51	2.550000e+00	2.822967e+07	
52	2.600000e+00	3.154741e+07	
53	2.650000e+00	3.475709e+07	
54	2.700000e+00	3.785315e+07	

Index   v-sweep         rds             
--------------------------------------------------------------------------------
55	2.750000e+00	4.083426e+07	
56	2.800000e+00	4.370167e+07	
57	2.850000e+00	4.645824e+07	
58	2.900000e+00	4.910768e+07	
59	2.950000e+00	5.165427e+07	
60	3.000000e+00	5.410245e+07	
61	3.050000e+00	5.645678e+07	
62	3.100000e+00	5.872173e+07	
63	3.150000e+00	6.090166e+07	
64	3.200000e+00	6.300078e+07	
65	3.250000e+00	6.502311e+07	
66	3.300000e+00	6.697246e+07	
Reset re-loads circuit ***************************

Circuit: ***************************

Note: No ".plot", ".print", or ".fourier" lines; no simulations run
