
Note: Compatibility modes selected: hs

Warning: m=xx on .subckt line will override multiplier m hierarchy!


Circuit: ***************************

Doing analysis at TEMP = 25.000000 and TNOM = 25.000000


No. of Data Rows : 67
                          ***************************
                          DC transfer characteristic  Mon Jan  9 13:58:13  2023
--------------------------------------------------------------------------------
Index   v-sweep         rds             
--------------------------------------------------------------------------------
0	0.000000e+00	6.150711e+04	
1	5.000000e-02	9.217105e+04	
2	1.000000e-01	1.675583e+05	
3	1.500000e-01	4.144423e+05	
4	2.000000e-01	1.080906e+06	
5	2.500000e-01	2.004821e+06	
6	3.000000e-01	2.851515e+06	
7	3.500000e-01	3.555530e+06	
8	4.000000e-01	4.143930e+06	
9	4.500000e-01	4.645521e+06	
10	5.000000e-01	5.080472e+06	
11	5.500000e-01	5.462574e+06	
12	6.000000e-01	5.801608e+06	
13	6.500000e-01	6.104799e+06	
14	7.000000e-01	6.377677e+06	
15	7.500000e-01	6.624594e+06	
16	8.000000e-01	6.849052e+06	
17	8.500000e-01	7.053916e+06	
18	9.000000e-01	7.241563e+06	
19	9.500000e-01	7.413988e+06	
20	1.000000e+00	7.572884e+06	
21	1.050000e+00	7.719697e+06	
22	1.100000e+00	7.855670e+06	
23	1.150000e+00	7.981881e+06	
24	1.200000e+00	8.099269e+06	
25	1.250000e+00	8.208656e+06	
26	1.300000e+00	8.310765e+06	
27	1.350000e+00	8.406235e+06	
28	1.400000e+00	8.495632e+06	
29	1.450000e+00	8.579460e+06	
30	1.500000e+00	8.658169e+06	
31	1.550000e+00	8.732161e+06	
32	1.600000e+00	8.801796e+06	
33	1.650000e+00	8.867397e+06	
34	1.700000e+00	8.929252e+06	
35	1.750000e+00	8.987618e+06	
36	1.800000e+00	9.042719e+06	
37	1.850000e+00	9.094750e+06	
38	1.900000e+00	9.143873e+06	
39	1.950000e+00	9.190213e+06	
40	2.000000e+00	9.233861e+06	
41	2.050000e+00	9.274864e+06	
42	2.100000e+00	9.313220e+06	
43	2.150000e+00	9.348873e+06	
44	2.200000e+00	9.381705e+06	
45	2.250000e+00	9.411530e+06	
46	2.300000e+00	9.438082e+06	
47	2.350000e+00	9.461010e+06	
48	2.400000e+00	9.479870e+06	
49	2.450000e+00	9.494120e+06	
50	2.500000e+00	9.503111e+06	
51	2.550000e+00	9.506091e+06	
52	2.600000e+00	9.502202e+06	
53	2.650000e+00	9.490485e+06	
54	2.700000e+00	9.469895e+06	

Index   v-sweep         rds             
--------------------------------------------------------------------------------
55	2.750000e+00	9.439310e+06	
56	2.800000e+00	9.397559e+06	
57	2.850000e+00	9.343449e+06	
58	2.900000e+00	9.275801e+06	
59	2.950000e+00	9.193491e+06	
60	3.000000e+00	9.095501e+06	
61	3.050000e+00	8.980967e+06	
62	3.100000e+00	8.849230e+06	
63	3.150000e+00	8.699887e+06	
64	3.200000e+00	8.532832e+06	
65	3.250000e+00	8.348289e+06	
66	3.300000e+00	8.146837e+06	
Reset re-loads circuit ***************************

Circuit: ***************************

Doing analysis at TEMP = 25.000000 and TNOM = 25.000000


No. of Data Rows : 67
                          ***************************
                          DC transfer characteristic  Mon Jan  9 13:58:13  2023
--------------------------------------------------------------------------------
Index   v-sweep         rds             
--------------------------------------------------------------------------------
0	0.000000e+00	1.319058e+04	
1	5.000000e-02	1.471031e+04	
2	1.000000e-01	1.654302e+04	
3	1.500000e-01	1.879509e+04	
4	2.000000e-01	2.162675e+04	
5	2.500000e-01	2.529011e+04	
6	3.000000e-01	3.020300e+04	
7	3.500000e-01	3.709945e+04	
8	4.000000e-01	4.734057e+04	
9	4.500000e-01	6.347830e+04	
10	5.000000e-01	8.966811e+04	
11	5.500000e-01	1.298376e+05	
12	6.000000e-01	1.832918e+05	
13	6.500000e-01	2.448897e+05	
14	7.000000e-01	3.096523e+05	
15	7.500000e-01	3.746369e+05	
16	8.000000e-01	4.384107e+05	
17	8.500000e-01	5.003323e+05	
18	9.000000e-01	5.601409e+05	
19	9.500000e-01	6.177590e+05	
20	1.000000e+00	6.731983e+05	
21	1.050000e+00	7.265147e+05	
22	1.100000e+00	7.777853e+05	
23	1.150000e+00	8.270965e+05	
24	1.200000e+00	8.745376e+05	
25	1.250000e+00	9.201975e+05	
26	1.300000e+00	9.641627e+05	
27	1.350000e+00	1.006516e+06	
28	1.400000e+00	1.047337e+06	
29	1.450000e+00	1.086701e+06	
30	1.500000e+00	1.124679e+06	
31	1.550000e+00	1.161338e+06	
32	1.600000e+00	1.196741e+06	
33	1.650000e+00	1.230948e+06	
34	1.700000e+00	1.264016e+06	
35	1.750000e+00	1.295996e+06	
36	1.800000e+00	1.326940e+06	
37	1.850000e+00	1.356893e+06	
38	1.900000e+00	1.385900e+06	
39	1.950000e+00	1.414002e+06	
40	2.000000e+00	1.441238e+06	
41	2.050000e+00	1.467641e+06	
42	2.100000e+00	1.493244e+06	
43	2.150000e+00	1.518073e+06	
44	2.200000e+00	1.542149e+06	
45	2.250000e+00	1.565486e+06	
46	2.300000e+00	1.588089e+06	
47	2.350000e+00	1.609953e+06	
48	2.400000e+00	1.631054e+06	
49	2.450000e+00	1.651356e+06	
50	2.500000e+00	1.670797e+06	
51	2.550000e+00	1.689288e+06	
52	2.600000e+00	1.706712e+06	
53	2.650000e+00	1.722914e+06	
54	2.700000e+00	1.737698e+06	

Index   v-sweep         rds             
--------------------------------------------------------------------------------
55	2.750000e+00	1.750823e+06	
56	2.800000e+00	1.762003e+06	
57	2.850000e+00	1.770901e+06	
58	2.900000e+00	1.777135e+06	
59	2.950000e+00	1.780279e+06	
60	3.000000e+00	1.779875e+06	
61	3.050000e+00	1.775446e+06	
62	3.100000e+00	1.766515e+06	
63	3.150000e+00	1.752627e+06	
64	3.200000e+00	1.733380e+06	
65	3.250000e+00	1.708455e+06	
66	3.300000e+00	1.677646e+06	
Reset re-loads circuit ***************************

Circuit: ***************************

Doing analysis at TEMP = 25.000000 and TNOM = 25.000000


No. of Data Rows : 67
                          ***************************
                          DC transfer characteristic  Mon Jan  9 13:58:13  2023
--------------------------------------------------------------------------------
Index   v-sweep         rds             
--------------------------------------------------------------------------------
0	0.000000e+00	8.054745e+03	
1	5.000000e-02	8.628779e+03	
2	1.000000e-01	9.267289e+03	
3	1.500000e-01	9.981574e+03	
4	2.000000e-01	1.078574e+04	
5	2.500000e-01	1.169764e+04	
6	3.000000e-01	1.274021e+04	
7	3.500000e-01	1.394340e+04	
8	4.000000e-01	1.534716e+04	
9	4.500000e-01	1.700597e+04	
10	5.000000e-01	1.899622e+04	
11	5.500000e-01	2.142861e+04	
12	6.000000e-01	2.446999e+04	
13	6.500000e-01	2.838292e+04	
14	7.000000e-01	3.359651e+04	
15	7.500000e-01	4.081189e+04	
16	8.000000e-01	5.105734e+04	
17	8.500000e-01	6.540891e+04	
18	9.000000e-01	8.427190e+04	
19	9.500000e-01	1.070045e+05	
20	1.000000e+00	1.324121e+05	
21	1.050000e+00	1.593788e+05	
22	1.100000e+00	1.871005e+05	
23	1.150000e+00	2.150574e+05	
24	1.200000e+00	2.429260e+05	
25	1.250000e+00	2.705081e+05	
26	1.300000e+00	2.976825e+05	
27	1.350000e+00	3.243760e+05	
28	1.400000e+00	3.505461e+05	
29	1.450000e+00	3.761694e+05	
30	1.500000e+00	4.012355e+05	
31	1.550000e+00	4.257424e+05	
32	1.600000e+00	4.496934e+05	
33	1.650000e+00	4.730959e+05	
34	1.700000e+00	4.959596e+05	
35	1.750000e+00	5.182958e+05	
36	1.800000e+00	5.401170e+05	
37	1.850000e+00	5.614361e+05	
38	1.900000e+00	5.822666e+05	
39	1.950000e+00	6.026218e+05	
40	2.000000e+00	6.225152e+05	
41	2.050000e+00	6.419599e+05	
42	2.100000e+00	6.609690e+05	
43	2.150000e+00	6.795552e+05	
44	2.200000e+00	6.977306e+05	
45	2.250000e+00	7.155069e+05	
46	2.300000e+00	7.328951e+05	
47	2.350000e+00	7.499050e+05	
48	2.400000e+00	7.665450e+05	
49	2.450000e+00	7.828214e+05	
50	2.500000e+00	7.987375e+05	
51	2.550000e+00	8.142926e+05	
52	2.600000e+00	8.294804e+05	
53	2.650000e+00	8.442869e+05	
54	2.700000e+00	8.586882e+05	

Index   v-sweep         rds             
--------------------------------------------------------------------------------
55	2.750000e+00	8.726479e+05	
56	2.800000e+00	8.861137e+05	
57	2.850000e+00	8.990136e+05	
58	2.900000e+00	9.112525e+05	
59	2.950000e+00	9.227078e+05	
60	3.000000e+00	9.332261e+05	
61	3.050000e+00	9.426199e+05	
62	3.100000e+00	9.506654e+05	
63	3.150000e+00	9.571027e+05	
64	3.200000e+00	9.616379e+05	
65	3.250000e+00	9.639483e+05	
66	3.300000e+00	9.636926e+05	
Reset re-loads circuit ***************************

Circuit: ***************************

Doing analysis at TEMP = 25.000000 and TNOM = 25.000000


No. of Data Rows : 67
                          ***************************
                          DC transfer characteristic  Mon Jan  9 13:58:13  2023
--------------------------------------------------------------------------------
Index   v-sweep         rds             
--------------------------------------------------------------------------------
0	0.000000e+00	6.149839e+03	
1	5.000000e-02	6.478005e+03	
2	1.000000e-01	6.831873e+03	
3	1.500000e-01	7.214498e+03	
4	2.000000e-01	7.629441e+03	
5	2.500000e-01	8.080879e+03	
6	3.000000e-01	8.573750e+03	
7	3.500000e-01	9.113929e+03	
8	4.000000e-01	9.708470e+03	
9	4.500000e-01	1.036592e+04	
10	5.000000e-01	1.109676e+04	
11	5.500000e-01	1.191397e+04	
12	6.000000e-01	1.283388e+04	
13	6.500000e-01	1.387744e+04	
14	7.000000e-01	1.507200e+04	
15	7.500000e-01	1.645434e+04	
16	8.000000e-01	1.807554e+04	
17	8.500000e-01	2.000963e+04	
18	9.000000e-01	2.236906e+04	
19	9.500000e-01	2.533234e+04	
20	1.000000e+00	2.918713e+04	
21	1.050000e+00	3.437090e+04	
22	1.100000e+00	4.143273e+04	
23	1.150000e+00	5.082208e+04	
24	1.200000e+00	6.261478e+04	
25	1.250000e+00	7.647533e+04	
26	1.300000e+00	9.187356e+04	
27	1.350000e+00	1.082996e+05	
28	1.400000e+00	1.253535e+05	
29	1.450000e+00	1.427492e+05	
30	1.500000e+00	1.602900e+05	
31	1.550000e+00	1.778417e+05	
32	1.600000e+00	1.953133e+05	
33	1.650000e+00	2.126430e+05	
34	1.700000e+00	2.297885e+05	
35	1.750000e+00	2.467209e+05	
36	1.800000e+00	2.634211e+05	
37	1.850000e+00	2.798765e+05	
38	1.900000e+00	2.960791e+05	
39	1.950000e+00	3.120245e+05	
40	2.000000e+00	3.277108e+05	
41	2.050000e+00	3.431378e+05	
42	2.100000e+00	3.583068e+05	
43	2.150000e+00	3.732200e+05	
44	2.200000e+00	3.878804e+05	
45	2.250000e+00	4.022915e+05	
46	2.300000e+00	4.164571e+05	
47	2.350000e+00	4.303815e+05	
48	2.400000e+00	4.440690e+05	
49	2.450000e+00	4.575239e+05	
50	2.500000e+00	4.707505e+05	
51	2.550000e+00	4.837531e+05	
52	2.600000e+00	4.965352e+05	
53	2.650000e+00	5.090999e+05	
54	2.700000e+00	5.214491e+05	

Index   v-sweep         rds             
--------------------------------------------------------------------------------
55	2.750000e+00	5.335827e+05	
56	2.800000e+00	5.454983e+05	
57	2.850000e+00	5.571894e+05	
58	2.900000e+00	5.686448e+05	
59	2.950000e+00	5.798459e+05	
60	3.000000e+00	5.907650e+05	
61	3.050000e+00	6.013630e+05	
62	3.100000e+00	6.115855e+05	
63	3.150000e+00	6.213607e+05	
64	3.200000e+00	6.305952e+05	
65	3.250000e+00	6.391709e+05	
66	3.300000e+00	6.469423e+05	
Reset re-loads circuit ***************************

Circuit: ***************************

Doing analysis at TEMP = 25.000000 and TNOM = 25.000000


No. of Data Rows : 67
                          ***************************
                          DC transfer characteristic  Mon Jan  9 13:58:13  2023
--------------------------------------------------------------------------------
Index   v-sweep         rds             
--------------------------------------------------------------------------------
0	0.000000e+00	5.192406e+03	
1	5.000000e-02	5.417290e+03	
2	1.000000e-01	5.655831e+03	
3	1.500000e-01	5.909264e+03	
4	2.000000e-01	6.178978e+03	
5	2.500000e-01	6.466543e+03	
6	3.000000e-01	6.773739e+03	
7	3.500000e-01	7.102593e+03	
8	4.000000e-01	7.455424e+03	
9	4.500000e-01	7.834900e+03	
10	5.000000e-01	8.244103e+03	
11	5.500000e-01	8.686623e+03	
12	6.000000e-01	9.166662e+03	
13	6.500000e-01	9.689181e+03	
14	7.000000e-01	1.026009e+04	
15	7.500000e-01	1.088652e+04	
16	8.000000e-01	1.157714e+04	
17	8.500000e-01	1.234271e+04	
18	9.000000e-01	1.319684e+04	
19	9.500000e-01	1.415715e+04	
20	1.000000e+00	1.524724e+04	
21	1.050000e+00	1.649995e+04	
22	1.100000e+00	1.796324e+04	
23	1.150000e+00	1.971038e+04	
24	1.200000e+00	2.185745e+04	
25	1.250000e+00	2.458817e+04	
26	1.300000e+00	2.817456e+04	
27	1.350000e+00	3.295537e+04	
28	1.400000e+00	3.923071e+04	
29	1.450000e+00	4.711591e+04	
30	1.500000e+00	5.648802e+04	
31	1.550000e+00	6.706832e+04	
32	1.600000e+00	7.854250e+04	
33	1.650000e+00	9.063463e+04	
34	1.700000e+00	1.031295e+05	
35	1.750000e+00	1.158684e+05	
36	1.800000e+00	1.287371e+05	
37	1.850000e+00	1.416537e+05	
38	1.900000e+00	1.545598e+05	
39	1.950000e+00	1.674132e+05	
40	2.000000e+00	1.801837e+05	
41	2.050000e+00	1.928492e+05	
42	2.100000e+00	2.053938e+05	
43	2.150000e+00	2.178062e+05	
44	2.200000e+00	2.300780e+05	
45	2.250000e+00	2.422037e+05	
46	2.300000e+00	2.541795e+05	
47	2.350000e+00	2.660027e+05	
48	2.400000e+00	2.776723e+05	
49	2.450000e+00	2.891876e+05	
50	2.500000e+00	3.005488e+05	
51	2.550000e+00	3.117565e+05	
52	2.600000e+00	3.228119e+05	
53	2.650000e+00	3.337161e+05	
54	2.700000e+00	3.444708e+05	

Index   v-sweep         rds             
--------------------------------------------------------------------------------
55	2.750000e+00	3.550774e+05	
56	2.800000e+00	3.655376e+05	
57	2.850000e+00	3.758526e+05	
58	2.900000e+00	3.860233e+05	
59	2.950000e+00	3.960496e+05	
60	3.000000e+00	4.059301e+05	
61	3.050000e+00	4.156614e+05	
62	3.100000e+00	4.252370e+05	
63	3.150000e+00	4.346461e+05	
64	3.200000e+00	4.438722e+05	
65	3.250000e+00	4.528908e+05	
66	3.300000e+00	4.616679e+05	
Reset re-loads circuit ***************************

Circuit: ***************************

Doing analysis at TEMP = 25.000000 and TNOM = 25.000000


No. of Data Rows : 67
                          ***************************
                          DC transfer characteristic  Mon Jan  9 13:58:13  2023
--------------------------------------------------------------------------------
Index   v-sweep         rds             
--------------------------------------------------------------------------------
0	0.000000e+00	4.671546e+03	
1	5.000000e-02	4.843768e+03	
2	1.000000e-01	5.024639e+03	
3	1.500000e-01	5.214795e+03	
4	2.000000e-01	5.414941e+03	
5	2.500000e-01	5.625853e+03	
6	3.000000e-01	5.848390e+03	
7	3.500000e-01	6.083509e+03	
8	4.000000e-01	6.332274e+03	
9	4.500000e-01	6.595873e+03	
10	5.000000e-01	6.875640e+03	
11	5.500000e-01	7.173075e+03	
12	6.000000e-01	7.489874e+03	
13	6.500000e-01	7.827962e+03	
14	7.000000e-01	8.189533e+03	
15	7.500000e-01	8.577105e+03	
16	8.000000e-01	8.993584e+03	
17	8.500000e-01	9.442349e+03	
18	9.000000e-01	9.927363e+03	
19	9.500000e-01	1.045332e+04	
20	1.000000e+00	1.102587e+04	
21	1.050000e+00	1.165187e+04	
22	1.100000e+00	1.233990e+04	
23	1.150000e+00	1.310087e+04	
24	1.200000e+00	1.394919e+04	
25	1.250000e+00	1.490460e+04	
26	1.300000e+00	1.599533e+04	
27	1.350000e+00	1.726362e+04	
28	1.400000e+00	1.877489e+04	
29	1.450000e+00	2.063167e+04	
30	1.500000e+00	2.298960e+04	
31	1.550000e+00	2.606248e+04	
32	1.600000e+00	3.009110e+04	
33	1.650000e+00	3.526410e+04	
34	1.700000e+00	4.163551e+04	
35	1.750000e+00	4.910893e+04	
36	1.800000e+00	5.749359e+04	
37	1.850000e+00	6.657552e+04	
38	1.900000e+00	7.616231e+04	
39	1.950000e+00	8.609878e+04	
40	2.000000e+00	9.626639e+04	
41	2.050000e+00	1.065769e+05	
42	2.100000e+00	1.169651e+05	
43	2.150000e+00	1.273830e+05	
44	2.200000e+00	1.377950e+05	
45	2.250000e+00	1.481746e+05	
46	2.300000e+00	1.585021e+05	
47	2.350000e+00	1.687627e+05	
48	2.400000e+00	1.789452e+05	
49	2.450000e+00	1.890413e+05	
50	2.500000e+00	1.990447e+05	
51	2.550000e+00	2.089508e+05	
52	2.600000e+00	2.187563e+05	
53	2.650000e+00	2.284588e+05	
54	2.700000e+00	2.380566e+05	

Index   v-sweep         rds             
--------------------------------------------------------------------------------
55	2.750000e+00	2.475488e+05	
56	2.800000e+00	2.569348e+05	
57	2.850000e+00	2.662145e+05	
58	2.900000e+00	2.753880e+05	
59	2.950000e+00	2.844556e+05	
60	3.000000e+00	2.934178e+05	
61	3.050000e+00	3.022749e+05	
62	3.100000e+00	3.110271e+05	
63	3.150000e+00	3.196741e+05	
64	3.200000e+00	3.282149e+05	
65	3.250000e+00	3.366468e+05	
66	3.300000e+00	3.449656e+05	
Reset re-loads circuit ***************************

Circuit: ***************************

Note: No ".plot", ".print", or ".fourier" lines; no simulations run
