
Note: Compatibility modes selected: hs

Warning: m=xx on .subckt line will override multiplier m hierarchy!


Circuit: ***************************

Doing analysis at TEMP = 25.000000 and TNOM = 25.000000


No. of Data Rows : 67
                          ***************************
                          DC transfer characteristic  Mon Jan  9 13:58:13  2023
--------------------------------------------------------------------------------
Index   v-sweep         rds             
--------------------------------------------------------------------------------
0	0.000000e+00	5.680897e+04	
1	5.000000e-02	8.806066e+04	
2	1.000000e-01	1.812851e+05	
3	1.500000e-01	6.781403e+05	
4	2.000000e-01	2.554155e+06	
5	2.500000e-01	5.072647e+06	
6	3.000000e-01	7.219421e+06	
7	3.500000e-01	8.946731e+06	
8	4.000000e-01	1.036796e+07	
9	4.500000e-01	1.156734e+07	
10	5.000000e-01	1.259926e+07	
11	5.500000e-01	1.349999e+07	
12	6.000000e-01	1.429500e+07	
13	6.500000e-01	1.500294e+07	
14	7.000000e-01	1.563801e+07	
15	7.500000e-01	1.621124e+07	
16	8.000000e-01	1.673147e+07	
17	8.500000e-01	1.720584e+07	
18	9.000000e-01	1.764021e+07	
19	9.500000e-01	1.803948e+07	
20	1.000000e+00	1.840774e+07	
21	1.050000e+00	1.874847e+07	
22	1.100000e+00	1.906464e+07	
23	1.150000e+00	1.935880e+07	
24	1.200000e+00	1.963316e+07	
25	1.250000e+00	1.988963e+07	
26	1.300000e+00	2.012990e+07	
27	1.350000e+00	2.035544e+07	
28	1.400000e+00	2.056754e+07	
29	1.450000e+00	2.076735e+07	
30	1.500000e+00	2.095591e+07	
31	1.550000e+00	2.113411e+07	
32	1.600000e+00	2.130276e+07	
33	1.650000e+00	2.146259e+07	
34	1.700000e+00	2.161424e+07	
35	1.750000e+00	2.175826e+07	
36	1.800000e+00	2.189515e+07	
37	1.850000e+00	2.202532e+07	
38	1.900000e+00	2.214910e+07	
39	1.950000e+00	2.226675e+07	
40	2.000000e+00	2.237839e+07	
41	2.050000e+00	2.248409e+07	
42	2.100000e+00	2.258377e+07	
43	2.150000e+00	2.267718e+07	
44	2.200000e+00	2.276397e+07	
45	2.250000e+00	2.284357e+07	
46	2.300000e+00	2.291521e+07	
47	2.350000e+00	2.297793e+07	
48	2.400000e+00	2.303051e+07	
49	2.450000e+00	2.307148e+07	
50	2.500000e+00	2.309912e+07	
51	2.550000e+00	2.311145e+07	
52	2.600000e+00	2.310622e+07	
53	2.650000e+00	2.308095e+07	
54	2.700000e+00	2.303296e+07	

Index   v-sweep         rds             
--------------------------------------------------------------------------------
55	2.750000e+00	2.295940e+07	
56	2.800000e+00	2.285732e+07	
57	2.850000e+00	2.272375e+07	
58	2.900000e+00	2.255582e+07	
59	2.950000e+00	2.235081e+07	
60	3.000000e+00	2.210634e+07	
61	3.050000e+00	2.182043e+07	
62	3.100000e+00	2.149170e+07	
63	3.150000e+00	2.111942e+07	
64	3.200000e+00	2.070362e+07	
65	3.250000e+00	2.024520e+07	
66	3.300000e+00	1.974590e+07	
Reset re-loads circuit ***************************

Circuit: ***************************

Doing analysis at TEMP = 25.000000 and TNOM = 25.000000


No. of Data Rows : 67
                          ***************************
                          DC transfer characteristic  Mon Jan  9 13:58:13  2023
--------------------------------------------------------------------------------
Index   v-sweep         rds             
--------------------------------------------------------------------------------
0	0.000000e+00	1.223596e+04	
1	5.000000e-02	1.362729e+04	
2	1.000000e-01	1.533255e+04	
3	1.500000e-01	1.747094e+04	
4	2.000000e-01	2.023053e+04	
5	2.500000e-01	2.392560e+04	
6	3.000000e-01	2.912164e+04	
7	3.500000e-01	3.693664e+04	
8	4.000000e-01	4.985381e+04	
9	4.500000e-01	7.403657e+04	
10	5.000000e-01	1.241709e+05	
11	5.500000e-01	2.198890e+05	
12	6.000000e-01	3.583492e+05	
13	6.500000e-01	5.163893e+05	
14	7.000000e-01	6.775228e+05	
15	7.500000e-01	8.348975e+05	
16	8.000000e-01	9.861799e+05	
17	8.500000e-01	1.130750e+06	
18	9.000000e-01	1.268627e+06	
19	9.500000e-01	1.400064e+06	
20	1.000000e+00	1.525400e+06	
21	1.050000e+00	1.644992e+06	
22	1.100000e+00	1.759192e+06	
23	1.150000e+00	1.868336e+06	
24	1.200000e+00	1.972737e+06	
25	1.250000e+00	2.072686e+06	
26	1.300000e+00	2.168455e+06	
27	1.350000e+00	2.260294e+06	
28	1.400000e+00	2.348436e+06	
29	1.450000e+00	2.433094e+06	
30	1.500000e+00	2.514469e+06	
31	1.550000e+00	2.592743e+06	
32	1.600000e+00	2.668089e+06	
33	1.650000e+00	2.740664e+06	
34	1.700000e+00	2.810618e+06	
35	1.750000e+00	2.878086e+06	
36	1.800000e+00	2.943198e+06	
37	1.850000e+00	3.006072e+06	
38	1.900000e+00	3.066819e+06	
39	1.950000e+00	3.125542e+06	
40	2.000000e+00	3.182335e+06	
41	2.050000e+00	3.237282e+06	
42	2.100000e+00	3.290460e+06	
43	2.150000e+00	3.341932e+06	
44	2.200000e+00	3.391747e+06	
45	2.250000e+00	3.439937e+06	
46	2.300000e+00	3.486508e+06	
47	2.350000e+00	3.531443e+06	
48	2.400000e+00	3.574686e+06	
49	2.450000e+00	3.616138e+06	
50	2.500000e+00	3.655647e+06	
51	2.550000e+00	3.692999e+06	
52	2.600000e+00	3.727905e+06	
53	2.650000e+00	3.759995e+06	
54	2.700000e+00	3.788803e+06	

Index   v-sweep         rds             
--------------------------------------------------------------------------------
55	2.750000e+00	3.813763e+06	
56	2.800000e+00	3.834204e+06	
57	2.850000e+00	3.849347e+06	
58	2.900000e+00	3.858318e+06	
59	2.950000e+00	3.860155e+06	
60	3.000000e+00	3.853839e+06	
61	3.050000e+00	3.838327e+06	
62	3.100000e+00	3.812596e+06	
63	3.150000e+00	3.775708e+06	
64	3.200000e+00	3.726866e+06	
65	3.250000e+00	3.665489e+06	
66	3.300000e+00	3.591275e+06	
Reset re-loads circuit ***************************

Circuit: ***************************

Doing analysis at TEMP = 25.000000 and TNOM = 25.000000


No. of Data Rows : 67
                          ***************************
                          DC transfer characteristic  Mon Jan  9 13:58:13  2023
--------------------------------------------------------------------------------
Index   v-sweep         rds             
--------------------------------------------------------------------------------
0	0.000000e+00	7.316802e+03	
1	5.000000e-02	7.802698e+03	
2	1.000000e-01	8.345983e+03	
3	1.500000e-01	8.957399e+03	
4	2.000000e-01	9.650547e+03	
5	2.500000e-01	1.044291e+04	
6	3.000000e-01	1.135733e+04	
7	3.500000e-01	1.242427e+04	
8	4.000000e-01	1.368522e+04	
9	4.500000e-01	1.519826e+04	
10	5.000000e-01	1.704720e+04	
11	5.500000e-01	1.935768e+04	
12	6.000000e-01	2.232679e+04	
13	6.500000e-01	2.628172e+04	
14	7.000000e-01	3.180363e+04	
15	7.500000e-01	4.000016e+04	
16	8.000000e-01	5.304761e+04	
17	8.500000e-01	7.468223e+04	
18	9.000000e-01	1.086454e+05	
19	9.500000e-01	1.548425e+05	
20	1.000000e+00	2.094388e+05	
21	1.050000e+00	2.684144e+05	
22	1.100000e+00	3.291149e+05	
23	1.150000e+00	3.900380e+05	
24	1.200000e+00	4.503672e+05	
25	1.250000e+00	5.096626e+05	
26	1.300000e+00	5.676902e+05	
27	1.350000e+00	6.243316e+05	
28	1.400000e+00	6.795346e+05	
29	1.450000e+00	7.332864e+05	
30	1.500000e+00	7.855977e+05	
31	1.550000e+00	8.364935e+05	
32	1.600000e+00	8.860071e+05	
33	1.650000e+00	9.341767e+05	
34	1.700000e+00	9.810435e+05	
35	1.750000e+00	1.026649e+06	
36	1.800000e+00	1.071037e+06	
37	1.850000e+00	1.114248e+06	
38	1.900000e+00	1.156324e+06	
39	1.950000e+00	1.197304e+06	
40	2.000000e+00	1.237228e+06	
41	2.050000e+00	1.276133e+06	
42	2.100000e+00	1.314055e+06	
43	2.150000e+00	1.351029e+06	
44	2.200000e+00	1.387087e+06	
45	2.250000e+00	1.422262e+06	
46	2.300000e+00	1.456582e+06	
47	2.350000e+00	1.490074e+06	
48	2.400000e+00	1.522763e+06	
49	2.450000e+00	1.554668e+06	
50	2.500000e+00	1.585803e+06	
51	2.550000e+00	1.616175e+06	
52	2.600000e+00	1.645779e+06	
53	2.650000e+00	1.674599e+06	
54	2.700000e+00	1.702596e+06	

Index   v-sweep         rds             
--------------------------------------------------------------------------------
55	2.750000e+00	1.729713e+06	
56	2.800000e+00	1.755858e+06	
57	2.850000e+00	1.780905e+06	
58	2.900000e+00	1.804683e+06	
59	2.950000e+00	1.826970e+06	
60	3.000000e+00	1.847482e+06	
61	3.050000e+00	1.865870e+06	
62	3.100000e+00	1.881714e+06	
63	3.150000e+00	1.894520e+06	
64	3.200000e+00	1.903725e+06	
65	3.250000e+00	1.908705e+06	
66	3.300000e+00	1.908793e+06	
Reset re-loads circuit ***************************

Circuit: ***************************

Doing analysis at TEMP = 25.000000 and TNOM = 25.000000


No. of Data Rows : 67
                          ***************************
                          DC transfer characteristic  Mon Jan  9 13:58:13  2023
--------------------------------------------------------------------------------
Index   v-sweep         rds             
--------------------------------------------------------------------------------
0	0.000000e+00	5.507947e+03	
1	5.000000e-02	5.771350e+03	
2	1.000000e-01	6.055744e+03	
3	1.500000e-01	6.363717e+03	
4	2.000000e-01	6.698300e+03	
5	2.500000e-01	7.063067e+03	
6	3.000000e-01	7.462266e+03	
7	3.500000e-01	7.900977e+03	
8	4.000000e-01	8.385340e+03	
9	4.500000e-01	8.922834e+03	
10	5.000000e-01	9.522674e+03	
11	5.500000e-01	1.019634e+04	
12	6.000000e-01	1.095835e+04	
13	6.500000e-01	1.182728e+04	
14	7.000000e-01	1.282742e+04	
15	7.500000e-01	1.399106e+04	
16	8.000000e-01	1.536230e+04	
17	8.500000e-01	1.700312e+04	
18	9.000000e-01	1.900395e+04	
19	9.500000e-01	2.150310e+04	
20	1.000000e+00	2.472494e+04	
21	1.050000e+00	2.905851e+04	
22	1.100000e+00	3.521246e+04	
23	1.150000e+00	4.443201e+04	
24	1.200000e+00	5.843879e+04	
25	1.250000e+00	7.848721e+04	
26	1.300000e+00	1.042812e+05	
27	1.350000e+00	1.343432e+05	
28	1.400000e+00	1.670825e+05	
29	1.450000e+00	2.013028e+05	
30	1.500000e+00	2.362175e+05	
31	1.550000e+00	2.713308e+05	
32	1.600000e+00	3.063325e+05	
33	1.650000e+00	3.410275e+05	
34	1.700000e+00	3.752928e+05	
35	1.750000e+00	4.090508e+05	
36	1.800000e+00	4.422538e+05	
37	1.850000e+00	4.748734e+05	
38	1.900000e+00	5.068943e+05	
39	1.950000e+00	5.383104e+05	
40	2.000000e+00	5.691217e+05	
41	2.050000e+00	5.993322e+05	
42	2.100000e+00	6.289493e+05	
43	2.150000e+00	6.579822e+05	
44	2.200000e+00	6.864416e+05	
45	2.250000e+00	7.143390e+05	
46	2.300000e+00	7.416868e+05	
47	2.350000e+00	7.684974e+05	
48	2.400000e+00	7.947836e+05	
49	2.450000e+00	8.205581e+05	
50	2.500000e+00	8.458335e+05	
51	2.550000e+00	8.706219e+05	
52	2.600000e+00	8.949353e+05	
53	2.650000e+00	9.187844e+05	
54	2.700000e+00	9.421789e+05	

Index   v-sweep         rds             
--------------------------------------------------------------------------------
55	2.750000e+00	9.651266e+05	
56	2.800000e+00	9.876323e+05	
57	2.850000e+00	1.009696e+06	
58	2.900000e+00	1.031314e+06	
59	2.950000e+00	1.052470e+06	
60	3.000000e+00	1.073139e+06	
61	3.050000e+00	1.093281e+06	
62	3.100000e+00	1.112834e+06	
63	3.150000e+00	1.131713e+06	
64	3.200000e+00	1.149800e+06	
65	3.250000e+00	1.166942e+06	
66	3.300000e+00	1.182940e+06	
Reset re-loads circuit ***************************

Circuit: ***************************

Doing analysis at TEMP = 25.000000 and TNOM = 25.000000


No. of Data Rows : 67
                          ***************************
                          DC transfer characteristic  Mon Jan  9 13:58:13  2023
--------------------------------------------------------------------------------
Index   v-sweep         rds             
--------------------------------------------------------------------------------
0	0.000000e+00	4.592702e+03	
1	5.000000e-02	4.765101e+03	
2	1.000000e-01	4.947792e+03	
3	1.500000e-01	5.141711e+03	
4	2.000000e-01	5.347911e+03	
5	2.500000e-01	5.567583e+03	
6	3.000000e-01	5.802073e+03	
7	3.500000e-01	6.052919e+03	
8	4.000000e-01	6.321876e+03	
9	4.500000e-01	6.610959e+03	
10	5.000000e-01	6.922499e+03	
11	5.500000e-01	7.259197e+03	
12	6.000000e-01	7.624211e+03	
13	6.500000e-01	8.021253e+03	
14	7.000000e-01	8.454714e+03	
15	7.500000e-01	8.929835e+03	
16	8.000000e-01	9.452922e+03	
17	8.500000e-01	1.003164e+04	
18	9.000000e-01	1.067540e+04	
19	9.500000e-01	1.139591e+04	
20	1.000000e+00	1.220797e+04	
21	1.050000e+00	1.313059e+04	
22	1.100000e+00	1.418876e+04	
23	1.150000e+00	1.541622e+04	
24	1.200000e+00	1.686019e+04	
25	1.250000e+00	1.858989e+04	
26	1.300000e+00	2.071275e+04	
27	1.350000e+00	2.340681e+04	
28	1.400000e+00	2.698350e+04	
29	1.450000e+00	3.198792e+04	
30	1.500000e+00	3.926467e+04	
31	1.550000e+00	4.975313e+04	
32	1.600000e+00	6.393283e+04	
33	1.650000e+00	8.149877e+04	
34	1.700000e+00	1.016595e+05	
35	1.750000e+00	1.235849e+05	
36	1.800000e+00	1.466163e+05	
37	1.850000e+00	1.702870e+05	
38	1.900000e+00	1.942798e+05	
39	1.950000e+00	2.183813e+05	
40	2.000000e+00	2.424472e+05	
41	2.050000e+00	2.663795e+05	
42	2.100000e+00	2.901112e+05	
43	2.150000e+00	3.135960e+05	
44	2.200000e+00	3.368025e+05	
45	2.250000e+00	3.597093e+05	
46	2.300000e+00	3.823023e+05	
47	2.350000e+00	4.045727e+05	
48	2.400000e+00	4.265155e+05	
49	2.450000e+00	4.481286e+05	
50	2.500000e+00	4.694117e+05	
51	2.550000e+00	4.903665e+05	
52	2.600000e+00	5.109955e+05	
53	2.650000e+00	5.313022e+05	
54	2.700000e+00	5.512908e+05	

Index   v-sweep         rds             
--------------------------------------------------------------------------------
55	2.750000e+00	5.709657e+05	
56	2.800000e+00	5.903320e+05	
57	2.850000e+00	6.093946e+05	
58	2.900000e+00	6.281586e+05	
59	2.950000e+00	6.466287e+05	
60	3.000000e+00	6.648094e+05	
61	3.050000e+00	6.827038e+05	
62	3.100000e+00	7.003136e+05	
63	3.150000e+00	7.176380e+05	
64	3.200000e+00	7.346724e+05	
65	3.250000e+00	7.514065e+05	
66	3.300000e+00	7.678224e+05	
Reset re-loads circuit ***************************

Circuit: ***************************

Doing analysis at TEMP = 25.000000 and TNOM = 25.000000


No. of Data Rows : 67
                          ***************************
                          DC transfer characteristic  Mon Jan  9 13:58:13  2023
--------------------------------------------------------------------------------
Index   v-sweep         rds             
--------------------------------------------------------------------------------
0	0.000000e+00	4.102319e+03	
1	5.000000e-02	4.229701e+03	
2	1.000000e-01	4.363169e+03	
3	1.500000e-01	4.503161e+03	
4	2.000000e-01	4.650158e+03	
5	2.500000e-01	4.804690e+03	
6	3.000000e-01	4.967343e+03	
7	3.500000e-01	5.138764e+03	
8	4.000000e-01	5.319673e+03	
9	4.500000e-01	5.510868e+03	
10	5.000000e-01	5.713241e+03	
11	5.500000e-01	5.927792e+03	
12	6.000000e-01	6.155642e+03	
13	6.500000e-01	6.398055e+03	
14	7.000000e-01	6.656462e+03	
15	7.500000e-01	6.932488e+03	
16	8.000000e-01	7.227988e+03	
17	8.500000e-01	7.545088e+03	
18	9.000000e-01	7.886236e+03	
19	9.500000e-01	8.254271e+03	
20	1.000000e+00	8.652502e+03	
21	1.050000e+00	9.084813e+03	
22	1.100000e+00	9.555798e+03	
23	1.150000e+00	1.007094e+04	
24	1.200000e+00	1.063683e+04	
25	1.250000e+00	1.126154e+04	
26	1.300000e+00	1.195502e+04	
27	1.350000e+00	1.272981e+04	
28	1.400000e+00	1.360203e+04	
29	1.450000e+00	1.459303e+04	
30	1.500000e+00	1.573210e+04	
31	1.550000e+00	1.706139e+04	
32	1.600000e+00	1.864503e+04	
33	1.650000e+00	2.058674e+04	
34	1.700000e+00	2.306277e+04	
35	1.750000e+00	2.637533e+04	
36	1.800000e+00	3.100481e+04	
37	1.850000e+00	3.756737e+04	
38	1.900000e+00	4.657261e+04	
39	1.950000e+00	5.812702e+04	
40	2.000000e+00	7.190880e+04	
41	2.050000e+00	8.739745e+04	
42	2.100000e+00	1.040869e+05	
43	2.150000e+00	1.215732e+05	
44	2.200000e+00	1.395602e+05	
45	2.250000e+00	1.578377e+05	
46	2.300000e+00	1.762584e+05	
47	2.350000e+00	1.947182e+05	
48	2.400000e+00	2.131435e+05	
49	2.450000e+00	2.314817e+05	
50	2.500000e+00	2.496948e+05	
51	2.550000e+00	2.677556e+05	
52	2.600000e+00	2.856444e+05	
53	2.650000e+00	3.033471e+05	
54	2.700000e+00	3.208535e+05	

Index   v-sweep         rds             
--------------------------------------------------------------------------------
55	2.750000e+00	3.381568e+05	
56	2.800000e+00	3.552524e+05	
57	2.850000e+00	3.721374e+05	
58	2.900000e+00	3.888104e+05	
59	2.950000e+00	4.052709e+05	
60	3.000000e+00	4.215194e+05	
61	3.050000e+00	4.375569e+05	
62	3.100000e+00	4.533848e+05	
63	3.150000e+00	4.690051e+05	
64	3.200000e+00	4.844196e+05	
65	3.250000e+00	4.996306e+05	
66	3.300000e+00	5.146397e+05	
Reset re-loads circuit ***************************

Circuit: ***************************

Note: No ".plot", ".print", or ".fourier" lines; no simulations run
