
Note: Compatibility modes selected: hs

Warning: m=xx on .subckt line will override multiplier m hierarchy!


Circuit: ***************************

Doing analysis at TEMP = 125.000000 and TNOM = 125.000000


No. of Data Rows : 67
                          ***************************
                          DC transfer characteristic  Mon Jan  9 13:58:14  2023
--------------------------------------------------------------------------------
Index   v-sweep         rds             
--------------------------------------------------------------------------------
0	0.000000e+00	8.213983e+05	
1	5.000000e-02	1.044806e+06	
2	1.000000e-01	1.433488e+06	
3	1.500000e-01	2.271819e+06	
4	2.000000e-01	5.116159e+06	
5	2.500000e-01	2.580182e+07	
6	3.000000e-01	1.368408e+08	
7	3.500000e-01	3.382939e+08	
8	4.000000e-01	5.269133e+08	
9	4.500000e-01	6.676665e+08	
10	5.000000e-01	7.696116e+08	
11	5.500000e-01	8.455158e+08	
12	6.000000e-01	9.041297e+08	
13	6.500000e-01	9.508893e+08	
14	7.000000e-01	9.891982e+08	
15	7.500000e-01	1.021261e+09	
16	8.000000e-01	1.048564e+09	
17	8.500000e-01	1.072141e+09	
18	9.000000e-01	1.092741e+09	
19	9.500000e-01	1.110917e+09	
20	1.000000e+00	1.127089e+09	
21	1.050000e+00	1.141582e+09	
22	1.100000e+00	1.154653e+09	
23	1.150000e+00	1.166507e+09	
24	1.200000e+00	1.177311e+09	
25	1.250000e+00	1.187201e+09	
26	1.300000e+00	1.196292e+09	
27	1.350000e+00	1.204678e+09	
28	1.400000e+00	1.212439e+09	
29	1.450000e+00	1.219643e+09	
30	1.500000e+00	1.226350e+09	
31	1.550000e+00	1.232610e+09	
32	1.600000e+00	1.238466e+09	
33	1.650000e+00	1.243957e+09	
34	1.700000e+00	1.249115e+09	
35	1.750000e+00	1.253970e+09	
36	1.800000e+00	1.258546e+09	
37	1.850000e+00	1.262867e+09	
38	1.900000e+00	1.266950e+09	
39	1.950000e+00	1.270811e+09	
40	2.000000e+00	1.274464e+09	
41	2.050000e+00	1.277917e+09	
42	2.100000e+00	1.281176e+09	
43	2.150000e+00	1.284244e+09	
44	2.200000e+00	1.287119e+09	
45	2.250000e+00	1.289795e+09	
46	2.300000e+00	1.292259e+09	
47	2.350000e+00	1.294494e+09	
48	2.400000e+00	1.296477e+09	
49	2.450000e+00	1.298178e+09	
50	2.500000e+00	1.299559e+09	
51	2.550000e+00	1.300574e+09	
52	2.600000e+00	1.301171e+09	
53	2.650000e+00	1.301286e+09	
54	2.700000e+00	1.300851e+09	

Index   v-sweep         rds             
--------------------------------------------------------------------------------
55	2.750000e+00	1.299787e+09	
56	2.800000e+00	1.298009e+09	
57	2.850000e+00	1.295423e+09	
58	2.900000e+00	1.291932e+09	
59	2.950000e+00	1.287434e+09	
60	3.000000e+00	1.281823e+09	
61	3.050000e+00	1.274996e+09	
62	3.100000e+00	1.266849e+09	
63	3.150000e+00	1.257287e+09	
64	3.200000e+00	1.246222e+09	
65	3.250000e+00	1.233576e+09	
66	3.300000e+00	1.219291e+09	
Reset re-loads circuit ***************************

Circuit: ***************************

Doing analysis at TEMP = 125.000000 and TNOM = 125.000000


No. of Data Rows : 67
                          ***************************
                          DC transfer characteristic  Mon Jan  9 13:58:14  2023
--------------------------------------------------------------------------------
Index   v-sweep         rds             
--------------------------------------------------------------------------------
0	0.000000e+00	3.017123e+05	
1	5.000000e-02	3.295812e+05	
2	1.000000e-01	3.630624e+05	
3	1.500000e-01	4.040399e+05	
4	2.000000e-01	4.553462e+05	
5	2.500000e-01	5.214433e+05	
6	3.000000e-01	6.097864e+05	
7	3.500000e-01	7.338191e+05	
8	4.000000e-01	9.203961e+05	
9	4.500000e-01	1.231412e+06	
10	5.000000e-01	1.842128e+06	
11	5.500000e-01	3.407254e+06	
12	6.000000e-01	8.831924e+06	
13	6.500000e-01	2.593998e+07	
14	7.000000e-01	5.764479e+07	
15	7.500000e-01	9.475309e+07	
16	8.000000e-01	1.293710e+08	
17	8.500000e-01	1.592123e+08	
18	9.000000e-01	1.845212e+08	
19	9.500000e-01	2.061005e+08	
20	1.000000e+00	2.247066e+08	
21	1.050000e+00	2.409378e+08	
22	1.100000e+00	2.552483e+08	
23	1.150000e+00	2.679823e+08	
24	1.200000e+00	2.794037e+08	
25	1.250000e+00	2.897181e+08	
26	1.300000e+00	2.990881e+08	
27	1.350000e+00	3.076446e+08	
28	1.400000e+00	3.154940e+08	
29	1.450000e+00	3.227242e+08	
30	1.500000e+00	3.294084e+08	
31	1.550000e+00	3.356083e+08	
32	1.600000e+00	3.413763e+08	
33	1.650000e+00	3.467573e+08	
34	1.700000e+00	3.517898e+08	
35	1.750000e+00	3.565074e+08	
36	1.800000e+00	3.609394e+08	
37	1.850000e+00	3.651114e+08	
38	1.900000e+00	3.690459e+08	
39	1.950000e+00	3.727630e+08	
40	2.000000e+00	3.762803e+08	
41	2.050000e+00	3.796136e+08	
42	2.100000e+00	3.827767e+08	
43	2.150000e+00	3.857821e+08	
44	2.200000e+00	3.886404e+08	
45	2.250000e+00	3.913609e+08	
46	2.300000e+00	3.939514e+08	
47	2.350000e+00	3.964180e+08	
48	2.400000e+00	3.987649e+08	
49	2.450000e+00	4.009944e+08	
50	2.500000e+00	4.031066e+08	
51	2.550000e+00	4.050990e+08	
52	2.600000e+00	4.069658e+08	
53	2.650000e+00	4.086983e+08	
54	2.700000e+00	4.102836e+08	

Index   v-sweep         rds             
--------------------------------------------------------------------------------
55	2.750000e+00	4.117048e+08	
56	2.800000e+00	4.129402e+08	
57	2.850000e+00	4.139634e+08	
58	2.900000e+00	4.147425e+08	
59	2.950000e+00	4.152404e+08	
60	3.000000e+00	4.154147e+08	
61	3.050000e+00	4.152180e+08	
62	3.100000e+00	4.145983e+08	
63	3.150000e+00	4.134999e+08	
64	3.200000e+00	4.118650e+08	
65	3.250000e+00	4.096346e+08	
66	3.300000e+00	4.067508e+08	
Reset re-loads circuit ***************************

Circuit: ***************************

Doing analysis at TEMP = 125.000000 and TNOM = 125.000000


No. of Data Rows : 67
                          ***************************
                          DC transfer characteristic  Mon Jan  9 13:58:14  2023
--------------------------------------------------------------------------------
Index   v-sweep         rds             
--------------------------------------------------------------------------------
0	0.000000e+00	1.909028e+05	
1	5.000000e-02	2.011820e+05	
2	1.000000e-01	2.126126e+05	
3	1.500000e-01	2.253996e+05	
4	2.000000e-01	2.397996e+05	
5	2.500000e-01	2.561382e+05	
6	3.000000e-01	2.748349e+05	
7	3.500000e-01	2.964400e+05	
8	4.000000e-01	3.216886e+05	
9	4.500000e-01	3.515866e+05	
10	5.000000e-01	3.875471e+05	
11	5.500000e-01	4.316189e+05	
12	6.000000e-01	4.868881e+05	
13	6.500000e-01	5.582251e+05	
14	7.000000e-01	6.537774e+05	
15	7.500000e-01	7.882283e+05	
16	8.000000e-01	9.907364e+05	
17	8.500000e-01	1.327076e+06	
18	9.000000e-01	1.971154e+06	
19	9.500000e-01	3.453102e+06	
20	1.000000e+00	7.267667e+06	
21	1.050000e+00	1.561693e+07	
22	1.100000e+00	2.843552e+07	
23	1.150000e+00	4.314152e+07	
24	1.200000e+00	5.759938e+07	
25	1.250000e+00	7.093496e+07	
26	1.300000e+00	8.297849e+07	
27	1.350000e+00	9.381477e+07	
28	1.400000e+00	1.035914e+08	
29	1.450000e+00	1.124544e+08	
30	1.500000e+00	1.205308e+08	
31	1.550000e+00	1.279267e+08	
32	1.600000e+00	1.347300e+08	
33	1.650000e+00	1.410136e+08	
34	1.700000e+00	1.468385e+08	
35	1.750000e+00	1.522558e+08	
36	1.800000e+00	1.573090e+08	
37	1.850000e+00	1.620352e+08	
38	1.900000e+00	1.664665e+08	
39	1.950000e+00	1.706307e+08	
40	2.000000e+00	1.745519e+08	
41	2.050000e+00	1.782514e+08	
42	2.100000e+00	1.817481e+08	
43	2.150000e+00	1.850585e+08	
44	2.200000e+00	1.881975e+08	
45	2.250000e+00	1.911783e+08	
46	2.300000e+00	1.940127e+08	
47	2.350000e+00	1.967115e+08	
48	2.400000e+00	1.992841e+08	
49	2.450000e+00	2.017393e+08	
50	2.500000e+00	2.040846e+08	
51	2.550000e+00	2.063271e+08	
52	2.600000e+00	2.084726e+08	
53	2.650000e+00	2.105263e+08	
54	2.700000e+00	2.124923e+08	

Index   v-sweep         rds             
--------------------------------------------------------------------------------
55	2.750000e+00	2.143735e+08	
56	2.800000e+00	2.161719e+08	
57	2.850000e+00	2.178876e+08	
58	2.900000e+00	2.195192e+08	
59	2.950000e+00	2.210632e+08	
60	3.000000e+00	2.225137e+08	
61	3.050000e+00	2.238622e+08	
62	3.100000e+00	2.250971e+08	
63	3.150000e+00	2.262031e+08	
64	3.200000e+00	2.271615e+08	
65	3.250000e+00	2.279495e+08	
66	3.300000e+00	2.285399e+08	
Reset re-loads circuit ***************************

Circuit: ***************************

Doing analysis at TEMP = 125.000000 and TNOM = 125.000000


No. of Data Rows : 67
                          ***************************
                          DC transfer characteristic  Mon Jan  9 13:58:14  2023
--------------------------------------------------------------------------------
Index   v-sweep         rds             
--------------------------------------------------------------------------------
0	0.000000e+00	1.446225e+05	
1	5.000000e-02	1.500029e+05	
2	1.000000e-01	1.557904e+05	
3	1.500000e-01	1.620328e+05	
4	2.000000e-01	1.687862e+05	
5	2.500000e-01	1.761157e+05	
6	3.000000e-01	1.840986e+05	
7	3.500000e-01	1.928261e+05	
8	4.000000e-01	2.024076e+05	
9	4.500000e-01	2.129747e+05	
10	5.000000e-01	2.246879e+05	
11	5.500000e-01	2.377442e+05	
12	6.000000e-01	2.523885e+05	
13	6.500000e-01	2.689292e+05	
14	7.000000e-01	2.877600e+05	
15	7.500000e-01	3.093914e+05	
16	8.000000e-01	3.344980e+05	
17	8.500000e-01	3.639892e+05	
18	9.000000e-01	3.991215e+05	
19	9.500000e-01	4.416802e+05	
20	1.000000e+00	4.942897e+05	
21	1.050000e+00	5.609656e+05	
22	1.100000e+00	6.481647e+05	
23	1.150000e+00	7.669238e+05	
24	1.200000e+00	9.376060e+05	
25	1.250000e+00	1.201501e+06	
26	1.300000e+00	1.651890e+06	
27	1.350000e+00	2.519029e+06	
28	1.400000e+00	4.346981e+06	
29	1.450000e+00	8.003072e+06	
30	1.500000e+00	1.387877e+07	
31	1.550000e+00	2.127609e+07	
32	1.600000e+00	2.917825e+07	
33	1.650000e+00	3.693627e+07	
34	1.700000e+00	4.427328e+07	
35	1.750000e+00	5.111132e+07	
36	1.800000e+00	5.745593e+07	
37	1.850000e+00	6.334223e+07	
38	1.900000e+00	6.881270e+07	
39	1.950000e+00	7.390885e+07	
40	2.000000e+00	7.866843e+07	
41	2.050000e+00	8.312485e+07	
42	2.100000e+00	8.730734e+07	
43	2.150000e+00	9.124150e+07	
44	2.200000e+00	9.494972e+07	
45	2.250000e+00	9.845169e+07	
46	2.300000e+00	1.017648e+08	
47	2.350000e+00	1.049044e+08	
48	2.400000e+00	1.078842e+08	
49	2.450000e+00	1.107165e+08	
50	2.500000e+00	1.134122e+08	
51	2.550000e+00	1.159812e+08	
52	2.600000e+00	1.184324e+08	
53	2.650000e+00	1.207738e+08	
54	2.700000e+00	1.230129e+08	

Index   v-sweep         rds             
--------------------------------------------------------------------------------
55	2.750000e+00	1.251562e+08	
56	2.800000e+00	1.272098e+08	
57	2.850000e+00	1.291792e+08	
58	2.900000e+00	1.310695e+08	
59	2.950000e+00	1.328850e+08	
60	3.000000e+00	1.346297e+08	
61	3.050000e+00	1.363069e+08	
62	3.100000e+00	1.379194e+08	
63	3.150000e+00	1.394692e+08	
64	3.200000e+00	1.409574e+08	
65	3.250000e+00	1.423839e+08	
66	3.300000e+00	1.437476e+08	
Reset re-loads circuit ***************************

Circuit: ***************************

Doing analysis at TEMP = 125.000000 and TNOM = 125.000000


No. of Data Rows : 67
                          ***************************
                          DC transfer characteristic  Mon Jan  9 13:58:14  2023
--------------------------------------------------------------------------------
Index   v-sweep         rds             
--------------------------------------------------------------------------------
0	0.000000e+00	1.197208e+05	
1	5.000000e-02	1.230526e+05	
2	1.000000e-01	1.265702e+05	
3	1.500000e-01	1.302894e+05	
4	2.000000e-01	1.342282e+05	
5	2.500000e-01	1.384066e+05	
6	3.000000e-01	1.428471e+05	
7	3.500000e-01	1.475752e+05	
8	4.000000e-01	1.526198e+05	
9	4.500000e-01	1.580137e+05	
10	5.000000e-01	1.637945e+05	
11	5.500000e-01	1.700054e+05	
12	6.000000e-01	1.766963e+05	
13	6.500000e-01	1.839249e+05	
14	7.000000e-01	1.917589e+05	
15	7.500000e-01	2.002775e+05	
16	8.000000e-01	2.095746e+05	
17	8.500000e-01	2.197620e+05	
18	9.000000e-01	2.309740e+05	
19	9.500000e-01	2.433732e+05	
20	1.000000e+00	2.571588e+05	
21	1.050000e+00	2.725767e+05	
22	1.100000e+00	2.899352e+05	
23	1.150000e+00	3.096247e+05	
24	1.200000e+00	3.321482e+05	
25	1.250000e+00	3.581642e+05	
26	1.300000e+00	3.885518e+05	
27	1.350000e+00	4.245110e+05	
28	1.400000e+00	4.677235e+05	
29	1.450000e+00	5.206185e+05	
30	1.500000e+00	5.868348e+05	
31	1.550000e+00	6.720652e+05	
32	1.600000e+00	7.856953e+05	
33	1.650000e+00	9.442063e+05	
34	1.700000e+00	1.178745e+06	
35	1.750000e+00	1.552843e+06	
36	1.800000e+00	2.202651e+06	
37	1.850000e+00	3.403299e+06	
38	1.900000e+00	5.559573e+06	
39	1.950000e+00	8.909960e+06	
40	2.000000e+00	1.322949e+07	
41	2.050000e+00	1.804394e+07	
42	2.100000e+00	2.296663e+07	
43	2.150000e+00	2.778196e+07	
44	2.200000e+00	3.239392e+07	
45	2.250000e+00	3.676960e+07	
46	2.300000e+00	4.090559e+07	
47	2.350000e+00	4.481116e+07	
48	2.400000e+00	4.850044e+07	
49	2.450000e+00	5.198884e+07	
50	2.500000e+00	5.529146e+07	
51	2.550000e+00	5.842248e+07	
52	2.600000e+00	6.139496e+07	
53	2.650000e+00	6.422074e+07	
54	2.700000e+00	6.691061e+07	

Index   v-sweep         rds             
--------------------------------------------------------------------------------
55	2.750000e+00	6.947432e+07	
56	2.800000e+00	7.192070e+07	
57	2.850000e+00	7.425778e+07	
58	2.900000e+00	7.649286e+07	
59	2.950000e+00	7.863260e+07	
60	3.000000e+00	8.068305e+07	
61	3.050000e+00	8.264978e+07	
62	3.100000e+00	8.453789e+07	
63	3.150000e+00	8.635204e+07	
64	3.200000e+00	8.809654e+07	
65	3.250000e+00	8.977535e+07	
66	3.300000e+00	9.139207e+07	
Reset re-loads circuit ***************************

Circuit: ***************************

Doing analysis at TEMP = 125.000000 and TNOM = 125.000000


No. of Data Rows : 67
                          ***************************
                          DC transfer characteristic  Mon Jan  9 13:58:14  2023
--------------------------------------------------------------------------------
Index   v-sweep         rds             
--------------------------------------------------------------------------------
0	0.000000e+00	1.050680e+05	
1	5.000000e-02	1.073676e+05	
2	1.000000e-01	1.097668e+05	
3	1.500000e-01	1.122723e+05	
4	2.000000e-01	1.148913e+05	
5	2.500000e-01	1.176318e+05	
6	3.000000e-01	1.205024e+05	
7	3.500000e-01	1.235125e+05	
8	4.000000e-01	1.266726e+05	
9	4.500000e-01	1.299941e+05	
10	5.000000e-01	1.334899e+05	
11	5.500000e-01	1.371738e+05	
12	6.000000e-01	1.410617e+05	
13	6.500000e-01	1.451708e+05	
14	7.000000e-01	1.495206e+05	
15	7.500000e-01	1.541329e+05	
16	8.000000e-01	1.590322e+05	
17	8.500000e-01	1.642461e+05	
18	9.000000e-01	1.698059e+05	
19	9.500000e-01	1.757473e+05	
20	1.000000e+00	1.821108e+05	
21	1.050000e+00	1.889432e+05	
22	1.100000e+00	1.962982e+05	
23	1.150000e+00	2.042381e+05	
24	1.200000e+00	2.128356e+05	
25	1.250000e+00	2.221760e+05	
26	1.300000e+00	2.323597e+05	
27	1.350000e+00	2.435064e+05	
28	1.400000e+00	2.557594e+05	
29	1.450000e+00	2.692919e+05	
30	1.500000e+00	2.843152e+05	
31	1.550000e+00	3.010899e+05	
32	1.600000e+00	3.199409e+05	
33	1.650000e+00	3.412787e+05	
34	1.700000e+00	3.656296e+05	
35	1.750000e+00	3.936788e+05	
36	1.800000e+00	4.263363e+05	
37	1.850000e+00	4.648353e+05	
38	1.900000e+00	5.108894e+05	
39	1.950000e+00	5.669489e+05	
40	2.000000e+00	6.366363e+05	
41	2.050000e+00	7.255240e+05	
42	2.100000e+00	8.425900e+05	
43	2.150000e+00	1.003094e+06	
44	2.200000e+00	1.234515e+06	
45	2.250000e+00	1.588898e+06	
46	2.300000e+00	2.165981e+06	
47	2.350000e+00	3.139027e+06	
48	2.400000e+00	4.724383e+06	
49	2.450000e+00	7.029895e+06	
50	2.500000e+00	9.936016e+06	
51	2.550000e+00	1.319474e+07	
52	2.600000e+00	1.658518e+07	
53	2.650000e+00	1.996699e+07	
54	2.700000e+00	2.326555e+07	

Index   v-sweep         rds             
--------------------------------------------------------------------------------
55	2.750000e+00	2.644603e+07	
56	2.800000e+00	2.949502e+07	
57	2.850000e+00	3.241011e+07	
58	2.900000e+00	3.519425e+07	
59	2.950000e+00	3.785293e+07	
60	3.000000e+00	4.039266e+07	
61	3.050000e+00	4.282022e+07	
62	3.100000e+00	4.514230e+07	
63	3.150000e+00	4.736530e+07	
64	3.200000e+00	4.949522e+07	
65	3.250000e+00	5.153770e+07	
66	3.300000e+00	5.349796e+07	
Reset re-loads circuit ***************************

Circuit: ***************************

Note: No ".plot", ".print", or ".fourier" lines; no simulations run
