
Note: Compatibility modes selected: hs

Warning: m=xx on .subckt line will override multiplier m hierarchy!


Circuit: ***************************

Doing analysis at TEMP = 25.000000 and TNOM = 25.000000


No. of Data Rows : 67
                          ***************************
                          DC transfer characteristic  Mon Jan  9 13:58:13  2023
--------------------------------------------------------------------------------
Index   v-sweep         rds             
--------------------------------------------------------------------------------
0	0.000000e+00	1.753848e+05	
1	5.000000e-02	2.436815e+05	
2	1.000000e-01	3.889341e+05	
3	1.500000e-01	8.365208e+05	
4	2.000000e-01	2.747554e+06	
5	2.500000e-01	7.208321e+06	
6	3.000000e-01	1.198727e+07	
7	3.500000e-01	1.607644e+07	
8	4.000000e-01	1.958041e+07	
9	4.500000e-01	2.265735e+07	
10	5.000000e-01	2.540788e+07	
11	5.500000e-01	2.789578e+07	
12	6.000000e-01	3.016458e+07	
13	6.500000e-01	3.224611e+07	
14	7.000000e-01	3.416493e+07	
15	7.500000e-01	3.594071e+07	
16	8.000000e-01	3.758961e+07	
17	8.500000e-01	3.912519e+07	
18	9.000000e-01	4.055898e+07	
19	9.500000e-01	4.190090e+07	
20	1.000000e+00	4.315957e+07	
21	1.050000e+00	4.434252e+07	
22	1.100000e+00	4.545635e+07	
23	1.150000e+00	4.650694e+07	
24	1.200000e+00	4.749947e+07	
25	1.250000e+00	4.843859e+07	
26	1.300000e+00	4.932845e+07	
27	1.350000e+00	5.017277e+07	
28	1.400000e+00	5.097492e+07	
29	1.450000e+00	5.173794e+07	
30	1.500000e+00	5.246457e+07	
31	1.550000e+00	5.315730e+07	
32	1.600000e+00	5.381841e+07	
33	1.650000e+00	5.444994e+07	
34	1.700000e+00	5.505376e+07	
35	1.750000e+00	5.563155e+07	
36	1.800000e+00	5.618480e+07	
37	1.850000e+00	5.671483e+07	
38	1.900000e+00	5.722276e+07	
39	1.950000e+00	5.770947e+07	
40	2.000000e+00	5.817565e+07	
41	2.050000e+00	5.862166e+07	
42	2.100000e+00	5.904759e+07	
43	2.150000e+00	5.945313e+07	
44	2.200000e+00	5.983755e+07	
45	2.250000e+00	6.019964e+07	
46	2.300000e+00	6.053765e+07	
47	2.350000e+00	6.084918e+07	
48	2.400000e+00	6.113117e+07	
49	2.450000e+00	6.137983e+07	
50	2.500000e+00	6.159056e+07	
51	2.550000e+00	6.175798e+07	
52	2.600000e+00	6.187588e+07	
53	2.650000e+00	6.193728e+07	
54	2.700000e+00	6.193446e+07	

Index   v-sweep         rds             
--------------------------------------------------------------------------------
55	2.750000e+00	6.185913e+07	
56	2.800000e+00	6.170254e+07	
57	2.850000e+00	6.145571e+07	
58	2.900000e+00	6.110974e+07	
59	2.950000e+00	6.065610e+07	
60	3.000000e+00	6.008702e+07	
61	3.050000e+00	5.939591e+07	
62	3.100000e+00	5.857772e+07	
63	3.150000e+00	5.762939e+07	
64	3.200000e+00	5.655014e+07	
65	3.250000e+00	5.534175e+07	
66	3.300000e+00	5.400873e+07	
Reset re-loads circuit ***************************

Circuit: ***************************

Doing analysis at TEMP = 25.000000 and TNOM = 25.000000


No. of Data Rows : 67
                          ***************************
                          DC transfer characteristic  Mon Jan  9 13:58:13  2023
--------------------------------------------------------------------------------
Index   v-sweep         rds             
--------------------------------------------------------------------------------
0	0.000000e+00	4.691742e+04	
1	5.000000e-02	5.186195e+04	
2	1.000000e-01	5.779540e+04	
3	1.500000e-01	6.504570e+04	
4	2.000000e-01	7.410329e+04	
5	2.500000e-01	8.573507e+04	
6	3.000000e-01	1.012084e+05	
7	3.500000e-01	1.227673e+05	
8	4.000000e-01	1.547402e+05	
9	4.500000e-01	2.063336e+05	
10	5.000000e-01	2.984637e+05	
11	5.500000e-01	4.722807e+05	
12	6.000000e-01	7.632646e+05	
13	6.500000e-01	1.143949e+06	
14	7.000000e-01	1.560245e+06	
15	7.500000e-01	1.981422e+06	
16	8.000000e-01	2.395668e+06	
17	8.500000e-01	2.798912e+06	
18	9.000000e-01	3.189895e+06	
19	9.500000e-01	3.568415e+06	
20	1.000000e+00	3.934686e+06	
21	1.050000e+00	4.289094e+06	
22	1.100000e+00	4.632086e+06	
23	1.150000e+00	4.964133e+06	
24	1.200000e+00	5.285698e+06	
25	1.250000e+00	5.597235e+06	
26	1.300000e+00	5.899177e+06	
27	1.350000e+00	6.191941e+06	
28	1.400000e+00	6.475921e+06	
29	1.450000e+00	6.751491e+06	
30	1.500000e+00	7.019008e+06	
31	1.550000e+00	7.278808e+06	
32	1.600000e+00	7.531211e+06	
33	1.650000e+00	7.776520e+06	
34	1.700000e+00	8.015022e+06	
35	1.750000e+00	8.246989e+06	
36	1.800000e+00	8.472679e+06	
37	1.850000e+00	8.692337e+06	
38	1.900000e+00	8.906196e+06	
39	1.950000e+00	9.114472e+06	
40	2.000000e+00	9.317372e+06	
41	2.050000e+00	9.515086e+06	
42	2.100000e+00	9.707785e+06	
43	2.150000e+00	9.895623e+06	
44	2.200000e+00	1.007872e+07	
45	2.250000e+00	1.025717e+07	
46	2.300000e+00	1.043102e+07	
47	2.350000e+00	1.060024e+07	
48	2.400000e+00	1.076475e+07	
49	2.450000e+00	1.092434e+07	
50	2.500000e+00	1.107871e+07	
51	2.550000e+00	1.122738e+07	
52	2.600000e+00	1.136970e+07	
53	2.650000e+00	1.150480e+07	
54	2.700000e+00	1.163157e+07	

Index   v-sweep         rds             
--------------------------------------------------------------------------------
55	2.750000e+00	1.174860e+07	
56	2.800000e+00	1.185419e+07	
57	2.850000e+00	1.194630e+07	
58	2.900000e+00	1.202256e+07	
59	2.950000e+00	1.208027e+07	
60	3.000000e+00	1.211647e+07	
61	3.050000e+00	1.212793e+07	
62	3.100000e+00	1.211133e+07	
63	3.150000e+00	1.206334e+07	
64	3.200000e+00	1.198080e+07	
65	3.250000e+00	1.186091e+07	
66	3.300000e+00	1.170145e+07	
Reset re-loads circuit ***************************

Circuit: ***************************

Doing analysis at TEMP = 25.000000 and TNOM = 25.000000


No. of Data Rows : 67
                          ***************************
                          DC transfer characteristic  Mon Jan  9 13:58:13  2023
--------------------------------------------------------------------------------
Index   v-sweep         rds             
--------------------------------------------------------------------------------
0	0.000000e+00	2.856249e+04	
1	5.000000e-02	3.040521e+04	
2	1.000000e-01	3.244897e+04	
3	1.500000e-01	3.472827e+04	
4	2.000000e-01	3.728595e+04	
5	2.500000e-01	4.017598e+04	
6	3.000000e-01	4.346718e+04	
7	3.500000e-01	4.724886e+04	
8	4.000000e-01	5.163893e+04	
9	4.500000e-01	5.679647e+04	
10	5.000000e-01	6.294136e+04	
11	5.500000e-01	7.038660e+04	
12	6.000000e-01	7.959350e+04	
13	6.500000e-01	9.127181e+04	
14	7.000000e-01	1.065723e+05	
15	7.500000e-01	1.274807e+05	
16	8.000000e-01	1.576362e+05	
17	8.500000e-01	2.037287e+05	
18	9.000000e-01	2.758253e+05	
19	9.500000e-01	3.813658e+05	
20	1.000000e+00	5.167745e+05	
21	1.050000e+00	6.713519e+05	
22	1.100000e+00	8.357361e+05	
23	1.150000e+00	1.004161e+06	
24	1.200000e+00	1.173440e+06	
25	1.250000e+00	1.341836e+06	
26	1.300000e+00	1.508394e+06	
27	1.350000e+00	1.672576e+06	
28	1.400000e+00	1.834086e+06	
29	1.450000e+00	1.992764e+06	
30	1.500000e+00	2.148536e+06	
31	1.550000e+00	2.301376e+06	
32	1.600000e+00	2.451293e+06	
33	1.650000e+00	2.598316e+06	
34	1.700000e+00	2.742488e+06	
35	1.750000e+00	2.883860e+06	
36	1.800000e+00	3.022489e+06	
37	1.850000e+00	3.158436e+06	
38	1.900000e+00	3.291761e+06	
39	1.950000e+00	3.422529e+06	
40	2.000000e+00	3.550801e+06	
41	2.050000e+00	3.676640e+06	
42	2.100000e+00	3.800106e+06	
43	2.150000e+00	3.921261e+06	
44	2.200000e+00	4.040162e+06	
45	2.250000e+00	4.156867e+06	
46	2.300000e+00	4.271429e+06	
47	2.350000e+00	4.383900e+06	
48	2.400000e+00	4.494326e+06	
49	2.450000e+00	4.602747e+06	
50	2.500000e+00	4.709193e+06	
51	2.550000e+00	4.813681e+06	
52	2.600000e+00	4.916207e+06	
53	2.650000e+00	5.016741e+06	
54	2.700000e+00	5.115215e+06	

Index   v-sweep         rds             
--------------------------------------------------------------------------------
55	2.750000e+00	5.211511e+06	
56	2.800000e+00	5.305447e+06	
57	2.850000e+00	5.396759e+06	
58	2.900000e+00	5.485079e+06	
59	2.950000e+00	5.569917e+06	
60	3.000000e+00	5.650633e+06	
61	3.050000e+00	5.726417e+06	
62	3.100000e+00	5.796267e+06	
63	3.150000e+00	5.858969e+06	
64	3.200000e+00	5.913092e+06	
65	3.250000e+00	5.956985e+06	
66	3.300000e+00	5.988799e+06	
Reset re-loads circuit ***************************

Circuit: ***************************

Doing analysis at TEMP = 25.000000 and TNOM = 25.000000


No. of Data Rows : 67
                          ***************************
                          DC transfer characteristic  Mon Jan  9 13:58:13  2023
--------------------------------------------------------------------------------
Index   v-sweep         rds             
--------------------------------------------------------------------------------
0	0.000000e+00	2.175816e+04	
1	5.000000e-02	2.280537e+04	
2	1.000000e-01	2.393198e+04	
3	1.500000e-01	2.514726e+04	
4	2.000000e-01	2.646194e+04	
5	2.500000e-01	2.788859e+04	
6	3.000000e-01	2.944197e+04	
7	3.500000e-01	3.113959e+04	
8	4.000000e-01	3.300234e+04	
9	4.500000e-01	3.505534e+04	
10	5.000000e-01	3.732911e+04	
11	5.500000e-01	3.986111e+04	
12	6.000000e-01	4.269780e+04	
13	6.500000e-01	4.589761e+04	
14	7.000000e-01	4.953511e+04	
15	7.500000e-01	5.370712e+04	
16	8.000000e-01	5.854195e+04	
17	8.500000e-01	6.421410e+04	
18	9.000000e-01	7.096847e+04	
19	9.500000e-01	7.916340e+04	
20	1.000000e+00	8.935240e+04	
21	1.050000e+00	1.024497e+05	
22	1.100000e+00	1.200677e+05	
23	1.150000e+00	1.450862e+05	
24	1.200000e+00	1.819568e+05	
25	1.250000e+00	2.350378e+05	
26	1.300000e+00	3.050869e+05	
27	1.350000e+00	3.886977e+05	
28	1.400000e+00	4.812460e+05	
29	1.450000e+00	5.790209e+05	
30	1.500000e+00	6.795620e+05	
31	1.550000e+00	7.813368e+05	
32	1.600000e+00	8.833988e+05	
33	1.650000e+00	9.851573e+05	
34	1.700000e+00	1.086237e+06	
35	1.750000e+00	1.186398e+06	
36	1.800000e+00	1.285483e+06	
37	1.850000e+00	1.383392e+06	
38	1.900000e+00	1.480061e+06	
39	1.950000e+00	1.575451e+06	
40	2.000000e+00	1.669540e+06	
41	2.050000e+00	1.762319e+06	
42	2.100000e+00	1.853789e+06	
43	2.150000e+00	1.943953e+06	
44	2.200000e+00	2.032824e+06	
45	2.250000e+00	2.120415e+06	
46	2.300000e+00	2.206741e+06	
47	2.350000e+00	2.291820e+06	
48	2.400000e+00	2.375672e+06	
49	2.450000e+00	2.458315e+06	
50	2.500000e+00	2.539770e+06	
51	2.550000e+00	2.620057e+06	
52	2.600000e+00	2.699195e+06	
53	2.650000e+00	2.777203e+06	
54	2.700000e+00	2.854098e+06	

Index   v-sweep         rds             
--------------------------------------------------------------------------------
55	2.750000e+00	2.929892e+06	
56	2.800000e+00	3.004592e+06	
57	2.850000e+00	3.078197e+06	
58	2.900000e+00	3.150693e+06	
59	2.950000e+00	3.222047e+06	
60	3.000000e+00	3.292200e+06	
61	3.050000e+00	3.361059e+06	
62	3.100000e+00	3.428484e+06	
63	3.150000e+00	3.494277e+06	
64	3.200000e+00	3.558162e+06	
65	3.250000e+00	3.619775e+06	
66	3.300000e+00	3.678638e+06	
Reset re-loads circuit ***************************

Circuit: ***************************

Doing analysis at TEMP = 25.000000 and TNOM = 25.000000


No. of Data Rows : 67
                          ***************************
                          DC transfer characteristic  Mon Jan  9 13:58:13  2023
--------------------------------------------------------------------------------
Index   v-sweep         rds             
--------------------------------------------------------------------------------
0	0.000000e+00	1.797975e+04	
1	5.000000e-02	1.867023e+04	
2	1.000000e-01	1.940021e+04	
3	1.500000e-01	2.017313e+04	
4	2.000000e-01	2.099279e+04	
5	2.500000e-01	2.186348e+04	
6	3.000000e-01	2.279005e+04	
7	3.500000e-01	2.377796e+04	
8	4.000000e-01	2.483342e+04	
9	4.500000e-01	2.596350e+04	
10	5.000000e-01	2.717630e+04	
11	5.500000e-01	2.848115e+04	
12	6.000000e-01	2.988885e+04	
13	6.500000e-01	3.141193e+04	
14	7.000000e-01	3.306511e+04	
15	7.500000e-01	3.486571e+04	
16	8.000000e-01	3.683432e+04	
17	8.500000e-01	3.899559e+04	
18	9.000000e-01	4.137938e+04	
19	9.500000e-01	4.402220e+04	
20	1.000000e+00	4.696933e+04	
21	1.050000e+00	5.027785e+04	
22	1.100000e+00	5.402118e+04	
23	1.150000e+00	5.829633e+04	
24	1.200000e+00	6.323599e+04	
25	1.250000e+00	6.903046e+04	
26	1.300000e+00	7.596970e+04	
27	1.350000e+00	8.452823e+04	
28	1.400000e+00	9.553339e+04	
29	1.450000e+00	1.104480e+05	
30	1.500000e+00	1.316082e+05	
31	1.550000e+00	1.617703e+05	
32	1.600000e+00	2.025489e+05	
33	1.650000e+00	2.532606e+05	
34	1.700000e+00	3.116557e+05	
35	1.750000e+00	3.753037e+05	
36	1.800000e+00	4.422857e+05	
37	1.850000e+00	5.112647e+05	
38	1.900000e+00	5.813494e+05	
39	1.950000e+00	6.519500e+05	
40	2.000000e+00	7.226729e+05	
41	2.050000e+00	7.932518e+05	
42	2.100000e+00	8.635041e+05	
43	2.150000e+00	9.333029e+05	
44	2.200000e+00	1.002560e+06	
45	2.250000e+00	1.071212e+06	
46	2.300000e+00	1.139216e+06	
47	2.350000e+00	1.206542e+06	
48	2.400000e+00	1.273169e+06	
49	2.450000e+00	1.339085e+06	
50	2.500000e+00	1.404280e+06	
51	2.550000e+00	1.468752e+06	
52	2.600000e+00	1.532501e+06	
53	2.650000e+00	1.595527e+06	
54	2.700000e+00	1.657834e+06	

Index   v-sweep         rds             
--------------------------------------------------------------------------------
55	2.750000e+00	1.719428e+06	
56	2.800000e+00	1.780313e+06	
57	2.850000e+00	1.840498e+06	
58	2.900000e+00	1.899989e+06	
59	2.950000e+00	1.958793e+06	
60	3.000000e+00	2.016914e+06	
61	3.050000e+00	2.074358e+06	
62	3.100000e+00	2.131125e+06	
63	3.150000e+00	2.187209e+06	
64	3.200000e+00	2.242596e+06	
65	3.250000e+00	2.297260e+06	
66	3.300000e+00	2.351157e+06	
Reset re-loads circuit ***************************

Circuit: ***************************

Doing analysis at TEMP = 25.000000 and TNOM = 25.000000


No. of Data Rows : 67
                          ***************************
                          DC transfer characteristic  Mon Jan  9 13:58:13  2023
--------------------------------------------------------------------------------
Index   v-sweep         rds             
--------------------------------------------------------------------------------
0	0.000000e+00	1.604135e+04	
1	5.000000e-02	1.656060e+04	
2	1.000000e-01	1.710396e+04	
3	1.500000e-01	1.767309e+04	
4	2.000000e-01	1.826982e+04	
5	2.500000e-01	1.889617e+04	
6	3.000000e-01	1.955433e+04	
7	3.500000e-01	2.024675e+04	
8	4.000000e-01	2.097611e+04	
9	4.500000e-01	2.174540e+04	
10	5.000000e-01	2.255791e+04	
11	5.500000e-01	2.341735e+04	
12	6.000000e-01	2.432782e+04	
13	6.500000e-01	2.529396e+04	
14	7.000000e-01	2.632095e+04	
15	7.500000e-01	2.741468e+04	
16	8.000000e-01	2.858180e+04	
17	8.500000e-01	2.982989e+04	
18	9.000000e-01	3.116763e+04	
19	9.500000e-01	3.260499e+04	
20	1.000000e+00	3.415352e+04	
21	1.050000e+00	3.582666e+04	
22	1.100000e+00	3.764015e+04	
23	1.150000e+00	3.961264e+04	
24	1.200000e+00	4.176638e+04	
25	1.250000e+00	4.412828e+04	
26	1.300000e+00	4.673134e+04	
27	1.350000e+00	4.961686e+04	
28	1.400000e+00	5.283784e+04	
29	1.450000e+00	5.646452e+04	
30	1.500000e+00	6.059429e+04	
31	1.550000e+00	6.536991e+04	
32	1.600000e+00	7.101480e+04	
33	1.650000e+00	7.790191e+04	
34	1.700000e+00	8.667956e+04	
35	1.750000e+00	9.845300e+04	
36	1.800000e+00	1.148798e+05	
37	1.850000e+00	1.378044e+05	
38	1.900000e+00	1.683167e+05	
39	1.950000e+00	2.060932e+05	
40	2.000000e+00	2.497660e+05	
41	2.050000e+00	2.977232e+05	
42	2.100000e+00	3.485938e+05	
43	2.150000e+00	4.013610e+05	
44	2.200000e+00	4.553120e+05	
45	2.250000e+00	5.099552e+05	
46	2.300000e+00	5.649509e+05	
47	2.350000e+00	6.200623e+05	
48	2.400000e+00	6.751220e+05	
49	2.450000e+00	7.300104e+05	
50	2.500000e+00	7.846409e+05	
51	2.550000e+00	8.389504e+05	
52	2.600000e+00	8.928926e+05	
53	2.650000e+00	9.464335e+05	
54	2.700000e+00	9.995480e+05	

Index   v-sweep         rds             
--------------------------------------------------------------------------------
55	2.750000e+00	1.052218e+06	
56	2.800000e+00	1.104431e+06	
57	2.850000e+00	1.156176e+06	
58	2.900000e+00	1.207450e+06	
59	2.950000e+00	1.258246e+06	
60	3.000000e+00	1.308565e+06	
61	3.050000e+00	1.358405e+06	
62	3.100000e+00	1.407767e+06	
63	3.150000e+00	1.456652e+06	
64	3.200000e+00	1.505063e+06	
65	3.250000e+00	1.553002e+06	
66	3.300000e+00	1.600469e+06	
Reset re-loads circuit ***************************

Circuit: ***************************

Note: No ".plot", ".print", or ".fourier" lines; no simulations run
