
Note: Compatibility modes selected: hs

Warning: m=xx on .subckt line will override multiplier m hierarchy!


Circuit: ***************************

Doing analysis at TEMP = 25.000000 and TNOM = 25.000000


No. of Data Rows : 67
                          ***************************
                          DC transfer characteristic  Mon Jan  9 13:58:13  2023
--------------------------------------------------------------------------------
Index   v-sweep         rds             
--------------------------------------------------------------------------------
0	0.000000e+00	1.598471e+04	
1	5.000000e-02	2.367470e+04	
2	1.000000e-01	4.015961e+04	
3	1.500000e-01	7.871198e+04	
4	2.000000e-01	1.465696e+05	
5	2.500000e-01	2.168953e+05	
6	3.000000e-01	2.685756e+05	
7	3.500000e-01	3.027663e+05	
8	4.000000e-01	3.253119e+05	
9	4.500000e-01	3.404835e+05	
10	5.000000e-01	3.508843e+05	
11	5.500000e-01	3.580844e+05	
12	6.000000e-01	3.630597e+05	
13	6.500000e-01	3.664399e+05	
14	7.000000e-01	3.686464e+05	
15	7.500000e-01	3.699704e+05	
16	8.000000e-01	3.706189e+05	
17	8.500000e-01	3.707428e+05	
18	9.000000e-01	3.704541e+05	
19	9.500000e-01	3.698379e+05	
20	1.000000e+00	3.689596e+05	
21	1.050000e+00	3.678702e+05	
22	1.100000e+00	3.666103e+05	
23	1.150000e+00	3.652119e+05	
24	1.200000e+00	3.637013e+05	
25	1.250000e+00	3.620996e+05	
26	1.300000e+00	3.604242e+05	
27	1.350000e+00	3.586894e+05	
28	1.400000e+00	3.569072e+05	
29	1.450000e+00	3.550876e+05	
30	1.500000e+00	3.532388e+05	
31	1.550000e+00	3.513681e+05	
32	1.600000e+00	3.494812e+05	
33	1.650000e+00	3.475832e+05	
34	1.700000e+00	3.456783e+05	
35	1.750000e+00	3.437701e+05	
36	1.800000e+00	3.418615e+05	
37	1.850000e+00	3.399549e+05	
38	1.900000e+00	3.380520e+05	
39	1.950000e+00	3.361542e+05	
40	2.000000e+00	3.342622e+05	
41	2.050000e+00	3.323762e+05	
42	2.100000e+00	3.304957e+05	
43	2.150000e+00	3.286194e+05	
44	2.200000e+00	3.267456e+05	
45	2.250000e+00	3.248713e+05	
46	2.300000e+00	3.229928e+05	
47	2.350000e+00	3.211054e+05	
48	2.400000e+00	3.192032e+05	
49	2.450000e+00	3.172790e+05	
50	2.500000e+00	3.153242e+05	
51	2.550000e+00	3.133292e+05	
52	2.600000e+00	3.112827e+05	
53	2.650000e+00	3.091719e+05	
54	2.700000e+00	3.069826e+05	

Index   v-sweep         rds             
--------------------------------------------------------------------------------
55	2.750000e+00	3.046994e+05	
56	2.800000e+00	3.023054e+05	
57	2.850000e+00	2.997826e+05	
58	2.900000e+00	2.971121e+05	
59	2.950000e+00	2.942741e+05	
60	3.000000e+00	2.912487e+05	
61	3.050000e+00	2.880160e+05	
62	3.100000e+00	2.845564e+05	
63	3.150000e+00	2.808517e+05	
64	3.200000e+00	2.768851e+05	
65	3.250000e+00	2.726419e+05	
66	3.300000e+00	2.681104e+05	
Reset re-loads circuit ***************************

Circuit: ***************************

Doing analysis at TEMP = 25.000000 and TNOM = 25.000000


No. of Data Rows : 67
                          ***************************
                          DC transfer characteristic  Mon Jan  9 13:58:13  2023
--------------------------------------------------------------------------------
Index   v-sweep         rds             
--------------------------------------------------------------------------------
0	0.000000e+00	3.661686e+03	
1	5.000000e-02	4.127930e+03	
2	1.000000e-01	4.686598e+03	
3	1.500000e-01	5.367444e+03	
4	2.000000e-01	6.214606e+03	
5	2.500000e-01	7.296409e+03	
6	3.000000e-01	8.723768e+03	
7	3.500000e-01	1.068442e+04	
8	4.000000e-01	1.349603e+04	
9	4.500000e-01	1.763028e+04	
10	5.000000e-01	2.352927e+04	
11	5.500000e-01	3.115364e+04	
12	6.000000e-01	3.982935e+04	
13	6.500000e-01	4.869940e+04	
14	7.000000e-01	5.715016e+04	
15	7.500000e-01	6.488029e+04	
16	8.000000e-01	7.180092e+04	
17	8.500000e-01	7.793390e+04	
18	9.000000e-01	8.334822e+04	
19	9.500000e-01	8.812697e+04	
20	1.000000e+00	9.235204e+04	
21	1.050000e+00	9.609791e+04	
22	1.100000e+00	9.942981e+04	
23	1.150000e+00	1.024037e+05	
24	1.200000e+00	1.050674e+05	
25	1.250000e+00	1.074613e+05	
26	1.300000e+00	1.096197e+05	
27	1.350000e+00	1.115717e+05	
28	1.400000e+00	1.133422e+05	
29	1.450000e+00	1.149525e+05	
30	1.500000e+00	1.164206e+05	
31	1.550000e+00	1.177622e+05	
32	1.600000e+00	1.189910e+05	
33	1.650000e+00	1.201186e+05	
34	1.700000e+00	1.211553e+05	
35	1.750000e+00	1.221100e+05	
36	1.800000e+00	1.229906e+05	
37	1.850000e+00	1.238040e+05	
38	1.900000e+00	1.245563e+05	
39	1.950000e+00	1.252528e+05	
40	2.000000e+00	1.258983e+05	
41	2.050000e+00	1.264969e+05	
42	2.100000e+00	1.270522e+05	
43	2.150000e+00	1.275675e+05	
44	2.200000e+00	1.280451e+05	
45	2.250000e+00	1.284872e+05	
46	2.300000e+00	1.288952e+05	
47	2.350000e+00	1.292700e+05	
48	2.400000e+00	1.296115e+05	
49	2.450000e+00	1.299190e+05	
50	2.500000e+00	1.301908e+05	
51	2.550000e+00	1.304243e+05	
52	2.600000e+00	1.306153e+05	
53	2.650000e+00	1.307587e+05	
54	2.700000e+00	1.308477e+05	

Index   v-sweep         rds             
--------------------------------------------------------------------------------
55	2.750000e+00	1.308741e+05	
56	2.800000e+00	1.308278e+05	
57	2.850000e+00	1.306974e+05	
58	2.900000e+00	1.304695e+05	
59	2.950000e+00	1.301291e+05	
60	3.000000e+00	1.296600e+05	
61	3.050000e+00	1.290447e+05	
62	3.100000e+00	1.282647e+05	
63	3.150000e+00	1.273016e+05	
64	3.200000e+00	1.261370e+05	
65	3.250000e+00	1.247536e+05	
66	3.300000e+00	1.231363e+05	
Reset re-loads circuit ***************************

Circuit: ***************************

Doing analysis at TEMP = 25.000000 and TNOM = 25.000000


No. of Data Rows : 67
                          ***************************
                          DC transfer characteristic  Mon Jan  9 13:58:13  2023
--------------------------------------------------------------------------------
Index   v-sweep         rds             
--------------------------------------------------------------------------------
0	0.000000e+00	2.463631e+03	
1	5.000000e-02	2.670332e+03	
2	1.000000e-01	2.901003e+03	
3	1.500000e-01	3.159901e+03	
4	2.000000e-01	3.452387e+03	
5	2.500000e-01	3.785338e+03	
6	3.000000e-01	4.167761e+03	
7	3.500000e-01	4.611773e+03	
8	4.000000e-01	5.134232e+03	
9	4.500000e-01	5.759572e+03	
10	5.000000e-01	6.524951e+03	
11	5.500000e-01	7.489484e+03	
12	6.000000e-01	8.749213e+03	
13	6.500000e-01	1.045326e+04	
14	7.000000e-01	1.279572e+04	
15	7.500000e-01	1.594026e+04	
16	8.000000e-01	1.989813e+04	
17	8.500000e-01	2.448798e+04	
18	9.000000e-01	2.942817e+04	
19	9.500000e-01	3.445358e+04	
20	1.000000e+00	3.937176e+04	
21	1.050000e+00	4.406550e+04	
22	1.100000e+00	4.847471e+04	
23	1.150000e+00	5.257678e+04	
24	1.200000e+00	5.637160e+04	
25	1.250000e+00	5.987158e+04	
26	1.300000e+00	6.309540e+04	
27	1.350000e+00	6.606429e+04	
28	1.400000e+00	6.879991e+04	
29	1.450000e+00	7.132316e+04	
30	1.500000e+00	7.365360e+04	
31	1.550000e+00	7.580919e+04	
32	1.600000e+00	7.780628e+04	
33	1.650000e+00	7.965957e+04	
34	1.700000e+00	8.138229e+04	
35	1.750000e+00	8.298628e+04	
36	1.800000e+00	8.448216e+04	
37	1.850000e+00	8.587940e+04	
38	1.900000e+00	8.718650e+04	
39	1.950000e+00	8.841109e+04	
40	2.000000e+00	8.956000e+04	
41	2.050000e+00	9.063937e+04	
42	2.100000e+00	9.165470e+04	
43	2.150000e+00	9.261095e+04	
44	2.200000e+00	9.351257e+04	
45	2.250000e+00	9.436351e+04	
46	2.300000e+00	9.516729e+04	
47	2.350000e+00	9.592696e+04	
48	2.400000e+00	9.664508e+04	
49	2.450000e+00	9.732375e+04	
50	2.500000e+00	9.796445e+04	
51	2.550000e+00	9.856804e+04	
52	2.600000e+00	9.913465e+04	
53	2.650000e+00	9.966352e+04	
54	2.700000e+00	1.001529e+05	

Index   v-sweep         rds             
--------------------------------------------------------------------------------
55	2.750000e+00	1.005998e+05	
56	2.800000e+00	1.009999e+05	
57	2.850000e+00	1.013475e+05	
58	2.900000e+00	1.016352e+05	
59	2.950000e+00	1.018536e+05	
60	3.000000e+00	1.019915e+05	
61	3.050000e+00	1.020358e+05	
62	3.100000e+00	1.019714e+05	
63	3.150000e+00	1.017814e+05	
64	3.200000e+00	1.014475e+05	
65	3.250000e+00	1.009502e+05	
66	3.300000e+00	1.002694e+05	
Reset re-loads circuit ***************************

Circuit: ***************************

Doing analysis at TEMP = 25.000000 and TNOM = 25.000000


No. of Data Rows : 67
                          ***************************
                          DC transfer characteristic  Mon Jan  9 13:58:13  2023
--------------------------------------------------------------------------------
Index   v-sweep         rds             
--------------------------------------------------------------------------------
0	0.000000e+00	1.963841e+03	
1	5.000000e-02	2.088399e+03	
2	1.000000e-01	2.223181e+03	
3	1.500000e-01	2.369425e+03	
4	2.000000e-01	2.528583e+03	
5	2.500000e-01	2.702379e+03	
6	3.000000e-01	2.892872e+03	
7	3.500000e-01	3.102563e+03	
8	4.000000e-01	3.334525e+03	
9	4.500000e-01	3.592614e+03	
10	5.000000e-01	3.881780e+03	
11	5.500000e-01	4.208574e+03	
12	6.000000e-01	4.581991e+03	
13	6.500000e-01	5.014930e+03	
14	7.000000e-01	5.526752e+03	
15	7.500000e-01	6.147683e+03	
16	8.000000e-01	6.925668e+03	
17	8.500000e-01	7.934406e+03	
18	9.000000e-01	9.275208e+03	
19	9.500000e-01	1.105751e+04	
20	1.000000e+00	1.335160e+04	
21	1.050000e+00	1.614335e+04	
22	1.100000e+00	1.933401e+04	
23	1.150000e+00	2.278246e+04	
24	1.200000e+00	2.635029e+04	
25	1.250000e+00	2.992622e+04	
26	1.300000e+00	3.343129e+04	
27	1.350000e+00	3.681470e+04	
28	1.400000e+00	4.004691e+04	
29	1.450000e+00	4.311329e+04	
30	1.500000e+00	4.600909e+04	
31	1.550000e+00	4.873593e+04	
32	1.600000e+00	5.129930e+04	
33	1.650000e+00	5.370690e+04	
34	1.700000e+00	5.596756e+04	
35	1.750000e+00	5.809055e+04	
36	1.800000e+00	6.008513e+04	
37	1.850000e+00	6.196029e+04	
38	1.900000e+00	6.372456e+04	
39	1.950000e+00	6.538601e+04	
40	2.000000e+00	6.695210e+04	
41	2.050000e+00	6.842980e+04	
42	2.100000e+00	6.982551e+04	
43	2.150000e+00	7.114512e+04	
44	2.200000e+00	7.239406e+04	
45	2.250000e+00	7.357730e+04	
46	2.300000e+00	7.469939e+04	
47	2.350000e+00	7.576450e+04	
48	2.400000e+00	7.677642e+04	
49	2.450000e+00	7.773859e+04	
50	2.500000e+00	7.865409e+04	
51	2.550000e+00	7.952563e+04	
52	2.600000e+00	8.035553e+04	
53	2.650000e+00	8.114566e+04	
54	2.700000e+00	8.189735e+04	

Index   v-sweep         rds             
--------------------------------------------------------------------------------
55	2.750000e+00	8.261135e+04	
56	2.800000e+00	8.328766e+04	
57	2.850000e+00	8.392540e+04	
58	2.900000e+00	8.452266e+04	
59	2.950000e+00	8.507629e+04	
60	3.000000e+00	8.558172e+04	
61	3.050000e+00	8.603271e+04	
62	3.100000e+00	8.642124e+04	
63	3.150000e+00	8.673724e+04	
64	3.200000e+00	8.696853e+04	
65	3.250000e+00	8.710075e+04	
66	3.300000e+00	8.711742e+04	
Reset re-loads circuit ***************************

Circuit: ***************************

Doing analysis at TEMP = 25.000000 and TNOM = 25.000000


No. of Data Rows : 67
                          ***************************
                          DC transfer characteristic  Mon Jan  9 13:58:13  2023
--------------------------------------------------------------------------------
Index   v-sweep         rds             
--------------------------------------------------------------------------------
0	0.000000e+00	1.692442e+03	
1	5.000000e-02	1.779035e+03	
2	1.000000e-01	1.871130e+03	
3	1.500000e-01	1.969227e+03	
4	2.000000e-01	2.073894e+03	
5	2.500000e-01	2.185774e+03	
6	3.000000e-01	2.305601e+03	
7	3.500000e-01	2.434222e+03	
8	4.000000e-01	2.572616e+03	
9	4.500000e-01	2.721931e+03	
10	5.000000e-01	2.883525e+03	
11	5.500000e-01	3.059028e+03	
12	6.000000e-01	3.250431e+03	
13	6.500000e-01	3.460221e+03	
14	7.000000e-01	3.691590e+03	
15	7.500000e-01	3.948771e+03	
16	8.000000e-01	4.237592e+03	
17	8.500000e-01	4.566412e+03	
18	9.000000e-01	4.947694e+03	
19	9.500000e-01	5.400564e+03	
20	1.000000e+00	5.954620e+03	
21	1.050000e+00	6.654419e+03	
22	1.100000e+00	7.561673e+03	
23	1.150000e+00	8.748777e+03	
24	1.200000e+00	1.027833e+04	
25	1.250000e+00	1.217559e+04	
26	1.300000e+00	1.441399e+04	
27	1.350000e+00	1.692488e+04	
28	1.400000e+00	1.962128e+04	
29	1.450000e+00	2.241902e+04	
30	1.500000e+00	2.524796e+04	
31	1.550000e+00	2.805502e+04	
32	1.600000e+00	3.080277e+04	
33	1.650000e+00	3.346644e+04	
34	1.700000e+00	3.603079e+04	
35	1.750000e+00	3.848750e+04	
36	1.800000e+00	4.083309e+04	
37	1.850000e+00	4.306743e+04	
38	1.900000e+00	4.519254e+04	
39	1.950000e+00	4.721191e+04	
40	2.000000e+00	4.912986e+04	
41	2.050000e+00	5.095119e+04	
42	2.100000e+00	5.268092e+04	
43	2.150000e+00	5.432410e+04	
44	2.200000e+00	5.588568e+04	
45	2.250000e+00	5.737047e+04	
46	2.300000e+00	5.878307e+04	
47	2.350000e+00	6.012782e+04	
48	2.400000e+00	6.140884e+04	
49	2.450000e+00	6.262999e+04	
50	2.500000e+00	6.379486e+04	
51	2.550000e+00	6.490683e+04	
52	2.600000e+00	6.596900e+04	
53	2.650000e+00	6.698423e+04	
54	2.700000e+00	6.795512e+04	

Index   v-sweep         rds             
--------------------------------------------------------------------------------
55	2.750000e+00	6.888397e+04	
56	2.800000e+00	6.977277e+04	
57	2.850000e+00	7.062313e+04	
58	2.900000e+00	7.143617e+04	
59	2.950000e+00	7.221248e+04	
60	3.000000e+00	7.295194e+04	
61	3.050000e+00	7.365356e+04	
62	3.100000e+00	7.431533e+04	
63	3.150000e+00	7.493399e+04	
64	3.200000e+00	7.550479e+04	
65	3.250000e+00	7.602130e+04	
66	3.300000e+00	7.647513e+04	
Reset re-loads circuit ***************************

Circuit: ***************************

Doing analysis at TEMP = 25.000000 and TNOM = 25.000000


No. of Data Rows : 67
                          ***************************
                          DC transfer characteristic  Mon Jan  9 13:58:13  2023
--------------------------------------------------------------------------------
Index   v-sweep         rds             
--------------------------------------------------------------------------------
0	0.000000e+00	1.574614e+03	
1	5.000000e-02	1.643589e+03	
2	1.000000e-01	1.716243e+03	
3	1.500000e-01	1.792852e+03	
4	2.000000e-01	1.873723e+03	
5	2.500000e-01	1.959197e+03	
6	3.000000e-01	2.049651e+03	
7	3.500000e-01	2.145512e+03	
8	4.000000e-01	2.247256e+03	
9	4.500000e-01	2.355424e+03	
10	5.000000e-01	2.470631e+03	
11	5.500000e-01	2.593584e+03	
12	6.000000e-01	2.725102e+03	
13	6.500000e-01	2.866144e+03	
14	7.000000e-01	3.017851e+03	
15	7.500000e-01	3.181607e+03	
16	8.000000e-01	3.359119e+03	
17	8.500000e-01	3.552559e+03	
18	9.000000e-01	3.764767e+03	
19	9.500000e-01	3.999594e+03	
20	1.000000e+00	4.262445e+03	
21	1.050000e+00	4.561180e+03	
22	1.100000e+00	4.907542e+03	
23	1.150000e+00	5.319311e+03	
24	1.200000e+00	5.823143e+03	
25	1.250000e+00	6.457213e+03	
26	1.300000e+00	7.271102e+03	
27	1.350000e+00	8.318941e+03	
28	1.400000e+00	9.644218e+03	
29	1.450000e+00	1.126254e+04	
30	1.500000e+00	1.315403e+04	
31	1.550000e+00	1.527020e+04	
32	1.600000e+00	1.754899e+04	
33	1.650000e+00	1.992836e+04	
34	1.700000e+00	2.235445e+04	
35	1.750000e+00	2.478442e+04	
36	1.800000e+00	2.718628e+04	
37	1.850000e+00	2.953732e+04	
38	1.900000e+00	3.182217e+04	
39	1.950000e+00	3.403110e+04	
40	2.000000e+00	3.615850e+04	
41	2.050000e+00	3.820176e+04	
42	2.100000e+00	4.016041e+04	
43	2.150000e+00	4.203543e+04	
44	2.200000e+00	4.382883e+04	
45	2.250000e+00	4.554324e+04	
46	2.300000e+00	4.718174e+04	
47	2.350000e+00	4.874759e+04	
48	2.400000e+00	5.024418e+04	
49	2.450000e+00	5.167489e+04	
50	2.500000e+00	5.304307e+04	
51	2.550000e+00	5.435196e+04	
52	2.600000e+00	5.560469e+04	
53	2.650000e+00	5.680423e+04	
54	2.700000e+00	5.795343e+04	

Index   v-sweep         rds             
--------------------------------------------------------------------------------
55	2.750000e+00	5.905495e+04	
56	2.800000e+00	6.011130e+04	
57	2.850000e+00	6.112478e+04	
58	2.900000e+00	6.209750e+04	
59	2.950000e+00	6.303130e+04	
60	3.000000e+00	6.392775e+04	
61	3.050000e+00	6.478803e+04	
62	3.100000e+00	6.561287e+04	
63	3.150000e+00	6.640239e+04	
64	3.200000e+00	6.715602e+04	
65	3.250000e+00	6.787224e+04	
66	3.300000e+00	6.854843e+04	
Reset re-loads circuit ***************************

Circuit: ***************************

Note: No ".plot", ".print", or ".fourier" lines; no simulations run
