
Note: Compatibility modes selected: hs

Warning: m=xx on .subckt line will override multiplier m hierarchy!


Circuit: ***************************

Doing analysis at TEMP = -40.000000 and TNOM = -40.000000


No. of Data Rows : 67
                          ***************************
                          DC transfer characteristic  Mon Jan  9 13:58:14  2023
--------------------------------------------------------------------------------
Index   v-sweep         rds             
--------------------------------------------------------------------------------
0	0.000000e+00	8.913606e+04	
1	5.000000e-02	2.426769e+05	
2	1.000000e-01	1.864900e+06	
3	1.500000e-01	7.463726e+06	
4	2.000000e-01	1.299009e+07	
5	2.500000e-01	1.700580e+07	
6	3.000000e-01	1.996431e+07	
7	3.500000e-01	2.224595e+07	
8	4.000000e-01	2.407114e+07	
9	4.500000e-01	2.557112e+07	
10	5.000000e-01	2.682916e+07	
11	5.500000e-01	2.790121e+07	
12	6.000000e-01	2.882658e+07	
13	6.500000e-01	2.963389e+07	
14	7.000000e-01	3.034459e+07	
15	7.500000e-01	3.097512e+07	
16	8.000000e-01	3.153834e+07	
17	8.500000e-01	3.204445e+07	
18	9.000000e-01	3.250168e+07	
19	9.500000e-01	3.291672e+07	
20	1.000000e+00	3.329510e+07	
21	1.050000e+00	3.364142e+07	
22	1.100000e+00	3.395952e+07	
23	1.150000e+00	3.425268e+07	
24	1.200000e+00	3.452367e+07	
25	1.250000e+00	3.477487e+07	
26	1.300000e+00	3.500832e+07	
27	1.350000e+00	3.522580e+07	
28	1.400000e+00	3.542887e+07	
29	1.450000e+00	3.561887e+07	
30	1.500000e+00	3.579699e+07	
31	1.550000e+00	3.596427e+07	
32	1.600000e+00	3.612163e+07	
33	1.650000e+00	3.626988e+07	
34	1.700000e+00	3.640971e+07	
35	1.750000e+00	3.654172e+07	
36	1.800000e+00	3.666642e+07	
37	1.850000e+00	3.678422e+07	
38	1.900000e+00	3.689542e+07	
39	1.950000e+00	3.700022e+07	
40	2.000000e+00	3.709868e+07	
41	2.050000e+00	3.719074e+07	
42	2.100000e+00	3.727619e+07	
43	2.150000e+00	3.735463e+07	
44	2.200000e+00	3.742549e+07	
45	2.250000e+00	3.748799e+07	
46	2.300000e+00	3.754111e+07	
47	2.350000e+00	3.758360e+07	
48	2.400000e+00	3.761393e+07	
49	2.450000e+00	3.763031e+07	
50	2.500000e+00	3.763067e+07	
51	2.550000e+00	3.761265e+07	
52	2.600000e+00	3.757364e+07	
53	2.650000e+00	3.751074e+07	
54	2.700000e+00	3.742086e+07	

Index   v-sweep         rds             
--------------------------------------------------------------------------------
55	2.750000e+00	3.730071e+07	
56	2.800000e+00	3.714687e+07	
57	2.850000e+00	3.695588e+07	
58	2.900000e+00	3.672429e+07	
59	2.950000e+00	3.644879e+07	
60	3.000000e+00	3.612629e+07	
61	3.050000e+00	3.575407e+07	
62	3.100000e+00	3.532986e+07	
63	3.150000e+00	3.485198e+07	
64	3.200000e+00	3.431944e+07	
65	3.250000e+00	3.373206e+07	
66	3.300000e+00	3.309048e+07	
Reset re-loads circuit ***************************

Circuit: ***************************

Doing analysis at TEMP = -40.000000 and TNOM = -40.000000


No. of Data Rows : 67
                          ***************************
                          DC transfer characteristic  Mon Jan  9 13:58:14  2023
--------------------------------------------------------------------------------
Index   v-sweep         rds             
--------------------------------------------------------------------------------
0	0.000000e+00	9.632991e+03	
1	5.000000e-02	1.095055e+04	
2	1.000000e-01	1.262721e+04	
3	1.500000e-01	1.483196e+04	
4	2.000000e-01	1.785881e+04	
5	2.500000e-01	2.226601e+04	
6	3.000000e-01	2.924382e+04	
7	3.500000e-01	4.172342e+04	
8	4.000000e-01	6.777387e+04	
9	4.500000e-01	1.255144e+05	
10	5.000000e-01	2.283275e+05	
11	5.500000e-01	3.619985e+05	
12	6.000000e-01	5.062960e+05	
13	6.500000e-01	6.504182e+05	
14	7.000000e-01	7.900142e+05	
15	7.500000e-01	9.235360e+05	
16	8.000000e-01	1.050577e+06	
17	8.500000e-01	1.171204e+06	
18	9.000000e-01	1.285676e+06	
19	9.500000e-01	1.394330e+06	
20	1.000000e+00	1.497523e+06	
21	1.050000e+00	1.595607e+06	
22	1.100000e+00	1.688920e+06	
23	1.150000e+00	1.777778e+06	
24	1.200000e+00	1.862475e+06	
25	1.250000e+00	1.943285e+06	
26	1.300000e+00	2.020459e+06	
27	1.350000e+00	2.094229e+06	
28	1.400000e+00	2.164809e+06	
29	1.450000e+00	2.232397e+06	
30	1.500000e+00	2.297174e+06	
31	1.550000e+00	2.359308e+06	
32	1.600000e+00	2.418954e+06	
33	1.650000e+00	2.476256e+06	
34	1.700000e+00	2.531347e+06	
35	1.750000e+00	2.584350e+06	
36	1.800000e+00	2.635379e+06	
37	1.850000e+00	2.684538e+06	
38	1.900000e+00	2.731925e+06	
39	1.950000e+00	2.777628e+06	
40	2.000000e+00	2.821725e+06	
41	2.050000e+00	2.864287e+06	
42	2.100000e+00	2.905370e+06	
43	2.150000e+00	2.945018e+06	
44	2.200000e+00	2.983256e+06	
45	2.250000e+00	3.020090e+06	
46	2.300000e+00	3.055498e+06	
47	2.350000e+00	3.089427e+06	
48	2.400000e+00	3.121783e+06	
49	2.450000e+00	3.152428e+06	
50	2.500000e+00	3.181167e+06	
51	2.550000e+00	3.207745e+06	
52	2.600000e+00	3.231834e+06	
53	2.650000e+00	3.253030e+06	
54	2.700000e+00	3.270845e+06	

Index   v-sweep         rds             
--------------------------------------------------------------------------------
55	2.750000e+00	3.284708e+06	
56	2.800000e+00	3.293967e+06	
57	2.850000e+00	3.297893e+06	
58	2.900000e+00	3.295699e+06	
59	2.950000e+00	3.286558e+06	
60	3.000000e+00	3.269638e+06	
61	3.050000e+00	3.244139e+06	
62	3.100000e+00	3.209339e+06	
63	3.150000e+00	3.164650e+06	
64	3.200000e+00	3.109664e+06	
65	3.250000e+00	3.044210e+06	
66	3.300000e+00	2.968387e+06	
Reset re-loads circuit ***************************

Circuit: ***************************

Doing analysis at TEMP = -40.000000 and TNOM = -40.000000


No. of Data Rows : 67
                          ***************************
                          DC transfer characteristic  Mon Jan  9 13:58:14  2023
--------------------------------------------------------------------------------
Index   v-sweep         rds             
--------------------------------------------------------------------------------
0	0.000000e+00	5.502233e+03	
1	5.000000e-02	5.917834e+03	
2	1.000000e-01	6.387906e+03	
3	1.500000e-01	6.923818e+03	
4	2.000000e-01	7.540345e+03	
5	2.500000e-01	8.257051e+03	
6	3.000000e-01	9.100408e+03	
7	3.500000e-01	1.010716e+04	
8	4.000000e-01	1.132989e+04	
9	4.500000e-01	1.284670e+04	
10	5.000000e-01	1.477911e+04	
11	5.500000e-01	1.732787e+04	
12	6.000000e-01	2.085121e+04	
13	6.500000e-01	2.605142e+04	
14	7.000000e-01	3.441603e+04	
15	7.500000e-01	4.890610e+04	
16	8.000000e-01	7.335311e+04	
17	8.500000e-01	1.089192e+05	
18	9.000000e-01	1.528934e+05	
19	9.500000e-01	2.016978e+05	
20	1.000000e+00	2.527412e+05	
21	1.050000e+00	3.044635e+05	
22	1.100000e+00	3.559709e+05	
23	1.150000e+00	4.067557e+05	
24	1.200000e+00	4.565315e+05	
25	1.250000e+00	5.051405e+05	
26	1.300000e+00	5.525019e+05	
27	1.350000e+00	5.985814e+05	
28	1.400000e+00	6.433737e+05	
29	1.450000e+00	6.868920e+05	
30	1.500000e+00	7.291603e+05	
31	1.550000e+00	7.702101e+05	
32	1.600000e+00	8.100765e+05	
33	1.650000e+00	8.487974e+05	
34	1.700000e+00	8.864114e+05	
35	1.750000e+00	9.229573e+05	
36	1.800000e+00	9.584735e+05	
37	1.850000e+00	9.929978e+05	
38	1.900000e+00	1.026567e+06	
39	1.950000e+00	1.059216e+06	
40	2.000000e+00	1.090980e+06	
41	2.050000e+00	1.121891e+06	
42	2.100000e+00	1.151982e+06	
43	2.150000e+00	1.181281e+06	
44	2.200000e+00	1.209816e+06	
45	2.250000e+00	1.237615e+06	
46	2.300000e+00	1.264700e+06	
47	2.350000e+00	1.291091e+06	
48	2.400000e+00	1.316803e+06	
49	2.450000e+00	1.341846e+06	
50	2.500000e+00	1.366219e+06	
51	2.550000e+00	1.389912e+06	
52	2.600000e+00	1.412899e+06	
53	2.650000e+00	1.435136e+06	
54	2.700000e+00	1.456554e+06	

Index   v-sweep         rds             
--------------------------------------------------------------------------------
55	2.750000e+00	1.477054e+06	
56	2.800000e+00	1.496504e+06	
57	2.850000e+00	1.514726e+06	
58	2.900000e+00	1.531498e+06	
59	2.950000e+00	1.546540e+06	
60	3.000000e+00	1.559519e+06	
61	3.050000e+00	1.570038e+06	
62	3.100000e+00	1.577646e+06	
63	3.150000e+00	1.581841e+06	
64	3.200000e+00	1.582083e+06	
65	3.250000e+00	1.577813e+06	
66	3.300000e+00	1.568485e+06	
Reset re-loads circuit ***************************

Circuit: ***************************

Doing analysis at TEMP = -40.000000 and TNOM = -40.000000


No. of Data Rows : 67
                          ***************************
                          DC transfer characteristic  Mon Jan  9 13:58:14  2023
--------------------------------------------------------------------------------
Index   v-sweep         rds             
--------------------------------------------------------------------------------
0	0.000000e+00	4.133559e+03	
1	5.000000e-02	4.355156e+03	
2	1.000000e-01	4.595885e+03	
3	1.500000e-01	4.858301e+03	
4	2.000000e-01	5.145432e+03	
5	2.500000e-01	5.460904e+03	
6	3.000000e-01	5.809088e+03	
7	3.500000e-01	6.195309e+03	
8	4.000000e-01	6.626121e+03	
9	4.500000e-01	7.109686e+03	
10	5.000000e-01	7.656311e+03	
11	5.500000e-01	8.279217e+03	
12	6.000000e-01	8.995674e+03	
13	6.500000e-01	9.828750e+03	
14	7.000000e-01	1.081011e+04	
15	7.500000e-01	1.198478e+04	
16	8.000000e-01	1.341979e+04	
17	8.500000e-01	1.522122e+04	
18	9.000000e-01	1.757097e+04	
19	9.500000e-01	2.080979e+04	
20	1.000000e+00	2.561223e+04	
21	1.050000e+00	3.321817e+04	
22	1.100000e+00	4.525582e+04	
23	1.150000e+00	6.265230e+04	
24	1.200000e+00	8.486852e+04	
25	1.250000e+00	1.105575e+05	
26	1.300000e+00	1.384266e+05	
27	1.350000e+00	1.675290e+05	
28	1.400000e+00	1.972339e+05	
29	1.450000e+00	2.271318e+05	
30	1.500000e+00	2.569573e+05	
31	1.550000e+00	2.865377e+05	
32	1.600000e+00	3.157600e+05	
33	1.650000e+00	3.445507e+05	
34	1.700000e+00	3.728626e+05	
35	1.750000e+00	4.006663e+05	
36	1.800000e+00	4.279450e+05	
37	1.850000e+00	4.546903e+05	
38	1.900000e+00	4.809002e+05	
39	1.950000e+00	5.065768e+05	
40	2.000000e+00	5.317255e+05	
41	2.050000e+00	5.563537e+05	
42	2.100000e+00	5.804705e+05	
43	2.150000e+00	6.040859e+05	
44	2.200000e+00	6.272107e+05	
45	2.250000e+00	6.498562e+05	
46	2.300000e+00	6.720339e+05	
47	2.350000e+00	6.937553e+05	
48	2.400000e+00	7.150317e+05	
49	2.450000e+00	7.358745e+05	
50	2.500000e+00	7.562943e+05	
51	2.550000e+00	7.763010e+05	
52	2.600000e+00	7.959033e+05	
53	2.650000e+00	8.151078e+05	
54	2.700000e+00	8.339184e+05	

Index   v-sweep         rds             
--------------------------------------------------------------------------------
55	2.750000e+00	8.523349e+05	
56	2.800000e+00	8.703510e+05	
57	2.850000e+00	8.879524e+05	
58	2.900000e+00	9.051139e+05	
59	2.950000e+00	9.217960e+05	
60	3.000000e+00	9.379404e+05	
61	3.050000e+00	9.534660e+05	
62	3.100000e+00	9.682636e+05	
63	3.150000e+00	9.821901e+05	
64	3.200000e+00	9.950640e+05	
65	3.250000e+00	1.006660e+06	
66	3.300000e+00	1.016707e+06	
Reset re-loads circuit ***************************

Circuit: ***************************

Doing analysis at TEMP = -40.000000 and TNOM = -40.000000


No. of Data Rows : 67
                          ***************************
                          DC transfer characteristic  Mon Jan  9 13:58:14  2023
--------------------------------------------------------------------------------
Index   v-sweep         rds             
--------------------------------------------------------------------------------
0	0.000000e+00	3.493403e+03	
1	5.000000e-02	3.639752e+03	
2	1.000000e-01	3.795503e+03	
3	1.500000e-01	3.961573e+03	
4	2.000000e-01	4.139004e+03	
5	2.500000e-01	4.328983e+03	
6	3.000000e-01	4.532866e+03	
7	3.500000e-01	4.752218e+03	
8	4.000000e-01	4.988845e+03	
9	4.500000e-01	5.244849e+03	
10	5.000000e-01	5.522690e+03	
11	5.500000e-01	5.825267e+03	
12	6.000000e-01	6.156020e+03	
13	6.500000e-01	6.519069e+03	
14	7.000000e-01	6.919393e+03	
15	7.500000e-01	7.363076e+03	
16	8.000000e-01	7.857649e+03	
17	8.500000e-01	8.412572e+03	
18	9.000000e-01	9.039959e+03	
19	9.500000e-01	9.755691e+03	
20	1.000000e+00	1.058124e+04	
21	1.050000e+00	1.154683e+04	
22	1.100000e+00	1.269742e+04	
23	1.150000e+00	1.410466e+04	
24	1.200000e+00	1.589231e+04	
25	1.250000e+00	1.828988e+04	
26	1.300000e+00	2.173029e+04	
27	1.350000e+00	2.694781e+04	
28	1.400000e+00	3.485400e+04	
29	1.450000e+00	4.602706e+04	
30	1.500000e+00	6.032285e+04	
31	1.550000e+00	7.709299e+04	
32	1.600000e+00	9.560378e+04	
33	1.650000e+00	1.152508e+05	
34	1.700000e+00	1.355932e+05	
35	1.750000e+00	1.563231e+05	
36	1.800000e+00	1.772282e+05	
37	1.850000e+00	1.981615e+05	
38	1.900000e+00	2.190206e+05	
39	1.950000e+00	2.397338e+05	
40	2.000000e+00	2.602507e+05	
41	2.050000e+00	2.805357e+05	
42	2.100000e+00	3.005640e+05	
43	2.150000e+00	3.203187e+05	
44	2.200000e+00	3.397882e+05	
45	2.250000e+00	3.589655e+05	
46	2.300000e+00	3.778465e+05	
47	2.350000e+00	3.964295e+05	
48	2.400000e+00	4.147147e+05	
49	2.450000e+00	4.327035e+05	
50	2.500000e+00	4.503984e+05	
51	2.550000e+00	4.678026e+05	
52	2.600000e+00	4.849200e+05	
53	2.650000e+00	5.017548e+05	
54	2.700000e+00	5.183115e+05	

Index   v-sweep         rds             
--------------------------------------------------------------------------------
55	2.750000e+00	5.345947e+05	
56	2.800000e+00	5.506086e+05	
57	2.850000e+00	5.663575e+05	
58	2.900000e+00	5.818444e+05	
59	2.950000e+00	5.970714e+05	
60	3.000000e+00	6.120381e+05	
61	3.050000e+00	6.267410e+05	
62	3.100000e+00	6.411718e+05	
63	3.150000e+00	6.553156e+05	
64	3.200000e+00	6.691483e+05	
65	3.250000e+00	6.826339e+05	
66	3.300000e+00	6.957205e+05	
Reset re-loads circuit ***************************

Circuit: ***************************

Doing analysis at TEMP = -40.000000 and TNOM = -40.000000


No. of Data Rows : 67
                          ***************************
                          DC transfer characteristic  Mon Jan  9 13:58:14  2023
--------------------------------------------------------------------------------
Index   v-sweep         rds             
--------------------------------------------------------------------------------
0	0.000000e+00	3.141394e+03	
1	5.000000e-02	3.249280e+03	
2	1.000000e-01	3.362652e+03	
3	1.500000e-01	3.481929e+03	
4	2.000000e-01	3.607574e+03	
5	2.500000e-01	3.740098e+03	
6	3.000000e-01	3.880070e+03	
7	3.500000e-01	4.028122e+03	
8	4.000000e-01	4.184964e+03	
9	4.500000e-01	4.351387e+03	
10	5.000000e-01	4.528284e+03	
11	5.500000e-01	4.716662e+03	
12	6.000000e-01	4.917663e+03	
13	6.500000e-01	5.132586e+03	
14	7.000000e-01	5.362918e+03	
15	7.500000e-01	5.610366e+03	
16	8.000000e-01	5.876905e+03	
17	8.500000e-01	6.164833e+03	
18	9.000000e-01	6.476839e+03	
19	9.500000e-01	6.816099e+03	
20	1.000000e+00	7.186399e+03	
21	1.050000e+00	7.592298e+03	
22	1.100000e+00	8.039364e+03	
23	1.150000e+00	8.534510e+03	
24	1.200000e+00	9.086497e+03	
25	1.250000e+00	9.706744e+03	
26	1.300000e+00	1.041068e+04	
27	1.350000e+00	1.122013e+04	
28	1.400000e+00	1.216790e+04	
29	1.450000e+00	1.330677e+04	
30	1.500000e+00	1.472773e+04	
31	1.550000e+00	1.659542e+04	
32	1.600000e+00	1.920568e+04	
33	1.650000e+00	2.303494e+04	
34	1.700000e+00	2.866988e+04	
35	1.750000e+00	3.653742e+04	
36	1.800000e+00	4.665722e+04	
37	1.850000e+00	5.869476e+04	
38	1.900000e+00	7.218869e+04	
39	1.950000e+00	8.671368e+04	
40	2.000000e+00	1.019345e+05	
41	2.050000e+00	1.176038e+05	
42	2.100000e+00	1.335429e+05	
43	2.150000e+00	1.496237e+05	
44	2.200000e+00	1.657540e+05	
45	2.250000e+00	1.818667e+05	
46	2.300000e+00	1.979129e+05	
47	2.350000e+00	2.138567e+05	
48	2.400000e+00	2.296716e+05	
49	2.450000e+00	2.453380e+05	
50	2.500000e+00	2.608417e+05	
51	2.550000e+00	2.761723e+05	
52	2.600000e+00	2.913222e+05	
53	2.650000e+00	3.062864e+05	
54	2.700000e+00	3.210615e+05	

Index   v-sweep         rds             
--------------------------------------------------------------------------------
55	2.750000e+00	3.356455e+05	
56	2.800000e+00	3.500374e+05	
57	2.850000e+00	3.642372e+05	
58	2.900000e+00	3.782454e+05	
59	2.950000e+00	3.920631e+05	
60	3.000000e+00	4.056917e+05	
61	3.050000e+00	4.191329e+05	
62	3.100000e+00	4.323884e+05	
63	3.150000e+00	4.454596e+05	
64	3.200000e+00	4.583474e+05	
65	3.250000e+00	4.710518e+05	
66	3.300000e+00	4.835711e+05	
Reset re-loads circuit ***************************

Circuit: ***************************

Note: No ".plot", ".print", or ".fourier" lines; no simulations run
