
Note: Compatibility modes selected: hs

Warning: m=xx on .subckt line will override multiplier m hierarchy!


Circuit: ***************************

Doing analysis at TEMP = 25.000000 and TNOM = 25.000000


No. of Data Rows : 67
                          ***************************
                          DC transfer characteristic  Mon Jan  9 13:58:13  2023
--------------------------------------------------------------------------------
Index   v-sweep         rds             
--------------------------------------------------------------------------------
0	0.000000e+00	3.211982e+04	
1	5.000000e-02	4.939180e+04	
2	1.000000e-01	9.450059e+04	
3	1.500000e-01	2.502068e+05	
4	2.000000e-01	6.500128e+05	
5	2.500000e-01	1.169314e+06	
6	3.000000e-01	1.636165e+06	
7	3.500000e-01	2.022942e+06	
8	4.000000e-01	2.344736e+06	
9	4.500000e-01	2.617199e+06	
10	5.000000e-01	2.851610e+06	
11	5.500000e-01	3.055878e+06	
12	6.000000e-01	3.235697e+06	
13	6.500000e-01	3.395304e+06	
14	7.000000e-01	3.537943e+06	
15	7.500000e-01	3.666163e+06	
16	8.000000e-01	3.782001e+06	
17	8.500000e-01	3.887116e+06	
18	9.000000e-01	3.982875e+06	
19	9.500000e-01	4.070417e+06	
20	1.000000e+00	4.150699e+06	
21	1.050000e+00	4.224536e+06	
22	1.100000e+00	4.292622e+06	
23	1.150000e+00	4.355557e+06	
24	1.200000e+00	4.413857e+06	
25	1.250000e+00	4.467975e+06	
26	1.300000e+00	4.518304e+06	
27	1.350000e+00	4.565191e+06	
28	1.400000e+00	4.608941e+06	
29	1.450000e+00	4.649825e+06	
30	1.500000e+00	4.688084e+06	
31	1.550000e+00	4.723931e+06	
32	1.600000e+00	4.757558e+06	
33	1.650000e+00	4.789135e+06	
34	1.700000e+00	4.818813e+06	
35	1.750000e+00	4.846726e+06	
36	1.800000e+00	4.872991e+06	
37	1.850000e+00	4.897707e+06	
38	1.900000e+00	4.920958e+06	
39	1.950000e+00	4.942808e+06	
40	2.000000e+00	4.963299e+06	
41	2.050000e+00	4.982452e+06	
42	2.100000e+00	5.000261e+06	
43	2.150000e+00	5.016694e+06	
44	2.200000e+00	5.031682e+06	
45	2.250000e+00	5.045121e+06	
46	2.300000e+00	5.056867e+06	
47	2.350000e+00	5.066728e+06	
48	2.400000e+00	5.074466e+06	
49	2.450000e+00	5.079790e+06	
50	2.500000e+00	5.082355e+06	
51	2.550000e+00	5.081760e+06	
52	2.600000e+00	5.077553e+06	
53	2.650000e+00	5.069229e+06	
54	2.700000e+00	5.056236e+06	

Index   v-sweep         rds             
--------------------------------------------------------------------------------
55	2.750000e+00	5.037989e+06	
56	2.800000e+00	5.013875e+06	
57	2.850000e+00	4.983274e+06	
58	2.900000e+00	4.945574e+06	
59	2.950000e+00	4.900193e+06	
60	3.000000e+00	4.846608e+06	
61	3.050000e+00	4.784376e+06	
62	3.100000e+00	4.713162e+06	
63	3.150000e+00	4.632765e+06	
64	3.200000e+00	4.543138e+06	
65	3.250000e+00	4.444409e+06	
66	3.300000e+00	4.336883e+06	
Reset re-loads circuit ***************************

Circuit: ***************************

Doing analysis at TEMP = 25.000000 and TNOM = 25.000000


No. of Data Rows : 67
                          ***************************
                          DC transfer characteristic  Mon Jan  9 13:58:13  2023
--------------------------------------------------------------------------------
Index   v-sweep         rds             
--------------------------------------------------------------------------------
0	0.000000e+00	6.636870e+03	
1	5.000000e-02	7.432957e+03	
2	1.000000e-01	8.398737e+03	
3	1.500000e-01	9.594118e+03	
4	2.000000e-01	1.111066e+04	
5	2.500000e-01	1.309512e+04	
6	3.000000e-01	1.579637e+04	
7	3.500000e-01	1.966400e+04	
8	4.000000e-01	2.555626e+04	
9	4.500000e-01	3.510183e+04	
10	5.000000e-01	5.081469e+04	
11	5.500000e-01	7.456762e+04	
12	6.000000e-01	1.052742e+05	
13	6.500000e-01	1.399062e+05	
14	7.000000e-01	1.759166e+05	
15	7.500000e-01	2.118481e+05	
16	8.000000e-01	2.469829e+05	
17	8.500000e-01	2.809936e+05	
18	9.000000e-01	3.137469e+05	
19	9.500000e-01	3.452068e+05	
20	1.000000e+00	3.753859e+05	
21	1.050000e+00	4.043213e+05	
22	1.100000e+00	4.320625e+05	
23	1.150000e+00	4.586636e+05	
24	1.200000e+00	4.841807e+05	
25	1.250000e+00	5.086689e+05	
26	1.300000e+00	5.321817e+05	
27	1.350000e+00	5.547703e+05	
28	1.400000e+00	5.764834e+05	
29	1.450000e+00	5.973670e+05	
30	1.500000e+00	6.174642e+05	
31	1.550000e+00	6.368158e+05	
32	1.600000e+00	6.554601e+05	
33	1.650000e+00	6.734327e+05	
34	1.700000e+00	6.907675e+05	
35	1.750000e+00	7.074960e+05	
36	1.800000e+00	7.236476e+05	
37	1.850000e+00	7.392503e+05	
38	1.900000e+00	7.543298e+05	
39	1.950000e+00	7.689102e+05	
40	2.000000e+00	7.830137e+05	
41	2.050000e+00	7.966605e+05	
42	2.100000e+00	8.098685e+05	
43	2.150000e+00	8.226525e+05	
44	2.200000e+00	8.350243e+05	
45	2.250000e+00	8.469910e+05	
46	2.300000e+00	8.585544e+05	
47	2.350000e+00	8.697093e+05	
48	2.400000e+00	8.804419e+05	
49	2.450000e+00	8.907279e+05	
50	2.500000e+00	9.005299e+05	
51	2.550000e+00	9.097954e+05	
52	2.600000e+00	9.184538e+05	
53	2.650000e+00	9.264141e+05	
54	2.700000e+00	9.335628e+05	

Index   v-sweep         rds             
--------------------------------------------------------------------------------
55	2.750000e+00	9.397614e+05	
56	2.800000e+00	9.448460e+05	
57	2.850000e+00	9.486267e+05	
58	2.900000e+00	9.508896e+05	
59	2.950000e+00	9.514002e+05	
60	3.000000e+00	9.499092e+05	
61	3.050000e+00	9.461613e+05	
62	3.100000e+00	9.399066e+05	
63	3.150000e+00	9.309142e+05	
64	3.200000e+00	9.189884e+05	
65	3.250000e+00	9.039852e+05	
66	3.300000e+00	8.858282e+05	
Reset re-loads circuit ***************************

Circuit: ***************************

Doing analysis at TEMP = 25.000000 and TNOM = 25.000000


No. of Data Rows : 67
                          ***************************
                          DC transfer characteristic  Mon Jan  9 13:58:13  2023
--------------------------------------------------------------------------------
Index   v-sweep         rds             
--------------------------------------------------------------------------------
0	0.000000e+00	4.011581e+03	
1	5.000000e-02	4.305592e+03	
2	1.000000e-01	4.633155e+03	
3	1.500000e-01	5.000239e+03	
4	2.000000e-01	5.414322e+03	
5	2.500000e-01	5.884908e+03	
6	3.000000e-01	6.424262e+03	
7	3.500000e-01	7.048508e+03	
8	4.000000e-01	7.779293e+03	
9	4.500000e-01	8.646430e+03	
10	5.000000e-01	9.692246e+03	
11	5.500000e-01	1.097912e+04	
12	6.000000e-01	1.260322e+04	
13	6.500000e-01	1.472026e+04	
14	7.000000e-01	1.759241e+04	
15	7.500000e-01	2.165412e+04	
16	8.000000e-01	2.752270e+04	
17	8.500000e-01	3.576907e+04	
18	9.000000e-01	4.649661e+04	
19	9.500000e-01	5.925085e+04	
20	1.000000e+00	7.336117e+04	
21	1.050000e+00	8.824378e+04	
22	1.100000e+00	1.034861e+05	
23	1.150000e+00	1.188204e+05	
24	1.200000e+00	1.340784e+05	
25	1.250000e+00	1.491553e+05	
26	1.300000e+00	1.639866e+05	
27	1.350000e+00	1.785334e+05	
28	1.400000e+00	1.927727e+05	
29	1.450000e+00	2.066927e+05	
30	1.500000e+00	2.202881e+05	
31	1.550000e+00	2.335588e+05	
32	1.600000e+00	2.465074e+05	
33	1.650000e+00	2.591388e+05	
34	1.700000e+00	2.714594e+05	
35	1.750000e+00	2.834764e+05	
36	1.800000e+00	2.951974e+05	
37	1.850000e+00	3.066306e+05	
38	1.900000e+00	3.177842e+05	
39	1.950000e+00	3.286664e+05	
40	2.000000e+00	3.392855e+05	
41	2.050000e+00	3.496495e+05	
42	2.100000e+00	3.597662e+05	
43	2.150000e+00	3.696435e+05	
44	2.200000e+00	3.792885e+05	
45	2.250000e+00	3.887083e+05	
46	2.300000e+00	3.979094e+05	
47	2.350000e+00	4.068976e+05	
48	2.400000e+00	4.156776e+05	
49	2.450000e+00	4.242530e+05	
50	2.500000e+00	4.326253e+05	
51	2.550000e+00	4.407936e+05	
52	2.600000e+00	4.487534e+05	
53	2.650000e+00	4.564954e+05	
54	2.700000e+00	4.640046e+05	

Index   v-sweep         rds             
--------------------------------------------------------------------------------
55	2.750000e+00	4.712579e+05	
56	2.800000e+00	4.782230e+05	
57	2.850000e+00	4.848558e+05	
58	2.900000e+00	4.910988e+05	
59	2.950000e+00	4.968782e+05	
60	3.000000e+00	5.021029e+05	
61	3.050000e+00	5.066624e+05	
62	3.100000e+00	5.104263e+05	
63	3.150000e+00	5.132449e+05	
64	3.200000e+00	5.149513e+05	
65	3.250000e+00	5.153652e+05	
66	3.300000e+00	5.142997e+05	
Reset re-loads circuit ***************************

Circuit: ***************************

Doing analysis at TEMP = 25.000000 and TNOM = 25.000000


No. of Data Rows : 67
                          ***************************
                          DC transfer characteristic  Mon Jan  9 13:58:13  2023
--------------------------------------------------------------------------------
Index   v-sweep         rds             
--------------------------------------------------------------------------------
0	0.000000e+00	3.117312e+03	
1	5.000000e-02	3.289307e+03	
2	1.000000e-01	3.475107e+03	
3	1.500000e-01	3.676389e+03	
4	2.000000e-01	3.895118e+03	
5	2.500000e-01	4.133608e+03	
6	3.000000e-01	4.394606e+03	
7	3.500000e-01	4.681398e+03	
8	4.000000e-01	4.997951e+03	
9	4.500000e-01	5.349105e+03	
10	5.000000e-01	5.740833e+03	
11	5.500000e-01	6.180613e+03	
12	6.000000e-01	6.677958e+03	
13	6.500000e-01	7.245222e+03	
14	7.000000e-01	7.898858e+03	
15	7.500000e-01	8.661492e+03	
16	8.000000e-01	9.565527e+03	
17	8.500000e-01	1.065968e+04	
18	9.000000e-01	1.202106e+04	
19	9.500000e-01	1.377615e+04	
20	1.000000e+00	1.612953e+04	
21	1.050000e+00	1.937486e+04	
22	1.100000e+00	2.382682e+04	
23	1.150000e+00	2.965918e+04	
24	1.200000e+00	3.679537e+04	
25	1.250000e+00	4.497370e+04	
26	1.300000e+00	5.388781e+04	
27	1.350000e+00	6.327465e+04	
28	1.400000e+00	7.293723e+04	
29	1.450000e+00	8.273662e+04	
30	1.500000e+00	9.257713e+04	
31	1.550000e+00	1.023933e+05	
32	1.600000e+00	1.121403e+05	
33	1.650000e+00	1.217874e+05	
34	1.700000e+00	1.313139e+05	
35	1.750000e+00	1.407054e+05	
36	1.800000e+00	1.499527e+05	
37	1.850000e+00	1.590499e+05	
38	1.900000e+00	1.679935e+05	
39	1.950000e+00	1.767817e+05	
40	2.000000e+00	1.854142e+05	
41	2.050000e+00	1.938916e+05	
42	2.100000e+00	2.022152e+05	
43	2.150000e+00	2.103867e+05	
44	2.200000e+00	2.184085e+05	
45	2.250000e+00	2.262829e+05	
46	2.300000e+00	2.340125e+05	
47	2.350000e+00	2.416003e+05	
48	2.400000e+00	2.490489e+05	
49	2.450000e+00	2.563613e+05	
50	2.500000e+00	2.635401e+05	
51	2.550000e+00	2.705880e+05	
52	2.600000e+00	2.775072e+05	
53	2.650000e+00	2.842992e+05	
54	2.700000e+00	2.909650e+05	

Index   v-sweep         rds             
--------------------------------------------------------------------------------
55	2.750000e+00	2.975041e+05	
56	2.800000e+00	3.039141e+05	
57	2.850000e+00	3.101901e+05	
58	2.900000e+00	3.163236e+05	
59	2.950000e+00	3.223016e+05	
60	3.000000e+00	3.281047e+05	
61	3.050000e+00	3.337062e+05	
62	3.100000e+00	3.390699e+05	
63	3.150000e+00	3.441481e+05	
64	3.200000e+00	3.488802e+05	
65	3.250000e+00	3.531906e+05	
66	3.300000e+00	3.569872e+05	
Reset re-loads circuit ***************************

Circuit: ***************************

Doing analysis at TEMP = 25.000000 and TNOM = 25.000000


No. of Data Rows : 67
                          ***************************
                          DC transfer characteristic  Mon Jan  9 13:58:13  2023
--------------------------------------------------------------------------------
Index   v-sweep         rds             
--------------------------------------------------------------------------------
0	0.000000e+00	2.671625e+03	
1	5.000000e-02	2.791410e+03	
2	1.000000e-01	2.918684e+03	
3	1.500000e-01	3.054142e+03	
4	2.000000e-01	3.198570e+03	
5	2.500000e-01	3.352859e+03	
6	3.000000e-01	3.518025e+03	
7	3.500000e-01	3.695227e+03	
8	4.000000e-01	3.885798e+03	
9	4.500000e-01	4.091281e+03	
10	5.000000e-01	4.313466e+03	
11	5.500000e-01	4.554451e+03	
12	6.000000e-01	4.816712e+03	
13	6.500000e-01	5.103193e+03	
14	7.000000e-01	5.417437e+03	
15	7.500000e-01	5.763759e+03	
16	8.000000e-01	6.147492e+03	
17	8.500000e-01	6.575362e+03	
18	9.000000e-01	7.056053e+03	
19	9.500000e-01	7.601132e+03	
20	1.000000e+00	8.226617e+03	
21	1.050000e+00	8.955736e+03	
22	1.100000e+00	9.823893e+03	
23	1.150000e+00	1.088737e+04	
24	1.200000e+00	1.223696e+04	
25	1.250000e+00	1.401314e+04	
26	1.300000e+00	1.640559e+04	
27	1.350000e+00	1.960833e+04	
28	1.400000e+00	2.373348e+04	
29	1.450000e+00	2.875440e+04	
30	1.500000e+00	3.453217e+04	
31	1.550000e+00	4.088596e+04	
32	1.600000e+00	4.764651e+04	
33	1.650000e+00	5.467725e+04	
34	1.700000e+00	6.187555e+04	
35	1.750000e+00	6.916666e+04	
36	1.800000e+00	7.649680e+04	
37	1.850000e+00	8.382732e+04	
38	1.900000e+00	9.113037e+04	
39	1.950000e+00	9.838588e+04	
40	2.000000e+00	1.055793e+05	
41	2.050000e+00	1.127001e+05	
42	2.100000e+00	1.197407e+05	
43	2.150000e+00	1.266959e+05	
44	2.200000e+00	1.335618e+05	
45	2.250000e+00	1.403359e+05	
46	2.300000e+00	1.470168e+05	
47	2.350000e+00	1.536035e+05	
48	2.400000e+00	1.600959e+05	
49	2.450000e+00	1.664940e+05	
50	2.500000e+00	1.727983e+05	
51	2.550000e+00	1.790096e+05	
52	2.600000e+00	1.851287e+05	
53	2.650000e+00	1.911567e+05	
54	2.700000e+00	1.970947e+05	

Index   v-sweep         rds             
--------------------------------------------------------------------------------
55	2.750000e+00	2.029438e+05	
56	2.800000e+00	2.087051e+05	
57	2.850000e+00	2.143792e+05	
58	2.900000e+00	2.199664e+05	
59	2.950000e+00	2.254665e+05	
60	3.000000e+00	2.308779e+05	
61	3.050000e+00	2.361976e+05	
62	3.100000e+00	2.414201e+05	
63	3.150000e+00	2.465371e+05	
64	3.200000e+00	2.515357e+05	
65	3.250000e+00	2.563981e+05	
66	3.300000e+00	2.610992e+05	
Reset re-loads circuit ***************************

Circuit: ***************************

Doing analysis at TEMP = 25.000000 and TNOM = 25.000000


No. of Data Rows : 67
                          ***************************
                          DC transfer characteristic  Mon Jan  9 13:58:13  2023
--------------------------------------------------------------------------------
Index   v-sweep         rds             
--------------------------------------------------------------------------------
0	0.000000e+00	2.388404e+03	
1	5.000000e-02	2.478535e+03	
2	1.000000e-01	2.573263e+03	
3	1.500000e-01	2.672934e+03	
4	2.000000e-01	2.777925e+03	
5	2.500000e-01	2.888657e+03	
6	3.000000e-01	3.005596e+03	
7	3.500000e-01	3.129258e+03	
8	4.000000e-01	3.260223e+03	
9	4.500000e-01	3.399136e+03	
10	5.000000e-01	3.546725e+03	
11	5.500000e-01	3.703809e+03	
12	6.000000e-01	3.871318e+03	
13	6.500000e-01	4.050308e+03	
14	7.000000e-01	4.241991e+03	
15	7.500000e-01	4.447759e+03	
16	8.000000e-01	4.669227e+03	
17	8.500000e-01	4.908284e+03	
18	9.000000e-01	5.167157e+03	
19	9.500000e-01	5.448509e+03	
20	1.000000e+00	5.755566e+03	
21	1.050000e+00	6.092315e+03	
22	1.100000e+00	6.463793e+03	
23	1.150000e+00	6.876564e+03	
24	1.200000e+00	7.339486e+03	
25	1.250000e+00	7.865044e+03	
26	1.300000e+00	8.471641e+03	
27	1.350000e+00	9.187575e+03	
28	1.400000e+00	1.005751e+04	
29	1.450000e+00	1.115151e+04	
30	1.500000e+00	1.257307e+04	
31	1.550000e+00	1.445496e+04	
32	1.600000e+00	1.692862e+04	
33	1.650000e+00	2.007304e+04	
34	1.700000e+00	2.388107e+04	
35	1.750000e+00	2.827110e+04	
36	1.800000e+00	3.312651e+04	
37	1.850000e+00	3.833028e+04	
38	1.900000e+00	4.378236e+04	
39	1.950000e+00	4.940375e+04	
40	2.000000e+00	5.513448e+04	
41	2.050000e+00	6.092980e+04	
42	2.100000e+00	6.675649e+04	
43	2.150000e+00	7.258989e+04	
44	2.200000e+00	7.841158e+04	
45	2.250000e+00	8.420783e+04	
46	2.300000e+00	8.996830e+04	
47	2.350000e+00	9.568522e+04	
48	2.400000e+00	1.013528e+05	
49	2.450000e+00	1.069666e+05	
50	2.500000e+00	1.125234e+05	
51	2.550000e+00	1.180208e+05	
52	2.600000e+00	1.234572e+05	
53	2.650000e+00	1.288314e+05	
54	2.700000e+00	1.341427e+05	

Index   v-sweep         rds             
--------------------------------------------------------------------------------
55	2.750000e+00	1.393906e+05	
56	2.800000e+00	1.445749e+05	
57	2.850000e+00	1.496958e+05	
58	2.900000e+00	1.547534e+05	
59	2.950000e+00	1.597481e+05	
60	3.000000e+00	1.646801e+05	
61	3.050000e+00	1.695496e+05	
62	3.100000e+00	1.743568e+05	
63	3.150000e+00	1.791014e+05	
64	3.200000e+00	1.837824e+05	
65	3.250000e+00	1.883980e+05	
66	3.300000e+00	1.929448e+05	
Reset re-loads circuit ***************************

Circuit: ***************************

Note: No ".plot", ".print", or ".fourier" lines; no simulations run
