
Note: Compatibility modes selected: hs

Warning: m=xx on .subckt line will override multiplier m hierarchy!


Circuit: ***************************

Doing analysis at TEMP = 25.000000 and TNOM = 25.000000


No. of Data Rows : 67
                          ***************************
                          DC transfer characteristic  Mon Jan  9 13:58:13  2023
--------------------------------------------------------------------------------
Index   v-sweep         rds             
--------------------------------------------------------------------------------
0	0.000000e+00	2.030852e+04	
1	5.000000e-02	3.165910e+04	
2	1.000000e-01	6.927501e+04	
3	1.500000e-01	4.189478e+05	
4	2.000000e-01	2.943433e+06	
5	2.500000e-01	7.227806e+06	
6	3.000000e-01	1.078626e+07	
7	3.500000e-01	1.332020e+07	
8	4.000000e-01	1.515283e+07	
9	4.500000e-01	1.653547e+07	
10	5.000000e-01	1.761923e+07	
11	5.500000e-01	1.849486e+07	
12	6.000000e-01	1.921931e+07	
13	6.500000e-01	1.983005e+07	
14	7.000000e-01	2.035281e+07	
15	7.500000e-01	2.080589e+07	
16	8.000000e-01	2.120272e+07	
17	8.500000e-01	2.155340e+07	
18	9.000000e-01	2.186571e+07	
19	9.500000e-01	2.214573e+07	
20	1.000000e+00	2.239829e+07	
21	1.050000e+00	2.262729e+07	
22	1.100000e+00	2.283593e+07	
23	1.150000e+00	2.302682e+07	
24	1.200000e+00	2.320217e+07	
25	1.250000e+00	2.336379e+07	
26	1.300000e+00	2.351327e+07	
27	1.350000e+00	2.365191e+07	
28	1.400000e+00	2.378087e+07	
29	1.450000e+00	2.390112e+07	
30	1.500000e+00	2.401352e+07	
31	1.550000e+00	2.411881e+07	
32	1.600000e+00	2.421765e+07	
33	1.650000e+00	2.431058e+07	
34	1.700000e+00	2.439813e+07	
35	1.750000e+00	2.448070e+07	
36	1.800000e+00	2.455868e+07	
37	1.850000e+00	2.463237e+07	
38	1.900000e+00	2.470204e+07	
39	1.950000e+00	2.476786e+07	
40	2.000000e+00	2.482997e+07	
41	2.050000e+00	2.488842e+07	
42	2.100000e+00	2.494319e+07	
43	2.150000e+00	2.499419e+07	
44	2.200000e+00	2.504120e+07	
45	2.250000e+00	2.508391e+07	
46	2.300000e+00	2.512191e+07	
47	2.350000e+00	2.515463e+07	
48	2.400000e+00	2.518139e+07	
49	2.450000e+00	2.520135e+07	
50	2.500000e+00	2.521353e+07	
51	2.550000e+00	2.521678e+07	
52	2.600000e+00	2.520979e+07	
53	2.650000e+00	2.519111e+07	
54	2.700000e+00	2.515913e+07	

Index   v-sweep         rds             
--------------------------------------------------------------------------------
55	2.750000e+00	2.511211e+07	
56	2.800000e+00	2.504820e+07	
57	2.850000e+00	2.496547e+07	
58	2.900000e+00	2.486192e+07	
59	2.950000e+00	2.473554e+07	
60	3.000000e+00	2.458437e+07	
61	3.050000e+00	2.440653e+07	
62	3.100000e+00	2.420029e+07	
63	3.150000e+00	2.396412e+07	
64	3.200000e+00	2.369678e+07	
65	3.250000e+00	2.339734e+07	
66	3.300000e+00	2.306526e+07	
Reset re-loads circuit ***************************

Circuit: ***************************

Doing analysis at TEMP = 25.000000 and TNOM = 25.000000


No. of Data Rows : 67
                          ***************************
                          DC transfer characteristic  Mon Jan  9 13:58:13  2023
--------------------------------------------------------------------------------
Index   v-sweep         rds             
--------------------------------------------------------------------------------
0	0.000000e+00	4.864240e+03	
1	5.000000e-02	5.412055e+03	
2	1.000000e-01	6.095004e+03	
3	1.500000e-01	6.970062e+03	
4	2.000000e-01	8.131377e+03	
5	2.500000e-01	9.746322e+03	
6	3.000000e-01	1.214297e+04	
7	3.500000e-01	1.605812e+04	
8	4.000000e-01	2.350596e+04	
9	4.500000e-01	4.170770e+04	
10	5.000000e-01	1.017968e+05	
11	5.500000e-01	2.823963e+05	
12	6.000000e-01	5.965335e+05	
13	6.500000e-01	9.544920e+05	
14	7.000000e-01	1.296240e+06	
15	7.500000e-01	1.604908e+06	
16	8.000000e-01	1.880150e+06	
17	8.500000e-01	2.125770e+06	
18	9.000000e-01	2.345994e+06	
19	9.500000e-01	2.544554e+06	
20	1.000000e+00	2.724560e+06	
21	1.050000e+00	2.888569e+06	
22	1.100000e+00	3.038683e+06	
23	1.150000e+00	3.176645e+06	
24	1.200000e+00	3.303912e+06	
25	1.250000e+00	3.421707e+06	
26	1.300000e+00	3.531072e+06	
27	1.350000e+00	3.632898e+06	
28	1.400000e+00	3.727949e+06	
29	1.450000e+00	3.816889e+06	
30	1.500000e+00	3.900296e+06	
31	1.550000e+00	3.978678e+06	
32	1.600000e+00	4.052478e+06	
33	1.650000e+00	4.122090e+06	
34	1.700000e+00	4.187864e+06	
35	1.750000e+00	4.250110e+06	
36	1.800000e+00	4.309106e+06	
37	1.850000e+00	4.365101e+06	
38	1.900000e+00	4.418318e+06	
39	1.950000e+00	4.468956e+06	
40	2.000000e+00	4.517196e+06	
41	2.050000e+00	4.563197e+06	
42	2.100000e+00	4.607098e+06	
43	2.150000e+00	4.649022e+06	
44	2.200000e+00	4.689070e+06	
45	2.250000e+00	4.727320e+06	
46	2.300000e+00	4.763825e+06	
47	2.350000e+00	4.798612e+06	
48	2.400000e+00	4.831670e+06	
49	2.450000e+00	4.862954e+06	
50	2.500000e+00	4.892372e+06	
51	2.550000e+00	4.919780e+06	
52	2.600000e+00	4.944976e+06	
53	2.650000e+00	4.967694e+06	
54	2.700000e+00	4.987596e+06	

Index   v-sweep         rds             
--------------------------------------------------------------------------------
55	2.750000e+00	5.004265e+06	
56	2.800000e+00	5.017205e+06	
57	2.850000e+00	5.025840e+06	
58	2.900000e+00	5.029512e+06	
59	2.950000e+00	5.027488e+06	
60	3.000000e+00	5.018976e+06	
61	3.050000e+00	5.003135e+06	
62	3.100000e+00	4.979102e+06	
63	3.150000e+00	4.946024e+06	
64	3.200000e+00	4.903088e+06	
65	3.250000e+00	4.849564e+06	
66	3.300000e+00	4.784853e+06	
Reset re-loads circuit ***************************

Circuit: ***************************

Doing analysis at TEMP = 25.000000 and TNOM = 25.000000


No. of Data Rows : 67
                          ***************************
                          DC transfer characteristic  Mon Jan  9 13:58:13  2023
--------------------------------------------------------------------------------
Index   v-sweep         rds             
--------------------------------------------------------------------------------
0	0.000000e+00	2.901129e+03	
1	5.000000e-02	3.077477e+03	
2	1.000000e-01	3.275661e+03	
3	1.500000e-01	3.500003e+03	
4	2.000000e-01	3.756044e+03	
5	2.500000e-01	4.051011e+03	
6	3.000000e-01	4.394503e+03	
7	3.500000e-01	4.799560e+03	
8	4.000000e-01	5.284347e+03	
9	4.500000e-01	5.874942e+03	
10	5.000000e-01	6.610163e+03	
11	5.500000e-01	7.550386e+03	
12	6.000000e-01	8.794798e+03	
13	6.500000e-01	1.051807e+04	
14	7.000000e-01	1.305680e+04	
15	7.500000e-01	1.714025e+04	
16	8.000000e-01	2.459230e+04	
17	8.500000e-01	4.054126e+04	
18	9.000000e-01	7.770266e+04	
19	9.500000e-01	1.508841e+05	
20	1.000000e+00	2.560742e+05	
21	1.050000e+00	3.760857e+05	
22	1.100000e+00	4.982406e+05	
23	1.150000e+00	6.166164e+05	
24	1.200000e+00	7.290036e+05	
25	1.250000e+00	8.348243e+05	
26	1.300000e+00	9.341699e+05	
27	1.350000e+00	1.027390e+06	
28	1.400000e+00	1.114917e+06	
29	1.450000e+00	1.197195e+06	
30	1.500000e+00	1.274650e+06	
31	1.550000e+00	1.347672e+06	
32	1.600000e+00	1.416622e+06	
33	1.650000e+00	1.481823e+06	
34	1.700000e+00	1.543569e+06	
35	1.750000e+00	1.602125e+06	
36	1.800000e+00	1.657731e+06	
37	1.850000e+00	1.710603e+06	
38	1.900000e+00	1.760936e+06	
39	1.950000e+00	1.808910e+06	
40	2.000000e+00	1.854685e+06	
41	2.050000e+00	1.898410e+06	
42	2.100000e+00	1.940218e+06	
43	2.150000e+00	1.980234e+06	
44	2.200000e+00	2.018569e+06	
45	2.250000e+00	2.055326e+06	
46	2.300000e+00	2.090601e+06	
47	2.350000e+00	2.124478e+06	
48	2.400000e+00	2.157037e+06	
49	2.450000e+00	2.188346e+06	
50	2.500000e+00	2.218467e+06	
51	2.550000e+00	2.247451e+06	
52	2.600000e+00	2.275337e+06	
53	2.650000e+00	2.302153e+06	
54	2.700000e+00	2.327908e+06	

Index   v-sweep         rds             
--------------------------------------------------------------------------------
55	2.750000e+00	2.352592e+06	
56	2.800000e+00	2.376173e+06	
57	2.850000e+00	2.398588e+06	
58	2.900000e+00	2.419742e+06	
59	2.950000e+00	2.439498e+06	
60	3.000000e+00	2.457678e+06	
61	3.050000e+00	2.474049e+06	
62	3.100000e+00	2.488326e+06	
63	3.150000e+00	2.500164e+06	
64	3.200000e+00	2.509159e+06	
65	3.250000e+00	2.514847e+06	
66	3.300000e+00	2.516713e+06	
Reset re-loads circuit ***************************

Circuit: ***************************

Doing analysis at TEMP = 25.000000 and TNOM = 25.000000


No. of Data Rows : 67
                          ***************************
                          DC transfer characteristic  Mon Jan  9 13:58:13  2023
--------------------------------------------------------------------------------
Index   v-sweep         rds             
--------------------------------------------------------------------------------
0	0.000000e+00	2.186793e+03	
1	5.000000e-02	2.276483e+03	
2	1.000000e-01	2.373406e+03	
3	1.500000e-01	2.478472e+03	
4	2.000000e-01	2.592751e+03	
5	2.500000e-01	2.717510e+03	
6	3.000000e-01	2.854260e+03	
7	3.500000e-01	3.004814e+03	
8	4.000000e-01	3.171374e+03	
9	4.500000e-01	3.356633e+03	
10	5.000000e-01	3.563927e+03	
11	5.500000e-01	3.797432e+03	
12	6.000000e-01	4.062453e+03	
13	6.500000e-01	4.365829e+03	
14	7.000000e-01	4.716530e+03	
15	7.500000e-01	5.126558e+03	
16	8.000000e-01	5.612345e+03	
17	8.500000e-01	6.196994e+03	
18	9.000000e-01	6.914047e+03	
19	9.500000e-01	7.814086e+03	
20	1.000000e+00	8.977028e+03	
21	1.050000e+00	1.053661e+04	
22	1.100000e+00	1.273317e+04	
23	1.150000e+00	1.603789e+04	
24	1.200000e+00	2.146509e+04	
25	1.250000e+00	3.131852e+04	
26	1.300000e+00	5.021423e+04	
27	1.350000e+00	8.352379e+04	
28	1.400000e+00	1.317175e+05	
29	1.450000e+00	1.898465e+05	
30	1.500000e+00	2.525369e+05	
31	1.550000e+00	3.162937e+05	
32	1.600000e+00	3.792320e+05	
33	1.650000e+00	4.404167e+05	
34	1.700000e+00	4.994191e+05	
35	1.750000e+00	5.560753e+05	
36	1.800000e+00	6.103599e+05	
37	1.850000e+00	6.623195e+05	
38	1.900000e+00	7.120379e+05	
39	1.950000e+00	7.596159e+05	
40	2.000000e+00	8.051612e+05	
41	2.050000e+00	8.487825e+05	
42	2.100000e+00	8.905855e+05	
43	2.150000e+00	9.306720e+05	
44	2.200000e+00	9.691384e+05	
45	2.250000e+00	1.006076e+06	
46	2.300000e+00	1.041569e+06	
47	2.350000e+00	1.075699e+06	
48	2.400000e+00	1.108539e+06	
49	2.450000e+00	1.140160e+06	
50	2.500000e+00	1.170626e+06	
51	2.550000e+00	1.199999e+06	
52	2.600000e+00	1.228335e+06	
53	2.650000e+00	1.255687e+06	
54	2.700000e+00	1.282104e+06	

Index   v-sweep         rds             
--------------------------------------------------------------------------------
55	2.750000e+00	1.307631e+06	
56	2.800000e+00	1.332310e+06	
57	2.850000e+00	1.356178e+06	
58	2.900000e+00	1.379268e+06	
59	2.950000e+00	1.401606e+06	
60	3.000000e+00	1.423211e+06	
61	3.050000e+00	1.444095e+06	
62	3.100000e+00	1.464257e+06	
63	3.150000e+00	1.483681e+06	
64	3.200000e+00	1.502335e+06	
65	3.250000e+00	1.520165e+06	
66	3.300000e+00	1.537090e+06	
Reset re-loads circuit ***************************

Circuit: ***************************

Doing analysis at TEMP = 25.000000 and TNOM = 25.000000


No. of Data Rows : 67
                          ***************************
                          DC transfer characteristic  Mon Jan  9 13:58:13  2023
--------------------------------------------------------------------------------
Index   v-sweep         rds             
--------------------------------------------------------------------------------
0	0.000000e+00	1.841496e+03	
1	5.000000e-02	1.897687e+03	
2	1.000000e-01	1.957170e+03	
3	1.500000e-01	2.020241e+03	
4	2.000000e-01	2.087236e+03	
5	2.500000e-01	2.158532e+03	
6	3.000000e-01	2.234557e+03	
7	3.500000e-01	2.315796e+03	
8	4.000000e-01	2.402806e+03	
9	4.500000e-01	2.496223e+03	
10	5.000000e-01	2.596780e+03	
11	5.500000e-01	2.705330e+03	
12	6.000000e-01	2.822862e+03	
13	6.500000e-01	2.950541e+03	
14	7.000000e-01	3.089738e+03	
15	7.500000e-01	3.242086e+03	
16	8.000000e-01	3.409538e+03	
17	8.500000e-01	3.594457e+03	
18	9.000000e-01	3.799727e+03	
19	9.500000e-01	4.028900e+03	
20	1.000000e+00	4.286410e+03	
21	1.050000e+00	4.577855e+03	
22	1.100000e+00	4.910417e+03	
23	1.150000e+00	5.293456e+03	
24	1.200000e+00	5.739405e+03	
25	1.250000e+00	6.265146e+03	
26	1.300000e+00	6.894192e+03	
27	1.350000e+00	7.660291e+03	
28	1.400000e+00	8.613649e+03	
29	1.450000e+00	9.832256e+03	
30	1.500000e+00	1.144378e+04	
31	1.550000e+00	1.367068e+04	
32	1.600000e+00	1.692838e+04	
33	1.650000e+00	2.203774e+04	
34	1.700000e+00	3.059446e+04	
35	1.750000e+00	4.510424e+04	
36	1.800000e+00	6.770466e+04	
37	1.850000e+00	9.815393e+04	
38	1.900000e+00	1.341840e+05	
39	1.950000e+00	1.733242e+05	
40	2.000000e+00	2.137814e+05	
41	2.050000e+00	2.544410e+05	
42	2.100000e+00	2.946516e+05	
43	2.150000e+00	3.340442e+05	
44	2.200000e+00	3.724172e+05	
45	2.250000e+00	4.096683e+05	
46	2.300000e+00	4.457544e+05	
47	2.350000e+00	4.806683e+05	
48	2.400000e+00	5.144242e+05	
49	2.450000e+00	5.470494e+05	
50	2.500000e+00	5.785785e+05	
51	2.550000e+00	6.090504e+05	
52	2.600000e+00	6.385058e+05	
53	2.650000e+00	6.669860e+05	
54	2.700000e+00	6.945319e+05	

Index   v-sweep         rds             
--------------------------------------------------------------------------------
55	2.750000e+00	7.211836e+05	
56	2.800000e+00	7.469798e+05	
57	2.850000e+00	7.719577e+05	
58	2.900000e+00	7.961530e+05	
59	2.950000e+00	8.195998e+05	
60	3.000000e+00	8.423305e+05	
61	3.050000e+00	8.643758e+05	
62	3.100000e+00	8.857648e+05	
63	3.150000e+00	9.065248e+05	
64	3.200000e+00	9.266812e+05	
65	3.250000e+00	9.462572e+05	
66	3.300000e+00	9.652733e+05	
Reset re-loads circuit ***************************

Circuit: ***************************

Doing analysis at TEMP = 25.000000 and TNOM = 25.000000


No. of Data Rows : 67
                          ***************************
                          DC transfer characteristic  Mon Jan  9 13:58:13  2023
--------------------------------------------------------------------------------
Index   v-sweep         rds             
--------------------------------------------------------------------------------
0	0.000000e+00	1.652223e+03	
1	5.000000e-02	1.691767e+03	
2	1.000000e-01	1.733094e+03	
3	1.500000e-01	1.776330e+03	
4	2.000000e-01	1.821608e+03	
5	2.500000e-01	1.869076e+03	
6	3.000000e-01	1.918897e+03	
7	3.500000e-01	1.971251e+03	
8	4.000000e-01	2.026336e+03	
9	4.500000e-01	2.084369e+03	
10	5.000000e-01	2.145595e+03	
11	5.500000e-01	2.210284e+03	
12	6.000000e-01	2.278738e+03	
13	6.500000e-01	2.351296e+03	
14	7.000000e-01	2.428337e+03	
15	7.500000e-01	2.510289e+03	
16	8.000000e-01	2.597639e+03	
17	8.500000e-01	2.690935e+03	
18	9.000000e-01	2.790808e+03	
19	9.500000e-01	2.897977e+03	
20	1.000000e+00	3.013271e+03	
21	1.050000e+00	3.137651e+03	
22	1.100000e+00	3.272233e+03	
23	1.150000e+00	3.418328e+03	
24	1.200000e+00	3.577477e+03	
25	1.250000e+00	3.751511e+03	
26	1.300000e+00	3.942621e+03	
27	1.350000e+00	4.153450e+03	
28	1.400000e+00	4.387216e+03	
29	1.450000e+00	4.647879e+03	
30	1.500000e+00	4.940365e+03	
31	1.550000e+00	5.270886e+03	
32	1.600000e+00	5.647383e+03	
33	1.650000e+00	6.080179e+03	
34	1.700000e+00	6.582946e+03	
35	1.750000e+00	7.174185e+03	
36	1.800000e+00	7.879579e+03	
37	1.850000e+00	8.735855e+03	
38	1.900000e+00	9.797446e+03	
39	1.950000e+00	1.114854e+04	
40	2.000000e+00	1.292605e+04	
41	2.050000e+00	1.536535e+04	
42	2.100000e+00	1.889102e+04	
43	2.150000e+00	2.427273e+04	
44	2.200000e+00	3.275512e+04	
45	2.250000e+00	4.575843e+04	
46	2.300000e+00	6.393888e+04	
47	2.350000e+00	8.666071e+04	
48	2.400000e+00	1.125821e+05	
49	2.450000e+00	1.404083e+05	
50	2.500000e+00	1.691797e+05	
51	2.550000e+00	1.982586e+05	
52	2.600000e+00	2.272391e+05	
53	2.650000e+00	2.558683e+05	
54	2.700000e+00	2.839910e+05	

Index   v-sweep         rds             
--------------------------------------------------------------------------------
55	2.750000e+00	3.115140e+05	
56	2.800000e+00	3.383843e+05	
57	2.850000e+00	3.645749e+05	
58	2.900000e+00	3.900758e+05	
59	2.950000e+00	4.148880e+05	
60	3.000000e+00	4.390202e+05	
61	3.050000e+00	4.624855e+05	
62	3.100000e+00	4.853005e+05	
63	3.150000e+00	5.074833e+05	
64	3.200000e+00	5.290532e+05	
65	3.250000e+00	5.500302e+05	
66	3.300000e+00	5.704342e+05	
Reset re-loads circuit ***************************

Circuit: ***************************

Note: No ".plot", ".print", or ".fourier" lines; no simulations run
