
Note: Compatibility modes selected: hs

Warning: m=xx on .subckt line will override multiplier m hierarchy!


Circuit: ***************************

Doing analysis at TEMP = 125.000000 and TNOM = 125.000000


No. of Data Rows : 67
                          ***************************
                          DC transfer characteristic  Mon Jan  9 13:58:14  2023
--------------------------------------------------------------------------------
Index   v-sweep         rds             
--------------------------------------------------------------------------------
0	0.000000e+00	4.593442e+03	
1	5.000000e-02	5.823557e+03	
2	1.000000e-01	7.887448e+03	
3	1.500000e-01	1.200583e+04	
4	2.000000e-01	2.306236e+04	
5	2.500000e-01	6.441469e+04	
6	3.000000e-01	1.864604e+05	
7	3.500000e-01	3.707896e+05	
8	4.000000e-01	5.539912e+05	
9	4.500000e-01	7.120210e+05	
10	5.000000e-01	8.443653e+05	
11	5.500000e-01	9.555705e+05	
12	6.000000e-01	1.050070e+06	
13	6.500000e-01	1.131346e+06	
14	7.000000e-01	1.202026e+06	
15	7.500000e-01	1.264090e+06	
16	8.000000e-01	1.319050e+06	
17	8.500000e-01	1.368079e+06	
18	9.000000e-01	1.412102e+06	
19	9.500000e-01	1.451857e+06	
20	1.000000e+00	1.487943e+06	
21	1.050000e+00	1.520850e+06	
22	1.100000e+00	1.550981e+06	
23	1.150000e+00	1.578676e+06	
24	1.200000e+00	1.604220e+06	
25	1.250000e+00	1.627854e+06	
26	1.300000e+00	1.649784e+06	
27	1.350000e+00	1.670190e+06	
28	1.400000e+00	1.689223e+06	
29	1.450000e+00	1.707017e+06	
30	1.500000e+00	1.723690e+06	
31	1.550000e+00	1.739344e+06	
32	1.600000e+00	1.754067e+06	
33	1.650000e+00	1.767941e+06	
34	1.700000e+00	1.781035e+06	
35	1.750000e+00	1.793410e+06	
36	1.800000e+00	1.805120e+06	
37	1.850000e+00	1.816212e+06	
38	1.900000e+00	1.826724e+06	
39	1.950000e+00	1.836686e+06	
40	2.000000e+00	1.846122e+06	
41	2.050000e+00	1.855043e+06	
42	2.100000e+00	1.863449e+06	
43	2.150000e+00	1.871329e+06	
44	2.200000e+00	1.878655e+06	
45	2.250000e+00	1.885381e+06	
46	2.300000e+00	1.891444e+06	
47	2.350000e+00	1.896755e+06	
48	2.400000e+00	1.901202e+06	
49	2.450000e+00	1.904644e+06	
50	2.500000e+00	1.906913e+06	
51	2.550000e+00	1.907810e+06	
52	2.600000e+00	1.907106e+06	
53	2.650000e+00	1.904541e+06	
54	2.700000e+00	1.899833e+06	

Index   v-sweep         rds             
--------------------------------------------------------------------------------
55	2.750000e+00	1.892677e+06	
56	2.800000e+00	1.882753e+06	
57	2.850000e+00	1.869740e+06	
58	2.900000e+00	1.853323e+06	
59	2.950000e+00	1.833209e+06	
60	3.000000e+00	1.809143e+06	
61	3.050000e+00	1.780926e+06	
62	3.100000e+00	1.748429e+06	
63	3.150000e+00	1.711607e+06	
64	3.200000e+00	1.670513e+06	
65	3.250000e+00	1.625306e+06	
66	3.300000e+00	1.576246e+06	
Reset re-loads circuit ***************************

Circuit: ***************************

Doing analysis at TEMP = 125.000000 and TNOM = 125.000000


No. of Data Rows : 67
                          ***************************
                          DC transfer characteristic  Mon Jan  9 13:58:14  2023
--------------------------------------------------------------------------------
Index   v-sweep         rds             
--------------------------------------------------------------------------------
0	0.000000e+00	1.491580e+03	
1	5.000000e-02	1.625591e+03	
2	1.000000e-01	1.783024e+03	
3	1.500000e-01	1.970586e+03	
4	2.000000e-01	2.197813e+03	
5	2.500000e-01	2.478732e+03	
6	3.000000e-01	2.834841e+03	
7	3.500000e-01	3.300797e+03	
8	4.000000e-01	3.936145e+03	
9	4.500000e-01	4.851725e+03	
10	5.000000e-01	6.275493e+03	
11	5.500000e-01	8.729989e+03	
12	6.000000e-01	1.347537e+04	
13	6.500000e-01	2.298780e+04	
14	7.000000e-01	3.943857e+04	
15	7.500000e-01	6.179098e+04	
16	8.000000e-01	8.709549e+04	
17	8.500000e-01	1.130469e+05	
18	9.000000e-01	1.384171e+05	
19	9.500000e-01	1.626583e+05	
20	1.000000e+00	1.855690e+05	
21	1.050000e+00	2.071129e+05	
22	1.100000e+00	2.273300e+05	
23	1.150000e+00	2.462936e+05	
24	1.200000e+00	2.640887e+05	
25	1.250000e+00	2.808025e+05	
26	1.300000e+00	2.965190e+05	
27	1.350000e+00	3.113169e+05	
28	1.400000e+00	3.252691e+05	
29	1.450000e+00	3.384419e+05	
30	1.500000e+00	3.508961e+05	
31	1.550000e+00	3.626867e+05	
32	1.600000e+00	3.738637e+05	
33	1.650000e+00	3.844724e+05	
34	1.700000e+00	3.945540e+05	
35	1.750000e+00	4.041461e+05	
36	1.800000e+00	4.132827e+05	
37	1.850000e+00	4.219950e+05	
38	1.900000e+00	4.303113e+05	
39	1.950000e+00	4.382576e+05	
40	2.000000e+00	4.458574e+05	
41	2.050000e+00	4.531324e+05	
42	2.100000e+00	4.601020e+05	
43	2.150000e+00	4.667837e+05	
44	2.200000e+00	4.731927e+05	
45	2.250000e+00	4.793421e+05	
46	2.300000e+00	4.852419e+05	
47	2.350000e+00	4.908991e+05	
48	2.400000e+00	4.963163e+05	
49	2.450000e+00	5.014914e+05	
50	2.500000e+00	5.064158e+05	
51	2.550000e+00	5.110735e+05	
52	2.600000e+00	5.154394e+05	
53	2.650000e+00	5.194775e+05	
54	2.700000e+00	5.231395e+05	

Index   v-sweep         rds             
--------------------------------------------------------------------------------
55	2.750000e+00	5.263626e+05	
56	2.800000e+00	5.290687e+05	
57	2.850000e+00	5.311628e+05	
58	2.900000e+00	5.325329e+05	
59	2.950000e+00	5.330506e+05	
60	3.000000e+00	5.325732e+05	
61	3.050000e+00	5.309466e+05	
62	3.100000e+00	5.280116e+05	
63	3.150000e+00	5.236107e+05	
64	3.200000e+00	5.175975e+05	
65	3.250000e+00	5.098478e+05	
66	3.300000e+00	5.002713e+05	
Reset re-loads circuit ***************************

Circuit: ***************************

Doing analysis at TEMP = 125.000000 and TNOM = 125.000000


No. of Data Rows : 67
                          ***************************
                          DC transfer characteristic  Mon Jan  9 13:58:14  2023
--------------------------------------------------------------------------------
Index   v-sweep         rds             
--------------------------------------------------------------------------------
0	0.000000e+00	9.508532e+02	
1	5.000000e-02	1.004149e+03	
2	1.000000e-01	1.062789e+03	
3	1.500000e-01	1.127614e+03	
4	2.000000e-01	1.199653e+03	
5	2.500000e-01	1.280177e+03	
6	3.000000e-01	1.370774e+03	
7	3.500000e-01	1.473453e+03	
8	4.000000e-01	1.590800e+03	
9	4.500000e-01	1.726194e+03	
10	5.000000e-01	1.884141e+03	
11	5.500000e-01	2.070790e+03	
12	6.000000e-01	2.294757e+03	
13	6.500000e-01	2.568507e+03	
14	7.000000e-01	2.910792e+03	
15	7.500000e-01	3.351197e+03	
16	8.000000e-01	3.939207e+03	
17	8.500000e-01	4.763541e+03	
18	9.000000e-01	5.994645e+03	
19	9.500000e-01	7.968781e+03	
20	1.000000e+00	1.127506e+04	
21	1.050000e+00	1.658966e+04	
22	1.100000e+00	2.413098e+04	
23	1.150000e+00	3.346087e+04	
24	1.200000e+00	4.389763e+04	
25	1.250000e+00	5.486939e+04	
26	1.300000e+00	6.599128e+04	
27	1.350000e+00	7.702684e+04	
28	1.400000e+00	8.783723e+04	
29	1.450000e+00	9.834425e+04	
30	1.500000e+00	1.085068e+05	
31	1.550000e+00	1.183065e+05	
32	1.600000e+00	1.277386e+05	
33	1.650000e+00	1.368073e+05	
34	1.700000e+00	1.455214e+05	
35	1.750000e+00	1.538929e+05	
36	1.800000e+00	1.619354e+05	
37	1.850000e+00	1.696633e+05	
38	1.900000e+00	1.770911e+05	
39	1.950000e+00	1.842332e+05	
40	2.000000e+00	1.911036e+05	
41	2.050000e+00	1.977157e+05	
42	2.100000e+00	2.040826e+05	
43	2.150000e+00	2.102165e+05	
44	2.200000e+00	2.161290e+05	
45	2.250000e+00	2.218311e+05	
46	2.300000e+00	2.273332e+05	
47	2.350000e+00	2.326451e+05	
48	2.400000e+00	2.377757e+05	
49	2.450000e+00	2.427335e+05	
50	2.500000e+00	2.475261e+05	
51	2.550000e+00	2.521603e+05	
52	2.600000e+00	2.566415e+05	
53	2.650000e+00	2.609739e+05	
54	2.700000e+00	2.651598e+05	

Index   v-sweep         rds             
--------------------------------------------------------------------------------
55	2.750000e+00	2.691989e+05	
56	2.800000e+00	2.730877e+05	
57	2.850000e+00	2.768186e+05	
58	2.900000e+00	2.803786e+05	
59	2.950000e+00	2.837483e+05	
60	3.000000e+00	2.869004e+05	
61	3.050000e+00	2.897984e+05	
62	3.100000e+00	2.923949e+05	
63	3.150000e+00	2.946305e+05	
64	3.200000e+00	2.964331e+05	
65	3.250000e+00	2.977177e+05	
66	3.300000e+00	2.983866e+05	
Reset re-loads circuit ***************************

Circuit: ***************************

Doing analysis at TEMP = 125.000000 and TNOM = 125.000000


No. of Data Rows : 67
                          ***************************
                          DC transfer characteristic  Mon Jan  9 13:58:14  2023
--------------------------------------------------------------------------------
Index   v-sweep         rds             
--------------------------------------------------------------------------------
0	0.000000e+00	7.320914e+02	
1	5.000000e-02	7.623473e+02	
2	1.000000e-01	7.947243e+02	
3	1.500000e-01	8.294515e+02	
4	2.000000e-01	8.667926e+02	
5	2.500000e-01	9.070521e+02	
6	3.000000e-01	9.505841e+02	
7	3.500000e-01	9.978021e+02	
8	4.000000e-01	1.049193e+03	
9	4.500000e-01	1.105332e+03	
10	5.000000e-01	1.166909e+03	
11	5.500000e-01	1.234750e+03	
12	6.000000e-01	1.309861e+03	
13	6.500000e-01	1.393477e+03	
14	7.000000e-01	1.487128e+03	
15	7.500000e-01	1.592742e+03	
16	8.000000e-01	1.712775e+03	
17	8.500000e-01	1.850420e+03	
18	9.000000e-01	2.009900e+03	
19	9.500000e-01	2.196945e+03	
20	1.000000e+00	2.419550e+03	
21	1.050000e+00	2.689275e+03	
22	1.100000e+00	3.023592e+03	
23	1.150000e+00	3.450371e+03	
24	1.200000e+00	4.016906e+03	
25	1.250000e+00	4.808061e+03	
26	1.300000e+00	5.977921e+03	
27	1.350000e+00	7.778820e+03	
28	1.400000e+00	1.051327e+04	
29	1.450000e+00	1.435907e+04	
30	1.500000e+00	1.924295e+04	
31	1.550000e+00	2.491982e+04	
32	1.600000e+00	3.111831e+04	
33	1.650000e+00	3.761614e+04	
34	1.700000e+00	4.425263e+04	
35	1.750000e+00	5.091780e+04	
36	1.800000e+00	5.753823e+04	
37	1.850000e+00	6.406570e+04	
38	1.900000e+00	7.046908e+04	
39	1.950000e+00	7.672884e+04	
40	2.000000e+00	8.283333e+04	
41	2.050000e+00	8.877631e+04	
42	2.100000e+00	9.455527e+04	
43	2.150000e+00	1.001702e+05	
44	2.200000e+00	1.056230e+05	
45	2.250000e+00	1.109166e+05	
46	2.300000e+00	1.160547e+05	
47	2.350000e+00	1.210416e+05	
48	2.400000e+00	1.258820e+05	
49	2.450000e+00	1.305807e+05	
50	2.500000e+00	1.351424e+05	
51	2.550000e+00	1.395720e+05	
52	2.600000e+00	1.438742e+05	
53	2.650000e+00	1.480537e+05	
54	2.700000e+00	1.521150e+05	

Index   v-sweep         rds             
--------------------------------------------------------------------------------
55	2.750000e+00	1.560624e+05	
56	2.800000e+00	1.599000e+05	
57	2.850000e+00	1.636313e+05	
58	2.900000e+00	1.672597e+05	
59	2.950000e+00	1.707877e+05	
60	3.000000e+00	1.742169e+05	
61	3.050000e+00	1.775476e+05	
62	3.100000e+00	1.807783e+05	
63	3.150000e+00	1.839051e+05	
64	3.200000e+00	1.869209e+05	
65	3.250000e+00	1.898145e+05	
66	3.300000e+00	1.925693e+05	
Reset re-loads circuit ***************************

Circuit: ***************************

Doing analysis at TEMP = 125.000000 and TNOM = 125.000000


No. of Data Rows : 67
                          ***************************
                          DC transfer characteristic  Mon Jan  9 13:58:14  2023
--------------------------------------------------------------------------------
Index   v-sweep         rds             
--------------------------------------------------------------------------------
0	0.000000e+00	6.178319e+02	
1	5.000000e-02	6.381681e+02	
2	1.000000e-01	6.595970e+02	
3	1.500000e-01	6.822081e+02	
4	2.000000e-01	7.061007e+02	
5	2.500000e-01	7.313861e+02	
6	3.000000e-01	7.581885e+02	
7	3.500000e-01	7.866473e+02	
8	4.000000e-01	8.169198e+02	
9	4.500000e-01	8.491838e+02	
10	5.000000e-01	8.836411e+02	
11	5.500000e-01	9.205220e+02	
12	6.000000e-01	9.600901e+02	
13	6.500000e-01	1.002649e+03	
14	7.000000e-01	1.048549e+03	
15	7.500000e-01	1.098200e+03	
16	8.000000e-01	1.152080e+03	
17	8.500000e-01	1.210753e+03	
18	9.000000e-01	1.274889e+03	
19	9.500000e-01	1.345290e+03	
20	1.000000e+00	1.422926e+03	
21	1.050000e+00	1.508982e+03	
22	1.100000e+00	1.604920e+03	
23	1.150000e+00	1.712576e+03	
24	1.200000e+00	1.834287e+03	
25	1.250000e+00	1.973086e+03	
26	1.300000e+00	2.133010e+03	
27	1.350000e+00	2.319590e+03	
28	1.400000e+00	2.540686e+03	
29	1.450000e+00	2.807999e+03	
30	1.500000e+00	3.139908e+03	
31	1.550000e+00	3.566970e+03	
32	1.600000e+00	4.142173e+03	
33	1.650000e+00	4.956912e+03	
34	1.700000e+00	6.153264e+03	
35	1.750000e+00	7.901140e+03	
36	1.800000e+00	1.032036e+04	
37	1.850000e+00	1.341115e+04	
38	1.900000e+00	1.706881e+04	
39	1.950000e+00	2.114860e+04	
40	2.000000e+00	2.551450e+04	
41	2.050000e+00	3.005743e+04	
42	2.100000e+00	3.469597e+04	
43	2.150000e+00	3.937130e+04	
44	2.200000e+00	4.404161e+04	
45	2.250000e+00	4.867738e+04	
46	2.300000e+00	5.325795e+04	
47	2.350000e+00	5.776899e+04	
48	2.400000e+00	6.220075e+04	
49	2.450000e+00	6.654678e+04	
50	2.500000e+00	7.080304e+04	
51	2.550000e+00	7.496724e+04	
52	2.600000e+00	7.903838e+04	
53	2.650000e+00	8.301644e+04	
54	2.700000e+00	8.690204e+04	

Index   v-sweep         rds             
--------------------------------------------------------------------------------
55	2.750000e+00	9.069637e+04	
56	2.800000e+00	9.440094e+04	
57	2.850000e+00	9.801755e+04	
58	2.900000e+00	1.015482e+05	
59	2.950000e+00	1.049949e+05	
60	3.000000e+00	1.083598e+05	
61	3.050000e+00	1.116451e+05	
62	3.100000e+00	1.148530e+05	
63	3.150000e+00	1.179855e+05	
64	3.200000e+00	1.210445e+05	
65	3.250000e+00	1.240314e+05	
66	3.300000e+00	1.269476e+05	
Reset re-loads circuit ***************************

Circuit: ***************************

Doing analysis at TEMP = 125.000000 and TNOM = 125.000000


No. of Data Rows : 67
                          ***************************
                          DC transfer characteristic  Mon Jan  9 13:58:14  2023
--------------------------------------------------------------------------------
Index   v-sweep         rds             
--------------------------------------------------------------------------------
0	0.000000e+00	5.524011e+02	
1	5.000000e-02	5.675566e+02	
2	1.000000e-01	5.833719e+02	
3	1.500000e-01	5.998904e+02	
4	2.000000e-01	6.171594e+02	
5	2.500000e-01	6.352307e+02	
6	3.000000e-01	6.541606e+02	
7	3.500000e-01	6.740112e+02	
8	4.000000e-01	6.948506e+02	
9	4.500000e-01	7.167536e+02	
10	5.000000e-01	7.398032e+02	
11	5.500000e-01	7.640909e+02	
12	6.000000e-01	7.897184e+02	
13	6.500000e-01	8.167987e+02	
14	7.000000e-01	8.454583e+02	
15	7.500000e-01	8.758385e+02	
16	8.000000e-01	9.080982e+02	
17	8.500000e-01	9.424166e+02	
18	9.000000e-01	9.789963e+02	
19	9.500000e-01	1.018068e+03	
20	1.000000e+00	1.059895e+03	
21	1.050000e+00	1.104779e+03	
22	1.100000e+00	1.153068e+03	
23	1.150000e+00	1.205165e+03	
24	1.200000e+00	1.261543e+03	
25	1.250000e+00	1.322755e+03	
26	1.300000e+00	1.389456e+03	
27	1.350000e+00	1.462432e+03	
28	1.400000e+00	1.542629e+03	
29	1.450000e+00	1.631203e+03	
30	1.500000e+00	1.729589e+03	
31	1.550000e+00	1.839593e+03	
32	1.600000e+00	1.963545e+03	
33	1.650000e+00	2.104518e+03	
34	1.700000e+00	2.266713e+03	
35	1.750000e+00	2.456094e+03	
36	1.800000e+00	2.681546e+03	
37	1.850000e+00	2.957008e+03	
38	1.900000e+00	3.305397e+03	
39	1.950000e+00	3.765383e+03	
40	2.000000e+00	4.400702e+03	
41	2.050000e+00	5.305528e+03	
42	2.100000e+00	6.589643e+03	
43	2.150000e+00	8.335408e+03	
44	2.200000e+00	1.055732e+04	
45	2.250000e+00	1.320311e+04	
46	2.300000e+00	1.618647e+04	
47	2.350000e+00	1.941793e+04	
48	2.400000e+00	2.282024e+04	
49	2.450000e+00	2.633221e+04	
50	2.500000e+00	2.990734e+04	
51	2.550000e+00	3.351097e+04	
52	2.600000e+00	3.711749e+04	
53	2.650000e+00	4.070807e+04	
54	2.700000e+00	4.426890e+04	

Index   v-sweep         rds             
--------------------------------------------------------------------------------
55	2.750000e+00	4.778992e+04	
56	2.800000e+00	5.126384e+04	
57	2.850000e+00	5.468549e+04	
58	2.900000e+00	5.805123e+04	
59	2.950000e+00	6.135864e+04	
60	3.000000e+00	6.460620e+04	
61	3.050000e+00	6.779308e+04	
62	3.100000e+00	7.091897e+04	
63	3.150000e+00	7.398400e+04	
64	3.200000e+00	7.698856e+04	
65	3.250000e+00	7.993331e+04	
66	3.300000e+00	8.281907e+04	
Reset re-loads circuit ***************************

Circuit: ***************************

Note: No ".plot", ".print", or ".fourier" lines; no simulations run
