
Note: Compatibility modes selected: hs

Warning: m=xx on .subckt line will override multiplier m hierarchy!


Circuit: ***************************

Doing analysis at TEMP = 125.000000 and TNOM = 125.000000


No. of Data Rows : 67
                          ***************************
                          DC transfer characteristic  Mon Jan  9 13:58:14  2023
--------------------------------------------------------------------------------
Index   v-sweep         rds             
--------------------------------------------------------------------------------
0	0.000000e+00	8.181163e+05	
1	5.000000e-02	1.010208e+06	
2	1.000000e-01	1.318251e+06	
3	1.500000e-01	1.890563e+06	
4	2.000000e-01	3.286747e+06	
5	2.500000e-01	9.121037e+06	
6	3.000000e-01	4.398495e+07	
7	3.500000e-01	1.364448e+08	
8	4.000000e-01	2.416927e+08	
9	4.500000e-01	3.288988e+08	
10	5.000000e-01	3.979008e+08	
11	5.500000e-01	4.536690e+08	
12	6.000000e-01	5.000109e+08	
13	6.500000e-01	5.394122e+08	
14	7.000000e-01	5.735076e+08	
15	7.500000e-01	6.034157e+08	
16	8.000000e-01	6.299340e+08	
17	8.500000e-01	6.536526e+08	
18	9.000000e-01	6.750215e+08	
19	9.500000e-01	6.943922e+08	
20	1.000000e+00	7.120452e+08	
21	1.050000e+00	7.282080e+08	
22	1.100000e+00	7.430676e+08	
23	1.150000e+00	7.567799e+08	
24	1.200000e+00	7.694759e+08	
25	1.250000e+00	7.812667e+08	
26	1.300000e+00	7.922474e+08	
27	1.350000e+00	8.025000e+08	
28	1.400000e+00	8.120954e+08	
29	1.450000e+00	8.210955e+08	
30	1.500000e+00	8.295546e+08	
31	1.550000e+00	8.375204e+08	
32	1.600000e+00	8.450350e+08	
33	1.650000e+00	8.521358e+08	
34	1.700000e+00	8.588560e+08	
35	1.750000e+00	8.652251e+08	
36	1.800000e+00	8.712693e+08	
37	1.850000e+00	8.770117e+08	
38	1.900000e+00	8.824724e+08	
39	1.950000e+00	8.876688e+08	
40	2.000000e+00	8.926151e+08	
41	2.050000e+00	8.973224e+08	
42	2.100000e+00	9.017985e+08	
43	2.150000e+00	9.060471e+08	
44	2.200000e+00	9.100679e+08	
45	2.250000e+00	9.138552e+08	
46	2.300000e+00	9.173981e+08	
47	2.350000e+00	9.206794e+08	
48	2.400000e+00	9.236749e+08	
49	2.450000e+00	9.263526e+08	
50	2.500000e+00	9.286722e+08	
51	2.550000e+00	9.305847e+08	
52	2.600000e+00	9.320316e+08	
53	2.650000e+00	9.329448e+08	
54	2.700000e+00	9.332468e+08	

Index   v-sweep         rds             
--------------------------------------------------------------------------------
55	2.750000e+00	9.328513e+08	
56	2.800000e+00	9.316635e+08	
57	2.850000e+00	9.295817e+08	
58	2.900000e+00	9.264993e+08	
59	2.950000e+00	9.223068e+08	
60	3.000000e+00	9.168952e+08	
61	3.050000e+00	9.101593e+08	
62	3.100000e+00	9.020015e+08	
63	3.150000e+00	8.923366e+08	
64	3.200000e+00	8.810957e+08	
65	3.250000e+00	8.682305e+08	
66	3.300000e+00	8.537176e+08	
Reset re-loads circuit ***************************

Circuit: ***************************

Doing analysis at TEMP = 125.000000 and TNOM = 125.000000


No. of Data Rows : 67
                          ***************************
                          DC transfer characteristic  Mon Jan  9 13:58:14  2023
--------------------------------------------------------------------------------
Index   v-sweep         rds             
--------------------------------------------------------------------------------
0	0.000000e+00	3.177805e+05	
1	5.000000e-02	3.449967e+05	
2	1.000000e-01	3.771832e+05	
3	1.500000e-01	4.158374e+05	
4	2.000000e-01	4.631246e+05	
5	2.500000e-01	5.222966e+05	
6	3.000000e-01	5.984678e+05	
7	3.500000e-01	7.001643e+05	
8	4.000000e-01	8.427060e+05	
9	4.500000e-01	1.056506e+06	
10	5.000000e-01	1.410764e+06	
11	5.500000e-01	2.095289e+06	
12	6.000000e-01	3.756227e+06	
13	6.500000e-01	8.622740e+06	
14	7.000000e-01	2.028140e+07	
15	7.500000e-01	3.743974e+07	
16	8.000000e-01	5.552019e+07	
17	8.500000e-01	7.234265e+07	
18	9.000000e-01	8.754453e+07	
19	9.500000e-01	1.012776e+08	
20	1.000000e+00	1.137621e+08	
21	1.050000e+00	1.251895e+08	
22	1.100000e+00	1.357123e+08	
23	1.150000e+00	1.454511e+08	
24	1.200000e+00	1.545024e+08	
25	1.250000e+00	1.629451e+08	
26	1.300000e+00	1.708444e+08	
27	1.350000e+00	1.782554e+08	
28	1.400000e+00	1.852250e+08	
29	1.450000e+00	1.917938e+08	
30	1.500000e+00	1.979969e+08	
31	1.550000e+00	2.038652e+08	
32	1.600000e+00	2.094261e+08	
33	1.650000e+00	2.147039e+08	
34	1.700000e+00	2.197200e+08	
35	1.750000e+00	2.244940e+08	
36	1.800000e+00	2.290432e+08	
37	1.850000e+00	2.333835e+08	
38	1.900000e+00	2.375290e+08	
39	1.950000e+00	2.414927e+08	
40	2.000000e+00	2.452865e+08	
41	2.050000e+00	2.489211e+08	
42	2.100000e+00	2.524060e+08	
43	2.150000e+00	2.557503e+08	
44	2.200000e+00	2.589618e+08	
45	2.250000e+00	2.620475e+08	
46	2.300000e+00	2.650132e+08	
47	2.350000e+00	2.678640e+08	
48	2.400000e+00	2.706033e+08	
49	2.450000e+00	2.732332e+08	
50	2.500000e+00	2.757538e+08	
51	2.550000e+00	2.781634e+08	
52	2.600000e+00	2.804574e+08	
53	2.650000e+00	2.826284e+08	
54	2.700000e+00	2.846654e+08	

Index   v-sweep         rds             
--------------------------------------------------------------------------------
55	2.750000e+00	2.865534e+08	
56	2.800000e+00	2.882731e+08	
57	2.850000e+00	2.898001e+08	
58	2.900000e+00	2.911048e+08	
59	2.950000e+00	2.921521e+08	
60	3.000000e+00	2.929013e+08	
61	3.050000e+00	2.933064e+08	
62	3.100000e+00	2.933167e+08	
63	3.150000e+00	2.928775e+08	
64	3.200000e+00	2.919318e+08	
65	3.250000e+00	2.904220e+08	
66	3.300000e+00	2.882922e+08	
Reset re-loads circuit ***************************

Circuit: ***************************

Doing analysis at TEMP = 125.000000 and TNOM = 125.000000


No. of Data Rows : 67
                          ***************************
                          DC transfer characteristic  Mon Jan  9 13:58:14  2023
--------------------------------------------------------------------------------
Index   v-sweep         rds             
--------------------------------------------------------------------------------
0	0.000000e+00	2.036871e+05	
1	5.000000e-02	2.140944e+05	
2	1.000000e-01	2.255806e+05	
3	1.500000e-01	2.383224e+05	
4	2.000000e-01	2.525377e+05	
5	2.500000e-01	2.684975e+05	
6	3.000000e-01	2.865440e+05	
7	3.500000e-01	3.071145e+05	
8	4.000000e-01	3.307784e+05	
9	4.500000e-01	3.582895e+05	
10	5.000000e-01	3.906680e+05	
11	5.500000e-01	4.293293e+05	
12	6.000000e-01	4.762952e+05	
13	6.500000e-01	5.345555e+05	
14	7.000000e-01	6.087229e+05	
15	7.500000e-01	7.062923e+05	
16	8.000000e-01	8.402612e+05	
17	8.500000e-01	1.035109e+06	
18	9.000000e-01	1.341994e+06	
19	9.500000e-01	1.881550e+06	
20	1.000000e+00	2.964912e+06	
21	1.050000e+00	5.304725e+06	
22	1.100000e+00	9.716234e+06	
23	1.150000e+00	1.593340e+07	
24	1.200000e+00	2.288203e+07	
25	1.250000e+00	2.982499e+07	
26	1.300000e+00	3.647977e+07	
27	1.350000e+00	4.277616e+07	
28	1.400000e+00	4.871688e+07	
29	1.450000e+00	5.432556e+07	
30	1.500000e+00	5.962961e+07	
31	1.550000e+00	6.465509e+07	
32	1.600000e+00	6.942539e+07	
33	1.650000e+00	7.396123e+07	
34	1.700000e+00	7.828087e+07	
35	1.750000e+00	8.240051e+07	
36	1.800000e+00	8.633458e+07	
37	1.850000e+00	9.009599e+07	
38	1.900000e+00	9.369638e+07	
39	1.950000e+00	9.714627e+07	
40	2.000000e+00	1.004552e+08	
41	2.050000e+00	1.036319e+08	
42	2.100000e+00	1.066843e+08	
43	2.150000e+00	1.096197e+08	
44	2.200000e+00	1.124449e+08	
45	2.250000e+00	1.151660e+08	
46	2.300000e+00	1.177888e+08	
47	2.350000e+00	1.203185e+08	
48	2.400000e+00	1.227601e+08	
49	2.450000e+00	1.251180e+08	
50	2.500000e+00	1.273964e+08	
51	2.550000e+00	1.295992e+08	
52	2.600000e+00	1.317297e+08	
53	2.650000e+00	1.337909e+08	
54	2.700000e+00	1.357853e+08	

Index   v-sweep         rds             
--------------------------------------------------------------------------------
55	2.750000e+00	1.377148e+08	
56	2.800000e+00	1.395805e+08	
57	2.850000e+00	1.413828e+08	
58	2.900000e+00	1.431205e+08	
59	2.950000e+00	1.447914e+08	
60	3.000000e+00	1.463914e+08	
61	3.050000e+00	1.479143e+08	
62	3.100000e+00	1.493515e+08	
63	3.150000e+00	1.506915e+08	
64	3.200000e+00	1.519195e+08	
65	3.250000e+00	1.530174e+08	
66	3.300000e+00	1.539630e+08	
Reset re-loads circuit ***************************

Circuit: ***************************

Doing analysis at TEMP = 125.000000 and TNOM = 125.000000


No. of Data Rows : 67
                          ***************************
                          DC transfer characteristic  Mon Jan  9 13:58:14  2023
--------------------------------------------------------------------------------
Index   v-sweep         rds             
--------------------------------------------------------------------------------
0	0.000000e+00	1.557168e+05	
1	5.000000e-02	1.613182e+05	
2	1.000000e-01	1.673171e+05	
3	1.500000e-01	1.737572e+05	
4	2.000000e-01	1.806892e+05	
5	2.500000e-01	1.881715e+05	
6	3.000000e-01	1.962725e+05	
7	3.500000e-01	2.050720e+05	
8	4.000000e-01	2.146644e+05	
9	4.500000e-01	2.251621e+05	
10	5.000000e-01	2.366993e+05	
11	5.500000e-01	2.494385e+05	
12	6.000000e-01	2.635778e+05	
13	6.500000e-01	2.793613e+05	
14	7.000000e-01	2.970934e+05	
15	7.500000e-01	3.171582e+05	
16	8.000000e-01	3.400484e+05	
17	8.500000e-01	3.664051e+05	
18	9.000000e-01	3.970795e+05	
19	9.500000e-01	4.332252e+05	
20	1.000000e+00	4.764459e+05	
21	1.050000e+00	5.290368e+05	
22	1.100000e+00	5.943992e+05	
23	1.150000e+00	6.777881e+05	
24	1.200000e+00	7.877429e+05	
25	1.250000e+00	9.390189e+05	
26	1.300000e+00	1.159036e+06	
27	1.350000e+00	1.502908e+06	
28	1.400000e+00	2.087710e+06	
29	1.450000e+00	3.147898e+06	
30	1.500000e+00	5.007826e+06	
31	1.550000e+00	7.786062e+06	
32	1.600000e+00	1.121038e+07	
33	1.650000e+00	1.491153e+07	
34	1.700000e+00	1.865406e+07	
35	1.750000e+00	2.232756e+07	
36	1.800000e+00	2.588773e+07	
37	1.850000e+00	2.931983e+07	
38	1.900000e+00	3.262176e+07	
39	1.950000e+00	3.579665e+07	
40	2.000000e+00	3.884976e+07	
41	2.050000e+00	4.178705e+07	
42	2.100000e+00	4.461456e+07	
43	2.150000e+00	4.733814e+07	
44	2.200000e+00	4.996335e+07	
45	2.250000e+00	5.249544e+07	
46	2.300000e+00	5.493927e+07	
47	2.350000e+00	5.729942e+07	
48	2.400000e+00	5.958015e+07	
49	2.450000e+00	6.178543e+07	
50	2.500000e+00	6.391898e+07	
51	2.550000e+00	6.598425e+07	
52	2.600000e+00	6.798451e+07	
53	2.650000e+00	6.992278e+07	
54	2.700000e+00	7.180192e+07	

Index   v-sweep         rds             
--------------------------------------------------------------------------------
55	2.750000e+00	7.362461e+07	
56	2.800000e+00	7.539334e+07	
57	2.850000e+00	7.711046e+07	
58	2.900000e+00	7.877815e+07	
59	2.950000e+00	8.039843e+07	
60	3.000000e+00	8.197312e+07	
61	3.050000e+00	8.350383e+07	
62	3.100000e+00	8.499188e+07	
63	3.150000e+00	8.643826e+07	
64	3.200000e+00	8.784352e+07	
65	3.250000e+00	8.920760e+07	
66	3.300000e+00	9.052973e+07	
Reset re-loads circuit ***************************

Circuit: ***************************

Doing analysis at TEMP = 125.000000 and TNOM = 125.000000


No. of Data Rows : 67
                          ***************************
                          DC transfer characteristic  Mon Jan  9 13:58:14  2023
--------------------------------------------------------------------------------
Index   v-sweep         rds             
--------------------------------------------------------------------------------
0	0.000000e+00	1.293867e+05	
1	5.000000e-02	1.329158e+05	
2	1.000000e-01	1.366309e+05	
3	1.500000e-01	1.405469e+05	
4	2.000000e-01	1.446807e+05	
5	2.500000e-01	1.490508e+05	
6	3.000000e-01	1.536783e+05	
7	3.500000e-01	1.585864e+05	
8	4.000000e-01	1.638016e+05	
9	4.500000e-01	1.693534e+05	
10	5.000000e-01	1.752756e+05	
11	5.500000e-01	1.816066e+05	
12	6.000000e-01	1.883901e+05	
13	6.500000e-01	1.956764e+05	
14	7.000000e-01	2.035236e+05	
15	7.500000e-01	2.119989e+05	
16	8.000000e-01	2.211809e+05	
17	8.500000e-01	2.311619e+05	
18	9.000000e-01	2.420508e+05	
19	9.500000e-01	2.539773e+05	
20	1.000000e+00	2.670970e+05	
21	1.050000e+00	2.815985e+05	
22	1.100000e+00	2.977120e+05	
23	1.150000e+00	3.157218e+05	
24	1.200000e+00	3.359836e+05	
25	1.250000e+00	3.589474e+05	
26	1.300000e+00	3.851919e+05	
27	1.350000e+00	4.154729e+05	
28	1.400000e+00	4.507978e+05	
29	1.450000e+00	4.925378e+05	
30	1.500000e+00	5.426084e+05	
31	1.550000e+00	6.037658e+05	
32	1.600000e+00	6.801173e+05	
33	1.650000e+00	7.780424e+05	
34	1.700000e+00	9.079412e+05	
35	1.750000e+00	1.087720e+06	
36	1.800000e+00	1.349919e+06	
37	1.850000e+00	1.755467e+06	
38	1.900000e+00	2.412201e+06	
39	1.950000e+00	3.465777e+06	
40	2.000000e+00	5.004606e+06	
41	2.050000e+00	6.961277e+06	
42	2.100000e+00	9.174041e+06	
43	2.150000e+00	1.150078e+07	
44	2.200000e+00	1.385373e+07	
45	2.250000e+00	1.618603e+07	
46	2.300000e+00	1.847423e+07	
47	2.350000e+00	2.070715e+07	
48	2.400000e+00	2.287995e+07	
49	2.450000e+00	2.499113e+07	
50	2.500000e+00	2.704097e+07	
51	2.550000e+00	2.903067e+07	
52	2.600000e+00	3.096191e+07	
53	2.650000e+00	3.283664e+07	
54	2.700000e+00	3.465690e+07	

Index   v-sweep         rds             
--------------------------------------------------------------------------------
55	2.750000e+00	3.642475e+07	
56	2.800000e+00	3.814222e+07	
57	2.850000e+00	3.981129e+07	
58	2.900000e+00	4.143388e+07	
59	2.950000e+00	4.301183e+07	
60	3.000000e+00	4.454688e+07	
61	3.050000e+00	4.604073e+07	
62	3.100000e+00	4.749497e+07	
63	3.150000e+00	4.891112e+07	
64	3.200000e+00	5.029064e+07	
65	3.250000e+00	5.163491e+07	
66	3.300000e+00	5.294522e+07	
Reset re-loads circuit ***************************

Circuit: ***************************

Doing analysis at TEMP = 125.000000 and TNOM = 125.000000


No. of Data Rows : 67
                          ***************************
                          DC transfer characteristic  Mon Jan  9 13:58:14  2023
--------------------------------------------------------------------------------
Index   v-sweep         rds             
--------------------------------------------------------------------------------
0	0.000000e+00	1.140683e+05	
1	5.000000e-02	1.165491e+05	
2	1.000000e-01	1.191323e+05	
3	1.500000e-01	1.218245e+05	
4	2.000000e-01	1.246326e+05	
5	2.500000e-01	1.275644e+05	
6	3.000000e-01	1.306281e+05	
7	3.500000e-01	1.338329e+05	
8	4.000000e-01	1.371887e+05	
9	4.500000e-01	1.407065e+05	
10	5.000000e-01	1.443982e+05	
11	5.500000e-01	1.482772e+05	
12	6.000000e-01	1.523579e+05	
13	6.500000e-01	1.566565e+05	
14	7.000000e-01	1.611910e+05	
15	7.500000e-01	1.659814e+05	
16	8.000000e-01	1.710498e+05	
17	8.500000e-01	1.764212e+05	
18	9.000000e-01	1.821236e+05	
19	9.500000e-01	1.881885e+05	
20	1.000000e+00	1.946517e+05	
21	1.050000e+00	2.015537e+05	
22	1.100000e+00	2.089407e+05	
23	1.150000e+00	2.168657e+05	
24	1.200000e+00	2.253897e+05	
25	1.250000e+00	2.345831e+05	
26	1.300000e+00	2.445280e+05	
27	1.350000e+00	2.553206e+05	
28	1.400000e+00	2.670739e+05	
29	1.450000e+00	2.799222e+05	
30	1.500000e+00	2.940259e+05	
31	1.550000e+00	3.095782e+05	
32	1.600000e+00	3.268145e+05	
33	1.650000e+00	3.460237e+05	
34	1.700000e+00	3.675650e+05	
35	1.750000e+00	3.918899e+05	
36	1.800000e+00	4.195750e+05	
37	1.850000e+00	4.513671e+05	
38	1.900000e+00	4.882520e+05	
39	1.950000e+00	5.315567e+05	
40	2.000000e+00	5.831113e+05	
41	2.050000e+00	6.455079e+05	
42	2.100000e+00	7.225371e+05	
43	2.150000e+00	8.199472e+05	
44	2.200000e+00	9.468203e+05	
45	2.250000e+00	1.118132e+06	
46	2.300000e+00	1.359437e+06	
47	2.350000e+00	1.714268e+06	
48	2.400000e+00	2.249898e+06	
49	2.450000e+00	3.042969e+06	
50	2.500000e+00	4.130332e+06	
51	2.550000e+00	5.473456e+06	
52	2.600000e+00	6.989079e+06	
53	2.650000e+00	8.598623e+06	
54	2.700000e+00	1.024747e+07	

Index   v-sweep         rds             
--------------------------------------------------------------------------------
55	2.750000e+00	1.190236e+07	
56	2.800000e+00	1.354406e+07	
57	2.850000e+00	1.516169e+07	
58	2.900000e+00	1.674923e+07	
59	2.950000e+00	1.830349e+07	
60	3.000000e+00	1.982293e+07	
61	3.050000e+00	2.130703e+07	
62	3.100000e+00	2.275586e+07	
63	3.150000e+00	2.416988e+07	
64	3.200000e+00	2.554978e+07	
65	3.250000e+00	2.689636e+07	
66	3.300000e+00	2.821052e+07	
Reset re-loads circuit ***************************

Circuit: ***************************

Note: No ".plot", ".print", or ".fourier" lines; no simulations run
