
Note: Compatibility modes selected: hs

Warning: m=xx on .subckt line will override multiplier m hierarchy!


Circuit: ***************************

Doing analysis at TEMP = 25.000000 and TNOM = 25.000000


No. of Data Rows : 67
                          ***************************
                          DC transfer characteristic  Mon Jan  9 13:58:13  2023
--------------------------------------------------------------------------------
Index   v-sweep         rds             
--------------------------------------------------------------------------------
0	0.000000e+00	8.570583e+05	
1	5.000000e-02	1.225131e+06	
2	1.000000e-01	2.125459e+06	
3	1.500000e-01	6.365064e+06	
4	2.000000e-01	4.643585e+07	
5	2.500000e-01	1.776470e+08	
6	3.000000e-01	3.237425e+08	
7	3.500000e-01	4.369516e+08	
8	4.000000e-01	5.213823e+08	
9	4.500000e-01	5.863665e+08	
10	5.000000e-01	6.381885e+08	
11	5.500000e-01	6.807182e+08	
12	6.000000e-01	7.164053e+08	
13	6.500000e-01	7.468740e+08	
14	7.000000e-01	7.732494e+08	
15	7.500000e-01	7.963411e+08	
16	8.000000e-01	8.167492e+08	
17	8.500000e-01	8.349310e+08	
18	9.000000e-01	8.512416e+08	
19	9.500000e-01	8.659626e+08	
20	1.000000e+00	8.793200e+08	
21	1.050000e+00	8.914980e+08	
22	1.100000e+00	9.026484e+08	
23	1.150000e+00	9.128976e+08	
24	1.200000e+00	9.223517e+08	
25	1.250000e+00	9.311005e+08	
26	1.300000e+00	9.392208e+08	
27	1.350000e+00	9.467782e+08	
28	1.400000e+00	9.538296e+08	
29	1.450000e+00	9.604244e+08	
30	1.500000e+00	9.666056e+08	
31	1.550000e+00	9.724110e+08	
32	1.600000e+00	9.778736e+08	
33	1.650000e+00	9.830227e+08	
34	1.700000e+00	9.878840e+08	
35	1.750000e+00	9.924800e+08	
36	1.800000e+00	9.968304e+08	
37	1.850000e+00	1.000952e+09	
38	1.900000e+00	1.004859e+09	
39	1.950000e+00	1.008563e+09	
40	2.000000e+00	1.012071e+09	
41	2.050000e+00	1.015391e+09	
42	2.100000e+00	1.018522e+09	
43	2.150000e+00	1.021463e+09	
44	2.200000e+00	1.024207e+09	
45	2.250000e+00	1.026743e+09	
46	2.300000e+00	1.029054e+09	
47	2.350000e+00	1.031119e+09	
48	2.400000e+00	1.032907e+09	
49	2.450000e+00	1.034383e+09	
50	2.500000e+00	1.035505e+09	
51	2.550000e+00	1.036221e+09	
52	2.600000e+00	1.036476e+09	
53	2.650000e+00	1.036202e+09	
54	2.700000e+00	1.035329e+09	

Index   v-sweep         rds             
--------------------------------------------------------------------------------
55	2.750000e+00	1.033777e+09	
56	2.800000e+00	1.031462e+09	
57	2.850000e+00	1.028296e+09	
58	2.900000e+00	1.024187e+09	
59	2.950000e+00	1.019042e+09	
60	3.000000e+00	1.012773e+09	
61	3.050000e+00	1.005292e+09	
62	3.100000e+00	9.965203e+08	
63	3.150000e+00	9.863895e+08	
64	3.200000e+00	9.748440e+08	
65	3.250000e+00	9.618446e+08	
66	3.300000e+00	9.473707e+08	
Reset re-loads circuit ***************************

Circuit: ***************************

Doing analysis at TEMP = 25.000000 and TNOM = 25.000000


No. of Data Rows : 67
                          ***************************
                          DC transfer characteristic  Mon Jan  9 13:58:13  2023
--------------------------------------------------------------------------------
Index   v-sweep         rds             
--------------------------------------------------------------------------------
0	0.000000e+00	2.386199e+05	
1	5.000000e-02	2.637282e+05	
2	1.000000e-01	2.945679e+05	
3	1.500000e-01	3.333520e+05	
4	2.000000e-01	3.835988e+05	
5	2.500000e-01	4.512560e+05	
6	3.000000e-01	5.472163e+05	
7	3.500000e-01	6.937083e+05	
8	4.000000e-01	9.435334e+05	
9	4.500000e-01	1.452371e+06	
10	5.000000e-01	2.814224e+06	
11	5.500000e-01	7.244641e+06	
12	6.000000e-01	1.777136e+07	
13	6.500000e-01	3.242480e+07	
14	7.000000e-01	4.749257e+07	
15	7.500000e-01	6.146473e+07	
16	8.000000e-01	7.409406e+07	
17	8.500000e-01	8.548579e+07	
18	9.000000e-01	9.580376e+07	
19	9.500000e-01	1.051992e+08	
20	1.000000e+00	1.137986e+08	
21	1.050000e+00	1.217060e+08	
22	1.100000e+00	1.290069e+08	
23	1.150000e+00	1.357724e+08	
24	1.200000e+00	1.420620e+08	
25	1.250000e+00	1.479264e+08	
26	1.300000e+00	1.534086e+08	
27	1.350000e+00	1.585460e+08	
28	1.400000e+00	1.633710e+08	
29	1.450000e+00	1.679118e+08	
30	1.500000e+00	1.721932e+08	
31	1.550000e+00	1.762373e+08	
32	1.600000e+00	1.800635e+08	
33	1.650000e+00	1.836891e+08	
34	1.700000e+00	1.871297e+08	
35	1.750000e+00	1.903993e+08	
36	1.800000e+00	1.935103e+08	
37	1.850000e+00	1.964740e+08	
38	1.900000e+00	1.993008e+08	
39	1.950000e+00	2.019999e+08	
40	2.000000e+00	2.045796e+08	
41	2.050000e+00	2.070475e+08	
42	2.100000e+00	2.094104e+08	
43	2.150000e+00	2.116740e+08	
44	2.200000e+00	2.138437e+08	
45	2.250000e+00	2.159234e+08	
46	2.300000e+00	2.179164e+08	
47	2.350000e+00	2.198246e+08	
48	2.400000e+00	2.216485e+08	
49	2.450000e+00	2.233872e+08	
50	2.500000e+00	2.250376e+08	
51	2.550000e+00	2.265946e+08	
52	2.600000e+00	2.280504e+08	
53	2.650000e+00	2.293944e+08	
54	2.700000e+00	2.306128e+08	

Index   v-sweep         rds             
--------------------------------------------------------------------------------
55	2.750000e+00	2.316882e+08	
56	2.800000e+00	2.325995e+08	
57	2.850000e+00	2.333215e+08	
58	2.900000e+00	2.338253e+08	
59	2.950000e+00	2.340781e+08	
60	3.000000e+00	2.340436e+08	
61	3.050000e+00	2.336827e+08	
62	3.100000e+00	2.329545e+08	
63	3.150000e+00	2.318171e+08	
64	3.200000e+00	2.302300e+08	
65	3.250000e+00	2.281550e+08	
66	3.300000e+00	2.255587e+08	
Reset re-loads circuit ***************************

Circuit: ***************************

Doing analysis at TEMP = 25.000000 and TNOM = 25.000000


No. of Data Rows : 67
                          ***************************
                          DC transfer characteristic  Mon Jan  9 13:58:13  2023
--------------------------------------------------------------------------------
Index   v-sweep         rds             
--------------------------------------------------------------------------------
0	0.000000e+00	1.433458e+05	
1	5.000000e-02	1.517287e+05	
2	1.000000e-01	1.611053e+05	
3	1.500000e-01	1.716635e+05	
4	2.000000e-01	1.836414e+05	
5	2.500000e-01	1.973459e+05	
6	3.000000e-01	2.131791e+05	
7	3.500000e-01	2.316783e+05	
8	4.000000e-01	2.535782e+05	
9	4.500000e-01	2.799104e+05	
10	5.000000e-01	3.121697e+05	
11	5.500000e-01	3.526061e+05	
12	6.000000e-01	4.047673e+05	
13	6.500000e-01	4.745816e+05	
14	7.000000e-01	5.727142e+05	
15	7.500000e-01	7.202721e+05	
16	8.000000e-01	9.644261e+05	
17	8.500000e-01	1.425927e+06	
18	9.000000e-01	2.432176e+06	
19	9.500000e-01	4.640463e+06	
20	1.000000e+00	8.447918e+06	
21	1.050000e+00	1.333241e+07	
22	1.100000e+00	1.857243e+07	
23	1.150000e+00	2.376873e+07	
24	1.200000e+00	2.876413e+07	
25	1.250000e+00	3.351001e+07	
26	1.300000e+00	3.800031e+07	
27	1.350000e+00	4.224472e+07	
28	1.400000e+00	4.625831e+07	
29	1.450000e+00	5.005730e+07	
30	1.500000e+00	5.365752e+07	
31	1.550000e+00	5.707373e+07	
32	1.600000e+00	6.031955e+07	
33	1.650000e+00	6.340736e+07	
34	1.700000e+00	6.634843e+07	
35	1.750000e+00	6.915302e+07	
36	1.800000e+00	7.183044e+07	
37	1.850000e+00	7.438920e+07	
38	1.900000e+00	7.683704e+07	
39	1.950000e+00	7.918106e+07	
40	2.000000e+00	8.142775e+07	
41	2.050000e+00	8.358307e+07	
42	2.100000e+00	8.565250e+07	
43	2.150000e+00	8.764109e+07	
44	2.200000e+00	8.955348e+07	
45	2.250000e+00	9.139397e+07	
46	2.300000e+00	9.316652e+07	
47	2.350000e+00	9.487478e+07	
48	2.400000e+00	9.652209e+07	
49	2.450000e+00	9.811149e+07	
50	2.500000e+00	9.964570e+07	
51	2.550000e+00	1.011271e+08	
52	2.600000e+00	1.025575e+08	
53	2.650000e+00	1.039385e+08	
54	2.700000e+00	1.052708e+08	

Index   v-sweep         rds             
--------------------------------------------------------------------------------
55	2.750000e+00	1.065546e+08	
56	2.800000e+00	1.077890e+08	
57	2.850000e+00	1.089721e+08	
58	2.900000e+00	1.101005e+08	
59	2.950000e+00	1.111694e+08	
60	3.000000e+00	1.121720e+08	
61	3.050000e+00	1.130995e+08	
62	3.100000e+00	1.139406e+08	
63	3.150000e+00	1.146815e+08	
64	3.200000e+00	1.153055e+08	
65	3.250000e+00	1.157932e+08	
66	3.300000e+00	1.161227e+08	
Reset re-loads circuit ***************************

Circuit: ***************************

Doing analysis at TEMP = 25.000000 and TNOM = 25.000000


No. of Data Rows : 67
                          ***************************
                          DC transfer characteristic  Mon Jan  9 13:58:13  2023
--------------------------------------------------------------------------------
Index   v-sweep         rds             
--------------------------------------------------------------------------------
0	0.000000e+00	1.076968e+05	
1	5.000000e-02	1.120269e+05	
2	1.000000e-01	1.166977e+05	
3	1.500000e-01	1.217511e+05	
4	2.000000e-01	1.272361e+05	
5	2.500000e-01	1.332104e+05	
6	3.000000e-01	1.397425e+05	
7	3.500000e-01	1.469142e+05	
8	4.000000e-01	1.548243e+05	
9	4.500000e-01	1.635930e+05	
10	5.000000e-01	1.733681e+05	
11	5.500000e-01	1.843332e+05	
12	6.000000e-01	1.967195e+05	
13	6.500000e-01	2.108225e+05	
14	7.000000e-01	2.270253e+05	
15	7.500000e-01	2.458342e+05	
16	8.000000e-01	2.679324e+05	
17	8.500000e-01	2.942641e+05	
18	9.000000e-01	3.261724e+05	
19	9.500000e-01	3.656336e+05	
20	1.000000e+00	4.156765e+05	
21	1.050000e+00	4.811810e+05	
22	1.100000e+00	5.705074e+05	
23	1.150000e+00	6.991002e+05	
24	1.200000e+00	8.980913e+05	
25	1.250000e+00	1.235334e+06	
26	1.300000e+00	1.857013e+06	
27	1.350000e+00	2.999129e+06	
28	1.400000e+00	4.810369e+06	
29	1.450000e+00	7.162363e+06	
30	1.500000e+00	9.803178e+06	
31	1.550000e+00	1.254332e+07	
32	1.600000e+00	1.527847e+07	
33	1.650000e+00	1.795751e+07	
34	1.700000e+00	2.055698e+07	
35	1.750000e+00	2.306719e+07	
36	1.800000e+00	2.548542e+07	
37	1.850000e+00	2.781240e+07	
38	1.900000e+00	3.005066e+07	
39	1.950000e+00	3.220357e+07	
40	2.000000e+00	3.427489e+07	
41	2.050000e+00	3.626846e+07	
42	2.100000e+00	3.818811e+07	
43	2.150000e+00	4.003754e+07	
44	2.200000e+00	4.182028e+07	
45	2.250000e+00	4.353970e+07	
46	2.300000e+00	4.519898e+07	
47	2.350000e+00	4.680112e+07	
48	2.400000e+00	4.834895e+07	
49	2.450000e+00	4.984512e+07	
50	2.500000e+00	5.129212e+07	
51	2.550000e+00	5.269230e+07	
52	2.600000e+00	5.404786e+07	
53	2.650000e+00	5.536086e+07	
54	2.700000e+00	5.663324e+07	

Index   v-sweep         rds             
--------------------------------------------------------------------------------
55	2.750000e+00	5.786680e+07	
56	2.800000e+00	5.906321e+07	
57	2.850000e+00	6.022399e+07	
58	2.900000e+00	6.135050e+07	
59	2.950000e+00	6.244390e+07	
60	3.000000e+00	6.350507e+07	
61	3.050000e+00	6.453461e+07	
62	3.100000e+00	6.553268e+07	
63	3.150000e+00	6.649892e+07	
64	3.200000e+00	6.743233e+07	
65	3.250000e+00	6.833106e+07	
66	3.300000e+00	6.919226e+07	
Reset re-loads circuit ***************************

Circuit: ***************************

Doing analysis at TEMP = 25.000000 and TNOM = 25.000000


No. of Data Rows : 67
                          ***************************
                          DC transfer characteristic  Mon Jan  9 13:58:13  2023
--------------------------------------------------------------------------------
Index   v-sweep         rds             
--------------------------------------------------------------------------------
0	0.000000e+00	8.956630e+04	
1	5.000000e-02	9.227060e+04	
2	1.000000e-01	9.513076e+04	
3	1.500000e-01	9.816062e+04	
4	2.000000e-01	1.013757e+05	
5	2.500000e-01	1.047936e+05	
6	3.000000e-01	1.084341e+05	
7	3.500000e-01	1.123195e+05	
8	4.000000e-01	1.164756e+05	
9	4.500000e-01	1.209315e+05	
10	5.000000e-01	1.257209e+05	
11	5.500000e-01	1.308827e+05	
12	6.000000e-01	1.364620e+05	
13	6.500000e-01	1.425116e+05	
14	7.000000e-01	1.490935e+05	
15	7.500000e-01	1.562813e+05	
16	8.000000e-01	1.641625e+05	
17	8.500000e-01	1.728426e+05	
18	9.000000e-01	1.824494e+05	
19	9.500000e-01	1.931396e+05	
20	1.000000e+00	2.051074e+05	
21	1.050000e+00	2.185964e+05	
22	1.100000e+00	2.339161e+05	
23	1.150000e+00	2.514662e+05	
24	1.200000e+00	2.717718e+05	
25	1.250000e+00	2.955366e+05	
26	1.300000e+00	3.237265e+05	
27	1.350000e+00	3.577025e+05	
28	1.400000e+00	3.994464e+05	
29	1.450000e+00	4.519559e+05	
30	1.500000e+00	5.199799e+05	
31	1.550000e+00	6.114693e+05	
32	1.600000e+00	7.406067e+05	
33	1.650000e+00	9.343006e+05	
34	1.700000e+00	1.244835e+06	
35	1.750000e+00	1.763585e+06	
36	1.800000e+00	2.597829e+06	
37	1.850000e+00	3.783586e+06	
38	1.900000e+00	5.248114e+06	
39	1.950000e+00	6.880310e+06	
40	2.000000e+00	8.591732e+06	
41	2.050000e+00	1.032667e+07	
42	2.100000e+00	1.205295e+07	
43	2.150000e+00	1.375261e+07	
44	2.200000e+00	1.541581e+07	
45	2.250000e+00	1.703744e+07	
46	2.300000e+00	1.861507e+07	
47	2.350000e+00	2.014790e+07	
48	2.400000e+00	2.163610e+07	
49	2.450000e+00	2.308039e+07	
50	2.500000e+00	2.448186e+07	
51	2.550000e+00	2.584178e+07	
52	2.600000e+00	2.716152e+07	
53	2.650000e+00	2.844251e+07	
54	2.700000e+00	2.968618e+07	

Index   v-sweep         rds             
--------------------------------------------------------------------------------
55	2.750000e+00	3.089394e+07	
56	2.800000e+00	3.206716e+07	
57	2.850000e+00	3.320719e+07	
58	2.900000e+00	3.431533e+07	
59	2.950000e+00	3.539281e+07	
60	3.000000e+00	3.644082e+07	
61	3.050000e+00	3.746051e+07	
62	3.100000e+00	3.845294e+07	
63	3.150000e+00	3.941916e+07	
64	3.200000e+00	4.036011e+07	
65	3.250000e+00	4.127670e+07	
66	3.300000e+00	4.216972e+07	
Reset re-loads circuit ***************************

Circuit: ***************************

Doing analysis at TEMP = 25.000000 and TNOM = 25.000000


No. of Data Rows : 67
                          ***************************
                          DC transfer characteristic  Mon Jan  9 13:58:13  2023
--------------------------------------------------------------------------------
Index   v-sweep         rds             
--------------------------------------------------------------------------------
0	0.000000e+00	7.861910e+04	
1	5.000000e-02	8.048211e+04	
2	1.000000e-01	8.242765e+04	
3	1.500000e-01	8.446131e+04	
4	2.000000e-01	8.658921e+04	
5	2.500000e-01	8.881805e+04	
6	3.000000e-01	9.115518e+04	
7	3.500000e-01	9.360866e+04	
8	4.000000e-01	9.618741e+04	
9	4.500000e-01	9.890126e+04	
10	5.000000e-01	1.017611e+05	
11	5.500000e-01	1.047790e+05	
12	6.000000e-01	1.079685e+05	
13	6.500000e-01	1.113446e+05	
14	7.000000e-01	1.149241e+05	
15	7.500000e-01	1.187260e+05	
16	8.000000e-01	1.227716e+05	
17	8.500000e-01	1.270853e+05	
18	9.000000e-01	1.316944e+05	
19	9.500000e-01	1.366304e+05	
20	1.000000e+00	1.419294e+05	
21	1.050000e+00	1.476329e+05	
22	1.100000e+00	1.537889e+05	
23	1.150000e+00	1.604537e+05	
24	1.200000e+00	1.676930e+05	
25	1.250000e+00	1.755843e+05	
26	1.300000e+00	1.842198e+05	
27	1.350000e+00	1.937102e+05	
28	1.400000e+00	2.041888e+05	
29	1.450000e+00	2.158185e+05	
30	1.500000e+00	2.288002e+05	
31	1.550000e+00	2.433841e+05	
32	1.600000e+00	2.598866e+05	
33	1.650000e+00	2.787132e+05	
34	1.700000e+00	3.003926e+05	
35	1.750000e+00	3.256274e+05	
36	1.800000e+00	3.553721e+05	
37	1.850000e+00	3.909578e+05	
38	1.900000e+00	4.342974e+05	
39	1.950000e+00	4.882433e+05	
40	2.000000e+00	5.572352e+05	
41	2.050000e+00	6.485370e+05	
42	2.100000e+00	7.746648e+05	
43	2.150000e+00	9.579656e+05	
44	2.200000e+00	1.237244e+06	
45	2.250000e+00	1.668722e+06	
46	2.300000e+00	2.302783e+06	
47	2.350000e+00	3.144895e+06	
48	2.400000e+00	4.152433e+06	
49	2.450000e+00	5.267867e+06	
50	2.500000e+00	6.443365e+06	
51	2.550000e+00	7.646015e+06	
52	2.600000e+00	8.854810e+06	
53	2.650000e+00	1.005670e+07	
54	2.700000e+00	1.124367e+07	

Index   v-sweep         rds             
--------------------------------------------------------------------------------
55	2.750000e+00	1.241084e+07	
56	2.800000e+00	1.355530e+07	
57	2.850000e+00	1.467540e+07	
58	2.900000e+00	1.577032e+07	
59	2.950000e+00	1.683975e+07	
60	3.000000e+00	1.788375e+07	
61	3.050000e+00	1.890259e+07	
62	3.100000e+00	1.989672e+07	
63	3.150000e+00	2.086667e+07	
64	3.200000e+00	2.181304e+07	
65	3.250000e+00	2.273646e+07	
66	3.300000e+00	2.363759e+07	
Reset re-loads circuit ***************************

Circuit: ***************************

Note: No ".plot", ".print", or ".fourier" lines; no simulations run
