
Note: Compatibility modes selected: hs

Warning: m=xx on .subckt line will override multiplier m hierarchy!


Circuit: ***************************

Doing analysis at TEMP = -40.000000 and TNOM = -40.000000


No. of Data Rows : 67
                          ***************************
                          DC transfer characteristic  Mon Jan  9 13:58:14  2023
--------------------------------------------------------------------------------
Index   v-sweep         rds             
--------------------------------------------------------------------------------
0	0.000000e+00	5.313637e+05	
1	5.000000e-02	1.307424e+06	
2	1.000000e-01	1.675243e+07	
3	1.500000e-01	1.646805e+08	
4	2.000000e-01	3.846017e+08	
5	2.500000e-01	5.330457e+08	
6	3.000000e-01	6.206972e+08	
7	3.500000e-01	6.753891e+08	
8	4.000000e-01	7.122261e+08	
9	4.500000e-01	7.386745e+08	
10	5.000000e-01	7.586205e+08	
11	5.500000e-01	7.742376e+08	
12	6.000000e-01	7.868255e+08	
13	6.500000e-01	7.972068e+08	
14	7.000000e-01	8.059280e+08	
15	7.500000e-01	8.133663e+08	
16	8.000000e-01	8.197912e+08	
17	8.500000e-01	8.254003e+08	
18	9.000000e-01	8.303426e+08	
19	9.500000e-01	8.347320e+08	
20	1.000000e+00	8.386577e+08	
21	1.050000e+00	8.421905e+08	
22	1.100000e+00	8.453871e+08	
23	1.150000e+00	8.482939e+08	
24	1.200000e+00	8.509489e+08	
25	1.250000e+00	8.533836e+08	
26	1.300000e+00	8.556247e+08	
27	1.350000e+00	8.576943e+08	
28	1.400000e+00	8.596116e+08	
29	1.450000e+00	8.613928e+08	
30	1.500000e+00	8.630519e+08	
31	1.550000e+00	8.646010e+08	
32	1.600000e+00	8.660504e+08	
33	1.650000e+00	8.674094e+08	
34	1.700000e+00	8.686857e+08	
35	1.750000e+00	8.698860e+08	
36	1.800000e+00	8.710159e+08	
37	1.850000e+00	8.720801e+08	
38	1.900000e+00	8.730821e+08	
39	1.950000e+00	8.740245e+08	
40	2.000000e+00	8.749088e+08	
41	2.050000e+00	8.757351e+08	
42	2.100000e+00	8.765025e+08	
43	2.150000e+00	8.772083e+08	
44	2.200000e+00	8.778485e+08	
45	2.250000e+00	8.784173e+08	
46	2.300000e+00	8.789071e+08	
47	2.350000e+00	8.793082e+08	
48	2.400000e+00	8.796089e+08	
49	2.450000e+00	8.797951e+08	
50	2.500000e+00	8.798504e+08	
51	2.550000e+00	8.797562e+08	
52	2.600000e+00	8.794911e+08	
53	2.650000e+00	8.790315e+08	
54	2.700000e+00	8.783514e+08	

Index   v-sweep         rds             
--------------------------------------------------------------------------------
55	2.750000e+00	8.774224e+08	
56	2.800000e+00	8.762140e+08	
57	2.850000e+00	8.746940e+08	
58	2.900000e+00	8.728282e+08	
59	2.950000e+00	8.705815e+08	
60	3.000000e+00	8.679179e+08	
61	3.050000e+00	8.648010e+08	
62	3.100000e+00	8.611946e+08	
63	3.150000e+00	8.570634e+08	
64	3.200000e+00	8.523736e+08	
65	3.250000e+00	8.470936e+08	
66	3.300000e+00	8.411946e+08	
Reset re-loads circuit ***************************

Circuit: ***************************

Doing analysis at TEMP = -40.000000 and TNOM = -40.000000


No. of Data Rows : 67
                          ***************************
                          DC transfer characteristic  Mon Jan  9 13:58:14  2023
--------------------------------------------------------------------------------
Index   v-sweep         rds             
--------------------------------------------------------------------------------
0	0.000000e+00	8.111731e+04	
1	5.000000e-02	9.211859e+04	
2	1.000000e-01	1.065178e+05	
3	1.500000e-01	1.261738e+05	
4	2.000000e-01	1.545965e+05	
5	2.500000e-01	1.992797e+05	
6	3.000000e-01	2.793784e+05	
7	3.500000e-01	4.595374e+05	
8	4.000000e-01	1.060000e+06	
9	4.500000e-01	3.734973e+06	
10	5.000000e-01	1.128499e+07	
11	5.500000e-01	2.231929e+07	
12	6.000000e-01	3.349731e+07	
13	6.500000e-01	4.333953e+07	
14	7.000000e-01	5.166192e+07	
15	7.500000e-01	5.866982e+07	
16	8.000000e-01	6.461598e+07	
17	8.500000e-01	6.971545e+07	
18	9.000000e-01	7.413608e+07	
19	9.500000e-01	7.800633e+07	
20	1.000000e+00	8.142474e+07	
21	1.050000e+00	8.446766e+07	
22	1.100000e+00	8.719504e+07	
23	1.150000e+00	8.965457e+07	
24	1.200000e+00	9.188463e+07	
25	1.250000e+00	9.391649e+07	
26	1.300000e+00	9.577591e+07	
27	1.350000e+00	9.748430e+07	
28	1.400000e+00	9.905960e+07	
29	1.450000e+00	1.005170e+08	
30	1.500000e+00	1.018694e+08	
31	1.550000e+00	1.031279e+08	
32	1.600000e+00	1.043020e+08	
33	1.650000e+00	1.054001e+08	
34	1.700000e+00	1.064293e+08	
35	1.750000e+00	1.073959e+08	
36	1.800000e+00	1.083056e+08	
37	1.850000e+00	1.091632e+08	
38	1.900000e+00	1.099731e+08	
39	1.950000e+00	1.107390e+08	
40	2.000000e+00	1.114644e+08	
41	2.050000e+00	1.121520e+08	
42	2.100000e+00	1.128045e+08	
43	2.150000e+00	1.134240e+08	
44	2.200000e+00	1.140120e+08	
45	2.250000e+00	1.145698e+08	
46	2.300000e+00	1.150981e+08	
47	2.350000e+00	1.155970e+08	
48	2.400000e+00	1.160660e+08	
49	2.450000e+00	1.165039e+08	
50	2.500000e+00	1.169086e+08	
51	2.550000e+00	1.172773e+08	
52	2.600000e+00	1.176062e+08	
53	2.650000e+00	1.178902e+08	
54	2.700000e+00	1.181235e+08	

Index   v-sweep         rds             
--------------------------------------------------------------------------------
55	2.750000e+00	1.182988e+08	
56	2.800000e+00	1.184076e+08	
57	2.850000e+00	1.184405e+08	
58	2.900000e+00	1.183866e+08	
59	2.950000e+00	1.182342e+08	
60	3.000000e+00	1.179706e+08	
61	3.050000e+00	1.175825e+08	
62	3.100000e+00	1.170563e+08	
63	3.150000e+00	1.163781e+08	
64	3.200000e+00	1.155347e+08	
65	3.250000e+00	1.145139e+08	
66	3.300000e+00	1.133047e+08	
Reset re-loads circuit ***************************

Circuit: ***************************

Doing analysis at TEMP = -40.000000 and TNOM = -40.000000


No. of Data Rows : 67
                          ***************************
                          DC transfer characteristic  Mon Jan  9 13:58:14  2023
--------------------------------------------------------------------------------
Index   v-sweep         rds             
--------------------------------------------------------------------------------
0	0.000000e+00	4.565365e+04	
1	5.000000e-02	4.875024e+04	
2	1.000000e-01	5.228619e+04	
3	1.500000e-01	5.636211e+04	
4	2.000000e-01	6.111186e+04	
5	2.500000e-01	6.671753e+04	
6	3.000000e-01	7.343320e+04	
7	3.500000e-01	8.162451e+04	
8	4.000000e-01	9.183715e+04	
9	4.500000e-01	1.049230e+05	
10	5.000000e-01	1.222882e+05	
11	5.500000e-01	1.464274e+05	
12	6.000000e-01	1.822042e+05	
13	6.500000e-01	2.403950e+05	
14	7.000000e-01	3.493441e+05	
15	7.500000e-01	5.995905e+05	
16	8.000000e-01	1.290161e+06	
17	8.500000e-01	2.997457e+06	
18	9.000000e-01	5.883422e+06	
19	9.500000e-01	9.409099e+06	
20	1.000000e+00	1.303004e+07	
21	1.050000e+00	1.647260e+07	
22	1.100000e+00	1.964370e+07	
23	1.150000e+00	2.253103e+07	
24	1.200000e+00	2.515245e+07	
25	1.250000e+00	2.753467e+07	
26	1.300000e+00	2.970510e+07	
27	1.350000e+00	3.168893e+07	
28	1.400000e+00	3.350837e+07	
29	1.450000e+00	3.518262e+07	
30	1.500000e+00	3.672822e+07	
31	1.550000e+00	3.815940e+07	
32	1.600000e+00	3.948840e+07	
33	1.650000e+00	4.072581e+07	
34	1.700000e+00	4.188082e+07	
35	1.750000e+00	4.296142e+07	
36	1.800000e+00	4.397460e+07	
37	1.850000e+00	4.492653e+07	
38	1.900000e+00	4.582260e+07	
39	1.950000e+00	4.666763e+07	
40	2.000000e+00	4.746587e+07	
41	2.050000e+00	4.822111e+07	
42	2.100000e+00	4.893674e+07	
43	2.150000e+00	4.961582e+07	
44	2.200000e+00	5.026106e+07	
45	2.250000e+00	5.087491e+07	
46	2.300000e+00	5.145956e+07	
47	2.350000e+00	5.201697e+07	
48	2.400000e+00	5.254887e+07	
49	2.450000e+00	5.305674e+07	
50	2.500000e+00	5.354184e+07	
51	2.550000e+00	5.400515e+07	
52	2.600000e+00	5.444738e+07	
53	2.650000e+00	5.486888e+07	
54	2.700000e+00	5.526964e+07	

Index   v-sweep         rds             
--------------------------------------------------------------------------------
55	2.750000e+00	5.564919e+07	
56	2.800000e+00	5.600656e+07	
57	2.850000e+00	5.634018e+07	
58	2.900000e+00	5.664783e+07	
59	2.950000e+00	5.692656e+07	
60	3.000000e+00	5.717258e+07	
61	3.050000e+00	5.738127e+07	
62	3.100000e+00	5.754708e+07	
63	3.150000e+00	5.766353e+07	
64	3.200000e+00	5.772328e+07	
65	3.250000e+00	5.771810e+07	
66	3.300000e+00	5.763910e+07	
Reset re-loads circuit ***************************

Circuit: ***************************

Doing analysis at TEMP = -40.000000 and TNOM = -40.000000


No. of Data Rows : 67
                          ***************************
                          DC transfer characteristic  Mon Jan  9 13:58:14  2023
--------------------------------------------------------------------------------
Index   v-sweep         rds             
--------------------------------------------------------------------------------
0	0.000000e+00	3.359797e+04	
1	5.000000e-02	3.508220e+04	
2	1.000000e-01	3.669894e+04	
3	1.500000e-01	3.846675e+04	
4	2.000000e-01	4.040784e+04	
5	2.500000e-01	4.254899e+04	
6	3.000000e-01	4.492282e+04	
7	3.500000e-01	4.756940e+04	
8	4.000000e-01	5.053859e+04	
9	4.500000e-01	5.389321e+04	
10	5.000000e-01	5.771347e+04	
11	5.500000e-01	6.210350e+04	
12	6.000000e-01	6.720099e+04	
13	6.500000e-01	7.319179e+04	
14	7.000000e-01	8.033305e+04	
15	7.500000e-01	8.899091e+04	
16	8.000000e-01	9.970485e+04	
17	8.500000e-01	1.133035e+05	
18	9.000000e-01	1.311262e+05	
19	9.500000e-01	1.554818e+05	
20	1.000000e+00	1.906876e+05	
21	1.050000e+00	2.456975e+05	
22	1.100000e+00	3.414992e+05	
23	1.150000e+00	5.325311e+05	
24	1.200000e+00	9.508907e+05	
25	1.250000e+00	1.792917e+06	
26	1.300000e+00	3.119653e+06	
27	1.350000e+00	4.777346e+06	
28	1.400000e+00	6.571716e+06	
29	1.450000e+00	8.373718e+06	
30	1.500000e+00	1.011706e+07	
31	1.550000e+00	1.177291e+07	
32	1.600000e+00	1.333173e+07	
33	1.650000e+00	1.479334e+07	
34	1.700000e+00	1.616186e+07	
35	1.750000e+00	1.744320e+07	
36	1.800000e+00	1.864379e+07	
37	1.850000e+00	1.977004e+07	
38	1.900000e+00	2.082798e+07	
39	1.950000e+00	2.182324e+07	
40	2.000000e+00	2.276095e+07	
41	2.050000e+00	2.364576e+07	
42	2.100000e+00	2.448190e+07	
43	2.150000e+00	2.527318e+07	
44	2.200000e+00	2.602305e+07	
45	2.250000e+00	2.673463e+07	
46	2.300000e+00	2.741074e+07	
47	2.350000e+00	2.805394e+07	
48	2.400000e+00	2.866656e+07	
49	2.450000e+00	2.925070e+07	
50	2.500000e+00	2.980830e+07	
51	2.550000e+00	3.034111e+07	
52	2.600000e+00	3.085072e+07	
53	2.650000e+00	3.133859e+07	
54	2.700000e+00	3.180605e+07	

Index   v-sweep         rds             
--------------------------------------------------------------------------------
55	2.750000e+00	3.225426e+07	
56	2.800000e+00	3.268430e+07	
57	2.850000e+00	3.309705e+07	
58	2.900000e+00	3.349328e+07	
59	2.950000e+00	3.387353e+07	
60	3.000000e+00	3.423817e+07	
61	3.050000e+00	3.458730e+07	
62	3.100000e+00	3.492071e+07	
63	3.150000e+00	3.523784e+07	
64	3.200000e+00	3.553773e+07	
65	3.250000e+00	3.581892e+07	
66	3.300000e+00	3.607938e+07	
Reset re-loads circuit ***************************

Circuit: ***************************

Doing analysis at TEMP = -40.000000 and TNOM = -40.000000


No. of Data Rows : 67
                          ***************************
                          DC transfer characteristic  Mon Jan  9 13:58:14  2023
--------------------------------------------------------------------------------
Index   v-sweep         rds             
--------------------------------------------------------------------------------
0	0.000000e+00	2.797273e+04	
1	5.000000e-02	2.887123e+04	
2	1.000000e-01	2.982684e+04	
3	1.500000e-01	3.084519e+04	
4	2.000000e-01	3.193264e+04	
5	2.500000e-01	3.309650e+04	
6	3.000000e-01	3.434509e+04	
7	3.500000e-01	3.568801e+04	
8	4.000000e-01	3.713638e+04	
9	4.500000e-01	3.870311e+04	
10	5.000000e-01	4.040334e+04	
11	5.500000e-01	4.225486e+04	
12	6.000000e-01	4.427882e+04	
13	6.500000e-01	4.650047e+04	
14	7.000000e-01	4.895026e+04	
15	7.500000e-01	5.166522e+04	
16	8.000000e-01	5.469085e+04	
17	8.500000e-01	5.808370e+04	
18	9.000000e-01	6.191491e+04	
19	9.500000e-01	6.627528e+04	
20	1.000000e+00	7.128253e+04	
21	1.050000e+00	7.709203e+04	
22	1.100000e+00	8.391325e+04	
23	1.150000e+00	9.203536e+04	
24	1.200000e+00	1.018691e+05	
25	1.250000e+00	1.140179e+05	
26	1.300000e+00	1.294045e+05	
27	1.350000e+00	1.495120e+05	
28	1.400000e+00	1.768719e+05	
29	1.450000e+00	2.161380e+05	
30	1.500000e+00	2.766299e+05	
31	1.550000e+00	3.785615e+05	
32	1.600000e+00	5.662568e+05	
33	1.650000e+00	9.195097e+05	
34	1.700000e+00	1.517024e+06	
35	1.750000e+00	2.358850e+06	
36	1.800000e+00	3.369882e+06	
37	1.850000e+00	4.465506e+06	
38	1.900000e+00	5.585137e+06	
39	1.950000e+00	6.692703e+06	
40	2.000000e+00	7.768689e+06	
41	2.050000e+00	8.803422e+06	
42	2.100000e+00	9.792818e+06	
43	2.150000e+00	1.073591e+07	
44	2.200000e+00	1.163344e+07	
45	2.250000e+00	1.248705e+07	
46	2.300000e+00	1.329885e+07	
47	2.350000e+00	1.407111e+07	
48	2.400000e+00	1.480615e+07	
49	2.450000e+00	1.550625e+07	
50	2.500000e+00	1.617358e+07	
51	2.550000e+00	1.681020e+07	
52	2.600000e+00	1.741804e+07	
53	2.650000e+00	1.799890e+07	
54	2.700000e+00	1.855445e+07	

Index   v-sweep         rds             
--------------------------------------------------------------------------------
55	2.750000e+00	1.908625e+07	
56	2.800000e+00	1.959574e+07	
57	2.850000e+00	2.008425e+07	
58	2.900000e+00	2.055302e+07	
59	2.950000e+00	2.100319e+07	
60	3.000000e+00	2.143582e+07	
61	3.050000e+00	2.185189e+07	
62	3.100000e+00	2.225230e+07	
63	3.150000e+00	2.263787e+07	
64	3.200000e+00	2.300932e+07	
65	3.250000e+00	2.336732e+07	
66	3.300000e+00	2.371240e+07	
Reset re-loads circuit ***************************

Circuit: ***************************

Doing analysis at TEMP = -40.000000 and TNOM = -40.000000


No. of Data Rows : 67
                          ***************************
                          DC transfer characteristic  Mon Jan  9 13:58:14  2023
--------------------------------------------------------------------------------
Index   v-sweep         rds             
--------------------------------------------------------------------------------
0	0.000000e+00	2.508549e+04	
1	5.000000e-02	2.570865e+04	
2	1.000000e-01	2.636199e+04	
3	1.500000e-01	2.704776e+04	
4	2.000000e-01	2.776843e+04	
5	2.500000e-01	2.852674e+04	
6	3.000000e-01	2.932571e+04	
7	3.500000e-01	3.016869e+04	
8	4.000000e-01	3.105944e+04	
9	4.500000e-01	3.200212e+04	
10	5.000000e-01	3.300140e+04	
11	5.500000e-01	3.406255e+04	
12	6.000000e-01	3.519150e+04	
13	6.500000e-01	3.639493e+04	
14	7.000000e-01	3.768049e+04	
15	7.500000e-01	3.905687e+04	
16	8.000000e-01	4.053405e+04	
17	8.500000e-01	4.212351e+04	
18	9.000000e-01	4.383855e+04	
19	9.500000e-01	4.569468e+04	
20	1.000000e+00	4.771004e+04	
21	1.050000e+00	4.990604e+04	
22	1.100000e+00	5.230809e+04	
23	1.150000e+00	5.494663e+04	
24	1.200000e+00	5.785836e+04	
25	1.250000e+00	6.108805e+04	
26	1.300000e+00	6.469075e+04	
27	1.350000e+00	6.873505e+04	
28	1.400000e+00	7.330742e+04	
29	1.450000e+00	7.851850e+04	
30	1.500000e+00	8.451213e+04	
31	1.550000e+00	9.147884e+04	
32	1.600000e+00	9.967643e+04	
33	1.650000e+00	1.094624e+05	
34	1.700000e+00	1.213474e+05	
35	1.750000e+00	1.360857e+05	
36	1.800000e+00	1.548396e+05	
37	1.850000e+00	1.794895e+05	
38	1.900000e+00	2.132629e+05	
39	1.950000e+00	2.620742e+05	
40	2.000000e+00	3.374277e+05	
41	2.050000e+00	4.620051e+05	
42	2.100000e+00	6.754733e+05	
43	2.150000e+00	1.025178e+06	
44	2.200000e+00	1.532047e+06	
45	2.250000e+00	2.172449e+06	
46	2.300000e+00	2.900580e+06	
47	2.350000e+00	3.674219e+06	
48	2.400000e+00	4.463357e+06	
49	2.450000e+00	5.248984e+06	
50	2.500000e+00	6.019761e+06	
51	2.550000e+00	6.769246e+06	
52	2.600000e+00	7.494027e+06	
53	2.650000e+00	8.192543e+06	
54	2.700000e+00	8.864366e+06	

Index   v-sweep         rds             
--------------------------------------------------------------------------------
55	2.750000e+00	9.509752e+06	
56	2.800000e+00	1.012936e+07	
57	2.850000e+00	1.072409e+07	
58	2.900000e+00	1.129496e+07	
59	2.950000e+00	1.184304e+07	
60	3.000000e+00	1.236944e+07	
61	3.050000e+00	1.287521e+07	
62	3.100000e+00	1.336141e+07	
63	3.150000e+00	1.382904e+07	
64	3.200000e+00	1.427905e+07	
65	3.250000e+00	1.471235e+07	
66	3.300000e+00	1.512980e+07	
Reset re-loads circuit ***************************

Circuit: ***************************

Note: No ".plot", ".print", or ".fourier" lines; no simulations run
