
Note: Compatibility modes selected: hs

Warning: m=xx on .subckt line will override multiplier m hierarchy!


Circuit: ***************************

Doing analysis at TEMP = 25.000000 and TNOM = 25.000000


No. of Data Rows : 67
                          ***************************
                          DC transfer characteristic  Mon Jan  9 13:58:13  2023
--------------------------------------------------------------------------------
Index   v-sweep         rds             
--------------------------------------------------------------------------------
0	0.000000e+00	1.016758e+05	
1	5.000000e-02	1.501879e+05	
2	1.000000e-01	2.747912e+05	
3	1.500000e-01	8.149463e+05	
4	2.000000e-01	3.205576e+06	
5	2.500000e-01	7.281144e+06	
6	3.000000e-01	1.106237e+07	
7	3.500000e-01	1.416484e+07	
8	4.000000e-01	1.673616e+07	
9	4.500000e-01	1.891793e+07	
10	5.000000e-01	2.080465e+07	
11	5.500000e-01	2.245949e+07	
12	6.000000e-01	2.392670e+07	
13	6.500000e-01	2.523873e+07	
14	7.000000e-01	2.642024e+07	
15	7.500000e-01	2.749053e+07	
16	8.000000e-01	2.846505e+07	
17	8.500000e-01	2.935634e+07	
18	9.000000e-01	3.017479e+07	
19	9.500000e-01	3.092905e+07	
20	1.000000e+00	3.162641e+07	
21	1.050000e+00	3.227311e+07	
22	1.100000e+00	3.287445e+07	
23	1.150000e+00	3.343504e+07	
24	1.200000e+00	3.395886e+07	
25	1.250000e+00	3.444939e+07	
26	1.300000e+00	3.490967e+07	
27	1.350000e+00	3.534241e+07	
28	1.400000e+00	3.574997e+07	
29	1.450000e+00	3.613446e+07	
30	1.500000e+00	3.649776e+07	
31	1.550000e+00	3.684155e+07	
32	1.600000e+00	3.716731e+07	
33	1.650000e+00	3.747640e+07	
34	1.700000e+00	3.777000e+07	
35	1.750000e+00	3.804917e+07	
36	1.800000e+00	3.831481e+07	
37	1.850000e+00	3.856773e+07	
38	1.900000e+00	3.880855e+07	
39	1.950000e+00	3.903777e+07	
40	2.000000e+00	3.925569e+07	
41	2.050000e+00	3.946245e+07	
42	2.100000e+00	3.965793e+07	
43	2.150000e+00	3.984177e+07	
44	2.200000e+00	4.001335e+07	
45	2.250000e+00	4.017167e+07	
46	2.300000e+00	4.031540e+07	
47	2.350000e+00	4.044280e+07	
48	2.400000e+00	4.055168e+07	
49	2.450000e+00	4.063940e+07	
50	2.500000e+00	4.070281e+07	
51	2.550000e+00	4.073828e+07	
52	2.600000e+00	4.074171e+07	
53	2.650000e+00	4.070852e+07	
54	2.700000e+00	4.063375e+07	

Index   v-sweep         rds             
--------------------------------------------------------------------------------
55	2.750000e+00	4.051212e+07	
56	2.800000e+00	4.033816e+07	
57	2.850000e+00	4.010635e+07	
58	2.900000e+00	3.981133e+07	
59	2.950000e+00	3.944805e+07	
60	3.000000e+00	3.901208e+07	
61	3.050000e+00	3.849980e+07	
62	3.100000e+00	3.790865e+07	
63	3.150000e+00	3.723735e+07	
64	3.200000e+00	3.648612e+07	
65	3.250000e+00	3.565674e+07	
66	3.300000e+00	3.475267e+07	
Reset re-loads circuit ***************************

Circuit: ***************************

Doing analysis at TEMP = 25.000000 and TNOM = 25.000000


No. of Data Rows : 67
                          ***************************
                          DC transfer characteristic  Mon Jan  9 13:58:13  2023
--------------------------------------------------------------------------------
Index   v-sweep         rds             
--------------------------------------------------------------------------------
0	0.000000e+00	2.492024e+04	
1	5.000000e-02	2.774325e+04	
2	1.000000e-01	3.120023e+04	
3	1.500000e-01	3.553070e+04	
4	2.000000e-01	4.111161e+04	
5	2.500000e-01	4.857123e+04	
6	3.000000e-01	5.903578e+04	
7	3.500000e-01	7.472102e+04	
8	4.000000e-01	1.005173e+05	
9	4.500000e-01	1.484881e+05	
10	5.000000e-01	2.474534e+05	
11	5.500000e-01	4.370828e+05	
12	6.000000e-01	7.133690e+05	
13	6.500000e-01	1.029844e+06	
14	7.000000e-01	1.352797e+06	
15	7.500000e-01	1.668278e+06	
16	8.000000e-01	1.971602e+06	
17	8.500000e-01	2.261554e+06	
18	9.000000e-01	2.538188e+06	
19	9.500000e-01	2.802021e+06	
20	1.000000e+00	3.053727e+06	
21	1.050000e+00	3.294019e+06	
22	1.100000e+00	3.523592e+06	
23	1.150000e+00	3.743108e+06	
24	1.200000e+00	3.953188e+06	
25	1.250000e+00	4.154407e+06	
26	1.300000e+00	4.347300e+06	
27	1.350000e+00	4.532362e+06	
28	1.400000e+00	4.710051e+06	
29	1.450000e+00	4.880790e+06	
30	1.500000e+00	5.044974e+06	
31	1.550000e+00	5.202966e+06	
32	1.600000e+00	5.355105e+06	
33	1.650000e+00	5.501705e+06	
34	1.700000e+00	5.643059e+06	
35	1.750000e+00	5.779439e+06	
36	1.800000e+00	5.911100e+06	
37	1.850000e+00	6.038278e+06	
38	1.900000e+00	6.161193e+06	
39	1.950000e+00	6.280048e+06	
40	2.000000e+00	6.395031e+06	
41	2.050000e+00	6.506311e+06	
42	2.100000e+00	6.614040e+06	
43	2.150000e+00	6.718343e+06	
44	2.200000e+00	6.819321e+06	
45	2.250000e+00	6.917035e+06	
46	2.300000e+00	7.011505e+06	
47	2.350000e+00	7.102693e+06	
48	2.400000e+00	7.190490e+06	
49	2.450000e+00	7.274705e+06	
50	2.500000e+00	7.355036e+06	
51	2.550000e+00	7.431060e+06	
52	2.600000e+00	7.502207e+06	
53	2.650000e+00	7.567739e+06	
54	2.700000e+00	7.626732e+06	

Index   v-sweep         rds             
--------------------------------------------------------------------------------
55	2.750000e+00	7.678061e+06	
56	2.800000e+00	7.720386e+06	
57	2.850000e+00	7.752157e+06	
58	2.900000e+00	7.771623e+06	
59	2.950000e+00	7.776861e+06	
60	3.000000e+00	7.765825e+06	
61	3.050000e+00	7.736414e+06	
62	3.100000e+00	7.686565e+06	
63	3.150000e+00	7.614369e+06	
64	3.200000e+00	7.518198e+06	
65	3.250000e+00	7.396846e+06	
66	3.300000e+00	7.249660e+06	
Reset re-loads circuit ***************************

Circuit: ***************************

Doing analysis at TEMP = 25.000000 and TNOM = 25.000000


No. of Data Rows : 67
                          ***************************
                          DC transfer characteristic  Mon Jan  9 13:58:13  2023
--------------------------------------------------------------------------------
Index   v-sweep         rds             
--------------------------------------------------------------------------------
0	0.000000e+00	1.447363e+04	
1	5.000000e-02	1.541224e+04	
2	1.000000e-01	1.645831e+04	
3	1.500000e-01	1.763132e+04	
4	2.000000e-01	1.895570e+04	
5	2.500000e-01	2.046265e+04	
6	3.000000e-01	2.219254e+04	
7	3.500000e-01	2.419858e+04	
8	4.000000e-01	2.655244e+04	
9	4.500000e-01	2.935290e+04	
10	5.000000e-01	3.274013e+04	
11	5.500000e-01	3.691984e+04	
12	6.000000e-01	4.220675e+04	
13	6.500000e-01	4.910726e+04	
14	7.000000e-01	5.848827e+04	
15	7.500000e-01	7.194150e+04	
16	8.000000e-01	9.255422e+04	
17	8.500000e-01	1.260612e+05	
18	9.000000e-01	1.801817e+05	
19	9.500000e-01	2.585291e+05	
20	1.000000e+00	3.563579e+05	
21	1.050000e+00	4.656988e+05	
22	1.100000e+00	5.803927e+05	
23	1.150000e+00	6.967456e+05	
24	1.200000e+00	8.127070e+05	
25	1.250000e+00	9.271567e+05	
26	1.300000e+00	1.039485e+06	
27	1.350000e+00	1.149369e+06	
28	1.400000e+00	1.256647e+06	
29	1.450000e+00	1.361254e+06	
30	1.500000e+00	1.463182e+06	
31	1.550000e+00	1.562460e+06	
32	1.600000e+00	1.659138e+06	
33	1.650000e+00	1.753276e+06	
34	1.700000e+00	1.844945e+06	
35	1.750000e+00	1.934218e+06	
36	1.800000e+00	2.021172e+06	
37	1.850000e+00	2.105881e+06	
38	1.900000e+00	2.188421e+06	
39	1.950000e+00	2.268865e+06	
40	2.000000e+00	2.347285e+06	
41	2.050000e+00	2.423749e+06	
42	2.100000e+00	2.498326e+06	
43	2.150000e+00	2.571079e+06	
44	2.200000e+00	2.642071e+06	
45	2.250000e+00	2.711361e+06	
46	2.300000e+00	2.779004e+06	
47	2.350000e+00	2.845052e+06	
48	2.400000e+00	2.909551e+06	
49	2.450000e+00	2.972542e+06	
50	2.500000e+00	3.034055e+06	
51	2.550000e+00	3.094107e+06	
52	2.600000e+00	3.152699e+06	
53	2.650000e+00	3.209806e+06	
54	2.700000e+00	3.265373e+06	

Index   v-sweep         rds             
--------------------------------------------------------------------------------
55	2.750000e+00	3.319304e+06	
56	2.800000e+00	3.371449e+06	
57	2.850000e+00	3.421595e+06	
58	2.900000e+00	3.469446e+06	
59	2.950000e+00	3.514613e+06	
60	3.000000e+00	3.556598e+06	
61	3.050000e+00	3.594776e+06	
62	3.100000e+00	3.628387e+06	
63	3.150000e+00	3.656530e+06	
64	3.200000e+00	3.678162e+06	
65	3.250000e+00	3.692114e+06	
66	3.300000e+00	3.697113e+06	
Reset re-loads circuit ***************************

Circuit: ***************************

Doing analysis at TEMP = 25.000000 and TNOM = 25.000000


No. of Data Rows : 67
                          ***************************
                          DC transfer characteristic  Mon Jan  9 13:58:13  2023
--------------------------------------------------------------------------------
Index   v-sweep         rds             
--------------------------------------------------------------------------------
0	0.000000e+00	1.091137e+04	
1	5.000000e-02	1.142467e+04	
2	1.000000e-01	1.197788e+04	
3	1.500000e-01	1.257579e+04	
4	2.000000e-01	1.322399e+04	
5	2.500000e-01	1.392904e+04	
6	3.000000e-01	1.469872e+04	
7	3.500000e-01	1.554227e+04	
8	4.000000e-01	1.647079e+04	
9	4.500000e-01	1.749774e+04	
10	5.000000e-01	1.863956e+04	
11	5.500000e-01	1.991663e+04	
12	6.000000e-01	2.135444e+04	
13	6.500000e-01	2.298536e+04	
14	7.000000e-01	2.485118e+04	
15	7.500000e-01	2.700684e+04	
16	8.000000e-01	2.952621e+04	
17	8.500000e-01	3.251128e+04	
18	9.000000e-01	3.610769e+04	
19	9.500000e-01	4.053230e+04	
20	1.000000e+00	4.612589e+04	
21	1.050000e+00	5.345956e+04	
22	1.100000e+00	6.355196e+04	
23	1.150000e+00	7.824643e+04	
24	1.200000e+00	1.004777e+05	
25	1.250000e+00	1.333490e+05	
26	1.300000e+00	1.778098e+05	
27	1.350000e+00	2.319075e+05	
28	1.400000e+00	2.925513e+05	
29	1.450000e+00	3.570786e+05	
30	1.500000e+00	4.236402e+05	
31	1.550000e+00	4.910476e+05	
32	1.600000e+00	5.585520e+05	
33	1.650000e+00	6.256815e+05	
34	1.700000e+00	6.921366e+05	
35	1.750000e+00	7.577270e+05	
36	1.800000e+00	8.223322e+05	
37	1.850000e+00	8.858782e+05	
38	1.900000e+00	9.483216e+05	
39	1.950000e+00	1.009640e+06	
40	2.000000e+00	1.069825e+06	
41	2.050000e+00	1.128880e+06	
42	2.100000e+00	1.186812e+06	
43	2.150000e+00	1.243636e+06	
44	2.200000e+00	1.299370e+06	
45	2.250000e+00	1.354034e+06	
46	2.300000e+00	1.407647e+06	
47	2.350000e+00	1.460234e+06	
48	2.400000e+00	1.511817e+06	
49	2.450000e+00	1.562418e+06	
50	2.500000e+00	1.612062e+06	
51	2.550000e+00	1.660771e+06	
52	2.600000e+00	1.708566e+06	
53	2.650000e+00	1.755469e+06	
54	2.700000e+00	1.801499e+06	

Index   v-sweep         rds             
--------------------------------------------------------------------------------
55	2.750000e+00	1.846671e+06	
56	2.800000e+00	1.890997e+06	
57	2.850000e+00	1.934481e+06	
58	2.900000e+00	1.977117e+06	
59	2.950000e+00	2.018887e+06	
60	3.000000e+00	2.059751e+06	
61	3.050000e+00	2.099644e+06	
62	3.100000e+00	2.138467e+06	
63	3.150000e+00	2.176076e+06	
64	3.200000e+00	2.212275e+06	
65	3.250000e+00	2.246798e+06	
66	3.300000e+00	2.279302e+06	
Reset re-loads circuit ***************************

Circuit: ***************************

Doing analysis at TEMP = 25.000000 and TNOM = 25.000000


No. of Data Rows : 67
                          ***************************
                          DC transfer characteristic  Mon Jan  9 13:58:13  2023
--------------------------------------------------------------------------------
Index   v-sweep         rds             
--------------------------------------------------------------------------------
0	0.000000e+00	9.212690e+03	
1	5.000000e-02	9.557385e+03	
2	1.000000e-01	9.922456e+03	
3	1.500000e-01	1.030974e+04	
4	2.000000e-01	1.072129e+04	
5	2.500000e-01	1.115944e+04	
6	3.000000e-01	1.162681e+04	
7	3.500000e-01	1.212641e+04	
8	4.000000e-01	1.266165e+04	
9	4.500000e-01	1.323644e+04	
10	5.000000e-01	1.385531e+04	
11	5.500000e-01	1.452348e+04	
12	6.000000e-01	1.524706e+04	
13	6.500000e-01	1.603319e+04	
14	7.000000e-01	1.689034e+04	
15	7.500000e-01	1.782854e+04	
16	8.000000e-01	1.885986e+04	
17	8.500000e-01	1.999891e+04	
18	9.000000e-01	2.126356e+04	
19	9.500000e-01	2.267598e+04	
20	1.000000e+00	2.426400e+04	
21	1.050000e+00	2.606325e+04	
22	1.100000e+00	2.812019e+04	
23	1.150000e+00	3.049712e+04	
24	1.200000e+00	3.328038e+04	
25	1.250000e+00	3.659500e+04	
26	1.300000e+00	4.063233e+04	
27	1.350000e+00	4.570484e+04	
28	1.400000e+00	5.235372e+04	
29	1.450000e+00	6.153170e+04	
30	1.500000e+00	7.477237e+04	
31	1.550000e+00	9.394678e+04	
32	1.600000e+00	1.202770e+05	
33	1.650000e+00	1.534857e+05	
34	1.700000e+00	1.921506e+05	
35	1.750000e+00	2.346127e+05	
36	1.800000e+00	2.794989e+05	
37	1.850000e+00	3.258192e+05	
38	1.900000e+00	3.728966e+05	
39	1.950000e+00	4.202752e+05	
40	2.000000e+00	4.676471e+05	
41	2.050000e+00	5.148035e+05	
42	2.100000e+00	5.616010e+05	
43	2.150000e+00	6.079413e+05	
44	2.200000e+00	6.537569e+05	
45	2.250000e+00	6.990016e+05	
46	2.300000e+00	7.436448e+05	
47	2.350000e+00	7.876668e+05	
48	2.400000e+00	8.310559e+05	
49	2.450000e+00	8.738064e+05	
50	2.500000e+00	9.159169e+05	
51	2.550000e+00	9.573892e+05	
52	2.600000e+00	9.982277e+05	
53	2.650000e+00	1.038439e+06	
54	2.700000e+00	1.078029e+06	

Index   v-sweep         rds             
--------------------------------------------------------------------------------
55	2.750000e+00	1.117008e+06	
56	2.800000e+00	1.155384e+06	
57	2.850000e+00	1.193167e+06	
58	2.900000e+00	1.230367e+06	
59	2.950000e+00	1.266993e+06	
60	3.000000e+00	1.303052e+06	
61	3.050000e+00	1.338553e+06	
62	3.100000e+00	1.373499e+06	
63	3.150000e+00	1.407888e+06	
64	3.200000e+00	1.441715e+06	
65	3.250000e+00	1.474960e+06	
66	3.300000e+00	1.507594e+06	
Reset re-loads circuit ***************************

Circuit: ***************************

Doing analysis at TEMP = 25.000000 and TNOM = 25.000000


No. of Data Rows : 67
                          ***************************
                          DC transfer characteristic  Mon Jan  9 13:58:13  2023
--------------------------------------------------------------------------------
Index   v-sweep         rds             
--------------------------------------------------------------------------------
0	0.000000e+00	8.139440e+03	
1	5.000000e-02	8.390701e+03	
2	1.000000e-01	8.653771e+03	
3	1.500000e-01	8.929485e+03	
4	2.000000e-01	9.218761e+03	
5	2.500000e-01	9.522607e+03	
6	3.000000e-01	9.842133e+03	
7	3.500000e-01	1.017857e+04	
8	4.000000e-01	1.053326e+04	
9	4.500000e-01	1.090773e+04	
10	5.000000e-01	1.130366e+04	
11	5.500000e-01	1.172291e+04	
12	6.000000e-01	1.216759e+04	
13	6.500000e-01	1.264007e+04	
14	7.000000e-01	1.314301e+04	
15	7.500000e-01	1.367942e+04	
16	8.000000e-01	1.425276e+04	
17	8.500000e-01	1.486693e+04	
18	9.000000e-01	1.552646e+04	
19	9.500000e-01	1.623654e+04	
20	1.000000e+00	1.700322e+04	
21	1.050000e+00	1.783355e+04	
22	1.100000e+00	1.873584e+04	
23	1.150000e+00	1.971995e+04	
24	1.200000e+00	2.079768e+04	
25	1.250000e+00	2.198334e+04	
26	1.300000e+00	2.329447e+04	
27	1.350000e+00	2.475296e+04	
28	1.400000e+00	2.638663e+04	
29	1.450000e+00	2.823186e+04	
30	1.500000e+00	3.033774e+04	
31	1.550000e+00	3.277354e+04	
32	1.600000e+00	3.564226e+04	
33	1.650000e+00	3.910672e+04	
34	1.700000e+00	4.343918e+04	
35	1.750000e+00	4.910823e+04	
36	1.800000e+00	5.689162e+04	
37	1.850000e+00	6.790017e+04	
38	1.900000e+00	8.327829e+04	
39	1.950000e+00	1.036053e+05	
40	2.000000e+00	1.285790e+05	
41	2.050000e+00	1.573043e+05	
42	2.100000e+00	1.887646e+05	
43	2.150000e+00	2.220908e+05	
44	2.200000e+00	2.566259e+05	
45	2.250000e+00	2.918980e+05	
46	2.300000e+00	3.275740e+05	
47	2.350000e+00	3.634192e+05	
48	2.400000e+00	3.992673e+05	
49	2.450000e+00	4.349996e+05	
50	2.500000e+00	4.705307e+05	
51	2.550000e+00	5.057989e+05	
52	2.600000e+00	5.407594e+05	
53	2.650000e+00	5.753799e+05	
54	2.700000e+00	6.096371e+05	

Index   v-sweep         rds             
--------------------------------------------------------------------------------
55	2.750000e+00	6.435146e+05	
56	2.800000e+00	6.770012e+05	
57	2.850000e+00	7.100895e+05	
58	2.900000e+00	7.427751e+05	
59	2.950000e+00	7.750560e+05	
60	3.000000e+00	8.069318e+05	
61	3.050000e+00	8.384038e+05	
62	3.100000e+00	8.694740e+05	
63	3.150000e+00	9.001455e+05	
64	3.200000e+00	9.304216e+05	
65	3.250000e+00	9.603061e+05	
66	3.300000e+00	9.898026e+05	
Reset re-loads circuit ***************************

Circuit: ***************************

Note: No ".plot", ".print", or ".fourier" lines; no simulations run
