
Note: Compatibility modes selected: hs

Warning: m=xx on .subckt line will override multiplier m hierarchy!


Circuit: ***************************

Doing analysis at TEMP = 125.000000 and TNOM = 125.000000


No. of Data Rows : 67
                          ***************************
                          DC transfer characteristic  Mon Jan  9 13:58:14  2023
--------------------------------------------------------------------------------
Index   v-sweep         rds             
--------------------------------------------------------------------------------
0	0.000000e+00	1.646598e+05	
1	5.000000e-02	2.005238e+05	
2	1.000000e-01	2.547716e+05	
3	1.500000e-01	3.459642e+05	
4	2.000000e-01	5.273011e+05	
5	2.500000e-01	9.938200e+05	
6	3.000000e-01	2.413608e+06	
7	3.500000e-01	5.287297e+06	
8	4.000000e-01	8.484028e+06	
9	4.500000e-01	1.131802e+07	
10	5.000000e-01	1.380406e+07	
11	5.500000e-01	1.603704e+07	
12	6.000000e-01	1.807988e+07	
13	6.500000e-01	1.997067e+07	
14	7.000000e-01	2.173389e+07	
15	7.500000e-01	2.338656e+07	
16	8.000000e-01	2.494136e+07	
17	8.500000e-01	2.640830e+07	
18	9.000000e-01	2.779554e+07	
19	9.500000e-01	2.911001e+07	
20	1.000000e+00	3.035765e+07	
21	1.050000e+00	3.154366e+07	
22	1.100000e+00	3.267264e+07	
23	1.150000e+00	3.374870e+07	
24	1.200000e+00	3.477553e+07	
25	1.250000e+00	3.575645e+07	
26	1.300000e+00	3.669448e+07	
27	1.350000e+00	3.759239e+07	
28	1.400000e+00	3.845267e+07	
29	1.450000e+00	3.927763e+07	
30	1.500000e+00	4.006939e+07	
31	1.550000e+00	4.082989e+07	
32	1.600000e+00	4.156092e+07	
33	1.650000e+00	4.226414e+07	
34	1.700000e+00	4.294107e+07	
35	1.750000e+00	4.359312e+07	
36	1.800000e+00	4.422157e+07	
37	1.850000e+00	4.482758e+07	
38	1.900000e+00	4.541221e+07	
39	1.950000e+00	4.597634e+07	
40	2.000000e+00	4.652074e+07	
41	2.050000e+00	4.704595e+07	
42	2.100000e+00	4.755233e+07	
43	2.150000e+00	4.803995e+07	
44	2.200000e+00	4.850857e+07	
45	2.250000e+00	4.895756e+07	
46	2.300000e+00	4.938584e+07	
47	2.350000e+00	4.979181e+07	
48	2.400000e+00	5.017325e+07	
49	2.450000e+00	5.052725e+07	
50	2.500000e+00	5.085016e+07	
51	2.550000e+00	5.113745e+07	
52	2.600000e+00	5.138374e+07	
53	2.650000e+00	5.158274e+07	
54	2.700000e+00	5.172726e+07	

Index   v-sweep         rds             
--------------------------------------------------------------------------------
55	2.750000e+00	5.180928e+07	
56	2.800000e+00	5.182002e+07	
57	2.850000e+00	5.175019e+07	
58	2.900000e+00	5.159016e+07	
59	2.950000e+00	5.133035e+07	
60	3.000000e+00	5.096158e+07	
61	3.050000e+00	5.047554e+07	
62	3.100000e+00	4.986529e+07	
63	3.150000e+00	4.912576e+07	
64	3.200000e+00	4.825422e+07	
65	3.250000e+00	4.725070e+07	
66	3.300000e+00	4.611821e+07	
Reset re-loads circuit ***************************

Circuit: ***************************

Doing analysis at TEMP = 125.000000 and TNOM = 125.000000


No. of Data Rows : 67
                          ***************************
                          DC transfer characteristic  Mon Jan  9 13:58:14  2023
--------------------------------------------------------------------------------
Index   v-sweep         rds             
--------------------------------------------------------------------------------
0	0.000000e+00	5.977484e+04	
1	5.000000e-02	6.471151e+04	
2	1.000000e-01	7.041700e+04	
3	1.500000e-01	7.708534e+04	
4	2.000000e-01	8.498168e+04	
5	2.500000e-01	9.447807e+04	
6	3.000000e-01	1.061130e+05	
7	3.500000e-01	1.206954e+05	
8	4.000000e-01	1.394956e+05	
9	4.500000e-01	1.646204e+05	
10	5.000000e-01	1.997989e+05	
11	5.500000e-01	2.521412e+05	
12	6.000000e-01	3.361117e+05	
13	6.500000e-01	4.805395e+05	
14	7.000000e-01	7.266677e+05	
15	7.500000e-01	1.085279e+06	
16	8.000000e-01	1.509914e+06	
17	8.500000e-01	1.952631e+06	
18	9.000000e-01	2.391889e+06	
19	9.500000e-01	2.820952e+06	
20	1.000000e+00	3.238175e+06	
21	1.050000e+00	3.643452e+06	
22	1.100000e+00	4.037125e+06	
23	1.150000e+00	4.419649e+06	
24	1.200000e+00	4.791492e+06	
25	1.250000e+00	5.153104e+06	
26	1.300000e+00	5.504911e+06	
27	1.350000e+00	5.847313e+06	
28	1.400000e+00	6.180684e+06	
29	1.450000e+00	6.505378e+06	
30	1.500000e+00	6.821730e+06	
31	1.550000e+00	7.130055e+06	
32	1.600000e+00	7.430651e+06	
33	1.650000e+00	7.723802e+06	
34	1.700000e+00	8.009778e+06	
35	1.750000e+00	8.288835e+06	
36	1.800000e+00	8.561218e+06	
37	1.850000e+00	8.827158e+06	
38	1.900000e+00	9.086878e+06	
39	1.950000e+00	9.340588e+06	
40	2.000000e+00	9.588491e+06	
41	2.050000e+00	9.830778e+06	
42	2.100000e+00	1.006763e+07	
43	2.150000e+00	1.029922e+07	
44	2.200000e+00	1.052569e+07	
45	2.250000e+00	1.074720e+07	
46	2.300000e+00	1.096384e+07	
47	2.350000e+00	1.117572e+07	
48	2.400000e+00	1.138287e+07	
49	2.450000e+00	1.158528e+07	
50	2.500000e+00	1.178287e+07	
51	2.550000e+00	1.197544e+07	
52	2.600000e+00	1.216270e+07	
53	2.650000e+00	1.234419e+07	
54	2.700000e+00	1.251924e+07	

Index   v-sweep         rds             
--------------------------------------------------------------------------------
55	2.750000e+00	1.268699e+07	
56	2.800000e+00	1.284626e+07	
57	2.850000e+00	1.299559e+07	
58	2.900000e+00	1.313315e+07	
59	2.950000e+00	1.325674e+07	
60	3.000000e+00	1.336375e+07	
61	3.050000e+00	1.345115e+07	
62	3.100000e+00	1.351554e+07	
63	3.150000e+00	1.355319e+07	
64	3.200000e+00	1.356014e+07	
65	3.250000e+00	1.353232e+07	
66	3.300000e+00	1.346577e+07	
Reset re-loads circuit ***************************

Circuit: ***************************

Doing analysis at TEMP = 125.000000 and TNOM = 125.000000


No. of Data Rows : 67
                          ***************************
                          DC transfer characteristic  Mon Jan  9 13:58:14  2023
--------------------------------------------------------------------------------
Index   v-sweep         rds             
--------------------------------------------------------------------------------
0	0.000000e+00	3.954301e+04	
1	5.000000e-02	4.170328e+04	
2	1.000000e-01	4.406827e+04	
3	1.500000e-01	4.666832e+04	
4	2.000000e-01	4.954011e+04	
5	2.500000e-01	5.272834e+04	
6	3.000000e-01	5.628810e+04	
7	3.500000e-01	6.028802e+04	
8	4.000000e-01	6.481475e+04	
9	4.500000e-01	6.997925e+04	
10	5.000000e-01	7.592596e+04	
11	5.500000e-01	8.284638e+04	
12	6.000000e-01	9.099987e+04	
13	6.500000e-01	1.007464e+05	
14	7.000000e-01	1.126003e+05	
15	7.500000e-01	1.273209e+05	
16	8.000000e-01	1.460741e+05	
17	8.500000e-01	1.707293e+05	
18	9.000000e-01	2.044150e+05	
19	9.500000e-01	2.524774e+05	
20	1.000000e+00	3.234991e+05	
21	1.050000e+00	4.277302e+05	
22	1.100000e+00	5.693396e+05	
23	1.150000e+00	7.407475e+05	
24	1.200000e+00	9.294999e+05	
25	1.250000e+00	1.126131e+06	
26	1.300000e+00	1.325258e+06	
27	1.350000e+00	1.524092e+06	
28	1.400000e+00	1.721200e+06	
29	1.450000e+00	1.915837e+06	
30	1.500000e+00	2.107614e+06	
31	1.550000e+00	2.296331e+06	
32	1.600000e+00	2.481897e+06	
33	1.650000e+00	2.664282e+06	
34	1.700000e+00	2.843494e+06	
35	1.750000e+00	3.019564e+06	
36	1.800000e+00	3.192535e+06	
37	1.850000e+00	3.362461e+06	
38	1.900000e+00	3.529401e+06	
39	1.950000e+00	3.693415e+06	
40	2.000000e+00	3.854567e+06	
41	2.050000e+00	4.012921e+06	
42	2.100000e+00	4.168539e+06	
43	2.150000e+00	4.321485e+06	
44	2.200000e+00	4.471820e+06	
45	2.250000e+00	4.619606e+06	
46	2.300000e+00	4.764902e+06	
47	2.350000e+00	4.907765e+06	
48	2.400000e+00	5.048252e+06	
49	2.450000e+00	5.186416e+06	
50	2.500000e+00	5.322306e+06	
51	2.550000e+00	5.455967e+06	
52	2.600000e+00	5.587435e+06	
53	2.650000e+00	5.716734e+06	
54	2.700000e+00	5.843873e+06	

Index   v-sweep         rds             
--------------------------------------------------------------------------------
55	2.750000e+00	5.968837e+06	
56	2.800000e+00	6.091575e+06	
57	2.850000e+00	6.211991e+06	
58	2.900000e+00	6.329930e+06	
59	2.950000e+00	6.445153e+06	
60	3.000000e+00	6.557323e+06	
61	3.050000e+00	6.665972e+06	
62	3.100000e+00	6.770481e+06	
63	3.150000e+00	6.870045e+06	
64	3.200000e+00	6.963647e+06	
65	3.250000e+00	7.050030e+06	
66	3.300000e+00	7.127677e+06	
Reset re-loads circuit ***************************

Circuit: ***************************

Doing analysis at TEMP = 125.000000 and TNOM = 125.000000


No. of Data Rows : 67
                          ***************************
                          DC transfer characteristic  Mon Jan  9 13:58:14  2023
--------------------------------------------------------------------------------
Index   v-sweep         rds             
--------------------------------------------------------------------------------
0	0.000000e+00	3.066966e+04	
1	5.000000e-02	3.194663e+04	
2	1.000000e-01	3.331063e+04	
3	1.500000e-01	3.477077e+04	
4	2.000000e-01	3.633748e+04	
5	2.500000e-01	3.802277e+04	
6	3.000000e-01	3.984051e+04	
7	3.500000e-01	4.180685e+04	
8	4.000000e-01	4.394064e+04	
9	4.500000e-01	4.626409e+04	
10	5.000000e-01	4.880351e+04	
11	5.500000e-01	5.159032e+04	
12	6.000000e-01	5.466234e+04	
13	6.500000e-01	5.806554e+04	
14	7.000000e-01	6.185631e+04	
15	7.500000e-01	6.610465e+04	
16	8.000000e-01	7.089854e+04	
17	8.500000e-01	7.635008e+04	
18	9.000000e-01	8.260451e+04	
19	9.500000e-01	8.985344e+04	
20	1.000000e+00	9.835522e+04	
21	1.050000e+00	1.084672e+05	
22	1.100000e+00	1.206991e+05	
23	1.150000e+00	1.358045e+05	
24	1.200000e+00	1.549449e+05	
25	1.250000e+00	1.799785e+05	
26	1.300000e+00	2.138916e+05	
27	1.350000e+00	2.610289e+05	
28	1.400000e+00	3.258906e+05	
29	1.450000e+00	4.099603e+05	
30	1.500000e+00	5.101388e+05	
31	1.550000e+00	6.211978e+05	
32	1.600000e+00	7.385839e+05	
33	1.650000e+00	8.592248e+05	
34	1.700000e+00	9.812401e+05	
35	1.750000e+00	1.103506e+06	
36	1.800000e+00	1.225347e+06	
37	1.850000e+00	1.346350e+06	
38	1.900000e+00	1.466260e+06	
39	1.950000e+00	1.584916e+06	
40	2.000000e+00	1.702221e+06	
41	2.050000e+00	1.818113e+06	
42	2.100000e+00	1.932558e+06	
43	2.150000e+00	2.045539e+06	
44	2.200000e+00	2.157051e+06	
45	2.250000e+00	2.267096e+06	
46	2.300000e+00	2.375685e+06	
47	2.350000e+00	2.482830e+06	
48	2.400000e+00	2.588547e+06	
49	2.450000e+00	2.692855e+06	
50	2.500000e+00	2.795773e+06	
51	2.550000e+00	2.897322e+06	
52	2.600000e+00	2.997523e+06	
53	2.650000e+00	3.096398e+06	
54	2.700000e+00	3.193968e+06	

Index   v-sweep         rds             
--------------------------------------------------------------------------------
55	2.750000e+00	3.290253e+06	
56	2.800000e+00	3.385275e+06	
57	2.850000e+00	3.479051e+06	
58	2.900000e+00	3.571594e+06	
59	2.950000e+00	3.662914e+06	
60	3.000000e+00	3.753011e+06	
61	3.050000e+00	3.841871e+06	
62	3.100000e+00	3.929461e+06	
63	3.150000e+00	4.015723e+06	
64	3.200000e+00	4.100558e+06	
65	3.250000e+00	4.183821e+06	
66	3.300000e+00	4.265300e+06	
Reset re-loads circuit ***************************

Circuit: ***************************

Doing analysis at TEMP = 125.000000 and TNOM = 125.000000


No. of Data Rows : 67
                          ***************************
                          DC transfer characteristic  Mon Jan  9 13:58:14  2023
--------------------------------------------------------------------------------
Index   v-sweep         rds             
--------------------------------------------------------------------------------
0	0.000000e+00	2.553802e+04	
1	5.000000e-02	2.639973e+04	
2	1.000000e-01	2.730683e+04	
3	1.500000e-01	2.826294e+04	
4	2.000000e-01	2.927209e+04	
5	2.500000e-01	3.033876e+04	
6	3.000000e-01	3.146795e+04	
7	3.500000e-01	3.266526e+04	
8	4.000000e-01	3.393698e+04	
9	4.500000e-01	3.529019e+04	
10	5.000000e-01	3.673291e+04	
11	5.500000e-01	3.827425e+04	
12	6.000000e-01	3.992459e+04	
13	6.500000e-01	4.169584e+04	
14	7.000000e-01	4.360170e+04	
15	7.500000e-01	4.565803e+04	
16	8.000000e-01	4.788328e+04	
17	8.500000e-01	5.029906e+04	
18	9.000000e-01	5.293085e+04	
19	9.500000e-01	5.580890e+04	
20	1.000000e+00	5.896941e+04	
21	1.050000e+00	6.245611e+04	
22	1.100000e+00	6.632233e+04	
23	1.150000e+00	7.063387e+04	
24	1.200000e+00	7.547297e+04	
25	1.250000e+00	8.094402e+04	
26	1.300000e+00	8.718201e+04	
27	1.350000e+00	9.436544e+04	
28	1.400000e+00	1.027373e+05	
29	1.450000e+00	1.126403e+05	
30	1.500000e+00	1.245803e+05	
31	1.550000e+00	1.393403e+05	
32	1.600000e+00	1.581760e+05	
33	1.650000e+00	1.830645e+05	
34	1.700000e+00	2.167044e+05	
35	1.750000e+00	2.616282e+05	
36	1.800000e+00	3.185666e+05	
37	1.850000e+00	3.858797e+05	
38	1.900000e+00	4.607507e+05	
39	1.950000e+00	5.405335e+05	
40	2.000000e+00	6.232682e+05	
41	2.050000e+00	7.076412e+05	
42	2.100000e+00	7.928017e+05	
43	2.150000e+00	8.782004e+05	
44	2.200000e+00	9.634790e+05	
45	2.250000e+00	1.048400e+06	
46	2.300000e+00	1.132805e+06	
47	2.350000e+00	1.216585e+06	
48	2.400000e+00	1.299666e+06	
49	2.450000e+00	1.382000e+06	
50	2.500000e+00	1.463551e+06	
51	2.550000e+00	1.544298e+06	
52	2.600000e+00	1.624227e+06	
53	2.650000e+00	1.703330e+06	
54	2.700000e+00	1.781604e+06	

Index   v-sweep         rds             
--------------------------------------------------------------------------------
55	2.750000e+00	1.859049e+06	
56	2.800000e+00	1.935668e+06	
57	2.850000e+00	2.011466e+06	
58	2.900000e+00	2.086448e+06	
59	2.950000e+00	2.160621e+06	
60	3.000000e+00	2.233994e+06	
61	3.050000e+00	2.306575e+06	
62	3.100000e+00	2.378371e+06	
63	3.150000e+00	2.449391e+06	
64	3.200000e+00	2.519640e+06	
65	3.250000e+00	2.589122e+06	
66	3.300000e+00	2.657835e+06	
Reset re-loads circuit ***************************

Circuit: ***************************

Doing analysis at TEMP = 125.000000 and TNOM = 125.000000


No. of Data Rows : 67
                          ***************************
                          DC transfer characteristic  Mon Jan  9 13:58:14  2023
--------------------------------------------------------------------------------
Index   v-sweep         rds             
--------------------------------------------------------------------------------
0	0.000000e+00	2.225994e+04	
1	5.000000e-02	2.289231e+04	
2	1.000000e-01	2.355162e+04	
3	1.500000e-01	2.423960e+04	
4	2.000000e-01	2.495811e+04	
5	2.500000e-01	2.570921e+04	
6	3.000000e-01	2.649512e+04	
7	3.500000e-01	2.731828e+04	
8	4.000000e-01	2.818135e+04	
9	4.500000e-01	2.908729e+04	
10	5.000000e-01	3.003930e+04	
11	5.500000e-01	3.104096e+04	
12	6.000000e-01	3.209621e+04	
13	6.500000e-01	3.320941e+04	
14	7.000000e-01	3.438542e+04	
15	7.500000e-01	3.562965e+04	
16	8.000000e-01	3.694818e+04	
17	8.500000e-01	3.834780e+04	
18	9.000000e-01	3.983617e+04	
19	9.500000e-01	4.142194e+04	
20	1.000000e+00	4.311496e+04	
21	1.050000e+00	4.492642e+04	
22	1.100000e+00	4.686916e+04	
23	1.150000e+00	4.895792e+04	
24	1.200000e+00	5.120981e+04	
25	1.250000e+00	5.364470e+04	
26	1.300000e+00	5.628590e+04	
27	1.350000e+00	5.916092e+04	
28	1.400000e+00	6.230252e+04	
29	1.450000e+00	6.575006e+04	
30	1.500000e+00	6.955145e+04	
31	1.550000e+00	7.376576e+04	
32	1.600000e+00	7.846711e+04	
33	1.650000e+00	8.375060e+04	
34	1.700000e+00	8.974175e+04	
35	1.750000e+00	9.661237e+04	
36	1.800000e+00	1.046087e+05	
37	1.850000e+00	1.141023e+05	
38	1.900000e+00	1.256806e+05	
39	1.950000e+00	1.402879e+05	
40	2.000000e+00	1.593655e+05	
41	2.050000e+00	1.847591e+05	
42	2.100000e+00	2.180799e+05	
43	2.150000e+00	2.597762e+05	
44	2.200000e+00	3.088799e+05	
45	2.250000e+00	3.636632e+05	
46	2.300000e+00	4.224016e+05	
47	2.350000e+00	4.837284e+05	
48	2.400000e+00	5.466675e+05	
49	2.450000e+00	6.105511e+05	
50	2.500000e+00	6.749264e+05	
51	2.550000e+00	7.394856e+05	
52	2.600000e+00	8.040168e+05	
53	2.650000e+00	8.683725e+05	
54	2.700000e+00	9.324485e+05	

Index   v-sweep         rds             
--------------------------------------------------------------------------------
55	2.750000e+00	9.961705e+05	
56	2.800000e+00	1.059485e+06	
57	2.850000e+00	1.122355e+06	
58	2.900000e+00	1.184750e+06	
59	2.950000e+00	1.246653e+06	
60	3.000000e+00	1.308048e+06	
61	3.050000e+00	1.368927e+06	
62	3.100000e+00	1.429283e+06	
63	3.150000e+00	1.489112e+06	
64	3.200000e+00	1.548413e+06	
65	3.250000e+00	1.607185e+06	
66	3.300000e+00	1.665431e+06	
Reset re-loads circuit ***************************

Circuit: ***************************

Note: No ".plot", ".print", or ".fourier" lines; no simulations run
