
Note: Compatibility modes selected: hs

Warning: m=xx on .subckt line will override multiplier m hierarchy!


Circuit: ***************************

Doing analysis at TEMP = 25.000000 and TNOM = 25.000000


No. of Data Rows : 67
                          ***************************
                          DC transfer characteristic  Mon Jan  9 13:58:13  2023
--------------------------------------------------------------------------------
Index   v-sweep         rds             
--------------------------------------------------------------------------------
0	0.000000e+00	3.179128e+03	
1	5.000000e-02	5.181203e+03	
2	1.000000e-01	1.118380e+04	
3	1.500000e-01	3.423476e+04	
4	2.000000e-01	9.004981e+04	
5	2.500000e-01	1.591897e+05	
6	3.000000e-01	2.206726e+05	
7	3.500000e-01	2.704788e+05	
8	4.000000e-01	3.104179e+05	
9	4.500000e-01	3.428279e+05	
10	5.000000e-01	3.695506e+05	
11	5.500000e-01	3.919205e+05	
12	6.000000e-01	4.108975e+05	
13	6.500000e-01	4.271817e+05	
14	7.000000e-01	4.412936e+05	
15	7.500000e-01	4.536273e+05	
16	8.000000e-01	4.644867e+05	
17	8.500000e-01	4.741101e+05	
18	9.000000e-01	4.826868e+05	
19	9.500000e-01	4.903692e+05	
20	1.000000e+00	4.972817e+05	
21	1.050000e+00	5.035263e+05	
22	1.100000e+00	5.091880e+05	
23	1.150000e+00	5.143380e+05	
24	1.200000e+00	5.190362e+05	
25	1.250000e+00	5.233336e+05	
26	1.300000e+00	5.272741e+05	
27	1.350000e+00	5.308950e+05	
28	1.400000e+00	5.342289e+05	
29	1.450000e+00	5.373041e+05	
30	1.500000e+00	5.401453e+05	
31	1.550000e+00	5.427740e+05	
32	1.600000e+00	5.452091e+05	
33	1.650000e+00	5.474673e+05	
34	1.700000e+00	5.495630e+05	
35	1.750000e+00	5.515089e+05	
36	1.800000e+00	5.533155e+05	
37	1.850000e+00	5.549917e+05	
38	1.900000e+00	5.565443e+05	
39	1.950000e+00	5.579781e+05	
40	2.000000e+00	5.592957e+05	
41	2.050000e+00	5.604970e+05	
42	2.100000e+00	5.615790e+05	
43	2.150000e+00	5.625357e+05	
44	2.200000e+00	5.633571e+05	
45	2.250000e+00	5.640295e+05	
46	2.300000e+00	5.645342e+05	
47	2.350000e+00	5.648481e+05	
48	2.400000e+00	5.649425e+05	
49	2.450000e+00	5.647831e+05	
50	2.500000e+00	5.643301e+05	
51	2.550000e+00	5.635378e+05	
52	2.600000e+00	5.623548e+05	
53	2.650000e+00	5.607248e+05	
54	2.700000e+00	5.585870e+05	

Index   v-sweep         rds             
--------------------------------------------------------------------------------
55	2.750000e+00	5.558772e+05	
56	2.800000e+00	5.525292e+05	
57	2.850000e+00	5.484766e+05	
58	2.900000e+00	5.436548e+05	
59	2.950000e+00	5.380037e+05	
60	3.000000e+00	5.314700e+05	
61	3.050000e+00	5.240100e+05	
62	3.100000e+00	5.155926e+05	
63	3.150000e+00	5.062016e+05	
64	3.200000e+00	4.958379e+05	
65	3.250000e+00	4.845209e+05	
66	3.300000e+00	4.722897e+05	
Reset re-loads circuit ***************************

Circuit: ***************************

Doing analysis at TEMP = 25.000000 and TNOM = 25.000000


No. of Data Rows : 67
                          ***************************
                          DC transfer characteristic  Mon Jan  9 13:58:13  2023
--------------------------------------------------------------------------------
Index   v-sweep         rds             
--------------------------------------------------------------------------------
0	0.000000e+00	5.987407e+02	
1	5.000000e-02	6.752194e+02	
2	1.000000e-01	7.688778e+02	
3	1.500000e-01	8.861642e+02	
4	2.000000e-01	1.037215e+03	
5	2.500000e-01	1.238901e+03	
6	3.000000e-01	1.521377e+03	
7	3.500000e-01	1.943149e+03	
8	4.000000e-01	2.625962e+03	
9	4.500000e-01	3.816262e+03	
10	5.000000e-01	5.882735e+03	
11	5.500000e-01	9.045546e+03	
12	6.000000e-01	1.312009e+04	
13	6.500000e-01	1.771529e+04	
14	7.000000e-01	2.249920e+04	
15	7.500000e-01	2.726325e+04	
16	8.000000e-01	3.189281e+04	
17	8.500000e-01	3.633058e+04	
18	9.000000e-01	4.055193e+04	
19	9.500000e-01	4.455029e+04	
20	1.000000e+00	4.832894e+04	
21	1.050000e+00	5.189636e+04	
22	1.100000e+00	5.526353e+04	
23	1.150000e+00	5.844247e+04	
24	1.200000e+00	6.144539e+04	
25	1.250000e+00	6.428416e+04	
26	1.300000e+00	6.697013e+04	
27	1.350000e+00	6.951392e+04	
28	1.400000e+00	7.192546e+04	
29	1.450000e+00	7.421393e+04	
30	1.500000e+00	7.638781e+04	
31	1.550000e+00	7.845490e+04	
32	1.600000e+00	8.042239e+04	
33	1.650000e+00	8.229690e+04	
34	1.700000e+00	8.408450e+04	
35	1.750000e+00	8.579076e+04	
36	1.800000e+00	8.742085e+04	
37	1.850000e+00	8.897946e+04	
38	1.900000e+00	9.047093e+04	
39	1.950000e+00	9.189919e+04	
40	2.000000e+00	9.326781e+04	
41	2.050000e+00	9.457995e+04	
42	2.100000e+00	9.583833e+04	
43	2.150000e+00	9.704517e+04	
44	2.200000e+00	9.820209e+04	
45	2.250000e+00	9.931003e+04	
46	2.300000e+00	1.003690e+05	
47	2.350000e+00	1.013780e+05	
48	2.400000e+00	1.023346e+05	
49	2.450000e+00	1.032351e+05	
50	2.500000e+00	1.040736e+05	
51	2.550000e+00	1.048423e+05	
52	2.600000e+00	1.055309e+05	
53	2.650000e+00	1.061264e+05	
54	2.700000e+00	1.066130e+05	

Index   v-sweep         rds             
--------------------------------------------------------------------------------
55	2.750000e+00	1.069719e+05	
56	2.800000e+00	1.071810e+05	
57	2.850000e+00	1.072160e+05	
58	2.900000e+00	1.070498e+05	
59	2.950000e+00	1.066540e+05	
60	3.000000e+00	1.059998e+05	
61	3.050000e+00	1.050592e+05	
62	3.100000e+00	1.038069e+05	
63	3.150000e+00	1.022222e+05	
64	3.200000e+00	1.002907e+05	
65	3.250000e+00	9.800669e+04	
66	3.300000e+00	9.537403e+04	
Reset re-loads circuit ***************************

Circuit: ***************************

Doing analysis at TEMP = 25.000000 and TNOM = 25.000000


No. of Data Rows : 67
                          ***************************
                          DC transfer characteristic  Mon Jan  9 13:58:13  2023
--------------------------------------------------------------------------------
Index   v-sweep         rds             
--------------------------------------------------------------------------------
0	0.000000e+00	3.678244e+02	
1	5.000000e-02	3.962850e+02	
2	1.000000e-01	4.281318e+02	
3	1.500000e-01	4.639942e+02	
4	2.000000e-01	5.046700e+02	
5	2.500000e-01	5.511867e+02	
6	3.000000e-01	6.048934e+02	
7	3.500000e-01	6.676017e+02	
8	4.000000e-01	7.418134e+02	
9	4.500000e-01	8.311041e+02	
10	5.000000e-01	9.408153e+02	
11	5.500000e-01	1.079379e+03	
12	6.000000e-01	1.261003e+03	
13	6.500000e-01	1.511176e+03	
14	7.000000e-01	1.876674e+03	
15	7.500000e-01	2.436062e+03	
16	8.000000e-01	3.287829e+03	
17	8.500000e-01	4.495559e+03	
18	9.000000e-01	6.041602e+03	
19	9.500000e-01	7.847956e+03	
20	1.000000e+00	9.824479e+03	
21	1.050000e+00	1.189597e+04	
22	1.100000e+00	1.400765e+04	
23	1.150000e+00	1.612199e+04	
24	1.200000e+00	1.821408e+04	
25	1.250000e+00	2.026780e+04	
26	1.300000e+00	2.227295e+04	
27	1.350000e+00	2.422341e+04	
28	1.400000e+00	2.611579e+04	
29	1.450000e+00	2.794856e+04	
30	1.500000e+00	2.972145e+04	
31	1.550000e+00	3.143507e+04	
32	1.600000e+00	3.309057e+04	
33	1.650000e+00	3.468948e+04	
34	1.700000e+00	3.623357e+04	
35	1.750000e+00	3.772475e+04	
36	1.800000e+00	3.916499e+04	
37	1.850000e+00	4.055628e+04	
38	1.900000e+00	4.190061e+04	
39	1.950000e+00	4.319992e+04	
40	2.000000e+00	4.445610e+04	
41	2.050000e+00	4.567099e+04	
42	2.100000e+00	4.684633e+04	
43	2.150000e+00	4.798381e+04	
44	2.200000e+00	4.908499e+04	
45	2.250000e+00	5.015134e+04	
46	2.300000e+00	5.118419e+04	
47	2.350000e+00	5.218471e+04	
48	2.400000e+00	5.315381e+04	
49	2.450000e+00	5.409212e+04	
50	2.500000e+00	5.499988e+04	
51	2.550000e+00	5.587676e+04	
52	2.600000e+00	5.672178e+04	
53	2.650000e+00	5.753307e+04	
54	2.700000e+00	5.830763e+04	

Index   v-sweep         rds             
--------------------------------------------------------------------------------
55	2.750000e+00	5.904112e+04	
56	2.800000e+00	5.972755e+04	
57	2.850000e+00	6.035903e+04	
58	2.900000e+00	6.092546e+04	
59	2.950000e+00	6.141435e+04	
60	3.000000e+00	6.181064e+04	
61	3.050000e+00	6.209672e+04	
62	3.100000e+00	6.225259e+04	
63	3.150000e+00	6.225629e+04	
64	3.200000e+00	6.208464e+04	
65	3.250000e+00	6.171432e+04	
66	3.300000e+00	6.112328e+04	
Reset re-loads circuit ***************************

Circuit: ***************************

Doing analysis at TEMP = 25.000000 and TNOM = 25.000000


No. of Data Rows : 67
                          ***************************
                          DC transfer characteristic  Mon Jan  9 13:58:13  2023
--------------------------------------------------------------------------------
Index   v-sweep         rds             
--------------------------------------------------------------------------------
0	0.000000e+00	2.886024e+02	
1	5.000000e-02	3.051334e+02	
2	1.000000e-01	3.230258e+02	
3	1.500000e-01	3.424493e+02	
4	2.000000e-01	3.636032e+02	
5	2.500000e-01	3.867241e+02	
6	3.000000e-01	4.120942e+02	
7	3.500000e-01	4.400540e+02	
8	4.000000e-01	4.710187e+02	
9	4.500000e-01	5.055008e+02	
10	5.000000e-01	5.441430e+02	
11	5.500000e-01	5.877659e+02	
12	6.000000e-01	6.374423e+02	
13	6.500000e-01	6.946155e+02	
14	7.000000e-01	7.613012e+02	
15	7.500000e-01	8.404489e+02	
16	8.000000e-01	9.366225e+02	
17	8.500000e-01	1.057317e+03	
18	9.000000e-01	1.215445e+03	
19	9.500000e-01	1.433436e+03	
20	1.000000e+00	1.747408e+03	
21	1.050000e+00	2.204553e+03	
22	1.100000e+00	2.845737e+03	
23	1.150000e+00	3.683223e+03	
24	1.200000e+00	4.696714e+03	
25	1.250000e+00	5.848178e+03	
26	1.300000e+00	7.097533e+03	
27	1.350000e+00	8.410502e+03	
28	1.400000e+00	9.760437e+03	
29	1.450000e+00	1.112754e+04	
30	1.500000e+00	1.249744e+04	
31	1.550000e+00	1.385981e+04	
32	1.600000e+00	1.520733e+04	
33	1.650000e+00	1.653484e+04	
34	1.700000e+00	1.783876e+04	
35	1.750000e+00	1.911671e+04	
36	1.800000e+00	2.036713e+04	
37	1.850000e+00	2.158909e+04	
38	1.900000e+00	2.278214e+04	
39	1.950000e+00	2.394617e+04	
40	2.000000e+00	2.508132e+04	
41	2.050000e+00	2.618791e+04	
42	2.100000e+00	2.726641e+04	
43	2.150000e+00	2.831738e+04	
44	2.200000e+00	2.934143e+04	
45	2.250000e+00	3.033925e+04	
46	2.300000e+00	3.131153e+04	
47	2.350000e+00	3.225898e+04	
48	2.400000e+00	3.318232e+04	
49	2.450000e+00	3.408224e+04	
50	2.500000e+00	3.495939e+04	
51	2.550000e+00	3.581439e+04	
52	2.600000e+00	3.664772e+04	
53	2.650000e+00	3.745977e+04	
54	2.700000e+00	3.825070e+04	

Index   v-sweep         rds             
--------------------------------------------------------------------------------
55	2.750000e+00	3.902038e+04	
56	2.800000e+00	3.976828e+04	
57	2.850000e+00	4.049331e+04	
58	2.900000e+00	4.119369e+04	
59	2.950000e+00	4.186669e+04	
60	3.000000e+00	4.250843e+04	
61	3.050000e+00	4.311359e+04	
62	3.100000e+00	4.367519e+04	
63	3.150000e+00	4.418428e+04	
64	3.200000e+00	4.462975e+04	
65	3.250000e+00	4.499818e+04	
66	3.300000e+00	4.527384e+04	
Reset re-loads circuit ***************************

Circuit: ***************************

Doing analysis at TEMP = 25.000000 and TNOM = 25.000000


No. of Data Rows : 67
                          ***************************
                          DC transfer characteristic  Mon Jan  9 13:58:13  2023
--------------------------------------------------------------------------------
Index   v-sweep         rds             
--------------------------------------------------------------------------------
0	0.000000e+00	2.511054e+02	
1	5.000000e-02	2.626362e+02	
2	1.000000e-01	2.748994e+02	
3	1.500000e-01	2.879638e+02	
4	2.000000e-01	3.019076e+02	
5	2.500000e-01	3.168195e+02	
6	3.000000e-01	3.328007e+02	
7	3.500000e-01	3.499676e+02	
8	4.000000e-01	3.684543e+02	
9	4.500000e-01	3.884165e+02	
10	5.000000e-01	4.100367e+02	
11	5.500000e-01	4.335298e+02	
12	6.000000e-01	4.591518e+02	
13	6.500000e-01	4.872113e+02	
14	7.000000e-01	5.180851e+02	
15	7.500000e-01	5.522414e+02	
16	8.000000e-01	5.902748e+02	
17	8.500000e-01	6.329608e+02	
18	9.000000e-01	6.813457e+02	
19	9.500000e-01	7.369010e+02	
20	1.000000e+00	8.017996e+02	
21	1.050000e+00	8.794204e+02	
22	1.100000e+00	9.752717e+02	
23	1.150000e+00	1.098580e+03	
24	1.200000e+00	1.264573e+03	
25	1.250000e+00	1.496317e+03	
26	1.300000e+00	1.822716e+03	
27	1.350000e+00	2.269550e+03	
28	1.400000e+00	2.847996e+03	
29	1.450000e+00	3.550836e+03	
30	1.500000e+00	4.358360e+03	
31	1.550000e+00	5.246790e+03	
32	1.600000e+00	6.193806e+03	
33	1.650000e+00	7.180739e+03	
34	1.700000e+00	8.192842e+03	
35	1.750000e+00	9.218800e+03	
36	1.800000e+00	1.025005e+04	
37	1.850000e+00	1.128016e+04	
38	1.900000e+00	1.230432e+04	
39	1.950000e+00	1.331896e+04	
40	2.000000e+00	1.432144e+04	
41	2.050000e+00	1.530981e+04	
42	2.100000e+00	1.628270e+04	
43	2.150000e+00	1.723911e+04	
44	2.200000e+00	1.817840e+04	
45	2.250000e+00	1.910014e+04	
46	2.300000e+00	2.000411e+04	
47	2.350000e+00	2.089023e+04	
48	2.400000e+00	2.175855e+04	
49	2.450000e+00	2.260919e+04	
50	2.500000e+00	2.344233e+04	
51	2.550000e+00	2.425822e+04	
52	2.600000e+00	2.505715e+04	
53	2.650000e+00	2.583940e+04	
54	2.700000e+00	2.660528e+04	

Index   v-sweep         rds             
--------------------------------------------------------------------------------
55	2.750000e+00	2.735510e+04	
56	2.800000e+00	2.808912e+04	
57	2.850000e+00	2.880754e+04	
58	2.900000e+00	2.951046e+04	
59	2.950000e+00	3.019782e+04	
60	3.000000e+00	3.086929e+04	
61	3.050000e+00	3.152421e+04	
62	3.100000e+00	3.216143e+04	
63	3.150000e+00	3.277917e+04	
64	3.200000e+00	3.337478e+04	
65	3.250000e+00	3.394459e+04	
66	3.300000e+00	3.448358e+04	
Reset re-loads circuit ***************************

Circuit: ***************************

Doing analysis at TEMP = 25.000000 and TNOM = 25.000000


No. of Data Rows : 67
                          ***************************
                          DC transfer characteristic  Mon Jan  9 13:58:13  2023
--------------------------------------------------------------------------------
Index   v-sweep         rds             
--------------------------------------------------------------------------------
0	0.000000e+00	2.300857e+02	
1	5.000000e-02	2.389094e+02	
2	1.000000e-01	2.481898e+02	
3	1.500000e-01	2.579616e+02	
4	2.000000e-01	2.682628e+02	
5	2.500000e-01	2.791358e+02	
6	3.000000e-01	2.906278e+02	
7	3.500000e-01	3.027911e+02	
8	4.000000e-01	3.156844e+02	
9	4.500000e-01	3.293738e+02	
10	5.000000e-01	3.439334e+02	
11	5.500000e-01	3.594474e+02	
12	6.000000e-01	3.760117e+02	
13	6.500000e-01	3.937360e+02	
14	7.000000e-01	4.127465e+02	
15	7.500000e-01	4.331902e+02	
16	8.000000e-01	4.552390e+02	
17	8.500000e-01	4.790966e+02	
18	9.000000e-01	5.050074e+02	
19	9.500000e-01	5.332698e+02	
20	1.000000e+00	5.642550e+02	
21	1.050000e+00	5.984367e+02	
22	1.100000e+00	6.364385e+02	
23	1.150000e+00	6.791119e+02	
24	1.200000e+00	7.276696e+02	
25	1.250000e+00	7.839184e+02	
26	1.300000e+00	8.506685e+02	
27	1.350000e+00	9.324333e+02	
28	1.400000e+00	1.036530e+03	
29	1.450000e+00	1.174462e+03	
30	1.500000e+00	1.362746e+03	
31	1.550000e+00	1.621257e+03	
32	1.600000e+00	1.967773e+03	
33	1.650000e+00	2.411210e+03	
34	1.700000e+00	2.948849e+03	
35	1.750000e+00	3.569093e+03	
36	1.800000e+00	4.256411e+03	
37	1.850000e+00	4.995185e+03	
38	1.900000e+00	5.771633e+03	
39	1.950000e+00	6.574387e+03	
40	2.000000e+00	7.394385e+03	
41	2.050000e+00	8.224539e+03	
42	2.100000e+00	9.059349e+03	
43	2.150000e+00	9.894571e+03	
44	2.200000e+00	1.072693e+04	
45	2.250000e+00	1.155392e+04	
46	2.300000e+00	1.237361e+04	
47	2.350000e+00	1.318454e+04	
48	2.400000e+00	1.398558e+04	
49	2.450000e+00	1.477592e+04	
50	2.500000e+00	1.555494e+04	
51	2.550000e+00	1.632222e+04	
52	2.600000e+00	1.707745e+04	
53	2.650000e+00	1.782046e+04	
54	2.700000e+00	1.855114e+04	

Index   v-sweep         rds             
--------------------------------------------------------------------------------
55	2.750000e+00	1.926947e+04	
56	2.800000e+00	1.997548e+04	
57	2.850000e+00	2.066924e+04	
58	2.900000e+00	2.135085e+04	
59	2.950000e+00	2.202042e+04	
60	3.000000e+00	2.267807e+04	
61	3.050000e+00	2.332389e+04	
62	3.100000e+00	2.395794e+04	
63	3.150000e+00	2.458017e+04	
64	3.200000e+00	2.519039e+04	
65	3.250000e+00	2.578821e+04	
66	3.300000e+00	2.637291e+04	
Reset re-loads circuit ***************************

Circuit: ***************************

Note: No ".plot", ".print", or ".fourier" lines; no simulations run
