
Note: Compatibility modes selected: hs

Warning: m=xx on .subckt line will override multiplier m hierarchy!


Circuit: ***************************

Doing analysis at TEMP = -40.000000 and TNOM = -40.000000


No. of Data Rows : 67
                          ***************************
                          DC transfer characteristic  Mon Jan  9 13:58:13  2023
--------------------------------------------------------------------------------
Index   v-sweep         rds             
--------------------------------------------------------------------------------
0	0.000000e+00	4.396908e+04	
1	5.000000e-02	1.018315e+05	
2	1.000000e-01	1.070231e+06	
3	1.500000e-01	1.168559e+07	
4	2.000000e-01	2.930583e+07	
5	2.500000e-01	4.179600e+07	
6	3.000000e-01	4.929095e+07	
7	3.500000e-01	5.399012e+07	
8	4.000000e-01	5.715876e+07	
9	4.500000e-01	5.943345e+07	
10	5.000000e-01	6.114784e+07	
11	5.500000e-01	6.248912e+07	
12	6.000000e-01	6.356937e+07	
13	6.500000e-01	6.445959e+07	
14	7.000000e-01	6.520690e+07	
15	7.500000e-01	6.584385e+07	
16	8.000000e-01	6.639368e+07	
17	8.500000e-01	6.687344e+07	
18	9.000000e-01	6.729593e+07	
19	9.500000e-01	6.767099e+07	
20	1.000000e+00	6.800629e+07	
21	1.050000e+00	6.830790e+07	
22	1.100000e+00	6.858071e+07	
23	1.150000e+00	6.882870e+07	
24	1.200000e+00	6.905514e+07	
25	1.250000e+00	6.926273e+07	
26	1.300000e+00	6.945376e+07	
27	1.350000e+00	6.963013e+07	
28	1.400000e+00	6.979349e+07	
29	1.450000e+00	6.994521e+07	
30	1.500000e+00	7.008651e+07	
31	1.550000e+00	7.021841e+07	
32	1.600000e+00	7.034181e+07	
33	1.650000e+00	7.045749e+07	
34	1.700000e+00	7.056611e+07	
35	1.750000e+00	7.066826e+07	
36	1.800000e+00	7.076442e+07	
37	1.850000e+00	7.085499e+07	
38	1.900000e+00	7.094028e+07	
39	1.950000e+00	7.102051e+07	
40	2.000000e+00	7.109583e+07	
41	2.050000e+00	7.116625e+07	
42	2.100000e+00	7.123172e+07	
43	2.150000e+00	7.129202e+07	
44	2.200000e+00	7.134684e+07	
45	2.250000e+00	7.139570e+07	
46	2.300000e+00	7.143799e+07	
47	2.350000e+00	7.147292e+07	
48	2.400000e+00	7.149952e+07	
49	2.450000e+00	7.151664e+07	
50	2.500000e+00	7.152294e+07	
51	2.550000e+00	7.151687e+07	
52	2.600000e+00	7.149667e+07	
53	2.650000e+00	7.146040e+07	
54	2.700000e+00	7.140590e+07	

Index   v-sweep         rds             
--------------------------------------------------------------------------------
55	2.750000e+00	7.133082e+07	
56	2.800000e+00	7.123266e+07	
57	2.850000e+00	7.110872e+07	
58	2.900000e+00	7.095620e+07	
59	2.950000e+00	7.077218e+07	
60	3.000000e+00	7.055368e+07	
61	3.050000e+00	7.029768e+07	
62	3.100000e+00	7.000119e+07	
63	3.150000e+00	6.966130e+07	
64	3.200000e+00	6.927521e+07	
65	3.250000e+00	6.884030e+07	
66	3.300000e+00	6.835422e+07	
Reset re-loads circuit ***************************

Circuit: ***************************

Doing analysis at TEMP = -40.000000 and TNOM = -40.000000


No. of Data Rows : 67
                          ***************************
                          DC transfer characteristic  Mon Jan  9 13:58:13  2023
--------------------------------------------------------------------------------
Index   v-sweep         rds             
--------------------------------------------------------------------------------
0	0.000000e+00	6.972168e+03	
1	5.000000e-02	7.892803e+03	
2	1.000000e-01	9.088534e+03	
3	1.500000e-01	1.070411e+04	
4	2.000000e-01	1.300697e+04	
5	2.500000e-01	1.655078e+04	
6	3.000000e-01	2.268629e+04	
7	3.500000e-01	3.564818e+04	
8	4.000000e-01	7.452443e+04	
9	4.500000e-01	2.415118e+05	
10	5.000000e-01	7.710016e+05	
11	5.500000e-01	1.635092e+06	
12	6.000000e-01	2.564696e+06	
13	6.500000e-01	3.407414e+06	
14	7.000000e-01	4.130210e+06	
15	7.500000e-01	4.743215e+06	
16	8.000000e-01	5.265248e+06	
17	8.500000e-01	5.713758e+06	
18	9.000000e-01	6.102872e+06	
19	9.500000e-01	6.443614e+06	
20	1.000000e+00	6.744539e+06	
21	1.050000e+00	7.012326e+06	
22	1.100000e+00	7.252241e+06	
23	1.150000e+00	7.468487e+06	
24	1.200000e+00	7.664455e+06	
25	1.250000e+00	7.842911e+06	
26	1.300000e+00	8.006135e+06	
27	1.350000e+00	8.156021e+06	
28	1.400000e+00	8.294161e+06	
29	1.450000e+00	8.421897e+06	
30	1.500000e+00	8.540375e+06	
31	1.550000e+00	8.650575e+06	
32	1.600000e+00	8.753344e+06	
33	1.650000e+00	8.849413e+06	
34	1.700000e+00	8.939422e+06	
35	1.750000e+00	9.023930e+06	
36	1.800000e+00	9.103428e+06	
37	1.850000e+00	9.178350e+06	
38	1.900000e+00	9.249078e+06	
39	1.950000e+00	9.315949e+06	
40	2.000000e+00	9.379260e+06	
41	2.050000e+00	9.439272e+06	
42	2.100000e+00	9.496208e+06	
43	2.150000e+00	9.550256e+06	
44	2.200000e+00	9.601569e+06	
45	2.250000e+00	9.650258e+06	
46	2.300000e+00	9.696395e+06	
47	2.350000e+00	9.740003e+06	
48	2.400000e+00	9.781053e+06	
49	2.450000e+00	9.819456e+06	
50	2.500000e+00	9.855059e+06	
51	2.550000e+00	9.887634e+06	
52	2.600000e+00	9.916871e+06	
53	2.650000e+00	9.942375e+06	
54	2.700000e+00	9.963654e+06	

Index   v-sweep         rds             
--------------------------------------------------------------------------------
55	2.750000e+00	9.980118e+06	
56	2.800000e+00	9.991076e+06	
57	2.850000e+00	9.995733e+06	
58	2.900000e+00	9.993198e+06	
59	2.950000e+00	9.982487e+06	
60	3.000000e+00	9.962538e+06	
61	3.050000e+00	9.932229e+06	
62	3.100000e+00	9.890402e+06	
63	3.150000e+00	9.835892e+06	
64	3.200000e+00	9.767564e+06	
65	3.250000e+00	9.684353e+06	
66	3.300000e+00	9.585310e+06	
Reset re-loads circuit ***************************

Circuit: ***************************

Doing analysis at TEMP = -40.000000 and TNOM = -40.000000


No. of Data Rows : 67
                          ***************************
                          DC transfer characteristic  Mon Jan  9 13:58:13  2023
--------------------------------------------------------------------------------
Index   v-sweep         rds             
--------------------------------------------------------------------------------
0	0.000000e+00	3.963408e+03	
1	5.000000e-02	4.227138e+03	
2	1.000000e-01	4.527397e+03	
3	1.500000e-01	4.872338e+03	
4	2.000000e-01	5.272733e+03	
5	2.500000e-01	5.743117e+03	
6	3.000000e-01	6.303585e+03	
7	3.500000e-01	6.982738e+03	
8	4.000000e-01	7.822692e+03	
9	4.500000e-01	8.888118e+03	
10	5.000000e-01	1.028360e+04	
11	5.500000e-01	1.218974e+04	
12	6.000000e-01	1.494640e+04	
13	6.500000e-01	1.927097e+04	
14	7.000000e-01	2.693169e+04	
15	7.500000e-01	4.319883e+04	
16	8.000000e-01	8.561272e+04	
17	8.500000e-01	1.962760e+05	
18	9.000000e-01	4.055375e+05	
19	9.500000e-01	6.838892e+05	
20	1.000000e+00	9.841585e+05	
21	1.050000e+00	1.277525e+06	
22	1.100000e+00	1.552009e+06	
23	1.150000e+00	1.804268e+06	
24	1.200000e+00	2.034615e+06	
25	1.250000e+00	2.244704e+06	
26	1.300000e+00	2.436560e+06	
27	1.350000e+00	2.612180e+06	
28	1.400000e+00	2.773392e+06	
29	1.450000e+00	2.921819e+06	
30	1.500000e+00	3.058877e+06	
31	1.550000e+00	3.185799e+06	
32	1.600000e+00	3.303654e+06	
33	1.650000e+00	3.413372e+06	
34	1.700000e+00	3.515761e+06	
35	1.750000e+00	3.611531e+06	
36	1.800000e+00	3.701301e+06	
37	1.850000e+00	3.785617e+06	
38	1.900000e+00	3.864962e+06	
39	1.950000e+00	3.939762e+06	
40	2.000000e+00	4.010398e+06	
41	2.050000e+00	4.077207e+06	
42	2.100000e+00	4.140492e+06	
43	2.150000e+00	4.200524e+06	
44	2.200000e+00	4.257548e+06	
45	2.250000e+00	4.311782e+06	
46	2.300000e+00	4.363423e+06	
47	2.350000e+00	4.412645e+06	
48	2.400000e+00	4.459606e+06	
49	2.450000e+00	4.504440e+06	
50	2.500000e+00	4.547263e+06	
51	2.550000e+00	4.588168e+06	
52	2.600000e+00	4.627226e+06	
53	2.650000e+00	4.664477e+06	
54	2.700000e+00	4.699932e+06	

Index   v-sweep         rds             
--------------------------------------------------------------------------------
55	2.750000e+00	4.733566e+06	
56	2.800000e+00	4.765309e+06	
57	2.850000e+00	4.795045e+06	
58	2.900000e+00	4.822603e+06	
59	2.950000e+00	4.847750e+06	
60	3.000000e+00	4.870186e+06	
61	3.050000e+00	4.889538e+06	
62	3.100000e+00	4.905355e+06	
63	3.150000e+00	4.917108e+06	
64	3.200000e+00	4.924189e+06	
65	3.250000e+00	4.925917e+06	
66	3.300000e+00	4.921544e+06	
Reset re-loads circuit ***************************

Circuit: ***************************

Doing analysis at TEMP = -40.000000 and TNOM = -40.000000


No. of Data Rows : 67
                          ***************************
                          DC transfer characteristic  Mon Jan  9 13:58:13  2023
--------------------------------------------------------------------------------
Index   v-sweep         rds             
--------------------------------------------------------------------------------
0	0.000000e+00	2.945811e+03	
1	5.000000e-02	3.074229e+03	
2	1.000000e-01	3.213904e+03	
3	1.500000e-01	3.366383e+03	
4	2.000000e-01	3.533512e+03	
5	2.500000e-01	3.717507e+03	
6	3.000000e-01	3.921056e+03	
7	3.500000e-01	4.147451e+03	
8	4.000000e-01	4.400765e+03	
9	4.500000e-01	4.686100e+03	
10	5.000000e-01	5.009937e+03	
11	5.500000e-01	5.380628e+03	
12	6.000000e-01	5.809130e+03	
13	6.500000e-01	6.310104e+03	
14	7.000000e-01	6.903619e+03	
15	7.500000e-01	7.617898e+03	
16	8.000000e-01	8.493920e+03	
17	8.500000e-01	9.593501e+03	
18	9.000000e-01	1.101438e+04	
19	9.500000e-01	1.292042e+04	
20	1.000000e+00	1.560739e+04	
21	1.050000e+00	1.966209e+04	
22	1.100000e+00	2.639103e+04	
23	1.150000e+00	3.905748e+04	
24	1.200000e+00	6.591169e+04	
25	1.250000e+00	1.221681e+05	
26	1.300000e+00	2.186348e+05	
27	1.350000e+00	3.483241e+05	
28	1.400000e+00	4.955627e+05	
29	1.450000e+00	6.477959e+05	
30	1.500000e+00	7.977563e+05	
31	1.550000e+00	9.418507e+05	
32	1.600000e+00	1.078550e+06	
33	1.650000e+00	1.207402e+06	
34	1.700000e+00	1.328492e+06	
35	1.750000e+00	1.442163e+06	
36	1.800000e+00	1.548870e+06	
37	1.850000e+00	1.649102e+06	
38	1.900000e+00	1.743346e+06	
39	1.950000e+00	1.832066e+06	
40	2.000000e+00	1.915694e+06	
41	2.050000e+00	1.994628e+06	
42	2.100000e+00	2.069234e+06	
43	2.150000e+00	2.139843e+06	
44	2.200000e+00	2.206758e+06	
45	2.250000e+00	2.270254e+06	
46	2.300000e+00	2.330579e+06	
47	2.350000e+00	2.387962e+06	
48	2.400000e+00	2.442608e+06	
49	2.450000e+00	2.494706e+06	
50	2.500000e+00	2.544428e+06	
51	2.550000e+00	2.591929e+06	
52	2.600000e+00	2.637355e+06	
53	2.650000e+00	2.680835e+06	
54	2.700000e+00	2.722487e+06	

Index   v-sweep         rds             
--------------------------------------------------------------------------------
55	2.750000e+00	2.762420e+06	
56	2.800000e+00	2.800729e+06	
57	2.850000e+00	2.837497e+06	
58	2.900000e+00	2.872795e+06	
59	2.950000e+00	2.906678e+06	
60	3.000000e+00	2.939184e+06	
61	3.050000e+00	2.970331e+06	
62	3.100000e+00	3.000111e+06	
63	3.150000e+00	3.028489e+06	
64	3.200000e+00	3.055394e+06	
65	3.250000e+00	3.080716e+06	
66	3.300000e+00	3.104298e+06	
Reset re-loads circuit ***************************

Circuit: ***************************

Doing analysis at TEMP = -40.000000 and TNOM = -40.000000


No. of Data Rows : 67
                          ***************************
                          DC transfer characteristic  Mon Jan  9 13:58:13  2023
--------------------------------------------------------------------------------
Index   v-sweep         rds             
--------------------------------------------------------------------------------
0	0.000000e+00	2.471390e+03	
1	5.000000e-02	2.549995e+03	
2	1.000000e-01	2.633521e+03	
3	1.500000e-01	2.722444e+03	
4	2.000000e-01	2.817307e+03	
5	2.500000e-01	2.918722e+03	
6	3.000000e-01	3.027394e+03	
7	3.500000e-01	3.144130e+03	
8	4.000000e-01	3.269862e+03	
9	4.500000e-01	3.405670e+03	
10	5.000000e-01	3.552817e+03	
11	5.500000e-01	3.712782e+03	
12	6.000000e-01	3.887319e+03	
13	6.500000e-01	4.078511e+03	
14	7.000000e-01	4.288861e+03	
15	7.500000e-01	4.521400e+03	
16	8.000000e-01	4.779834e+03	
17	8.500000e-01	5.068742e+03	
18	9.000000e-01	5.393850e+03	
19	9.500000e-01	5.762415e+03	
20	1.000000e+00	6.183772e+03	
21	1.050000e+00	6.670136e+03	
22	1.100000e+00	7.237801e+03	
23	1.150000e+00	7.909002e+03	
24	1.200000e+00	8.714882e+03	
25	1.250000e+00	9.700444e+03	
26	1.300000e+00	1.093318e+04	
27	1.350000e+00	1.251899e+04	
28	1.400000e+00	1.463349e+04	
29	1.450000e+00	1.758849e+04	
30	1.500000e+00	2.198445e+04	
31	1.550000e+00	2.908063e+04	
32	1.600000e+00	4.164592e+04	
33	1.650000e+00	6.518942e+04	
34	1.700000e+00	1.069401e+05	
35	1.750000e+00	1.699572e+05	
36	1.800000e+00	2.501441e+05	
37	1.850000e+00	3.405440e+05	
38	1.900000e+00	4.353306e+05	
39	1.950000e+00	5.306934e+05	
40	2.000000e+00	6.244012e+05	
41	2.050000e+00	7.152355e+05	
42	2.100000e+00	8.025847e+05	
43	2.150000e+00	8.861919e+05	
44	2.200000e+00	9.660053e+05	
45	2.250000e+00	1.042089e+06	
46	2.300000e+00	1.114573e+06	
47	2.350000e+00	1.183620e+06	
48	2.400000e+00	1.249407e+06	
49	2.450000e+00	1.312116e+06	
50	2.500000e+00	1.371925e+06	
51	2.550000e+00	1.429008e+06	
52	2.600000e+00	1.483528e+06	
53	2.650000e+00	1.535640e+06	
54	2.700000e+00	1.585491e+06	

Index   v-sweep         rds             
--------------------------------------------------------------------------------
55	2.750000e+00	1.633215e+06	
56	2.800000e+00	1.678940e+06	
57	2.850000e+00	1.722782e+06	
58	2.900000e+00	1.764852e+06	
59	2.950000e+00	1.805252e+06	
60	3.000000e+00	1.844075e+06	
61	3.050000e+00	1.881410e+06	
62	3.100000e+00	1.917336e+06	
63	3.150000e+00	1.951928e+06	
64	3.200000e+00	1.985253e+06	
65	3.250000e+00	2.017370e+06	
66	3.300000e+00	2.048332e+06	
Reset re-loads circuit ***************************

Circuit: ***************************

Doing analysis at TEMP = -40.000000 and TNOM = -40.000000


No. of Data Rows : 67
                          ***************************
                          DC transfer characteristic  Mon Jan  9 13:58:13  2023
--------------------------------------------------------------------------------
Index   v-sweep         rds             
--------------------------------------------------------------------------------
0	0.000000e+00	2.226324e+03	
1	5.000000e-02	2.281150e+03	
2	1.000000e-01	2.338593e+03	
3	1.500000e-01	2.398845e+03	
4	2.000000e-01	2.462117e+03	
5	2.500000e-01	2.528643e+03	
6	3.000000e-01	2.598680e+03	
7	3.500000e-01	2.672512e+03	
8	4.000000e-01	2.750457e+03	
9	4.500000e-01	2.832868e+03	
10	5.000000e-01	2.920141e+03	
11	5.500000e-01	3.012717e+03	
12	6.000000e-01	3.111095e+03	
13	6.500000e-01	3.215839e+03	
14	7.000000e-01	3.327587e+03	
15	7.500000e-01	3.447064e+03	
16	8.000000e-01	3.575102e+03	
17	8.500000e-01	3.712654e+03	
18	9.000000e-01	3.860821e+03	
19	9.500000e-01	4.020881e+03	
20	1.000000e+00	4.194326e+03	
21	1.050000e+00	4.382907e+03	
22	1.100000e+00	4.588695e+03	
23	1.150000e+00	4.814159e+03	
24	1.200000e+00	5.062261e+03	
25	1.250000e+00	5.336590e+03	
26	1.300000e+00	5.641538e+03	
27	1.350000e+00	5.982534e+03	
28	1.400000e+00	6.366370e+03	
29	1.450000e+00	6.801664e+03	
30	1.500000e+00	7.299509e+03	
31	1.550000e+00	7.874435e+03	
32	1.600000e+00	8.545854e+03	
33	1.650000e+00	9.340293e+03	
34	1.700000e+00	1.029499e+04	
35	1.750000e+00	1.146386e+04	
36	1.800000e+00	1.292804e+04	
37	1.850000e+00	1.481517e+04	
38	1.900000e+00	1.733737e+04	
39	1.950000e+00	2.087012e+04	
40	2.000000e+00	2.612304e+04	
41	2.050000e+00	3.449481e+04	
42	2.100000e+00	4.861823e+04	
43	2.150000e+00	7.237721e+04	
44	2.200000e+00	1.089182e+05	
45	2.250000e+00	1.580439e+05	
46	2.300000e+00	2.166528e+05	
47	2.350000e+00	2.810285e+05	
48	2.400000e+00	3.481815e+05	
49	2.450000e+00	4.160662e+05	
50	2.500000e+00	4.833846e+05	
51	2.550000e+00	5.493488e+05	
52	2.600000e+00	6.135001e+05	
53	2.650000e+00	6.755894e+05	
54	2.700000e+00	7.354992e+05	

Index   v-sweep         rds             
--------------------------------------------------------------------------------
55	2.750000e+00	7.931953e+05	
56	2.800000e+00	8.486950e+05	
57	2.850000e+00	9.020478e+05	
58	2.900000e+00	9.533225e+05	
59	2.950000e+00	1.002598e+06	
60	3.000000e+00	1.049960e+06	
61	3.050000e+00	1.095495e+06	
62	3.100000e+00	1.139288e+06	
63	3.150000e+00	1.181425e+06	
64	3.200000e+00	1.221986e+06	
65	3.250000e+00	1.261050e+06	
66	3.300000e+00	1.298691e+06	
Reset re-loads circuit ***************************

Circuit: ***************************

Note: No ".plot", ".print", or ".fourier" lines; no simulations run
