
Note: Compatibility modes selected: hs

Warning: m=xx on .subckt line will override multiplier m hierarchy!


Circuit: ***************************

Doing analysis at TEMP = 125.000000 and TNOM = 125.000000


No. of Data Rows : 67
                          ***************************
                          DC transfer characteristic  Mon Jan  9 13:58:14  2023
--------------------------------------------------------------------------------
Index   v-sweep         rds             
--------------------------------------------------------------------------------
0	0.000000e+00	2.265789e+04	
1	5.000000e-02	2.759386e+04	
2	1.000000e-01	3.466771e+04	
3	1.500000e-01	4.548591e+04	
4	2.000000e-01	6.329652e+04	
5	2.500000e-01	9.400542e+04	
6	3.000000e-01	1.433134e+05	
7	3.500000e-01	2.060446e+05	
8	4.000000e-01	2.674634e+05	
9	4.500000e-01	3.189484e+05	
10	5.000000e-01	3.598286e+05	
11	5.500000e-01	3.920796e+05	
12	6.000000e-01	4.177592e+05	
13	6.500000e-01	4.384654e+05	
14	7.000000e-01	4.553622e+05	
15	7.500000e-01	4.692934e+05	
16	8.000000e-01	4.808777e+05	
17	8.500000e-01	4.905770e+05	
18	9.000000e-01	4.987417e+05	
19	9.500000e-01	5.056424e+05	
20	1.000000e+00	5.114912e+05	
21	1.050000e+00	5.164562e+05	
22	1.100000e+00	5.206727e+05	
23	1.150000e+00	5.242508e+05	
24	1.200000e+00	5.272805e+05	
25	1.250000e+00	5.298365e+05	
26	1.300000e+00	5.319811e+05	
27	1.350000e+00	5.337667e+05	
28	1.400000e+00	5.352376e+05	
29	1.450000e+00	5.364315e+05	
30	1.500000e+00	5.373808e+05	
31	1.550000e+00	5.381134e+05	
32	1.600000e+00	5.386533e+05	
33	1.650000e+00	5.390214e+05	
34	1.700000e+00	5.392359e+05	
35	1.750000e+00	5.393129e+05	
36	1.800000e+00	5.392662e+05	
37	1.850000e+00	5.391081e+05	
38	1.900000e+00	5.388492e+05	
39	1.950000e+00	5.384985e+05	
40	2.000000e+00	5.380641e+05	
41	2.050000e+00	5.375521e+05	
42	2.100000e+00	5.369677e+05	
43	2.150000e+00	5.363145e+05	
44	2.200000e+00	5.355944e+05	
45	2.250000e+00	5.348076e+05	
46	2.300000e+00	5.339526e+05	
47	2.350000e+00	5.330256e+05	
48	2.400000e+00	5.320203e+05	
49	2.450000e+00	5.309281e+05	
50	2.500000e+00	5.297372e+05	
51	2.550000e+00	5.284328e+05	
52	2.600000e+00	5.269969e+05	
53	2.650000e+00	5.254077e+05	
54	2.700000e+00	5.236397e+05	

Index   v-sweep         rds             
--------------------------------------------------------------------------------
55	2.750000e+00	5.216640e+05	
56	2.800000e+00	5.194477e+05	
57	2.850000e+00	5.169545e+05	
58	2.900000e+00	5.141447e+05	
59	2.950000e+00	5.109759e+05	
60	3.000000e+00	5.074037e+05	
61	3.050000e+00	5.033822e+05	
62	3.100000e+00	4.988653e+05	
63	3.150000e+00	4.938079e+05	
64	3.200000e+00	4.881673e+05	
65	3.250000e+00	4.819050e+05	
66	3.300000e+00	4.749879e+05	
Reset re-loads circuit ***************************

Circuit: ***************************

Doing analysis at TEMP = 125.000000 and TNOM = 125.000000


No. of Data Rows : 67
                          ***************************
                          DC transfer characteristic  Mon Jan  9 13:58:14  2023
--------------------------------------------------------------------------------
Index   v-sweep         rds             
--------------------------------------------------------------------------------
0	0.000000e+00	9.346137e+03	
1	5.000000e-02	1.028365e+04	
2	1.000000e-01	1.136929e+04	
3	1.500000e-01	1.264020e+04	
4	2.000000e-01	1.414689e+04	
5	2.500000e-01	1.595973e+04	
6	3.000000e-01	1.817931e+04	
7	3.500000e-01	2.095342e+04	
8	4.000000e-01	2.450451e+04	
9	4.500000e-01	2.917107e+04	
10	5.000000e-01	3.545156e+04	
11	5.500000e-01	4.398143e+04	
12	6.000000e-01	5.527660e+04	
13	6.500000e-01	6.922931e+04	
14	7.000000e-01	8.491697e+04	
15	7.500000e-01	1.011086e+05	
16	8.000000e-01	1.168465e+05	
17	8.500000e-01	1.316023e+05	
18	9.000000e-01	1.451682e+05	
19	9.500000e-01	1.575181e+05	
20	1.000000e+00	1.687128e+05	
21	1.050000e+00	1.788485e+05	
22	1.100000e+00	1.880304e+05	
23	1.150000e+00	1.963608e+05	
24	1.200000e+00	2.039338e+05	
25	1.250000e+00	2.108335e+05	
26	1.300000e+00	2.171345e+05	
27	1.350000e+00	2.229021e+05	
28	1.400000e+00	2.281934e+05	
29	1.450000e+00	2.330584e+05	
30	1.500000e+00	2.375406e+05	
31	1.550000e+00	2.416784e+05	
32	1.600000e+00	2.455054e+05	
33	1.650000e+00	2.490511e+05	
34	1.700000e+00	2.523416e+05	
35	1.750000e+00	2.554001e+05	
36	1.800000e+00	2.582470e+05	
37	1.850000e+00	2.609006e+05	
38	1.900000e+00	2.633771e+05	
39	1.950000e+00	2.656911e+05	
40	2.000000e+00	2.678557e+05	
41	2.050000e+00	2.698823e+05	
42	2.100000e+00	2.717816e+05	
43	2.150000e+00	2.735628e+05	
44	2.200000e+00	2.752340e+05	
45	2.250000e+00	2.768026e+05	
46	2.300000e+00	2.782747e+05	
47	2.350000e+00	2.796551e+05	
48	2.400000e+00	2.809477e+05	
49	2.450000e+00	2.821548e+05	
50	2.500000e+00	2.832774e+05	
51	2.550000e+00	2.843143e+05	
52	2.600000e+00	2.852627e+05	
53	2.650000e+00	2.861170e+05	
54	2.700000e+00	2.868694e+05	

Index   v-sweep         rds             
--------------------------------------------------------------------------------
55	2.750000e+00	2.875088e+05	
56	2.800000e+00	2.880208e+05	
57	2.850000e+00	2.883876e+05	
58	2.900000e+00	2.885875e+05	
59	2.950000e+00	2.885948e+05	
60	3.000000e+00	2.883797e+05	
61	3.050000e+00	2.879088e+05	
62	3.100000e+00	2.871450e+05	
63	3.150000e+00	2.860482e+05	
64	3.200000e+00	2.845761e+05	
65	3.250000e+00	2.826854e+05	
66	3.300000e+00	2.803331e+05	
Reset re-loads circuit ***************************

Circuit: ***************************

Doing analysis at TEMP = 125.000000 and TNOM = 125.000000


No. of Data Rows : 67
                          ***************************
                          DC transfer characteristic  Mon Jan  9 13:58:14  2023
--------------------------------------------------------------------------------
Index   v-sweep         rds             
--------------------------------------------------------------------------------
0	0.000000e+00	6.539676e+03	
1	5.000000e-02	7.004177e+03	
2	1.000000e-01	7.515828e+03	
3	1.500000e-01	8.081927e+03	
4	2.000000e-01	8.711362e+03	
5	2.500000e-01	9.415087e+03	
6	3.000000e-01	1.020675e+04	
7	3.500000e-01	1.110361e+04	
8	4.000000e-01	1.212781e+04	
9	4.500000e-01	1.330828e+04	
10	5.000000e-01	1.468366e+04	
11	5.500000e-01	1.630681e+04	
12	6.000000e-01	1.825206e+04	
13	6.500000e-01	2.062641e+04	
14	7.000000e-01	2.358536e+04	
15	7.500000e-01	2.734678e+04	
16	8.000000e-01	3.217710e+04	
17	8.500000e-01	3.830450e+04	
18	9.000000e-01	4.576529e+04	
19	9.500000e-01	5.431892e+04	
20	1.000000e+00	6.354203e+04	
21	1.050000e+00	7.300258e+04	
22	1.100000e+00	8.236782e+04	
23	1.150000e+00	9.142375e+04	
24	1.200000e+00	1.000515e+05	
25	1.250000e+00	1.081966e+05	
26	1.300000e+00	1.158444e+05	
27	1.350000e+00	1.230034e+05	
28	1.400000e+00	1.296946e+05	
29	1.450000e+00	1.359454e+05	
30	1.500000e+00	1.417854e+05	
31	1.550000e+00	1.472446e+05	
32	1.600000e+00	1.523521e+05	
33	1.650000e+00	1.571351e+05	
34	1.700000e+00	1.616191e+05	
35	1.750000e+00	1.658277e+05	
36	1.800000e+00	1.697824e+05	
37	1.850000e+00	1.735029e+05	
38	1.900000e+00	1.770071e+05	
39	1.950000e+00	1.803114e+05	
40	2.000000e+00	1.834307e+05	
41	2.050000e+00	1.863785e+05	
42	2.100000e+00	1.891671e+05	
43	2.150000e+00	1.918079e+05	
44	2.200000e+00	1.943111e+05	
45	2.250000e+00	1.966860e+05	
46	2.300000e+00	1.989412e+05	
47	2.350000e+00	2.010843e+05	
48	2.400000e+00	2.031223e+05	
49	2.450000e+00	2.050614e+05	
50	2.500000e+00	2.069068e+05	
51	2.550000e+00	2.086631e+05	
52	2.600000e+00	2.103335e+05	
53	2.650000e+00	2.119204e+05	
54	2.700000e+00	2.134247e+05	

Index   v-sweep         rds             
--------------------------------------------------------------------------------
55	2.750000e+00	2.148454e+05	
56	2.800000e+00	2.161801e+05	
57	2.850000e+00	2.174237e+05	
58	2.900000e+00	2.185686e+05	
59	2.950000e+00	2.196043e+05	
60	3.000000e+00	2.205168e+05	
61	3.050000e+00	2.212885e+05	
62	3.100000e+00	2.218976e+05	
63	3.150000e+00	2.223182e+05	
64	3.200000e+00	2.225201e+05	
65	3.250000e+00	2.224689e+05	
66	3.300000e+00	2.221264e+05	
Reset re-loads circuit ***************************

Circuit: ***************************

Doing analysis at TEMP = 125.000000 and TNOM = 125.000000


No. of Data Rows : 67
                          ***************************
                          DC transfer characteristic  Mon Jan  9 13:58:14  2023
--------------------------------------------------------------------------------
Index   v-sweep         rds             
--------------------------------------------------------------------------------
0	0.000000e+00	5.116455e+03	
1	5.000000e-02	5.399746e+03	
2	1.000000e-01	5.703993e+03	
3	1.500000e-01	6.031489e+03	
4	2.000000e-01	6.384881e+03	
5	2.500000e-01	6.767236e+03	
6	3.000000e-01	7.182137e+03	
7	3.500000e-01	7.633796e+03	
8	4.000000e-01	8.127202e+03	
9	4.500000e-01	8.668319e+03	
10	5.000000e-01	9.264356e+03	
11	5.500000e-01	9.924129e+03	
12	6.000000e-01	1.065860e+04	
13	6.500000e-01	1.148163e+04	
14	7.000000e-01	1.241120e+04	
15	7.500000e-01	1.347125e+04	
16	8.000000e-01	1.469478e+04	
17	8.500000e-01	1.612864e+04	
18	9.000000e-01	1.784107e+04	
19	9.500000e-01	1.993095e+04	
20	1.000000e+00	2.253343e+04	
21	1.050000e+00	2.580687e+04	
22	1.100000e+00	2.988424e+04	
23	1.150000e+00	3.480178e+04	
24	1.200000e+00	4.046124e+04	
25	1.250000e+00	4.666337e+04	
26	1.300000e+00	5.317967e+04	
27	1.350000e+00	5.980851e+04	
28	1.400000e+00	6.639751e+04	
29	1.450000e+00	7.284290e+04	
30	1.500000e+00	7.907963e+04	
31	1.550000e+00	8.507064e+04	
32	1.600000e+00	9.079792e+04	
33	1.650000e+00	9.625595e+04	
34	1.700000e+00	1.014472e+05	
35	1.750000e+00	1.063790e+05	
36	1.800000e+00	1.110618e+05	
37	1.850000e+00	1.155071e+05	
38	1.900000e+00	1.197277e+05	
39	1.950000e+00	1.237361e+05	
40	2.000000e+00	1.275447e+05	
41	2.050000e+00	1.311655e+05	
42	2.100000e+00	1.346098e+05	
43	2.150000e+00	1.378886e+05	
44	2.200000e+00	1.410118e+05	
45	2.250000e+00	1.439891e+05	
46	2.300000e+00	1.468293e+05	
47	2.350000e+00	1.495406e+05	
48	2.400000e+00	1.521307e+05	
49	2.450000e+00	1.546068e+05	
50	2.500000e+00	1.569755e+05	
51	2.550000e+00	1.592427e+05	
52	2.600000e+00	1.614142e+05	
53	2.650000e+00	1.634948e+05	
54	2.700000e+00	1.654891e+05	

Index   v-sweep         rds             
--------------------------------------------------------------------------------
55	2.750000e+00	1.674007e+05	
56	2.800000e+00	1.692325e+05	
57	2.850000e+00	1.709865e+05	
58	2.900000e+00	1.726636e+05	
59	2.950000e+00	1.742631e+05	
60	3.000000e+00	1.757826e+05	
61	3.050000e+00	1.772177e+05	
62	3.100000e+00	1.785615e+05	
63	3.150000e+00	1.798041e+05	
64	3.200000e+00	1.809323e+05	
65	3.250000e+00	1.819292e+05	
66	3.300000e+00	1.827738e+05	
Reset re-loads circuit ***************************

Circuit: ***************************

Doing analysis at TEMP = 125.000000 and TNOM = 125.000000


No. of Data Rows : 67
                          ***************************
                          DC transfer characteristic  Mon Jan  9 13:58:14  2023
--------------------------------------------------------------------------------
Index   v-sweep         rds             
--------------------------------------------------------------------------------
0	0.000000e+00	4.332912e+03	
1	5.000000e-02	4.532438e+03	
2	1.000000e-01	4.743694e+03	
3	1.500000e-01	4.967679e+03	
4	2.000000e-01	5.205507e+03	
5	2.500000e-01	5.458432e+03	
6	3.000000e-01	5.727866e+03	
7	3.500000e-01	6.015407e+03	
8	4.000000e-01	6.322872e+03	
9	4.500000e-01	6.652338e+03	
10	5.000000e-01	7.006193e+03	
11	5.500000e-01	7.387201e+03	
12	6.000000e-01	7.798589e+03	
13	6.500000e-01	8.244158e+03	
14	7.000000e-01	8.728438e+03	
15	7.500000e-01	9.256909e+03	
16	8.000000e-01	9.836318e+03	
17	8.500000e-01	1.047516e+04	
18	9.000000e-01	1.118441e+04	
19	9.500000e-01	1.197875e+04	
20	1.000000e+00	1.287842e+04	
21	1.050000e+00	1.391235e+04	
22	1.100000e+00	1.512264e+04	
23	1.150000e+00	1.657039e+04	
24	1.200000e+00	1.834046e+04	
25	1.250000e+00	2.053829e+04	
26	1.300000e+00	2.326981e+04	
27	1.350000e+00	2.660343e+04	
28	1.400000e+00	3.053467e+04	
29	1.450000e+00	3.498124e+04	
30	1.500000e+00	3.981155e+04	
31	1.550000e+00	4.488307e+04	
32	1.600000e+00	5.006912e+04	
33	1.650000e+00	5.526991e+04	
34	1.700000e+00	6.041275e+04	
35	1.750000e+00	6.544778e+04	
36	1.800000e+00	7.034262e+04	
37	1.850000e+00	7.507764e+04	
38	1.900000e+00	7.964226e+04	
39	1.950000e+00	8.403210e+04	
40	2.000000e+00	8.824706e+04	
41	2.050000e+00	9.228988e+04	
42	2.100000e+00	9.616513e+04	
43	2.150000e+00	9.987855e+04	
44	2.200000e+00	1.034365e+05	
45	2.250000e+00	1.068458e+05	
46	2.300000e+00	1.101132e+05	
47	2.350000e+00	1.132455e+05	
48	2.400000e+00	1.162494e+05	
49	2.450000e+00	1.191313e+05	
50	2.500000e+00	1.218973e+05	
51	2.550000e+00	1.245535e+05	
52	2.600000e+00	1.271053e+05	
53	2.650000e+00	1.295581e+05	
54	2.700000e+00	1.319168e+05	

Index   v-sweep         rds             
--------------------------------------------------------------------------------
55	2.750000e+00	1.341861e+05	
56	2.800000e+00	1.363703e+05	
57	2.850000e+00	1.384732e+05	
58	2.900000e+00	1.404985e+05	
59	2.950000e+00	1.424490e+05	
60	3.000000e+00	1.443270e+05	
61	3.050000e+00	1.461340e+05	
62	3.100000e+00	1.478704e+05	
63	3.150000e+00	1.495354e+05	
64	3.200000e+00	1.511263e+05	
65	3.250000e+00	1.526389e+05	
66	3.300000e+00	1.540660e+05	
Reset re-loads circuit ***************************

Circuit: ***************************

Doing analysis at TEMP = 125.000000 and TNOM = 125.000000


No. of Data Rows : 67
                          ***************************
                          DC transfer characteristic  Mon Jan  9 13:58:14  2023
--------------------------------------------------------------------------------
Index   v-sweep         rds             
--------------------------------------------------------------------------------
0	0.000000e+00	3.843728e+03	
1	5.000000e-02	3.996791e+03	
2	1.000000e-01	4.157390e+03	
3	1.500000e-01	4.326050e+03	
4	2.000000e-01	4.503351e+03	
5	2.500000e-01	4.689928e+03	
6	3.000000e-01	4.886482e+03	
7	3.500000e-01	5.093789e+03	
8	4.000000e-01	5.312710e+03	
9	4.500000e-01	5.544204e+03	
10	5.000000e-01	5.789341e+03	
11	5.500000e-01	6.049323e+03	
12	6.000000e-01	6.325506e+03	
13	6.500000e-01	6.619425e+03	
14	7.000000e-01	6.932834e+03	
15	7.500000e-01	7.267750e+03	
16	8.000000e-01	7.626517e+03	
17	8.500000e-01	8.011884e+03	
18	9.000000e-01	8.427132e+03	
19	9.500000e-01	8.876238e+03	
20	1.000000e+00	9.364135e+03	
21	1.050000e+00	9.897099e+03	
22	1.100000e+00	1.048336e+04	
23	1.150000e+00	1.113407e+04	
24	1.200000e+00	1.186481e+04	
25	1.250000e+00	1.269797e+04	
26	1.300000e+00	1.366599e+04	
27	1.350000e+00	1.481543e+04	
28	1.400000e+00	1.620986e+04	
29	1.450000e+00	1.792766e+04	
30	1.500000e+00	2.004944e+04	
31	1.550000e+00	2.263430e+04	
32	1.600000e+00	2.569571e+04	
33	1.650000e+00	2.919318e+04	
34	1.700000e+00	3.304507e+04	
35	1.750000e+00	3.715205e+04	
36	1.800000e+00	4.141750e+04	
37	1.850000e+00	4.575890e+04	
38	1.900000e+00	5.011137e+04	
39	1.950000e+00	5.442668e+04	
40	2.000000e+00	5.867048e+04	
41	2.050000e+00	6.281928e+04	
42	2.100000e+00	6.685775e+04	
43	2.150000e+00	7.077650e+04	
44	2.200000e+00	7.457052e+04	
45	2.250000e+00	7.823783e+04	
46	2.300000e+00	8.177867e+04	
47	2.350000e+00	8.519478e+04	
48	2.400000e+00	8.848895e+04	
49	2.450000e+00	9.166463e+04	
50	2.500000e+00	9.472572e+04	
51	2.550000e+00	9.767638e+04	
52	2.600000e+00	1.005209e+05	
53	2.650000e+00	1.032635e+05	
54	2.700000e+00	1.059085e+05	

Index   v-sweep         rds             
--------------------------------------------------------------------------------
55	2.750000e+00	1.084601e+05	
56	2.800000e+00	1.109222e+05	
57	2.850000e+00	1.132989e+05	
58	2.900000e+00	1.155937e+05	
59	2.950000e+00	1.178103e+05	
60	3.000000e+00	1.199520e+05	
61	3.050000e+00	1.220217e+05	
62	3.100000e+00	1.240221e+05	
63	3.150000e+00	1.259554e+05	
64	3.200000e+00	1.278233e+05	
65	3.250000e+00	1.296266e+05	
66	3.300000e+00	1.313652e+05	
Reset re-loads circuit ***************************

Circuit: ***************************

Note: No ".plot", ".print", or ".fourier" lines; no simulations run
