
Note: Compatibility modes selected: hs

Warning: m=xx on .subckt line will override multiplier m hierarchy!


Circuit: ***************************

Doing analysis at TEMP = 125.000000 and TNOM = 125.000000


No. of Data Rows : 67
                          ***************************
                          DC transfer characteristic  Mon Jan  9 13:58:14  2023
--------------------------------------------------------------------------------
Index   v-sweep         rds             
--------------------------------------------------------------------------------
0	0.000000e+00	2.558822e+03	
1	5.000000e-02	3.306477e+03	
2	1.000000e-01	4.577985e+03	
3	1.500000e-01	7.118878e+03	
4	2.000000e-01	1.335576e+04	
5	2.500000e-01	2.958912e+04	
6	3.000000e-01	6.014484e+04	
7	3.500000e-01	9.759428e+04	
8	4.000000e-01	1.336299e+05	
9	4.500000e-01	1.654399e+05	
10	5.000000e-01	1.929371e+05	
11	5.500000e-01	2.167181e+05	
12	6.000000e-01	2.374222e+05	
13	6.500000e-01	2.555899e+05	
14	7.000000e-01	2.716533e+05	
15	7.500000e-01	2.859545e+05	
16	8.000000e-01	2.987654e+05	
17	8.500000e-01	3.103046e+05	
18	9.000000e-01	3.207496e+05	
19	9.500000e-01	3.302459e+05	
20	1.000000e+00	3.389142e+05	
21	1.050000e+00	3.468551e+05	
22	1.100000e+00	3.541536e+05	
23	1.150000e+00	3.608820e+05	
24	1.200000e+00	3.671019e+05	
25	1.250000e+00	3.728664e+05	
26	1.300000e+00	3.782213e+05	
27	1.350000e+00	3.832067e+05	
28	1.400000e+00	3.878574e+05	
29	1.450000e+00	3.922040e+05	
30	1.500000e+00	3.962737e+05	
31	1.550000e+00	4.000902e+05	
32	1.600000e+00	4.036748e+05	
33	1.650000e+00	4.070464e+05	
34	1.700000e+00	4.102215e+05	
35	1.750000e+00	4.132152e+05	
36	1.800000e+00	4.160404e+05	
37	1.850000e+00	4.187085e+05	
38	1.900000e+00	4.212292e+05	
39	1.950000e+00	4.236102e+05	
40	2.000000e+00	4.258574e+05	
41	2.050000e+00	4.279746e+05	
42	2.100000e+00	4.299629e+05	
43	2.150000e+00	4.318207e+05	
44	2.200000e+00	4.335431e+05	
45	2.250000e+00	4.351213e+05	
46	2.300000e+00	4.365424e+05	
47	2.350000e+00	4.377884e+05	
48	2.400000e+00	4.388362e+05	
49	2.450000e+00	4.396567e+05	
50	2.500000e+00	4.402148e+05	
51	2.550000e+00	4.404686e+05	
52	2.600000e+00	4.403700e+05	
53	2.650000e+00	4.398646e+05	
54	2.700000e+00	4.388921e+05	

Index   v-sweep         rds             
--------------------------------------------------------------------------------
55	2.750000e+00	4.373875e+05	
56	2.800000e+00	4.352824e+05	
57	2.850000e+00	4.325071e+05	
58	2.900000e+00	4.289927e+05	
59	2.950000e+00	4.246739e+05	
60	3.000000e+00	4.194927e+05	
61	3.050000e+00	4.134014e+05	
62	3.100000e+00	4.063662e+05	
63	3.150000e+00	3.983706e+05	
64	3.200000e+00	3.894180e+05	
65	3.250000e+00	3.795333e+05	
66	3.300000e+00	3.687642e+05	
Reset re-loads circuit ***************************

Circuit: ***************************

Doing analysis at TEMP = 125.000000 and TNOM = 125.000000


No. of Data Rows : 67
                          ***************************
                          DC transfer characteristic  Mon Jan  9 13:58:14  2023
--------------------------------------------------------------------------------
Index   v-sweep         rds             
--------------------------------------------------------------------------------
0	0.000000e+00	7.873071e+02	
1	5.000000e-02	8.663357e+02	
2	1.000000e-01	9.593756e+02	
3	1.500000e-01	1.070474e+03	
4	2.000000e-01	1.205398e+03	
5	2.500000e-01	1.372648e+03	
6	3.000000e-01	1.585271e+03	
7	3.500000e-01	1.864292e+03	
8	4.000000e-01	2.245556e+03	
9	4.500000e-01	2.794031e+03	
10	5.000000e-01	3.632928e+03	
11	5.500000e-01	4.989187e+03	
12	6.000000e-01	7.194751e+03	
13	6.500000e-01	1.049389e+04	
14	7.000000e-01	1.478407e+04	
15	7.500000e-01	1.970325e+04	
16	8.000000e-01	2.489568e+04	
17	8.500000e-01	3.012251e+04	
18	9.000000e-01	3.524803e+04	
19	9.500000e-01	4.020209e+04	
20	1.000000e+00	4.495206e+04	
21	1.050000e+00	4.948609e+04	
22	1.100000e+00	5.380365e+04	
23	1.150000e+00	5.791033e+04	
24	1.200000e+00	6.181481e+04	
25	1.250000e+00	6.552729e+04	
26	1.300000e+00	6.905846e+04	
27	1.350000e+00	7.241902e+04	
28	1.400000e+00	7.561933e+04	
29	1.450000e+00	7.866928e+04	
30	1.500000e+00	8.157818e+04	
31	1.550000e+00	8.435479e+04	
32	1.600000e+00	8.700725e+04	
33	1.650000e+00	8.954316e+04	
34	1.700000e+00	9.196956e+04	
35	1.750000e+00	9.429301e+04	
36	1.800000e+00	9.651958e+04	
37	1.850000e+00	9.865489e+04	
38	1.900000e+00	1.007042e+05	
39	1.950000e+00	1.026723e+05	
40	2.000000e+00	1.045636e+05	
41	2.050000e+00	1.063823e+05	
42	2.100000e+00	1.081321e+05	
43	2.150000e+00	1.098164e+05	
44	2.200000e+00	1.114379e+05	
45	2.250000e+00	1.129991e+05	
46	2.300000e+00	1.145016e+05	
47	2.350000e+00	1.159463e+05	
48	2.400000e+00	1.173331e+05	
49	2.450000e+00	1.186607e+05	
50	2.500000e+00	1.199261e+05	
51	2.550000e+00	1.211246e+05	
52	2.600000e+00	1.222491e+05	
53	2.650000e+00	1.232899e+05	
54	2.700000e+00	1.242344e+05	

Index   v-sweep         rds             
--------------------------------------------------------------------------------
55	2.750000e+00	1.250663e+05	
56	2.800000e+00	1.257660e+05	
57	2.850000e+00	1.263096e+05	
58	2.900000e+00	1.266696e+05	
59	2.950000e+00	1.268149e+05	
60	3.000000e+00	1.267110e+05	
61	3.050000e+00	1.263216e+05	
62	3.100000e+00	1.256095e+05	
63	3.150000e+00	1.245387e+05	
64	3.200000e+00	1.230765e+05	
65	3.250000e+00	1.211960e+05	
66	3.300000e+00	1.188791e+05	
Reset re-loads circuit ***************************

Circuit: ***************************

Doing analysis at TEMP = 125.000000 and TNOM = 125.000000


No. of Data Rows : 67
                          ***************************
                          DC transfer characteristic  Mon Jan  9 13:58:14  2023
--------------------------------------------------------------------------------
Index   v-sweep         rds             
--------------------------------------------------------------------------------
0	0.000000e+00	5.051475e+02	
1	5.000000e-02	5.380241e+02	
2	1.000000e-01	5.742996e+02	
3	1.500000e-01	6.145207e+02	
4	2.000000e-01	6.593583e+02	
5	2.500000e-01	7.096455e+02	
6	3.000000e-01	7.664300e+02	
7	3.500000e-01	8.310482e+02	
8	4.000000e-01	9.052341e+02	
9	4.500000e-01	9.912811e+02	
10	5.000000e-01	1.092292e+03	
11	5.500000e-01	1.212583e+03	
12	6.000000e-01	1.358355e+03	
13	6.500000e-01	1.538885e+03	
14	7.000000e-01	1.768702e+03	
15	7.500000e-01	2.071676e+03	
16	8.000000e-01	2.488247e+03	
17	8.500000e-01	3.085061e+03	
18	9.000000e-01	3.956112e+03	
19	9.500000e-01	5.191463e+03	
20	1.000000e+00	6.819328e+03	
21	1.050000e+00	8.785866e+03	
22	1.100000e+00	1.099421e+04	
23	1.150000e+00	1.334939e+04	
24	1.200000e+00	1.577769e+04	
25	1.250000e+00	1.822765e+04	
26	1.300000e+00	2.066512e+04	
27	1.350000e+00	2.306810e+04	
28	1.400000e+00	2.542273e+04	
29	1.450000e+00	2.772057e+04	
30	1.500000e+00	2.995679e+04	
31	1.550000e+00	3.212897e+04	
32	1.600000e+00	3.423626e+04	
33	1.650000e+00	3.627892e+04	
34	1.700000e+00	3.825788e+04	
35	1.750000e+00	4.017458e+04	
36	1.800000e+00	4.203072e+04	
37	1.850000e+00	4.382820e+04	
38	1.900000e+00	4.556901e+04	
39	1.950000e+00	4.725519e+04	
40	2.000000e+00	4.888877e+04	
41	2.050000e+00	5.047179e+04	
42	2.100000e+00	5.200620e+04	
43	2.150000e+00	5.349392e+04	
44	2.200000e+00	5.493680e+04	
45	2.250000e+00	5.633662e+04	
46	2.300000e+00	5.769506e+04	
47	2.350000e+00	5.901371e+04	
48	2.400000e+00	6.029401e+04	
49	2.450000e+00	6.153727e+04	
50	2.500000e+00	6.274458e+04	
51	2.550000e+00	6.391675e+04	
52	2.600000e+00	6.505418e+04	
53	2.650000e+00	6.615679e+04	
54	2.700000e+00	6.722380e+04	

Index   v-sweep         rds             
--------------------------------------------------------------------------------
55	2.750000e+00	6.825353e+04	
56	2.800000e+00	6.924318e+04	
57	2.850000e+00	7.018850e+04	
58	2.900000e+00	7.108349e+04	
59	2.950000e+00	7.192004e+04	
60	3.000000e+00	7.268761e+04	
61	3.050000e+00	7.337287e+04	
62	3.100000e+00	7.395946e+04	
63	3.150000e+00	7.442785e+04	
64	3.200000e+00	7.475538e+04	
65	3.250000e+00	7.491657e+04	
66	3.300000e+00	7.488373e+04	
Reset re-loads circuit ***************************

Circuit: ***************************

Doing analysis at TEMP = 125.000000 and TNOM = 125.000000


No. of Data Rows : 67
                          ***************************
                          DC transfer characteristic  Mon Jan  9 13:58:14  2023
--------------------------------------------------------------------------------
Index   v-sweep         rds             
--------------------------------------------------------------------------------
0	0.000000e+00	3.939257e+02	
1	5.000000e-02	4.134384e+02	
2	1.000000e-01	4.343942e+02	
3	1.500000e-01	4.569551e+02	
4	2.000000e-01	4.813086e+02	
5	2.500000e-01	5.076726e+02	
6	3.000000e-01	5.363022e+02	
7	3.500000e-01	5.674980e+02	
8	4.000000e-01	6.016167e+02	
9	4.500000e-01	6.390856e+02	
10	5.000000e-01	6.804205e+02	
11	5.500000e-01	7.262514e+02	
12	6.000000e-01	7.773569e+02	
13	6.500000e-01	8.347130e+02	
14	7.000000e-01	8.995641e+02	
15	7.500000e-01	9.735296e+02	
16	8.000000e-01	1.058771e+03	
17	8.500000e-01	1.158262e+03	
18	9.000000e-01	1.276259e+03	
19	9.500000e-01	1.419120e+03	
20	1.000000e+00	1.596800e+03	
21	1.050000e+00	1.825445e+03	
22	1.100000e+00	2.131216e+03	
23	1.150000e+00	2.553466e+03	
24	1.200000e+00	3.140821e+03	
25	1.250000e+00	3.933767e+03	
26	1.300000e+00	4.943067e+03	
27	1.350000e+00	6.145390e+03	
28	1.400000e+00	7.498093e+03	
29	1.450000e+00	8.956157e+03	
30	1.500000e+00	1.048122e+04	
31	1.550000e+00	1.204378e+04	
32	1.600000e+00	1.362224e+04	
33	1.650000e+00	1.520118e+04	
34	1.700000e+00	1.676976e+04	
35	1.750000e+00	1.832041e+04	
36	1.800000e+00	1.984790e+04	
37	1.850000e+00	2.134869e+04	
38	1.900000e+00	2.282045e+04	
39	1.950000e+00	2.426173e+04	
40	2.000000e+00	2.567170e+04	
41	2.050000e+00	2.704998e+04	
42	2.100000e+00	2.839656e+04	
43	2.150000e+00	2.971165e+04	
44	2.200000e+00	3.099563e+04	
45	2.250000e+00	3.224905e+04	
46	2.300000e+00	3.347249e+04	
47	2.350000e+00	3.466665e+04	
48	2.400000e+00	3.583223e+04	
49	2.450000e+00	3.696996e+04	
50	2.500000e+00	3.808061e+04	
51	2.550000e+00	3.916490e+04	
52	2.600000e+00	4.022357e+04	
53	2.650000e+00	4.125729e+04	
54	2.700000e+00	4.226669e+04	

Index   v-sweep         rds             
--------------------------------------------------------------------------------
55	2.750000e+00	4.325228e+04	
56	2.800000e+00	4.421442e+04	
57	2.850000e+00	4.515326e+04	
58	2.900000e+00	4.606861e+04	
59	2.950000e+00	4.695983e+04	
60	3.000000e+00	4.782567e+04	
61	3.050000e+00	4.866405e+04	
62	3.100000e+00	4.947188e+04	
63	3.150000e+00	5.024471e+04	
64	3.200000e+00	5.097646e+04	
65	3.250000e+00	5.165914e+04	
66	3.300000e+00	5.228247e+04	
Reset re-loads circuit ***************************

Circuit: ***************************

Doing analysis at TEMP = 125.000000 and TNOM = 125.000000


No. of Data Rows : 67
                          ***************************
                          DC transfer characteristic  Mon Jan  9 13:58:14  2023
--------------------------------------------------------------------------------
Index   v-sweep         rds             
--------------------------------------------------------------------------------
0	0.000000e+00	3.367841e+02	
1	5.000000e-02	3.504222e+02	
2	1.000000e-01	3.648525e+02	
3	1.500000e-01	3.801436e+02	
4	2.000000e-01	3.963725e+02	
5	2.500000e-01	4.136259e+02	
6	3.000000e-01	4.320011e+02	
7	3.500000e-01	4.516088e+02	
8	4.000000e-01	4.725745e+02	
9	4.500000e-01	4.950420e+02	
10	5.000000e-01	5.191759e+02	
11	5.500000e-01	5.451666e+02	
12	6.000000e-01	5.732351e+02	
13	6.500000e-01	6.036398e+02	
14	7.000000e-01	6.366852e+02	
15	7.500000e-01	6.727331e+02	
16	8.000000e-01	7.122181e+02	
17	8.500000e-01	7.556682e+02	
18	9.000000e-01	8.037344e+02	
19	9.500000e-01	8.572335e+02	
20	1.000000e+00	9.172128e+02	
21	1.050000e+00	9.850520e+02	
22	1.100000e+00	1.062629e+03	
23	1.150000e+00	1.152600e+03	
24	1.200000e+00	1.258891e+03	
25	1.250000e+00	1.387550e+03	
26	1.300000e+00	1.548153e+03	
27	1.350000e+00	1.755839e+03	
28	1.400000e+00	2.033153e+03	
29	1.450000e+00	2.409133e+03	
30	1.500000e+00	2.912265e+03	
31	1.550000e+00	3.558922e+03	
32	1.600000e+00	4.346255e+03	
33	1.650000e+00	5.255393e+03	
34	1.700000e+00	6.260252e+03	
35	1.750000e+00	7.334898e+03	
36	1.800000e+00	8.457141e+03	
37	1.850000e+00	9.609390e+03	
38	1.900000e+00	1.077823e+04	
39	1.950000e+00	1.195362e+04	
40	2.000000e+00	1.312814e+04	
41	2.050000e+00	1.429632e+04	
42	2.100000e+00	1.545413e+04	
43	2.150000e+00	1.659867e+04	
44	2.200000e+00	1.772781e+04	
45	2.250000e+00	1.884006e+04	
46	2.300000e+00	1.993436e+04	
47	2.350000e+00	2.101003e+04	
48	2.400000e+00	2.206663e+04	
49	2.450000e+00	2.310394e+04	
50	2.500000e+00	2.412189e+04	
51	2.550000e+00	2.512052e+04	
52	2.600000e+00	2.609996e+04	
53	2.650000e+00	2.706044e+04	
54	2.700000e+00	2.800219e+04	

Index   v-sweep         rds             
--------------------------------------------------------------------------------
55	2.750000e+00	2.892553e+04	
56	2.800000e+00	2.983076e+04	
57	2.850000e+00	3.071822e+04	
58	2.900000e+00	3.158821e+04	
59	2.950000e+00	3.244105e+04	
60	3.000000e+00	3.327695e+04	
61	3.050000e+00	3.409606e+04	
62	3.100000e+00	3.489834e+04	
63	3.150000e+00	3.568354e+04	
64	3.200000e+00	3.645105e+04	
65	3.250000e+00	3.719979e+04	
66	3.300000e+00	3.792801e+04	
Reset re-loads circuit ***************************

Circuit: ***************************

Doing analysis at TEMP = 125.000000 and TNOM = 125.000000


No. of Data Rows : 67
                          ***************************
                          DC transfer characteristic  Mon Jan  9 13:58:14  2023
--------------------------------------------------------------------------------
Index   v-sweep         rds             
--------------------------------------------------------------------------------
0	0.000000e+00	3.027585e+02	
1	5.000000e-02	3.131751e+02	
2	1.000000e-01	3.240918e+02	
3	1.500000e-01	3.355440e+02	
4	2.000000e-01	3.475704e+02	
5	2.500000e-01	3.602140e+02	
6	3.000000e-01	3.735217e+02	
7	3.500000e-01	3.875459e+02	
8	4.000000e-01	4.023442e+02	
9	4.500000e-01	4.179809e+02	
10	5.000000e-01	4.345278e+02	
11	5.500000e-01	4.520649e+02	
12	6.000000e-01	4.706823e+02	
13	6.500000e-01	4.904815e+02	
14	7.000000e-01	5.115775e+02	
15	7.500000e-01	5.341009e+02	
16	8.000000e-01	5.582012e+02	
17	8.500000e-01	5.840504e+02	
18	9.000000e-01	6.118475e+02	
19	9.500000e-01	6.418249e+02	
20	1.000000e+00	6.742559e+02	
21	1.050000e+00	7.094664e+02	
22	1.100000e+00	7.478491e+02	
23	1.150000e+00	7.898850e+02	
24	1.200000e+00	8.361757e+02	
25	1.250000e+00	8.874909e+02	
26	1.300000e+00	9.448447e+02	
27	1.350000e+00	1.009621e+03	
28	1.400000e+00	1.083779e+03	
29	1.450000e+00	1.170209e+03	
30	1.500000e+00	1.273318e+03	
31	1.550000e+00	1.399954e+03	
32	1.600000e+00	1.560658e+03	
33	1.650000e+00	1.770753e+03	
34	1.700000e+00	2.049910e+03	
35	1.750000e+00	2.418372e+03	
36	1.800000e+00	2.890254e+03	
37	1.850000e+00	3.468168e+03	
38	1.900000e+00	4.143263e+03	
39	1.950000e+00	4.899707e+03	
40	2.000000e+00	5.719699e+03	
41	2.050000e+00	6.586699e+03	
42	2.100000e+00	7.486761e+03	
43	2.150000e+00	8.408725e+03	
44	2.200000e+00	9.343895e+03	
45	2.250000e+00	1.028560e+04	
46	2.300000e+00	1.122873e+04	
47	2.350000e+00	1.216943e+04	
48	2.400000e+00	1.310474e+04	
49	2.450000e+00	1.403245e+04	
50	2.500000e+00	1.495088e+04	
51	2.550000e+00	1.585876e+04	
52	2.600000e+00	1.675517e+04	
53	2.650000e+00	1.763943e+04	
54	2.700000e+00	1.851105e+04	

Index   v-sweep         rds             
--------------------------------------------------------------------------------
55	2.750000e+00	1.936971e+04	
56	2.800000e+00	2.021521e+04	
57	2.850000e+00	2.104743e+04	
58	2.900000e+00	2.186635e+04	
59	2.950000e+00	2.267198e+04	
60	3.000000e+00	2.346441e+04	
61	3.050000e+00	2.424374e+04	
62	3.100000e+00	2.501009e+04	
63	3.150000e+00	2.576359e+04	
64	3.200000e+00	2.650437e+04	
65	3.250000e+00	2.723251e+04	
66	3.300000e+00	2.794801e+04	
Reset re-loads circuit ***************************

Circuit: ***************************

Note: No ".plot", ".print", or ".fourier" lines; no simulations run
