
Note: Compatibility modes selected: hs

Warning: m=xx on .subckt line will override multiplier m hierarchy!


Circuit: ***************************

Doing analysis at TEMP = 25.000000 and TNOM = 25.000000


No. of Data Rows : 67
                          ***************************
                          DC transfer characteristic  Mon Jan  9 13:58:13  2023
--------------------------------------------------------------------------------
Index   v-sweep         rds             
--------------------------------------------------------------------------------
0	0.000000e+00	5.102689e+03	
1	5.000000e-02	7.861576e+03	
2	1.000000e-01	1.590348e+04	
3	1.500000e-01	5.838224e+04	
4	2.000000e-01	2.415919e+05	
5	2.500000e-01	5.384115e+05	
6	3.000000e-01	8.128705e+05	
7	3.500000e-01	1.029394e+06	
8	4.000000e-01	1.197245e+06	
9	4.500000e-01	1.329597e+06	
10	5.000000e-01	1.436310e+06	
11	5.500000e-01	1.524136e+06	
12	6.000000e-01	1.597702e+06	
13	6.500000e-01	1.660247e+06	
14	7.000000e-01	1.714095e+06	
15	7.500000e-01	1.760956e+06	
16	8.000000e-01	1.802115e+06	
17	8.500000e-01	1.838560e+06	
18	9.000000e-01	1.871058e+06	
19	9.500000e-01	1.900219e+06	
20	1.000000e+00	1.926533e+06	
21	1.050000e+00	1.950397e+06	
22	1.100000e+00	1.972137e+06	
23	1.150000e+00	1.992024e+06	
24	1.200000e+00	2.010285e+06	
25	1.250000e+00	2.027109e+06	
26	1.300000e+00	2.042659e+06	
27	1.350000e+00	2.057074e+06	
28	1.400000e+00	2.070472e+06	
29	1.450000e+00	2.082957e+06	
30	1.500000e+00	2.094617e+06	
31	1.550000e+00	2.105530e+06	
32	1.600000e+00	2.115765e+06	
33	1.650000e+00	2.125380e+06	
34	1.700000e+00	2.134427e+06	
35	1.750000e+00	2.142949e+06	
36	1.800000e+00	2.150985e+06	
37	1.850000e+00	2.158564e+06	
38	1.900000e+00	2.165707e+06	
39	1.950000e+00	2.172431e+06	
40	2.000000e+00	2.178739e+06	
41	2.050000e+00	2.184627e+06	
42	2.100000e+00	2.190078e+06	
43	2.150000e+00	2.195062e+06	
44	2.200000e+00	2.199533e+06	
45	2.250000e+00	2.203428e+06	
46	2.300000e+00	2.206667e+06	
47	2.350000e+00	2.209146e+06	
48	2.400000e+00	2.210741e+06	
49	2.450000e+00	2.211303e+06	
50	2.500000e+00	2.210659e+06	
51	2.550000e+00	2.208612e+06	
52	2.600000e+00	2.204942e+06	
53	2.650000e+00	2.199407e+06	
54	2.700000e+00	2.191745e+06	

Index   v-sweep         rds             
--------------------------------------------------------------------------------
55	2.750000e+00	2.181684e+06	
56	2.800000e+00	2.168944e+06	
57	2.850000e+00	2.153244e+06	
58	2.900000e+00	2.134315e+06	
59	2.950000e+00	2.111909e+06	
60	3.000000e+00	2.085811e+06	
61	3.050000e+00	2.055851e+06	
62	3.100000e+00	2.021913e+06	
63	3.150000e+00	1.983951e+06	
64	3.200000e+00	1.941992e+06	
65	3.250000e+00	1.896145e+06	
66	3.300000e+00	1.846601e+06	
Reset re-loads circuit ***************************

Circuit: ***************************

Doing analysis at TEMP = 25.000000 and TNOM = 25.000000


No. of Data Rows : 67
                          ***************************
                          DC transfer characteristic  Mon Jan  9 13:58:13  2023
--------------------------------------------------------------------------------
Index   v-sweep         rds             
--------------------------------------------------------------------------------
0	0.000000e+00	1.089210e+03	
1	5.000000e-02	1.211430e+03	
2	1.000000e-01	1.360349e+03	
3	1.500000e-01	1.545755e+03	
4	2.000000e-01	1.782880e+03	
5	2.500000e-01	2.096788e+03	
6	3.000000e-01	2.531755e+03	
7	3.500000e-01	3.173636e+03	
8	4.000000e-01	4.210329e+03	
9	4.500000e-01	6.114254e+03	
10	5.000000e-01	1.014643e+04	
11	5.500000e-01	1.879684e+04	
12	6.000000e-01	3.369684e+04	
13	6.500000e-01	5.329127e+04	
14	7.000000e-01	7.495382e+04	
15	7.500000e-01	9.687437e+04	
16	8.000000e-01	1.181172e+05	
17	8.500000e-01	1.382676e+05	
18	9.000000e-01	1.571795e+05	
19	9.500000e-01	1.748387e+05	
20	1.000000e+00	1.912934e+05	
21	1.050000e+00	2.066187e+05	
22	1.100000e+00	2.208990e+05	
23	1.150000e+00	2.342194e+05	
24	1.200000e+00	2.466611e+05	
25	1.250000e+00	2.582996e+05	
26	1.300000e+00	2.692039e+05	
27	1.350000e+00	2.794370e+05	
28	1.400000e+00	2.890556e+05	
29	1.450000e+00	2.981107e+05	
30	1.500000e+00	3.066486e+05	
31	1.550000e+00	3.147108e+05	
32	1.600000e+00	3.223346e+05	
33	1.650000e+00	3.295539e+05	
34	1.700000e+00	3.363993e+05	
35	1.750000e+00	3.428983e+05	
36	1.800000e+00	3.490760e+05	
37	1.850000e+00	3.549551e+05	
38	1.900000e+00	3.605562e+05	
39	1.950000e+00	3.658979e+05	
40	2.000000e+00	3.709970e+05	
41	2.050000e+00	3.758683e+05	
42	2.100000e+00	3.805249e+05	
43	2.150000e+00	3.849778e+05	
44	2.200000e+00	3.892356e+05	
45	2.250000e+00	3.933042e+05	
46	2.300000e+00	3.971862e+05	
47	2.350000e+00	4.008802e+05	
48	2.400000e+00	4.043801e+05	
49	2.450000e+00	4.076739e+05	
50	2.500000e+00	4.107428e+05	
51	2.550000e+00	4.135598e+05	
52	2.600000e+00	4.160888e+05	
53	2.650000e+00	4.182831e+05	
54	2.700000e+00	4.200847e+05	

Index   v-sweep         rds             
--------------------------------------------------------------------------------
55	2.750000e+00	4.214238e+05	
56	2.800000e+00	4.222180e+05	
57	2.850000e+00	4.223736e+05	
58	2.900000e+00	4.217864e+05	
59	2.950000e+00	4.203446e+05	
60	3.000000e+00	4.179325e+05	
61	3.050000e+00	4.144355e+05	
62	3.100000e+00	4.097469e+05	
63	3.150000e+00	4.037754e+05	
64	3.200000e+00	3.964526e+05	
65	3.250000e+00	3.877416e+05	
66	3.300000e+00	3.776434e+05	
Reset re-loads circuit ***************************

Circuit: ***************************

Doing analysis at TEMP = 25.000000 and TNOM = 25.000000


No. of Data Rows : 67
                          ***************************
                          DC transfer characteristic  Mon Jan  9 13:58:13  2023
--------------------------------------------------------------------------------
Index   v-sweep         rds             
--------------------------------------------------------------------------------
0	0.000000e+00	6.604373e+02	
1	5.000000e-02	7.037862e+02	
2	1.000000e-01	7.520907e+02	
3	1.500000e-01	8.062462e+02	
4	2.000000e-01	8.673778e+02	
5	2.500000e-01	9.369200e+02	
6	3.000000e-01	1.016731e+03	
7	3.500000e-01	1.109263e+03	
8	4.000000e-01	1.217824e+03	
9	4.500000e-01	1.346985e+03	
10	5.000000e-01	1.503267e+03	
11	5.500000e-01	1.696327e+03	
12	6.000000e-01	1.941153e+03	
13	6.500000e-01	2.262469e+03	
14	7.000000e-01	2.704368e+03	
15	7.500000e-01	3.353147e+03	
16	8.000000e-01	4.391795e+03	
17	8.500000e-01	6.198942e+03	
18	9.000000e-01	9.361523e+03	
19	9.500000e-01	1.430495e+04	
20	1.000000e+00	2.089828e+04	
21	1.050000e+00	2.864808e+04	
22	1.100000e+00	3.705448e+04	
23	1.150000e+00	4.574703e+04	
24	1.200000e+00	5.448163e+04	
25	1.250000e+00	6.310564e+04	
26	1.300000e+00	7.152688e+04	
27	1.350000e+00	7.969202e+04	
28	1.400000e+00	8.757256e+04	
29	1.450000e+00	9.515581e+04	
30	1.500000e+00	1.024392e+05	
31	1.550000e+00	1.094264e+05	
32	1.600000e+00	1.161251e+05	
33	1.650000e+00	1.225454e+05	
34	1.700000e+00	1.286986e+05	
35	1.750000e+00	1.345968e+05	
36	1.800000e+00	1.402521e+05	
37	1.850000e+00	1.456765e+05	
38	1.900000e+00	1.508818e+05	
39	1.950000e+00	1.558794e+05	
40	2.000000e+00	1.606800e+05	
41	2.050000e+00	1.652939e+05	
42	2.100000e+00	1.697309e+05	
43	2.150000e+00	1.740001e+05	
44	2.200000e+00	1.781103e+05	
45	2.250000e+00	1.820694e+05	
46	2.300000e+00	1.858850e+05	
47	2.350000e+00	1.895639e+05	
48	2.400000e+00	1.931124e+05	
49	2.450000e+00	1.965356e+05	
50	2.500000e+00	1.998379e+05	
51	2.550000e+00	2.030221e+05	
52	2.600000e+00	2.060894e+05	
53	2.650000e+00	2.090385e+05	
54	2.700000e+00	2.118655e+05	

Index   v-sweep         rds             
--------------------------------------------------------------------------------
55	2.750000e+00	2.145627e+05	
56	2.800000e+00	2.171177e+05	
57	2.850000e+00	2.195129e+05	
58	2.900000e+00	2.217239e+05	
59	2.950000e+00	2.237186e+05	
60	3.000000e+00	2.254566e+05	
61	3.050000e+00	2.268880e+05	
62	3.100000e+00	2.279534e+05	
63	3.150000e+00	2.285839e+05	
64	3.200000e+00	2.287023e+05	
65	3.250000e+00	2.282253e+05	
66	3.300000e+00	2.270664e+05	
Reset re-loads circuit ***************************

Circuit: ***************************

Doing analysis at TEMP = 25.000000 and TNOM = 25.000000


No. of Data Rows : 67
                          ***************************
                          DC transfer characteristic  Mon Jan  9 13:58:13  2023
--------------------------------------------------------------------------------
Index   v-sweep         rds             
--------------------------------------------------------------------------------
0	0.000000e+00	5.080712e+02	
1	5.000000e-02	5.321393e+02	
2	1.000000e-01	5.580730e+02	
3	1.500000e-01	5.860951e+02	
4	2.000000e-01	6.164658e+02	
5	2.500000e-01	6.494903e+02	
6	3.000000e-01	6.855294e+02	
7	3.500000e-01	7.250129e+02	
8	4.000000e-01	7.684566e+02	
9	4.500000e-01	8.164853e+02	
10	5.000000e-01	8.698642e+02	
11	5.500000e-01	9.295402e+02	
12	6.000000e-01	9.967015e+02	
13	6.500000e-01	1.072861e+03	
14	7.000000e-01	1.159979e+03	
15	7.500000e-01	1.260651e+03	
16	8.000000e-01	1.378402e+03	
17	8.500000e-01	1.518180e+03	
18	9.000000e-01	1.687218e+03	
19	9.500000e-01	1.896679e+03	
20	1.000000e+00	2.165002e+03	
21	1.050000e+00	2.525177e+03	
22	1.100000e+00	3.040653e+03	
23	1.150000e+00	3.835374e+03	
24	1.200000e+00	5.122781e+03	
25	1.250000e+00	7.158802e+03	
26	1.300000e+00	1.008344e+04	
27	1.350000e+00	1.383062e+04	
28	1.400000e+00	1.820931e+04	
29	1.450000e+00	2.301393e+04	
30	1.500000e+00	2.807501e+04	
31	1.550000e+00	3.326693e+04	
32	1.600000e+00	3.850073e+04	
33	1.650000e+00	4.371477e+04	
34	1.700000e+00	4.886695e+04	
35	1.750000e+00	5.392892e+04	
36	1.800000e+00	5.888203e+04	
37	1.850000e+00	6.371444e+04	
38	1.900000e+00	6.841917e+04	
39	1.950000e+00	7.299265e+04	
40	2.000000e+00	7.743374e+04	
41	2.050000e+00	8.174302e+04	
42	2.100000e+00	8.592228e+04	
43	2.150000e+00	8.997415e+04	
44	2.200000e+00	9.390181e+04	
45	2.250000e+00	9.770885e+04	
46	2.300000e+00	1.013990e+05	
47	2.350000e+00	1.049763e+05	
48	2.400000e+00	1.084446e+05	
49	2.450000e+00	1.118079e+05	
50	2.500000e+00	1.150700e+05	
51	2.550000e+00	1.182347e+05	
52	2.600000e+00	1.213057e+05	
53	2.650000e+00	1.242862e+05	
54	2.700000e+00	1.271796e+05	

Index   v-sweep         rds             
--------------------------------------------------------------------------------
55	2.750000e+00	1.299883e+05	
56	2.800000e+00	1.327147e+05	
57	2.850000e+00	1.353601e+05	
58	2.900000e+00	1.379248e+05	
59	2.950000e+00	1.404075e+05	
60	3.000000e+00	1.428051e+05	
61	3.050000e+00	1.451117e+05	
62	3.100000e+00	1.473182e+05	
63	3.150000e+00	1.494111e+05	
64	3.200000e+00	1.513721e+05	
65	3.250000e+00	1.531765e+05	
66	3.300000e+00	1.547928e+05	
Reset re-loads circuit ***************************

Circuit: ***************************

Doing analysis at TEMP = 25.000000 and TNOM = 25.000000


No. of Data Rows : 67
                          ***************************
                          DC transfer characteristic  Mon Jan  9 13:58:13  2023
--------------------------------------------------------------------------------
Index   v-sweep         rds             
--------------------------------------------------------------------------------
0	0.000000e+00	4.354929e+02	
1	5.000000e-02	4.517393e+02	
2	1.000000e-01	4.689379e+02	
3	1.500000e-01	4.871734e+02	
4	2.000000e-01	5.065410e+02	
5	2.500000e-01	5.271479e+02	
6	3.000000e-01	5.491156e+02	
7	3.500000e-01	5.725817e+02	
8	4.000000e-01	5.977033e+02	
9	4.500000e-01	6.246603e+02	
10	5.000000e-01	6.536600e+02	
11	5.500000e-01	6.849421e+02	
12	6.000000e-01	7.187858e+02	
13	6.500000e-01	7.555184e+02	
14	7.000000e-01	7.955258e+02	
15	7.500000e-01	8.392673e+02	
16	8.000000e-01	8.872941e+02	
17	8.500000e-01	9.402741e+02	
18	9.000000e-01	9.990267e+02	
19	9.500000e-01	1.064570e+03	
20	1.000000e+00	1.138192e+03	
21	1.050000e+00	1.221551e+03	
22	1.100000e+00	1.316840e+03	
23	1.150000e+00	1.427051e+03	
24	1.200000e+00	1.556437e+03	
25	1.250000e+00	1.711357e+03	
26	1.300000e+00	1.901949e+03	
27	1.350000e+00	2.145536e+03	
28	1.400000e+00	2.473602e+03	
29	1.450000e+00	2.944616e+03	
30	1.500000e+00	3.660021e+03	
31	1.550000e+00	4.761448e+03	
32	1.600000e+00	6.377228e+03	
33	1.650000e+00	8.549140e+03	
34	1.700000e+00	1.122117e+04	
35	1.750000e+00	1.428720e+04	
36	1.800000e+00	1.763671e+04	
37	1.850000e+00	2.117566e+04	
38	1.900000e+00	2.483072e+04	
39	1.950000e+00	2.854685e+04	
40	2.000000e+00	3.228353e+04	
41	2.050000e+00	3.601118e+04	
42	2.100000e+00	3.970836e+04	
43	2.150000e+00	4.335965e+04	
44	2.200000e+00	4.695405e+04	
45	2.250000e+00	5.048390e+04	
46	2.300000e+00	5.394398e+04	
47	2.350000e+00	5.733093e+04	
48	2.400000e+00	6.064275e+04	
49	2.450000e+00	6.387849e+04	
50	2.500000e+00	6.703800e+04	
51	2.550000e+00	7.012170e+04	
52	2.600000e+00	7.313043e+04	
53	2.650000e+00	7.606539e+04	
54	2.700000e+00	7.892798e+04	

Index   v-sweep         rds             
--------------------------------------------------------------------------------
55	2.750000e+00	8.171979e+04	
56	2.800000e+00	8.444250e+04	
57	2.850000e+00	8.709786e+04	
58	2.900000e+00	8.968765e+04	
59	2.950000e+00	9.221358e+04	
60	3.000000e+00	9.467727e+04	
61	3.050000e+00	9.708016e+04	
62	3.100000e+00	9.942336e+04	
63	3.150000e+00	1.017075e+05	
64	3.200000e+00	1.039324e+05	
65	3.250000e+00	1.060970e+05	
66	3.300000e+00	1.081986e+05	
Reset re-loads circuit ***************************

Circuit: ***************************

Doing analysis at TEMP = 25.000000 and TNOM = 25.000000


No. of Data Rows : 67
                          ***************************
                          DC transfer characteristic  Mon Jan  9 13:58:13  2023
--------------------------------------------------------------------------------
Index   v-sweep         rds             
--------------------------------------------------------------------------------
0	0.000000e+00	3.951243e+02	
1	5.000000e-02	4.072616e+02	
2	1.000000e-01	4.199681e+02	
3	1.500000e-01	4.332837e+02	
4	2.000000e-01	4.472527e+02	
5	2.500000e-01	4.619233e+02	
6	3.000000e-01	4.773488e+02	
7	3.500000e-01	4.935880e+02	
8	4.000000e-01	5.107062e+02	
9	4.500000e-01	5.287755e+02	
10	5.000000e-01	5.478767e+02	
11	5.500000e-01	5.680995e+02	
12	6.000000e-01	5.895449e+02	
13	6.500000e-01	6.123259e+02	
14	7.000000e-01	6.365706e+02	
15	7.500000e-01	6.624238e+02	
16	8.000000e-01	6.900503e+02	
17	8.500000e-01	7.196387e+02	
18	9.000000e-01	7.514055e+02	
19	9.500000e-01	7.856012e+02	
20	1.000000e+00	8.225169e+02	
21	1.050000e+00	8.624937e+02	
22	1.100000e+00	9.059345e+02	
23	1.150000e+00	9.533193e+02	
24	1.200000e+00	1.005226e+03	
25	1.250000e+00	1.062362e+03	
26	1.300000e+00	1.125602e+03	
27	1.350000e+00	1.196054e+03	
28	1.400000e+00	1.275154e+03	
29	1.450000e+00	1.364820e+03	
30	1.500000e+00	1.467721e+03	
31	1.550000e+00	1.587749e+03	
32	1.600000e+00	1.730913e+03	
33	1.650000e+00	1.907061e+03	
34	1.700000e+00	2.133232e+03	
35	1.750000e+00	2.439720e+03	
36	1.800000e+00	2.878883e+03	
37	1.850000e+00	3.530712e+03	
38	1.900000e+00	4.489488e+03	
39	1.950000e+00	5.825037e+03	
40	2.000000e+00	7.549402e+03	
41	2.050000e+00	9.621013e+03	
42	2.100000e+00	1.197243e+04	
43	2.150000e+00	1.453393e+04	
44	2.200000e+00	1.724471e+04	
45	2.250000e+00	2.005572e+04	
46	2.300000e+00	2.292878e+04	
47	2.350000e+00	2.583471e+04	
48	2.400000e+00	2.875138e+04	
49	2.450000e+00	3.166207e+04	
50	2.500000e+00	3.455422e+04	
51	2.550000e+00	3.741839e+04	
52	2.600000e+00	4.024757e+04	
53	2.650000e+00	4.303657e+04	
54	2.700000e+00	4.578165e+04	

Index   v-sweep         rds             
--------------------------------------------------------------------------------
55	2.750000e+00	4.848016e+04	
56	2.800000e+00	5.113030e+04	
57	2.850000e+00	5.373094e+04	
58	2.900000e+00	5.628145e+04	
59	2.950000e+00	5.878163e+04	
60	3.000000e+00	6.123157e+04	
61	3.050000e+00	6.363163e+04	
62	3.100000e+00	6.598233e+04	
63	3.150000e+00	6.828435e+04	
64	3.200000e+00	7.053844e+04	
65	3.250000e+00	7.274541e+04	
66	3.300000e+00	7.490608e+04	
Reset re-loads circuit ***************************

Circuit: ***************************

Note: No ".plot", ".print", or ".fourier" lines; no simulations run
