
Note: Compatibility modes selected: hs

Warning: m=xx on .subckt line will override multiplier m hierarchy!


Circuit: ***************************

Doing analysis at TEMP = 25.000000 and TNOM = 25.000000


No. of Data Rows : 67
                          ***************************
                          DC transfer characteristic  Mon Jan  9 13:58:13  2023
--------------------------------------------------------------------------------
Index   v-sweep         rds             
--------------------------------------------------------------------------------
0	0.000000e+00	4.701532e+04	
1	5.000000e-02	6.517931e+04	
2	1.000000e-01	9.862333e+04	
3	1.500000e-01	1.667611e+05	
4	2.000000e-01	2.920120e+05	
5	2.500000e-01	4.478442e+05	
6	3.000000e-01	5.833372e+05	
7	3.500000e-01	6.857388e+05	
8	4.000000e-01	7.617653e+05	
9	4.500000e-01	8.190779e+05	
10	5.000000e-01	8.631010e+05	
11	5.500000e-01	8.974510e+05	
12	6.000000e-01	9.245719e+05	
13	6.500000e-01	9.461632e+05	
14	7.000000e-01	9.634405e+05	
15	7.500000e-01	9.772958e+05	
16	8.000000e-01	9.883985e+05	
17	8.500000e-01	9.972600e+05	
18	9.000000e-01	1.004278e+06	
19	9.500000e-01	1.009765e+06	
20	1.000000e+00	1.013973e+06	
21	1.050000e+00	1.017102e+06	
22	1.100000e+00	1.019318e+06	
23	1.150000e+00	1.020755e+06	
24	1.200000e+00	1.021527e+06	
25	1.250000e+00	1.021727e+06	
26	1.300000e+00	1.021434e+06	
27	1.350000e+00	1.020714e+06	
28	1.400000e+00	1.019625e+06	
29	1.450000e+00	1.018215e+06	
30	1.500000e+00	1.016526e+06	
31	1.550000e+00	1.014593e+06	
32	1.600000e+00	1.012448e+06	
33	1.650000e+00	1.010118e+06	
34	1.700000e+00	1.007627e+06	
35	1.750000e+00	1.004994e+06	
36	1.800000e+00	1.002237e+06	
37	1.850000e+00	9.993717e+05	
38	1.900000e+00	9.964105e+05	
39	1.950000e+00	9.933642e+05	
40	2.000000e+00	9.902409e+05	
41	2.050000e+00	9.870468e+05	
42	2.100000e+00	9.837857e+05	
43	2.150000e+00	9.804585e+05	
44	2.200000e+00	9.770638e+05	
45	2.250000e+00	9.735967e+05	
46	2.300000e+00	9.700492e+05	
47	2.350000e+00	9.664096e+05	
48	2.400000e+00	9.626620e+05	
49	2.450000e+00	9.587864e+05	
50	2.500000e+00	9.547580e+05	
51	2.550000e+00	9.505471e+05	
52	2.600000e+00	9.461189e+05	
53	2.650000e+00	9.414333e+05	
54	2.700000e+00	9.364449e+05	

Index   v-sweep         rds             
--------------------------------------------------------------------------------
55	2.750000e+00	9.311032e+05	
56	2.800000e+00	9.253526e+05	
57	2.850000e+00	9.191335e+05	
58	2.900000e+00	9.123820e+05	
59	2.950000e+00	9.050318e+05	
60	3.000000e+00	8.970146e+05	
61	3.050000e+00	8.882620e+05	
62	3.100000e+00	8.787069e+05	
63	3.150000e+00	8.682856e+05	
64	3.200000e+00	8.569396e+05	
65	3.250000e+00	8.446183e+05	
66	3.300000e+00	8.312804e+05	
Reset re-loads circuit ***************************

Circuit: ***************************

Doing analysis at TEMP = 25.000000 and TNOM = 25.000000


No. of Data Rows : 67
                          ***************************
                          DC transfer characteristic  Mon Jan  9 13:58:13  2023
--------------------------------------------------------------------------------
Index   v-sweep         rds             
--------------------------------------------------------------------------------
0	0.000000e+00	1.350988e+04	
1	5.000000e-02	1.525497e+04	
2	1.000000e-01	1.733918e+04	
3	1.500000e-01	1.986786e+04	
4	2.000000e-01	2.299442e+04	
5	2.500000e-01	2.694999e+04	
6	3.000000e-01	3.209526e+04	
7	3.500000e-01	3.900616e+04	
8	4.000000e-01	4.857536e+04	
9	4.500000e-01	6.194908e+04	
10	5.000000e-01	7.988265e+04	
11	5.500000e-01	1.017637e+05	
12	6.000000e-01	1.257680e+05	
13	6.500000e-01	1.500532e+05	
14	7.000000e-01	1.734341e+05	
15	7.500000e-01	1.953388e+05	
16	8.000000e-01	2.155719e+05	
17	8.500000e-01	2.341329e+05	
18	9.000000e-01	2.511110e+05	
19	9.500000e-01	2.666313e+05	
20	1.000000e+00	2.808273e+05	
21	1.050000e+00	2.938289e+05	
22	1.100000e+00	3.057566e+05	
23	1.150000e+00	3.167195e+05	
24	1.200000e+00	3.268151e+05	
25	1.250000e+00	3.361304e+05	
26	1.300000e+00	3.447422e+05	
27	1.350000e+00	3.527185e+05	
28	1.400000e+00	3.601194e+05	
29	1.450000e+00	3.669985e+05	
30	1.500000e+00	3.734030e+05	
31	1.550000e+00	3.793750e+05	
32	1.600000e+00	3.849521e+05	
33	1.650000e+00	3.901676e+05	
34	1.700000e+00	3.950517e+05	
35	1.750000e+00	3.996311e+05	
36	1.800000e+00	4.039301e+05	
37	1.850000e+00	4.079703e+05	
38	1.900000e+00	4.117714e+05	
39	1.950000e+00	4.153509e+05	
40	2.000000e+00	4.187248e+05	
41	2.050000e+00	4.219071e+05	
42	2.100000e+00	4.249106e+05	
43	2.150000e+00	4.277462e+05	
44	2.200000e+00	4.304231e+05	
45	2.250000e+00	4.329490e+05	
46	2.300000e+00	4.353294e+05	
47	2.350000e+00	4.375679e+05	
48	2.400000e+00	4.396652e+05	
49	2.450000e+00	4.416196e+05	
50	2.500000e+00	4.434256e+05	
51	2.550000e+00	4.450745e+05	
52	2.600000e+00	4.465529e+05	
53	2.650000e+00	4.478430e+05	
54	2.700000e+00	4.489217e+05	

Index   v-sweep         rds             
--------------------------------------------------------------------------------
55	2.750000e+00	4.497603e+05	
56	2.800000e+00	4.503241e+05	
57	2.850000e+00	4.505723e+05	
58	2.900000e+00	4.504579e+05	
59	2.950000e+00	4.499281e+05	
60	3.000000e+00	4.489248e+05	
61	3.050000e+00	4.473852e+05	
62	3.100000e+00	4.452437e+05	
63	3.150000e+00	4.424333e+05	
64	3.200000e+00	4.388877e+05	
65	3.250000e+00	4.345446e+05	
66	3.300000e+00	4.293478e+05	
Reset re-loads circuit ***************************

Circuit: ***************************

Doing analysis at TEMP = 25.000000 and TNOM = 25.000000


No. of Data Rows : 67
                          ***************************
                          DC transfer characteristic  Mon Jan  9 13:58:13  2023
--------------------------------------------------------------------------------
Index   v-sweep         rds             
--------------------------------------------------------------------------------
0	0.000000e+00	8.640195e+03	
1	5.000000e-02	9.367267e+03	
2	1.000000e-01	1.017472e+04	
3	1.500000e-01	1.107588e+04	
4	2.000000e-01	1.208731e+04	
5	2.500000e-01	1.322987e+04	
6	3.000000e-01	1.453028e+04	
7	3.500000e-01	1.602368e+04	
8	4.000000e-01	1.775755e+04	
9	4.500000e-01	1.979870e+04	
10	5.000000e-01	2.224558e+04	
11	5.500000e-01	2.525044e+04	
12	6.000000e-01	2.905460e+04	
13	6.500000e-01	3.402378e+04	
14	7.000000e-01	4.061747e+04	
15	7.500000e-01	4.919526e+04	
16	8.000000e-01	5.974140e+04	
17	8.500000e-01	7.181670e+04	
18	9.000000e-01	8.479605e+04	
19	9.500000e-01	9.811384e+04	
20	1.000000e+00	1.113612e+05	
21	1.050000e+00	1.242789e+05	
22	1.100000e+00	1.367181e+05	
23	1.150000e+00	1.486027e+05	
24	1.200000e+00	1.599027e+05	
25	1.250000e+00	1.706155e+05	
26	1.300000e+00	1.807548e+05	
27	1.350000e+00	1.903436e+05	
28	1.400000e+00	1.994096e+05	
29	1.450000e+00	2.079822e+05	
30	1.500000e+00	2.160917e+05	
31	1.550000e+00	2.237672e+05	
32	1.600000e+00	2.310369e+05	
33	1.650000e+00	2.379276e+05	
34	1.700000e+00	2.444642e+05	
35	1.750000e+00	2.506701e+05	
36	1.800000e+00	2.565670e+05	
37	1.850000e+00	2.621751e+05	
38	1.900000e+00	2.675129e+05	
39	1.950000e+00	2.725978e+05	
40	2.000000e+00	2.774457e+05	
41	2.050000e+00	2.820712e+05	
42	2.100000e+00	2.864881e+05	
43	2.150000e+00	2.907087e+05	
44	2.200000e+00	2.947447e+05	
45	2.250000e+00	2.986064e+05	
46	2.300000e+00	3.023033e+05	
47	2.350000e+00	3.058437e+05	
48	2.400000e+00	3.092349e+05	
49	2.450000e+00	3.124825e+05	
50	2.500000e+00	3.155908e+05	
51	2.550000e+00	3.185618e+05	
52	2.600000e+00	3.213956e+05	
53	2.650000e+00	3.240892e+05	
54	2.700000e+00	3.266365e+05	

Index   v-sweep         rds             
--------------------------------------------------------------------------------
55	2.750000e+00	3.290275e+05	
56	2.800000e+00	3.312474e+05	
57	2.850000e+00	3.332767e+05	
58	2.900000e+00	3.350897e+05	
59	2.950000e+00	3.366546e+05	
60	3.000000e+00	3.379326e+05	
61	3.050000e+00	3.388780e+05	
62	3.100000e+00	3.394380e+05	
63	3.150000e+00	3.395531e+05	
64	3.200000e+00	3.391581e+05	
65	3.250000e+00	3.381833e+05	
66	3.300000e+00	3.365569e+05	
Reset re-loads circuit ***************************

Circuit: ***************************

Doing analysis at TEMP = 25.000000 and TNOM = 25.000000


No. of Data Rows : 67
                          ***************************
                          DC transfer characteristic  Mon Jan  9 13:58:13  2023
--------------------------------------------------------------------------------
Index   v-sweep         rds             
--------------------------------------------------------------------------------
0	0.000000e+00	6.988502e+03	
1	5.000000e-02	7.450914e+03	
2	1.000000e-01	7.951095e+03	
3	1.500000e-01	8.493512e+03	
4	2.000000e-01	9.083394e+03	
5	2.500000e-01	9.726914e+03	
6	3.000000e-01	1.043143e+04	
7	3.500000e-01	1.120583e+04	
8	4.000000e-01	1.206099e+04	
9	4.500000e-01	1.301051e+04	
10	5.000000e-01	1.407187e+04	
11	5.500000e-01	1.526824e+04	
12	6.000000e-01	1.663180e+04	
13	6.500000e-01	1.820944e+04	
14	7.000000e-01	2.007308e+04	
15	7.500000e-01	2.233657e+04	
16	8.000000e-01	2.517825e+04	
17	8.500000e-01	2.885337e+04	
18	9.000000e-01	3.365641e+04	
19	9.500000e-01	3.980301e+04	
20	1.000000e+00	4.729772e+04	
21	1.050000e+00	5.591720e+04	
22	1.100000e+00	6.531806e+04	
23	1.150000e+00	7.515824e+04	
24	1.200000e+00	8.516073e+04	
25	1.250000e+00	9.512568e+04	
26	1.300000e+00	1.049190e+05	
27	1.350000e+00	1.144557e+05	
28	1.400000e+00	1.236851e+05	
29	1.450000e+00	1.325799e+05	
30	1.500000e+00	1.411284e+05	
31	1.550000e+00	1.493291e+05	
32	1.600000e+00	1.571870e+05	
33	1.650000e+00	1.647115e+05	
34	1.700000e+00	1.719143e+05	
35	1.750000e+00	1.788086e+05	
36	1.800000e+00	1.854083e+05	
37	1.850000e+00	1.917275e+05	
38	1.900000e+00	1.977801e+05	
39	1.950000e+00	2.035797e+05	
40	2.000000e+00	2.091394e+05	
41	2.050000e+00	2.144717e+05	
42	2.100000e+00	2.195884e+05	
43	2.150000e+00	2.245010e+05	
44	2.200000e+00	2.292199e+05	
45	2.250000e+00	2.337554e+05	
46	2.300000e+00	2.381168e+05	
47	2.350000e+00	2.423129e+05	
48	2.400000e+00	2.463519e+05	
49	2.450000e+00	2.502412e+05	
50	2.500000e+00	2.539875e+05	
51	2.550000e+00	2.575966e+05	
52	2.600000e+00	2.610732e+05	
53	2.650000e+00	2.644209e+05	
54	2.700000e+00	2.676414e+05	

Index   v-sweep         rds             
--------------------------------------------------------------------------------
55	2.750000e+00	2.707344e+05	
56	2.800000e+00	2.736973e+05	
57	2.850000e+00	2.765242e+05	
58	2.900000e+00	2.792057e+05	
59	2.950000e+00	2.817278e+05	
60	3.000000e+00	2.840714e+05	
61	3.050000e+00	2.862115e+05	
62	3.100000e+00	2.881165e+05	
63	3.150000e+00	2.897475e+05	
64	3.200000e+00	2.910583e+05	
65	3.250000e+00	2.919947e+05	
66	3.300000e+00	2.924953e+05	
Reset re-loads circuit ***************************

Circuit: ***************************

Doing analysis at TEMP = 25.000000 and TNOM = 25.000000


No. of Data Rows : 67
                          ***************************
                          DC transfer characteristic  Mon Jan  9 13:58:13  2023
--------------------------------------------------------------------------------
Index   v-sweep         rds             
--------------------------------------------------------------------------------
0	0.000000e+00	6.080350e+03	
1	5.000000e-02	6.415423e+03	
2	1.000000e-01	6.772412e+03	
3	1.500000e-01	7.153338e+03	
4	2.000000e-01	7.560489e+03	
5	2.500000e-01	7.996470e+03	
6	3.000000e-01	8.464265e+03	
7	3.500000e-01	8.967316e+03	
8	4.000000e-01	9.509632e+03	
9	4.500000e-01	1.009593e+04	
10	5.000000e-01	1.073183e+04	
11	5.500000e-01	1.142418e+04	
12	6.000000e-01	1.218149e+04	
13	6.500000e-01	1.301466e+04	
14	7.000000e-01	1.393820e+04	
15	7.500000e-01	1.497232e+04	
16	8.000000e-01	1.614649e+04	
17	8.500000e-01	1.750563e+04	
18	9.000000e-01	1.912007e+04	
19	9.500000e-01	2.109923e+04	
20	1.000000e+00	2.360352e+04	
21	1.050000e+00	2.683718e+04	
22	1.100000e+00	3.099958e+04	
23	1.150000e+00	3.620154e+04	
24	1.200000e+00	4.240567e+04	
25	1.250000e+00	4.944283e+04	
26	1.300000e+00	5.708175e+04	
27	1.350000e+00	6.509459e+04	
28	1.400000e+00	7.329120e+04	
29	1.450000e+00	8.152721e+04	
30	1.500000e+00	8.969919e+04	
31	1.550000e+00	9.773607e+04	
32	1.600000e+00	1.055908e+05	
33	1.650000e+00	1.132336e+05	
34	1.700000e+00	1.206469e+05	
35	1.750000e+00	1.278218e+05	
36	1.800000e+00	1.347553e+05	
37	1.850000e+00	1.414484e+05	
38	1.900000e+00	1.479051e+05	
39	1.950000e+00	1.541310e+05	
40	2.000000e+00	1.601331e+05	
41	2.050000e+00	1.659192e+05	
42	2.100000e+00	1.714972e+05	
43	2.150000e+00	1.768754e+05	
44	2.200000e+00	1.820621e+05	
45	2.250000e+00	1.870653e+05	
46	2.300000e+00	1.918930e+05	
47	2.350000e+00	1.965529e+05	
48	2.400000e+00	2.010524e+05	
49	2.450000e+00	2.053984e+05	
50	2.500000e+00	2.095978e+05	
51	2.550000e+00	2.136569e+05	
52	2.600000e+00	2.175814e+05	
53	2.650000e+00	2.213767e+05	
54	2.700000e+00	2.250475e+05	

Index   v-sweep         rds             
--------------------------------------------------------------------------------
55	2.750000e+00	2.285975e+05	
56	2.800000e+00	2.320295e+05	
57	2.850000e+00	2.353448e+05	
58	2.900000e+00	2.385429e+05	
59	2.950000e+00	2.416209e+05	
60	3.000000e+00	2.445733e+05	
61	3.050000e+00	2.473909e+05	
62	3.100000e+00	2.500601e+05	
63	3.150000e+00	2.525624e+05	
64	3.200000e+00	2.548731e+05	
65	3.250000e+00	2.569610e+05	
66	3.300000e+00	2.587873e+05	
Reset re-loads circuit ***************************

Circuit: ***************************

Doing analysis at TEMP = 25.000000 and TNOM = 25.000000


No. of Data Rows : 67
                          ***************************
                          DC transfer characteristic  Mon Jan  9 13:58:13  2023
--------------------------------------------------------------------------------
Index   v-sweep         rds             
--------------------------------------------------------------------------------
0	0.000000e+00	5.487990e+03	
1	5.000000e-02	5.747340e+03	
2	1.000000e-01	6.020839e+03	
3	1.500000e-01	6.309552e+03	
4	2.000000e-01	6.614657e+03	
5	2.500000e-01	6.937466e+03	
6	3.000000e-01	7.279441e+03	
7	3.500000e-01	7.642225e+03	
8	4.000000e-01	8.027668e+03	
9	4.500000e-01	8.437871e+03	
10	5.000000e-01	8.875239e+03	
11	5.500000e-01	9.342553e+03	
12	6.000000e-01	9.843068e+03	
13	6.500000e-01	1.038066e+04	
14	7.000000e-01	1.096003e+04	
15	7.500000e-01	1.158707e+04	
16	8.000000e-01	1.226934e+04	
17	8.500000e-01	1.301696e+04	
18	9.000000e-01	1.384406e+04	
19	9.500000e-01	1.477119e+04	
20	1.000000e+00	1.582935e+04	
21	1.050000e+00	1.706628e+04	
22	1.100000e+00	1.855527e+04	
23	1.150000e+00	2.040408e+04	
24	1.200000e+00	2.275636e+04	
25	1.250000e+00	2.577194e+04	
26	1.300000e+00	2.958013e+04	
27	1.350000e+00	3.422665e+04	
28	1.400000e+00	3.965306e+04	
29	1.450000e+00	4.572230e+04	
30	1.500000e+00	5.226522e+04	
31	1.550000e+00	5.911862e+04	
32	1.600000e+00	6.614448e+04	
33	1.650000e+00	7.323484e+04	
34	1.700000e+00	8.030917e+04	
35	1.750000e+00	8.730940e+04	
36	1.800000e+00	9.419474e+04	
37	1.850000e+00	1.009374e+05	
38	1.900000e+00	1.075190e+05	
39	1.950000e+00	1.139284e+05	
40	2.000000e+00	1.201591e+05	
41	2.050000e+00	1.262087e+05	
42	2.100000e+00	1.320771e+05	
43	2.150000e+00	1.377662e+05	
44	2.200000e+00	1.432791e+05	
45	2.250000e+00	1.486200e+05	
46	2.300000e+00	1.537936e+05	
47	2.350000e+00	1.588049e+05	
48	2.400000e+00	1.636593e+05	
49	2.450000e+00	1.683621e+05	
50	2.500000e+00	1.729188e+05	
51	2.550000e+00	1.773347e+05	
52	2.600000e+00	1.816152e+05	
53	2.650000e+00	1.857652e+05	
54	2.700000e+00	1.897897e+05	

Index   v-sweep         rds             
--------------------------------------------------------------------------------
55	2.750000e+00	1.936932e+05	
56	2.800000e+00	1.974800e+05	
57	2.850000e+00	2.011538e+05	
58	2.900000e+00	2.047177e+05	
59	2.950000e+00	2.081738e+05	
60	3.000000e+00	2.115231e+05	
61	3.050000e+00	2.147651e+05	
62	3.100000e+00	2.178970e+05	
63	3.150000e+00	2.209137e+05	
64	3.200000e+00	2.238063e+05	
65	3.250000e+00	2.265623e+05	
66	3.300000e+00	2.291639e+05	
Reset re-loads circuit ***************************

Circuit: ***************************

Note: No ".plot", ".print", or ".fourier" lines; no simulations run
