
Note: Compatibility modes selected: hs

Warning: m=xx on .subckt line will override multiplier m hierarchy!


Circuit: ***************************

Doing analysis at TEMP = 125.000000 and TNOM = 125.000000


No. of Data Rows : 67
                          ***************************
                          DC transfer characteristic  Mon Jan  9 13:58:14  2023
--------------------------------------------------------------------------------
Index   v-sweep         rds             
--------------------------------------------------------------------------------
0	0.000000e+00	4.011355e+04	
1	5.000000e-02	5.149038e+04	
2	1.000000e-01	7.171832e+04	
3	1.500000e-01	1.171667e+05	
4	2.000000e-01	2.841922e+05	
5	2.500000e-01	1.456301e+06	
6	3.000000e-01	6.022599e+06	
7	3.500000e-01	1.232731e+07	
8	4.000000e-01	1.769255e+07	
9	4.500000e-01	2.180534e+07	
10	5.000000e-01	2.499463e+07	
11	5.500000e-01	2.754568e+07	
12	6.000000e-01	2.964470e+07	
13	6.500000e-01	3.141110e+07	
14	7.000000e-01	3.292402e+07	
15	7.500000e-01	3.423808e+07	
16	8.000000e-01	3.539241e+07	
17	8.500000e-01	3.641600e+07	
18	9.000000e-01	3.733084e+07	
19	9.500000e-01	3.815406e+07	
20	1.000000e+00	3.889921e+07	
21	1.050000e+00	3.957721e+07	
22	1.100000e+00	4.019697e+07	
23	1.150000e+00	4.076583e+07	
24	1.200000e+00	4.128994e+07	
25	1.250000e+00	4.177444e+07	
26	1.300000e+00	4.222374e+07	
27	1.350000e+00	4.264158e+07	
28	1.400000e+00	4.303118e+07	
29	1.450000e+00	4.339534e+07	
30	1.500000e+00	4.373648e+07	
31	1.550000e+00	4.405674e+07	
32	1.600000e+00	4.435798e+07	
33	1.650000e+00	4.464184e+07	
34	1.700000e+00	4.490978e+07	
35	1.750000e+00	4.516307e+07	
36	1.800000e+00	4.540284e+07	
37	1.850000e+00	4.563005e+07	
38	1.900000e+00	4.584555e+07	
39	1.950000e+00	4.605004e+07	
40	2.000000e+00	4.624405e+07	
41	2.050000e+00	4.642797e+07	
42	2.100000e+00	4.660203e+07	
43	2.150000e+00	4.676623e+07	
44	2.200000e+00	4.692038e+07	
45	2.250000e+00	4.706404e+07	
46	2.300000e+00	4.719647e+07	
47	2.350000e+00	4.731666e+07	
48	2.400000e+00	4.742321e+07	
49	2.450000e+00	4.751440e+07	
50	2.500000e+00	4.758808e+07	
51	2.550000e+00	4.764169e+07	
52	2.600000e+00	4.767225e+07	
53	2.650000e+00	4.767632e+07	
54	2.700000e+00	4.765006e+07	

Index   v-sweep         rds             
--------------------------------------------------------------------------------
55	2.750000e+00	4.758924e+07	
56	2.800000e+00	4.748926e+07	
57	2.850000e+00	4.734527e+07	
58	2.900000e+00	4.715221e+07	
59	2.950000e+00	4.690497e+07	
60	3.000000e+00	4.659851e+07	
61	3.050000e+00	4.622803e+07	
62	3.100000e+00	4.578915e+07	
63	3.150000e+00	4.527808e+07	
64	3.200000e+00	4.469188e+07	
65	3.250000e+00	4.402854e+07	
66	3.300000e+00	4.328725e+07	
Reset re-loads circuit ***************************

Circuit: ***************************

Doing analysis at TEMP = 125.000000 and TNOM = 125.000000


No. of Data Rows : 67
                          ***************************
                          DC transfer characteristic  Mon Jan  9 13:58:14  2023
--------------------------------------------------------------------------------
Index   v-sweep         rds             
--------------------------------------------------------------------------------
0	0.000000e+00	1.401128e+04	
1	5.000000e-02	1.529719e+04	
2	1.000000e-01	1.683717e+04	
3	1.500000e-01	1.871473e+04	
4	2.000000e-01	2.105440e+04	
5	2.500000e-01	2.405044e+04	
6	3.000000e-01	2.802324e+04	
7	3.500000e-01	3.354080e+04	
8	4.000000e-01	4.171091e+04	
9	4.500000e-01	5.499681e+04	
10	5.000000e-01	7.997852e+04	
11	5.500000e-01	1.389016e+05	
12	6.000000e-01	3.169996e+05	
13	6.500000e-01	8.080569e+05	
14	7.000000e-01	1.637849e+06	
15	7.500000e-01	2.572163e+06	
16	8.000000e-01	3.455307e+06	
17	8.500000e-01	4.248976e+06	
18	9.000000e-01	4.956931e+06	
19	9.500000e-01	5.591313e+06	
20	1.000000e+00	6.163761e+06	
21	1.050000e+00	6.683839e+06	
22	1.100000e+00	7.159171e+06	
23	1.150000e+00	7.595848e+06	
24	1.200000e+00	7.998803e+06	
25	1.250000e+00	8.372081e+06	
26	1.300000e+00	8.719049e+06	
27	1.350000e+00	9.042541e+06	
28	1.400000e+00	9.344971e+06	
29	1.450000e+00	9.628410e+06	
30	1.500000e+00	9.894651e+06	
31	1.550000e+00	1.014526e+07	
32	1.600000e+00	1.038161e+07	
33	1.650000e+00	1.060490e+07	
34	1.700000e+00	1.081622e+07	
35	1.750000e+00	1.101651e+07	
36	1.800000e+00	1.120663e+07	
37	1.850000e+00	1.138734e+07	
38	1.900000e+00	1.155934e+07	
39	1.950000e+00	1.172323e+07	
40	2.000000e+00	1.187959e+07	
41	2.050000e+00	1.202892e+07	
42	2.100000e+00	1.217167e+07	
43	2.150000e+00	1.230824e+07	
44	2.200000e+00	1.243900e+07	
45	2.250000e+00	1.256425e+07	
46	2.300000e+00	1.268425e+07	
47	2.350000e+00	1.279918e+07	
48	2.400000e+00	1.290917e+07	
49	2.450000e+00	1.301425e+07	
50	2.500000e+00	1.311436e+07	
51	2.550000e+00	1.320932e+07	
52	2.600000e+00	1.329881e+07	
53	2.650000e+00	1.338237e+07	
54	2.700000e+00	1.345935e+07	

Index   v-sweep         rds             
--------------------------------------------------------------------------------
55	2.750000e+00	1.352889e+07	
56	2.800000e+00	1.358993e+07	
57	2.850000e+00	1.364115e+07	
58	2.900000e+00	1.368101e+07	
59	2.950000e+00	1.370768e+07	
60	3.000000e+00	1.371913e+07	
61	3.050000e+00	1.371309e+07	
62	3.100000e+00	1.368710e+07	
63	3.150000e+00	1.363862e+07	
64	3.200000e+00	1.356502e+07	
65	3.250000e+00	1.346377e+07	
66	3.300000e+00	1.333252e+07	
Reset re-loads circuit ***************************

Circuit: ***************************

Doing analysis at TEMP = 125.000000 and TNOM = 125.000000


No. of Data Rows : 67
                          ***************************
                          DC transfer characteristic  Mon Jan  9 13:58:14  2023
--------------------------------------------------------------------------------
Index   v-sweep         rds             
--------------------------------------------------------------------------------
0	0.000000e+00	8.899072e+03	
1	5.000000e-02	9.374491e+03	
2	1.000000e-01	9.901796e+03	
3	1.500000e-01	1.048997e+04	
4	2.000000e-01	1.115018e+04	
5	2.500000e-01	1.189654e+04	
6	3.000000e-01	1.274707e+04	
7	3.500000e-01	1.372520e+04	
8	4.000000e-01	1.486195e+04	
9	4.500000e-01	1.619929e+04	
10	5.000000e-01	1.779537e+04	
11	5.500000e-01	1.973321e+04	
12	6.000000e-01	2.213544e+04	
13	6.500000e-01	2.519105e+04	
14	7.000000e-01	2.920676e+04	
15	7.500000e-01	3.471393e+04	
16	8.000000e-01	4.271283e+04	
17	8.500000e-01	5.529776e+04	
18	9.000000e-01	7.745394e+04	
19	9.500000e-01	1.224568e+05	
20	1.000000e+00	2.234254e+05	
21	1.050000e+00	4.265001e+05	
22	1.100000e+00	7.299579e+05	
23	1.150000e+00	1.080380e+06	
24	1.200000e+00	1.434565e+06	
25	1.250000e+00	1.774060e+06	
26	1.300000e+00	2.093594e+06	
27	1.350000e+00	2.392844e+06	
28	1.400000e+00	2.673054e+06	
29	1.450000e+00	2.935835e+06	
30	1.500000e+00	3.182776e+06	
31	1.550000e+00	3.415324e+06	
32	1.600000e+00	3.634765e+06	
33	1.650000e+00	3.842233e+06	
34	1.700000e+00	4.038727e+06	
35	1.750000e+00	4.225134e+06	
36	1.800000e+00	4.402240e+06	
37	1.850000e+00	4.570747e+06	
38	1.900000e+00	4.731286e+06	
39	1.950000e+00	4.884422e+06	
40	2.000000e+00	5.030668e+06	
41	2.050000e+00	5.170488e+06	
42	2.100000e+00	5.304303e+06	
43	2.150000e+00	5.432498e+06	
44	2.200000e+00	5.555424e+06	
45	2.250000e+00	5.673403e+06	
46	2.300000e+00	5.786730e+06	
47	2.350000e+00	5.895676e+06	
48	2.400000e+00	6.000491e+06	
49	2.450000e+00	6.101401e+06	
50	2.500000e+00	6.198613e+06	
51	2.550000e+00	6.292314e+06	
52	2.600000e+00	6.382664e+06	
53	2.650000e+00	6.469802e+06	
54	2.700000e+00	6.553831e+06	

Index   v-sweep         rds             
--------------------------------------------------------------------------------
55	2.750000e+00	6.634821e+06	
56	2.800000e+00	6.712795e+06	
57	2.850000e+00	6.787720e+06	
58	2.900000e+00	6.859494e+06	
59	2.950000e+00	6.927932e+06	
60	3.000000e+00	6.992753e+06	
61	3.050000e+00	7.053555e+06	
62	3.100000e+00	7.109806e+06	
63	3.150000e+00	7.160820e+06	
64	3.200000e+00	7.205746e+06	
65	3.250000e+00	7.243554e+06	
66	3.300000e+00	7.273029e+06	
Reset re-loads circuit ***************************

Circuit: ***************************

Doing analysis at TEMP = 125.000000 and TNOM = 125.000000


No. of Data Rows : 67
                          ***************************
                          DC transfer characteristic  Mon Jan  9 13:58:14  2023
--------------------------------------------------------------------------------
Index   v-sweep         rds             
--------------------------------------------------------------------------------
0	0.000000e+00	6.807210e+03	
1	5.000000e-02	7.059117e+03	
2	1.000000e-01	7.329544e+03	
3	1.500000e-01	7.620608e+03	
4	2.000000e-01	7.934765e+03	
5	2.500000e-01	8.274877e+03	
6	3.000000e-01	8.644296e+03	
7	3.500000e-01	9.046980e+03	
8	4.000000e-01	9.487631e+03	
9	4.500000e-01	9.971884e+03	
10	5.000000e-01	1.050654e+04	
11	5.500000e-01	1.109991e+04	
12	6.000000e-01	1.176220e+04	
13	6.500000e-01	1.250618e+04	
14	7.000000e-01	1.334792e+04	
15	7.500000e-01	1.430805e+04	
16	8.000000e-01	1.541340e+04	
17	8.500000e-01	1.669957e+04	
18	9.000000e-01	1.821484e+04	
19	9.500000e-01	2.002624e+04	
20	1.000000e+00	2.222971e+04	
21	1.050000e+00	2.496738e+04	
22	1.100000e+00	2.845879e+04	
23	1.150000e+00	3.306077e+04	
24	1.200000e+00	3.939049e+04	
25	1.250000e+00	4.859861e+04	
26	1.300000e+00	6.301889e+04	
27	1.350000e+00	8.772782e+04	
28	1.400000e+00	1.334955e+05	
29	1.450000e+00	2.172309e+05	
30	1.500000e+00	3.487760e+05	
31	1.550000e+00	5.172587e+05	
32	1.600000e+00	7.031409e+05	
33	1.650000e+00	8.925608e+05	
34	1.700000e+00	1.078607e+06	
35	1.750000e+00	1.258386e+06	
36	1.800000e+00	1.430893e+06	
37	1.850000e+00	1.595953e+06	
38	1.900000e+00	1.753749e+06	
39	1.950000e+00	1.904606e+06	
40	2.000000e+00	2.048901e+06	
41	2.050000e+00	2.187016e+06	
42	2.100000e+00	2.319322e+06	
43	2.150000e+00	2.446167e+06	
44	2.200000e+00	2.567879e+06	
45	2.250000e+00	2.684763e+06	
46	2.300000e+00	2.797099e+06	
47	2.350000e+00	2.905149e+06	
48	2.400000e+00	3.009154e+06	
49	2.450000e+00	3.109338e+06	
50	2.500000e+00	3.205908e+06	
51	2.550000e+00	3.299059e+06	
52	2.600000e+00	3.388967e+06	
53	2.650000e+00	3.475802e+06	
54	2.700000e+00	3.559717e+06	

Index   v-sweep         rds             
--------------------------------------------------------------------------------
55	2.750000e+00	3.640858e+06	
56	2.800000e+00	3.719359e+06	
57	2.850000e+00	3.795344e+06	
58	2.900000e+00	3.868928e+06	
59	2.950000e+00	3.940216e+06	
60	3.000000e+00	4.009298e+06	
61	3.050000e+00	4.076252e+06	
62	3.100000e+00	4.141136e+06	
63	3.150000e+00	4.203987e+06	
64	3.200000e+00	4.264812e+06	
65	3.250000e+00	4.323583e+06	
66	3.300000e+00	4.380221e+06	
Reset re-loads circuit ***************************

Circuit: ***************************

Doing analysis at TEMP = 125.000000 and TNOM = 125.000000


No. of Data Rows : 67
                          ***************************
                          DC transfer characteristic  Mon Jan  9 13:58:14  2023
--------------------------------------------------------------------------------
Index   v-sweep         rds             
--------------------------------------------------------------------------------
0	0.000000e+00	5.717193e+03	
1	5.000000e-02	5.876464e+03	
2	1.000000e-01	6.044380e+03	
3	1.500000e-01	6.221662e+03	
4	2.000000e-01	6.409118e+03	
5	2.500000e-01	6.607648e+03	
6	3.000000e-01	6.818263e+03	
7	3.500000e-01	7.042099e+03	
8	4.000000e-01	7.280443e+03	
9	4.500000e-01	7.534750e+03	
10	5.000000e-01	7.806679e+03	
11	5.500000e-01	8.098127e+03	
12	6.000000e-01	8.411273e+03	
13	6.500000e-01	8.748632e+03	
14	7.000000e-01	9.113125e+03	
15	7.500000e-01	9.508160e+03	
16	8.000000e-01	9.937742e+03	
17	8.500000e-01	1.040661e+04	
18	9.000000e-01	1.092041e+04	
19	9.500000e-01	1.148592e+04	
20	1.000000e+00	1.211135e+04	
21	1.050000e+00	1.280676e+04	
22	1.100000e+00	1.358459e+04	
23	1.150000e+00	1.446039e+04	
24	1.200000e+00	1.545391e+04	
25	1.250000e+00	1.659055e+04	
26	1.300000e+00	1.790362e+04	
27	1.350000e+00	1.943757e+04	
28	1.400000e+00	2.125309e+04	
29	1.450000e+00	2.343529e+04	
30	1.500000e+00	2.610708e+04	
31	1.550000e+00	2.945263e+04	
32	1.600000e+00	3.375977e+04	
33	1.650000e+00	3.950175e+04	
34	1.700000e+00	4.750274e+04	
35	1.750000e+00	5.928536e+04	
36	1.800000e+00	7.777270e+04	
37	1.850000e+00	1.083437e+05	
38	1.900000e+00	1.587328e+05	
39	1.950000e+00	2.343724e+05	
40	2.000000e+00	3.325592e+05	
41	2.050000e+00	4.449159e+05	
42	2.100000e+00	5.636320e+05	
43	2.150000e+00	6.837387e+05	
44	2.200000e+00	8.025492e+05	
45	2.250000e+00	9.187178e+05	
46	2.300000e+00	1.031615e+06	
47	2.350000e+00	1.140983e+06	
48	2.400000e+00	1.246761e+06	
49	2.450000e+00	1.348989e+06	
50	2.500000e+00	1.447760e+06	
51	2.550000e+00	1.543195e+06	
52	2.600000e+00	1.635425e+06	
53	2.650000e+00	1.724587e+06	
54	2.700000e+00	1.810814e+06	

Index   v-sweep         rds             
--------------------------------------------------------------------------------
55	2.750000e+00	1.894240e+06	
56	2.800000e+00	1.974989e+06	
57	2.850000e+00	2.053183e+06	
58	2.900000e+00	2.128938e+06	
59	2.950000e+00	2.202362e+06	
60	3.000000e+00	2.273558e+06	
61	3.050000e+00	2.342625e+06	
62	3.100000e+00	2.409656e+06	
63	3.150000e+00	2.474737e+06	
64	3.200000e+00	2.537951e+06	
65	3.250000e+00	2.599376e+06	
66	3.300000e+00	2.659084e+06	
Reset re-loads circuit ***************************

Circuit: ***************************

Doing analysis at TEMP = 125.000000 and TNOM = 125.000000


No. of Data Rows : 67
                          ***************************
                          DC transfer characteristic  Mon Jan  9 13:58:14  2023
--------------------------------------------------------------------------------
Index   v-sweep         rds             
--------------------------------------------------------------------------------
0	0.000000e+00	5.083182e+03	
1	5.000000e-02	5.195082e+03	
2	1.000000e-01	5.311709e+03	
3	1.500000e-01	5.433368e+03	
4	2.000000e-01	5.560393e+03	
5	2.500000e-01	5.693144e+03	
6	3.000000e-01	5.832019e+03	
7	3.500000e-01	5.977451e+03	
8	4.000000e-01	6.129914e+03	
9	4.500000e-01	6.289932e+03	
10	5.000000e-01	6.458079e+03	
11	5.500000e-01	6.634991e+03	
12	6.000000e-01	6.821370e+03	
13	6.500000e-01	7.017998e+03	
14	7.000000e-01	7.225742e+03	
15	7.500000e-01	7.445574e+03	
16	8.000000e-01	7.678577e+03	
17	8.500000e-01	7.925973e+03	
18	9.000000e-01	8.189136e+03	
19	9.500000e-01	8.469624e+03	
20	1.000000e+00	8.769203e+03	
21	1.050000e+00	9.089890e+03	
22	1.100000e+00	9.433999e+03	
23	1.150000e+00	9.804189e+03	
24	1.200000e+00	1.020354e+04	
25	1.250000e+00	1.063565e+04	
26	1.300000e+00	1.110470e+04	
27	1.350000e+00	1.161565e+04	
28	1.400000e+00	1.217436e+04	
29	1.450000e+00	1.278788e+04	
30	1.500000e+00	1.346466e+04	
31	1.550000e+00	1.421503e+04	
32	1.600000e+00	1.505166e+04	
33	1.650000e+00	1.599032e+04	
34	1.700000e+00	1.705089e+04	
35	1.750000e+00	1.825874e+04	
36	1.800000e+00	1.964678e+04	
37	1.850000e+00	2.125852e+04	
38	1.900000e+00	2.315265e+04	
39	1.950000e+00	2.541022e+04	
40	2.000000e+00	2.814635e+04	
41	2.050000e+00	3.152983e+04	
42	2.100000e+00	3.581760e+04	
43	2.150000e+00	4.141766e+04	
44	2.200000e+00	4.900809e+04	
45	2.250000e+00	5.976165e+04	
46	2.300000e+00	7.572823e+04	
47	2.350000e+00	1.002376e+05	
48	2.400000e+00	1.374702e+05	
49	2.450000e+00	1.900805e+05	
50	2.500000e+00	2.567744e+05	
51	2.550000e+00	3.333317e+05	
52	2.600000e+00	4.153697e+05	
53	2.650000e+00	4.997110e+05	
54	2.700000e+00	5.843869e+05	

Index   v-sweep         rds             
--------------------------------------------------------------------------------
55	2.750000e+00	6.682575e+05	
56	2.800000e+00	7.506845e+05	
57	2.850000e+00	8.313217e+05	
58	2.900000e+00	9.099928e+05	
59	2.950000e+00	9.866212e+05	
60	3.000000e+00	1.061189e+06	
61	3.050000e+00	1.133714e+06	
62	3.100000e+00	1.204234e+06	
63	3.150000e+00	1.272800e+06	
64	3.200000e+00	1.339469e+06	
65	3.250000e+00	1.404304e+06	
66	3.300000e+00	1.467366e+06	
Reset re-loads circuit ***************************

Circuit: ***************************

Note: No ".plot", ".print", or ".fourier" lines; no simulations run
