
Note: Compatibility modes selected: hs

Warning: m=xx on .subckt line will override multiplier m hierarchy!


Circuit: ***************************

Doing analysis at TEMP = 125.000000 and TNOM = 125.000000


No. of Data Rows : 67
                          ***************************
                          DC transfer characteristic  Mon Jan  9 13:58:14  2023
--------------------------------------------------------------------------------
Index   v-sweep         rds             
--------------------------------------------------------------------------------
0	0.000000e+00	1.248622e+04	
1	5.000000e-02	1.548105e+04	
2	1.000000e-01	1.994370e+04	
3	1.500000e-01	2.713739e+04	
4	2.000000e-01	3.974713e+04	
5	2.500000e-01	6.240770e+04	
6	3.000000e-01	9.758248e+04	
7	3.500000e-01	1.382270e+05	
8	4.000000e-01	1.746087e+05	
9	4.500000e-01	2.033369e+05	
10	5.000000e-01	2.252101e+05	
11	5.500000e-01	2.418784e+05	
12	6.000000e-01	2.547386e+05	
13	6.500000e-01	2.648027e+05	
14	7.000000e-01	2.727803e+05	
15	7.500000e-01	2.791709e+05	
16	8.000000e-01	2.843323e+05	
17	8.500000e-01	2.885253e+05	
18	9.000000e-01	2.919441e+05	
19	9.500000e-01	2.947356e+05	
20	1.000000e+00	2.970128e+05	
21	1.050000e+00	2.988643e+05	
22	1.100000e+00	3.003599e+05	
23	1.150000e+00	3.015558e+05	
24	1.200000e+00	3.024973e+05	
25	1.250000e+00	3.032217e+05	
26	1.300000e+00	3.037595e+05	
27	1.350000e+00	3.041363e+05	
28	1.400000e+00	3.043736e+05	
29	1.450000e+00	3.044892e+05	
30	1.500000e+00	3.044987e+05	
31	1.550000e+00	3.044150e+05	
32	1.600000e+00	3.042494e+05	
33	1.650000e+00	3.040115e+05	
34	1.700000e+00	3.037099e+05	
35	1.750000e+00	3.033517e+05	
36	1.800000e+00	3.029432e+05	
37	1.850000e+00	3.024898e+05	
38	1.900000e+00	3.019964e+05	
39	1.950000e+00	3.014667e+05	
40	2.000000e+00	3.009042e+05	
41	2.050000e+00	3.003113e+05	
42	2.100000e+00	2.996900e+05	
43	2.150000e+00	2.990414e+05	
44	2.200000e+00	2.983657e+05	
45	2.250000e+00	2.976623e+05	
46	2.300000e+00	2.969294e+05	
47	2.350000e+00	2.961644e+05	
48	2.400000e+00	2.953630e+05	
49	2.450000e+00	2.945198e+05	
50	2.500000e+00	2.936277e+05	
51	2.550000e+00	2.926781e+05	
52	2.600000e+00	2.916605e+05	
53	2.650000e+00	2.905625e+05	
54	2.700000e+00	2.893699e+05	

Index   v-sweep         rds             
--------------------------------------------------------------------------------
55	2.750000e+00	2.880666e+05	
56	2.800000e+00	2.866344e+05	
57	2.850000e+00	2.850536e+05	
58	2.900000e+00	2.833027e+05	
59	2.950000e+00	2.813589e+05	
60	3.000000e+00	2.791985e+05	
61	3.050000e+00	2.767972e+05	
62	3.100000e+00	2.741308e+05	
63	3.150000e+00	2.711758e+05	
64	3.200000e+00	2.679102e+05	
65	3.250000e+00	2.643143e+05	
66	3.300000e+00	2.603714e+05	
Reset re-loads circuit ***************************

Circuit: ***************************

Doing analysis at TEMP = 125.000000 and TNOM = 125.000000


No. of Data Rows : 67
                          ***************************
                          DC transfer characteristic  Mon Jan  9 13:58:14  2023
--------------------------------------------------------------------------------
Index   v-sweep         rds             
--------------------------------------------------------------------------------
0	0.000000e+00	4.782719e+03	
1	5.000000e-02	5.274709e+03	
2	1.000000e-01	5.846910e+03	
3	1.500000e-01	6.520165e+03	
4	2.000000e-01	7.323178e+03	
5	2.500000e-01	8.296535e+03	
6	3.000000e-01	9.499362e+03	
7	3.500000e-01	1.102063e+04	
8	4.000000e-01	1.299833e+04	
9	4.500000e-01	1.564980e+04	
10	5.000000e-01	1.930516e+04	
11	5.500000e-01	2.438821e+04	
12	6.000000e-01	3.121940e+04	
13	6.500000e-01	3.966790e+04	
14	7.000000e-01	4.908227e+04	
15	7.500000e-01	5.866904e+04	
16	8.000000e-01	6.784747e+04	
17	8.500000e-01	7.631840e+04	
18	9.000000e-01	8.398252e+04	
19	9.500000e-01	9.084946e+04	
20	1.000000e+00	9.697819e+04	
21	1.050000e+00	1.024448e+05	
22	1.100000e+00	1.073268e+05	
23	1.150000e+00	1.116964e+05	
24	1.200000e+00	1.156180e+05	
25	1.250000e+00	1.191479e+05	
26	1.300000e+00	1.223346e+05	
27	1.350000e+00	1.252199e+05	
28	1.400000e+00	1.278397e+05	
29	1.450000e+00	1.302248e+05	
30	1.500000e+00	1.324017e+05	
31	1.550000e+00	1.343932e+05	
32	1.600000e+00	1.362193e+05	
33	1.650000e+00	1.378971e+05	
34	1.700000e+00	1.394416e+05	
35	1.750000e+00	1.408660e+05	
36	1.800000e+00	1.421818e+05	
37	1.850000e+00	1.433991e+05	
38	1.900000e+00	1.445268e+05	
39	1.950000e+00	1.455730e+05	
40	2.000000e+00	1.465446e+05	
41	2.050000e+00	1.474478e+05	
42	2.100000e+00	1.482883e+05	
43	2.150000e+00	1.490708e+05	
44	2.200000e+00	1.497997e+05	
45	2.250000e+00	1.504786e+05	
46	2.300000e+00	1.511106e+05	
47	2.350000e+00	1.516980e+05	
48	2.400000e+00	1.522427e+05	
49	2.450000e+00	1.527455e+05	
50	2.500000e+00	1.532065e+05	
51	2.550000e+00	1.536248e+05	
52	2.600000e+00	1.539982e+05	
53	2.650000e+00	1.543234e+05	
54	2.700000e+00	1.545955e+05	

Index   v-sweep         rds             
--------------------------------------------------------------------------------
55	2.750000e+00	1.548079e+05	
56	2.800000e+00	1.549524e+05	
57	2.850000e+00	1.550187e+05	
58	2.900000e+00	1.549944e+05	
59	2.950000e+00	1.548652e+05	
60	3.000000e+00	1.546146e+05	
61	3.050000e+00	1.542241e+05	
62	3.100000e+00	1.536736e+05	
63	3.150000e+00	1.529413e+05	
64	3.200000e+00	1.520046e+05	
65	3.250000e+00	1.508408e+05	
66	3.300000e+00	1.494273e+05	
Reset re-loads circuit ***************************

Circuit: ***************************

Doing analysis at TEMP = 125.000000 and TNOM = 125.000000


No. of Data Rows : 67
                          ***************************
                          DC transfer characteristic  Mon Jan  9 13:58:14  2023
--------------------------------------------------------------------------------
Index   v-sweep         rds             
--------------------------------------------------------------------------------
0	0.000000e+00	3.200057e+03	
1	5.000000e-02	3.422776e+03	
2	1.000000e-01	3.667524e+03	
3	1.500000e-01	3.937618e+03	
4	2.000000e-01	4.237081e+03	
5	2.500000e-01	4.570852e+03	
6	3.000000e-01	4.945061e+03	
7	3.500000e-01	5.367430e+03	
8	4.000000e-01	5.847843e+03	
9	4.500000e-01	6.399205e+03	
10	5.000000e-01	7.038768e+03	
11	5.500000e-01	7.790251e+03	
12	6.000000e-01	8.687345e+03	
13	6.500000e-01	9.779499e+03	
14	7.000000e-01	1.114095e+04	
15	7.500000e-01	1.288193e+04	
16	8.000000e-01	1.515257e+04	
17	8.500000e-01	1.811482e+04	
18	9.000000e-01	2.186351e+04	
19	9.500000e-01	2.634267e+04	
20	1.000000e+00	3.134825e+04	
21	1.050000e+00	3.661784e+04	
22	1.100000e+00	4.191912e+04	
23	1.150000e+00	4.708713e+04	
24	1.200000e+00	5.202215e+04	
25	1.250000e+00	5.667323e+04	
26	1.300000e+00	6.102146e+04	
27	1.350000e+00	6.506732e+04	
28	1.400000e+00	6.882224e+04	
29	1.450000e+00	7.230326e+04	
30	1.500000e+00	7.552982e+04	
31	1.550000e+00	7.852187e+04	
32	1.600000e+00	8.129884e+04	
33	1.650000e+00	8.387908e+04	
34	1.700000e+00	8.627957e+04	
35	1.750000e+00	8.851591e+04	
36	1.800000e+00	9.060224e+04	
37	1.850000e+00	9.255142e+04	
38	1.900000e+00	9.437504e+04	
39	1.950000e+00	9.608356e+04	
40	2.000000e+00	9.768643e+04	
41	2.050000e+00	9.919216e+04	
42	2.100000e+00	1.006084e+05	
43	2.150000e+00	1.019422e+05	
44	2.200000e+00	1.031998e+05	
45	2.250000e+00	1.043868e+05	
46	2.300000e+00	1.055084e+05	
47	2.350000e+00	1.065692e+05	
48	2.400000e+00	1.075733e+05	
49	2.450000e+00	1.085245e+05	
50	2.500000e+00	1.094258e+05	
51	2.550000e+00	1.102799e+05	
52	2.600000e+00	1.110889e+05	
53	2.650000e+00	1.118543e+05	
54	2.700000e+00	1.125768e+05	

Index   v-sweep         rds             
--------------------------------------------------------------------------------
55	2.750000e+00	1.132561e+05	
56	2.800000e+00	1.138912e+05	
57	2.850000e+00	1.144795e+05	
58	2.900000e+00	1.150172e+05	
59	2.950000e+00	1.154990e+05	
60	3.000000e+00	1.159177e+05	
61	3.050000e+00	1.162640e+05	
62	3.100000e+00	1.165266e+05	
63	3.150000e+00	1.166918e+05	
64	3.200000e+00	1.167438e+05	
65	3.250000e+00	1.166643e+05	
66	3.300000e+00	1.164331e+05	
Reset re-loads circuit ***************************

Circuit: ***************************

Doing analysis at TEMP = 125.000000 and TNOM = 125.000000


No. of Data Rows : 67
                          ***************************
                          DC transfer characteristic  Mon Jan  9 13:58:14  2023
--------------------------------------------------------------------------------
Index   v-sweep         rds             
--------------------------------------------------------------------------------
0	0.000000e+00	2.595519e+03	
1	5.000000e-02	2.737450e+03	
2	1.000000e-01	2.889797e+03	
3	1.500000e-01	3.053693e+03	
4	2.000000e-01	3.230442e+03	
5	2.500000e-01	3.421558e+03	
6	3.000000e-01	3.628808e+03	
7	3.500000e-01	3.854268e+03	
8	4.000000e-01	4.100399e+03	
9	4.500000e-01	4.370149e+03	
10	5.000000e-01	4.667084e+03	
11	5.500000e-01	4.995582e+03	
12	6.000000e-01	5.361106e+03	
13	6.500000e-01	5.770614e+03	
14	7.000000e-01	6.233192e+03	
15	7.500000e-01	6.761075e+03	
16	8.000000e-01	7.371306e+03	
17	8.500000e-01	8.088473e+03	
18	9.000000e-01	8.948986e+03	
19	9.500000e-01	1.000689e+04	
20	1.000000e+00	1.133889e+04	
21	1.050000e+00	1.304101e+04	
22	1.100000e+00	1.520562e+04	
23	1.150000e+00	1.787915e+04	
24	1.200000e+00	2.102865e+04	
25	1.250000e+00	2.454825e+04	
26	1.300000e+00	2.829867e+04	
27	1.350000e+00	3.214686e+04	
28	1.400000e+00	3.598697e+04	
29	1.450000e+00	3.974440e+04	
30	1.500000e+00	4.337145e+04	
31	1.550000e+00	4.684058e+04	
32	1.600000e+00	5.013838e+04	
33	1.650000e+00	5.326078e+04	
34	1.700000e+00	5.620970e+04	
35	1.750000e+00	5.899069e+04	
36	1.800000e+00	6.161140e+04	
37	1.850000e+00	6.408053e+04	
38	1.900000e+00	6.640724e+04	
39	1.950000e+00	6.860063e+04	
40	2.000000e+00	7.066960e+04	
41	2.050000e+00	7.262261e+04	
42	2.100000e+00	7.446765e+04	
43	2.150000e+00	7.621220e+04	
44	2.200000e+00	7.786320e+04	
45	2.250000e+00	7.942712e+04	
46	2.300000e+00	8.090989e+04	
47	2.350000e+00	8.231701e+04	
48	2.400000e+00	8.365354e+04	
49	2.450000e+00	8.492413e+04	
50	2.500000e+00	8.613305e+04	
51	2.550000e+00	8.728421e+04	
52	2.600000e+00	8.838116e+04	
53	2.650000e+00	8.942707e+04	
54	2.700000e+00	9.042476e+04	

Index   v-sweep         rds             
--------------------------------------------------------------------------------
55	2.750000e+00	9.137662e+04	
56	2.800000e+00	9.228454e+04	
57	2.850000e+00	9.314990e+04	
58	2.900000e+00	9.397337e+04	
59	2.950000e+00	9.475484e+04	
60	3.000000e+00	9.549323e+04	
61	3.050000e+00	9.618631e+04	
62	3.100000e+00	9.683047e+04	
63	3.150000e+00	9.742051e+04	
64	3.200000e+00	9.794939e+04	
65	3.250000e+00	9.840805e+04	
66	3.300000e+00	9.878513e+04	
Reset re-loads circuit ***************************

Circuit: ***************************

Doing analysis at TEMP = 125.000000 and TNOM = 125.000000


No. of Data Rows : 67
                          ***************************
                          DC transfer characteristic  Mon Jan  9 13:58:14  2023
--------------------------------------------------------------------------------
Index   v-sweep         rds             
--------------------------------------------------------------------------------
0	0.000000e+00	2.245469e+03	
1	5.000000e-02	2.347308e+03	
2	1.000000e-01	2.455109e+03	
3	1.500000e-01	2.569378e+03	
4	2.000000e-01	2.690681e+03	
5	2.500000e-01	2.819654e+03	
6	3.000000e-01	2.957012e+03	
7	3.500000e-01	3.103569e+03	
8	4.000000e-01	3.260246e+03	
9	4.500000e-01	3.428099e+03	
10	5.000000e-01	3.608345e+03	
11	5.500000e-01	3.802391e+03	
12	6.000000e-01	4.011886e+03	
13	6.500000e-01	4.238775e+03	
14	7.000000e-01	4.485385e+03	
15	7.500000e-01	4.754540e+03	
16	8.000000e-01	5.049731e+03	
17	8.500000e-01	5.375377e+03	
18	9.000000e-01	5.737220e+03	
19	9.500000e-01	6.142966e+03	
20	1.000000e+00	6.603311e+03	
21	1.050000e+00	7.133585e+03	
22	1.100000e+00	7.756264e+03	
23	1.150000e+00	8.504396e+03	
24	1.200000e+00	9.424997e+03	
25	1.250000e+00	1.057937e+04	
26	1.300000e+00	1.203481e+04	
27	1.350000e+00	1.384462e+04	
28	1.400000e+00	1.602392e+04	
29	1.450000e+00	1.853867e+04	
30	1.500000e+00	2.131621e+04	
31	1.550000e+00	2.426809e+04	
32	1.600000e+00	2.730996e+04	
33	1.650000e+00	3.037222e+04	
34	1.700000e+00	3.340271e+04	
35	1.750000e+00	3.636502e+04	
36	1.800000e+00	3.923537e+04	
37	1.850000e+00	4.199939e+04	
38	1.900000e+00	4.464951e+04	
39	1.950000e+00	4.718281e+04	
40	2.000000e+00	4.959960e+04	
41	2.050000e+00	5.190226e+04	
42	2.100000e+00	5.409450e+04	
43	2.150000e+00	5.618085e+04	
44	2.200000e+00	5.816625e+04	
45	2.250000e+00	6.005583e+04	
46	2.300000e+00	6.185474e+04	
47	2.350000e+00	6.356802e+04	
48	2.400000e+00	6.520055e+04	
49	2.450000e+00	6.675698e+04	
50	2.500000e+00	6.824175e+04	
51	2.550000e+00	6.965903e+04	
52	2.600000e+00	7.101276e+04	
53	2.650000e+00	7.230662e+04	
54	2.700000e+00	7.354404e+04	

Index   v-sweep         rds             
--------------------------------------------------------------------------------
55	2.750000e+00	7.472820e+04	
56	2.800000e+00	7.586206e+04	
57	2.850000e+00	7.694827e+04	
58	2.900000e+00	7.798921e+04	
59	2.950000e+00	7.898692e+04	
60	3.000000e+00	7.994307e+04	
61	3.050000e+00	8.085881e+04	
62	3.100000e+00	8.173473e+04	
63	3.150000e+00	8.257066e+04	
64	3.200000e+00	8.336556e+04	
65	3.250000e+00	8.411726e+04	
66	3.300000e+00	8.482228e+04	
Reset re-loads circuit ***************************

Circuit: ***************************

Doing analysis at TEMP = 125.000000 and TNOM = 125.000000


No. of Data Rows : 67
                          ***************************
                          DC transfer characteristic  Mon Jan  9 13:58:14  2023
--------------------------------------------------------------------------------
Index   v-sweep         rds             
--------------------------------------------------------------------------------
0	0.000000e+00	2.032527e+03	
1	5.000000e-02	2.111891e+03	
2	1.000000e-01	2.195151e+03	
3	1.500000e-01	2.282581e+03	
4	2.000000e-01	2.374478e+03	
5	2.500000e-01	2.471173e+03	
6	3.000000e-01	2.573030e+03	
7	3.500000e-01	2.680451e+03	
8	4.000000e-01	2.793883e+03	
9	4.500000e-01	2.913823e+03	
10	5.000000e-01	3.040828e+03	
11	5.500000e-01	3.175523e+03	
12	6.000000e-01	3.318614e+03	
13	6.500000e-01	3.470901e+03	
14	7.000000e-01	3.633299e+03	
15	7.500000e-01	3.806864e+03	
16	8.000000e-01	3.992821e+03	
17	8.500000e-01	4.192613e+03	
18	9.000000e-01	4.407961e+03	
19	9.500000e-01	4.640958e+03	
20	1.000000e+00	4.894195e+03	
21	1.050000e+00	5.170969e+03	
22	1.100000e+00	5.475594e+03	
23	1.150000e+00	5.813892e+03	
24	1.200000e+00	6.193965e+03	
25	1.250000e+00	6.627398e+03	
26	1.300000e+00	7.131016e+03	
27	1.350000e+00	7.729183e+03	
28	1.400000e+00	8.456040e+03	
29	1.450000e+00	9.355906e+03	
30	1.500000e+00	1.047879e+04	
31	1.550000e+00	1.186884e+04	
32	1.600000e+00	1.354867e+04	
33	1.650000e+00	1.550880e+04	
34	1.700000e+00	1.770938e+04	
35	1.750000e+00	2.009214e+04	
36	1.800000e+00	2.259451e+04	
37	1.850000e+00	2.515954e+04	
38	1.900000e+00	2.774059e+04	
39	1.950000e+00	3.030207e+04	
40	2.000000e+00	3.281829e+04	
41	2.050000e+00	3.527155e+04	
42	2.100000e+00	3.765036e+04	
43	2.150000e+00	3.994783e+04	
44	2.200000e+00	4.216037e+04	
45	2.250000e+00	4.428681e+04	
46	2.300000e+00	4.632762e+04	
47	2.350000e+00	4.828441e+04	
48	2.400000e+00	5.015953e+04	
49	2.450000e+00	5.195586e+04	
50	2.500000e+00	5.367650e+04	
51	2.550000e+00	5.532475e+04	
52	2.600000e+00	5.690392e+04	
53	2.650000e+00	5.841731e+04	
54	2.700000e+00	5.986815e+04	

Index   v-sweep         rds             
--------------------------------------------------------------------------------
55	2.750000e+00	6.125957e+04	
56	2.800000e+00	6.259457e+04	
57	2.850000e+00	6.387601e+04	
58	2.900000e+00	6.510660e+04	
59	2.950000e+00	6.628890e+04	
60	3.000000e+00	6.742530e+04	
61	3.050000e+00	6.851797e+04	
62	3.100000e+00	6.956888e+04	
63	3.150000e+00	7.057970e+04	
64	3.200000e+00	7.155178e+04	
65	3.250000e+00	7.248603e+04	
66	3.300000e+00	7.338283e+04	
Reset re-loads circuit ***************************

Circuit: ***************************

Note: No ".plot", ".print", or ".fourier" lines; no simulations run
