
Note: Compatibility modes selected: hs

Warning: m=xx on .subckt line will override multiplier m hierarchy!


Circuit: ***************************

Doing analysis at TEMP = 125.000000 and TNOM = 125.000000


No. of Data Rows : 67
                          ***************************
                          DC transfer characteristic  Mon Jan  9 13:58:14  2023
--------------------------------------------------------------------------------
Index   v-sweep         rds             
--------------------------------------------------------------------------------
0	0.000000e+00	2.119835e+05	
1	5.000000e-02	2.702618e+05	
2	1.000000e-01	3.720263e+05	
3	1.500000e-01	5.927865e+05	
4	2.000000e-01	1.342994e+06	
5	2.500000e-01	6.341341e+06	
6	3.000000e-01	2.807418e+07	
7	3.500000e-01	6.068833e+07	
8	4.000000e-01	8.908945e+07	
9	4.500000e-01	1.109300e+08	
10	5.000000e-01	1.279012e+08	
11	5.500000e-01	1.415272e+08	
12	6.000000e-01	1.527938e+08	
13	6.500000e-01	1.623253e+08	
14	7.000000e-01	1.705319e+08	
15	7.500000e-01	1.776955e+08	
16	8.000000e-01	1.840178e+08	
17	8.500000e-01	1.896481e+08	
18	9.000000e-01	1.947003e+08	
19	9.500000e-01	1.992630e+08	
20	1.000000e+00	2.034068e+08	
21	1.050000e+00	2.071889e+08	
22	1.100000e+00	2.106558e+08	
23	1.150000e+00	2.138464e+08	
24	1.200000e+00	2.167930e+08	
25	1.250000e+00	2.195232e+08	
26	1.300000e+00	2.220602e+08	
27	1.350000e+00	2.244242e+08	
28	1.400000e+00	2.266325e+08	
29	1.450000e+00	2.287001e+08	
30	1.500000e+00	2.306401e+08	
31	1.550000e+00	2.324641e+08	
32	1.600000e+00	2.341822e+08	
33	1.650000e+00	2.358034e+08	
34	1.700000e+00	2.373356e+08	
35	1.750000e+00	2.387858e+08	
36	1.800000e+00	2.401602e+08	
37	1.850000e+00	2.414641e+08	
38	1.900000e+00	2.427023e+08	
39	1.950000e+00	2.438785e+08	
40	2.000000e+00	2.449959e+08	
41	2.050000e+00	2.460568e+08	
42	2.100000e+00	2.470623e+08	
43	2.150000e+00	2.480127e+08	
44	2.200000e+00	2.489072e+08	
45	2.250000e+00	2.497434e+08	
46	2.300000e+00	2.505177e+08	
47	2.350000e+00	2.512244e+08	
48	2.400000e+00	2.518565e+08	
49	2.450000e+00	2.524044e+08	
50	2.500000e+00	2.528568e+08	
51	2.550000e+00	2.531999e+08	
52	2.600000e+00	2.534175e+08	
53	2.650000e+00	2.534912e+08	
54	2.700000e+00	2.534000e+08	

Index   v-sweep         rds             
--------------------------------------------------------------------------------
55	2.750000e+00	2.531209e+08	
56	2.800000e+00	2.526290e+08	
57	2.850000e+00	2.518978e+08	
58	2.900000e+00	2.508998e+08	
59	2.950000e+00	2.496071e+08	
60	3.000000e+00	2.479921e+08	
61	3.050000e+00	2.460286e+08	
62	3.100000e+00	2.436927e+08	
63	3.150000e+00	2.409639e+08	
64	3.200000e+00	2.378261e+08	
65	3.250000e+00	2.342685e+08	
66	3.300000e+00	2.302869e+08	
Reset re-loads circuit ***************************

Circuit: ***************************

Doing analysis at TEMP = 125.000000 and TNOM = 125.000000


No. of Data Rows : 67
                          ***************************
                          DC transfer characteristic  Mon Jan  9 13:58:14  2023
--------------------------------------------------------------------------------
Index   v-sweep         rds             
--------------------------------------------------------------------------------
0	0.000000e+00	7.604402e+04	
1	5.000000e-02	8.302896e+04	
2	1.000000e-01	9.139775e+04	
3	1.500000e-01	1.016065e+05	
4	2.000000e-01	1.143364e+05	
5	2.500000e-01	1.306511e+05	
6	3.000000e-01	1.523082e+05	
7	3.500000e-01	1.824307e+05	
8	4.000000e-01	2.271273e+05	
9	4.500000e-01	3.000387e+05	
10	5.000000e-01	4.378205e+05	
11	5.500000e-01	7.653450e+05	
12	6.000000e-01	1.762682e+06	
13	6.500000e-01	4.499886e+06	
14	7.000000e-01	9.042959e+06	
15	7.500000e-01	1.405663e+07	
16	8.000000e-01	1.873178e+07	
17	8.500000e-01	2.290664e+07	
18	9.000000e-01	2.662498e+07	
19	9.500000e-01	2.996089e+07	
20	1.000000e+00	3.297894e+07	
21	1.050000e+00	3.572984e+07	
22	1.100000e+00	3.825293e+07	
23	1.150000e+00	4.057918e+07	
24	1.200000e+00	4.273336e+07	
25	1.250000e+00	4.473571e+07	
26	1.300000e+00	4.660303e+07	
27	1.350000e+00	4.834945e+07	
28	1.400000e+00	4.998701e+07	
29	1.450000e+00	5.152607e+07	
30	1.500000e+00	5.297560e+07	
31	1.550000e+00	5.434349e+07	
32	1.600000e+00	5.563663e+07	
33	1.650000e+00	5.686116e+07	
34	1.700000e+00	5.802251e+07	
35	1.750000e+00	5.912554e+07	
36	1.800000e+00	6.017461e+07	
37	1.850000e+00	6.117364e+07	
38	1.900000e+00	6.212618e+07	
39	1.950000e+00	6.303541e+07	
40	2.000000e+00	6.390424e+07	
41	2.050000e+00	6.473528e+07	
42	2.100000e+00	6.553091e+07	
43	2.150000e+00	6.629323e+07	
44	2.200000e+00	6.702411e+07	
45	2.250000e+00	6.772515e+07	
46	2.300000e+00	6.839767e+07	
47	2.350000e+00	6.904265e+07	
48	2.400000e+00	6.966072e+07	
49	2.450000e+00	7.025204e+07	
50	2.500000e+00	7.081624e+07	
51	2.550000e+00	7.135233e+07	
52	2.600000e+00	7.185861e+07	
53	2.650000e+00	7.233249e+07	
54	2.700000e+00	7.277045e+07	

Index   v-sweep         rds             
--------------------------------------------------------------------------------
55	2.750000e+00	7.316785e+07	
56	2.800000e+00	7.351886e+07	
57	2.850000e+00	7.381637e+07	
58	2.900000e+00	7.405190e+07	
59	2.950000e+00	7.421562e+07	
60	3.000000e+00	7.429637e+07	
61	3.050000e+00	7.428179e+07	
62	3.100000e+00	7.415855e+07	
63	3.150000e+00	7.391264e+07	
64	3.200000e+00	7.352985e+07	
65	3.250000e+00	7.299630e+07	
66	3.300000e+00	7.229909e+07	
Reset re-loads circuit ***************************

Circuit: ***************************

Doing analysis at TEMP = 125.000000 and TNOM = 125.000000


No. of Data Rows : 67
                          ***************************
                          DC transfer characteristic  Mon Jan  9 13:58:14  2023
--------------------------------------------------------------------------------
Index   v-sweep         rds             
--------------------------------------------------------------------------------
0	0.000000e+00	4.792255e+04	
1	5.000000e-02	5.049120e+04	
2	1.000000e-01	5.334181e+04	
3	1.500000e-01	5.652349e+04	
4	2.000000e-01	6.009744e+04	
5	2.500000e-01	6.414097e+04	
6	3.000000e-01	6.875306e+04	
7	3.500000e-01	7.406264e+04	
8	4.000000e-01	8.024076e+04	
9	4.500000e-01	8.751933e+04	
10	5.000000e-01	9.622073e+04	
11	5.500000e-01	1.068066e+05	
12	6.000000e-01	1.199618e+05	
13	6.500000e-01	1.367469e+05	
14	7.000000e-01	1.588939e+05	
15	7.500000e-01	1.894263e+05	
16	8.000000e-01	2.340930e+05	
17	8.500000e-01	3.050831e+05	
18	9.000000e-01	4.318331e+05	
19	9.500000e-01	6.934493e+05	
20	1.000000e+00	1.283243e+06	
21	1.050000e+00	2.443668e+06	
22	1.100000e+00	4.115888e+06	
23	1.150000e+00	5.989615e+06	
24	1.200000e+00	7.848894e+06	
25	1.250000e+00	9.614152e+06	
26	1.300000e+00	1.126876e+07	
27	1.350000e+00	1.281668e+07	
28	1.400000e+00	1.426703e+07	
29	1.450000e+00	1.562934e+07	
30	1.500000e+00	1.691223e+07	
31	1.550000e+00	1.812323e+07	
32	1.600000e+00	1.926885e+07	
33	1.650000e+00	2.035473e+07	
34	1.700000e+00	2.138580e+07	
35	1.750000e+00	2.236638e+07	
36	1.800000e+00	2.330033e+07	
37	1.850000e+00	2.419104e+07	
38	1.900000e+00	2.504159e+07	
39	1.950000e+00	2.585472e+07	
40	2.000000e+00	2.663294e+07	
41	2.050000e+00	2.737850e+07	
42	2.100000e+00	2.809347e+07	
43	2.150000e+00	2.877973e+07	
44	2.200000e+00	2.943900e+07	
45	2.250000e+00	3.007288e+07	
46	2.300000e+00	3.068281e+07	
47	2.350000e+00	3.127014e+07	
48	2.400000e+00	3.183611e+07	
49	2.450000e+00	3.238183e+07	
50	2.500000e+00	3.290835e+07	
51	2.550000e+00	3.341658e+07	
52	2.600000e+00	3.390732e+07	
53	2.650000e+00	3.438125e+07	
54	2.700000e+00	3.483888e+07	

Index   v-sweep         rds             
--------------------------------------------------------------------------------
55	2.750000e+00	3.528053e+07	
56	2.800000e+00	3.570628e+07	
57	2.850000e+00	3.611590e+07	
58	2.900000e+00	3.650882e+07	
59	2.950000e+00	3.688401e+07	
60	3.000000e+00	3.723993e+07	
61	3.050000e+00	3.757439e+07	
62	3.100000e+00	3.788452e+07	
63	3.150000e+00	3.816661e+07	
64	3.200000e+00	3.841609e+07	
65	3.250000e+00	3.862742e+07	
66	3.300000e+00	3.879407e+07	
Reset re-loads circuit ***************************

Circuit: ***************************

Doing analysis at TEMP = 125.000000 and TNOM = 125.000000


No. of Data Rows : 67
                          ***************************
                          DC transfer characteristic  Mon Jan  9 13:58:14  2023
--------------------------------------------------------------------------------
Index   v-sweep         rds             
--------------------------------------------------------------------------------
0	0.000000e+00	3.632784e+04	
1	5.000000e-02	3.768072e+04	
2	1.000000e-01	3.913397e+04	
3	1.500000e-01	4.069919e+04	
4	2.000000e-01	4.238983e+04	
5	2.500000e-01	4.422159e+04	
6	3.000000e-01	4.621291e+04	
7	3.500000e-01	4.838557e+04	
8	4.000000e-01	5.076552e+04	
9	4.500000e-01	5.338390e+04	
10	5.000000e-01	5.627840e+04	
11	5.500000e-01	5.949513e+04	
12	6.000000e-01	6.309104e+04	
13	6.500000e-01	6.713733e+04	
14	7.000000e-01	7.172421e+04	
15	7.500000e-01	7.696769e+04	
16	8.000000e-01	8.301949e+04	
17	8.500000e-01	9.008186e+04	
18	9.000000e-01	9.843055e+04	
19	9.500000e-01	1.084513e+05	
20	1.000000e+00	1.207005e+05	
21	1.050000e+00	1.360103e+05	
22	1.100000e+00	1.556809e+05	
23	1.150000e+00	1.818556e+05	
24	1.200000e+00	2.183049e+05	
25	1.250000e+00	2.722000e+05	
26	1.300000e+00	3.583849e+05	
27	1.350000e+00	5.094718e+05	
28	1.400000e+00	7.924925e+05	
29	1.450000e+00	1.299174e+06	
30	1.500000e+00	2.055902e+06	
31	1.550000e+00	2.977977e+06	
32	1.600000e+00	3.961703e+06	
33	1.650000e+00	4.945248e+06	
34	1.700000e+00	5.901680e+06	
35	1.750000e+00	6.821422e+06	
36	1.800000e+00	7.702225e+06	
37	1.850000e+00	8.544744e+06	
38	1.900000e+00	9.350710e+06	
39	1.950000e+00	1.012218e+07	
40	2.000000e+00	1.086126e+07	
41	2.050000e+00	1.156993e+07	
42	2.100000e+00	1.225007e+07	
43	2.150000e+00	1.290341e+07	
44	2.200000e+00	1.353154e+07	
45	2.250000e+00	1.413593e+07	
46	2.300000e+00	1.471793e+07	
47	2.350000e+00	1.527880e+07	
48	2.400000e+00	1.581967e+07	
49	2.450000e+00	1.634163e+07	
50	2.500000e+00	1.684566e+07	
51	2.550000e+00	1.733268e+07	
52	2.600000e+00	1.780356e+07	
53	2.650000e+00	1.825908e+07	
54	2.700000e+00	1.869999e+07	

Index   v-sweep         rds             
--------------------------------------------------------------------------------
55	2.750000e+00	1.912698e+07	
56	2.800000e+00	1.954071e+07	
57	2.850000e+00	1.994177e+07	
58	2.900000e+00	2.033071e+07	
59	2.950000e+00	2.070802e+07	
60	3.000000e+00	2.107415e+07	
61	3.050000e+00	2.142944e+07	
62	3.100000e+00	2.177416e+07	
63	3.150000e+00	2.210846e+07	
64	3.200000e+00	2.243232e+07	
65	3.250000e+00	2.274553e+07	
66	3.300000e+00	2.304764e+07	
Reset re-loads circuit ***************************

Circuit: ***************************

Doing analysis at TEMP = 125.000000 and TNOM = 125.000000


No. of Data Rows : 67
                          ***************************
                          DC transfer characteristic  Mon Jan  9 13:58:14  2023
--------------------------------------------------------------------------------
Index   v-sweep         rds             
--------------------------------------------------------------------------------
0	0.000000e+00	3.015169e+04	
1	5.000000e-02	3.099800e+04	
2	1.000000e-01	3.189071e+04	
3	1.500000e-01	3.283375e+04	
4	2.000000e-01	3.383149e+04	
5	2.500000e-01	3.488884e+04	
6	3.000000e-01	3.601129e+04	
7	3.500000e-01	3.720505e+04	
8	4.000000e-01	3.847714e+04	
9	4.500000e-01	3.983551e+04	
10	5.000000e-01	4.128926e+04	
11	5.500000e-01	4.284879e+04	
12	6.000000e-01	4.452607e+04	
13	6.500000e-01	4.633497e+04	
14	7.000000e-01	4.829159e+04	
15	7.500000e-01	5.041480e+04	
16	8.000000e-01	5.272682e+04	
17	8.500000e-01	5.525397e+04	
18	9.000000e-01	5.802776e+04	
19	9.500000e-01	6.108611e+04	
20	1.000000e+00	6.447516e+04	
21	1.050000e+00	6.825159e+04	
22	1.100000e+00	7.248579e+04	
23	1.150000e+00	7.726629e+04	
24	1.200000e+00	8.270601e+04	
25	1.250000e+00	8.895124e+04	
26	1.300000e+00	9.619488e+04	
27	1.350000e+00	1.046966e+05	
28	1.400000e+00	1.148144e+05	
29	1.450000e+00	1.270551e+05	
30	1.500000e+00	1.421605e+05	
31	1.550000e+00	1.612581e+05	
32	1.600000e+00	1.861410e+05	
33	1.650000e+00	2.198164e+05	
34	1.700000e+00	2.676338e+05	
35	1.750000e+00	3.396536e+05	
36	1.800000e+00	4.551795e+05	
37	1.850000e+00	6.478785e+05	
38	1.900000e+00	9.583646e+05	
39	1.950000e+00	1.400834e+06	
40	2.000000e+00	1.944212e+06	
41	2.050000e+00	2.541148e+06	
42	2.100000e+00	3.156271e+06	
43	2.150000e+00	3.769787e+06	
44	2.200000e+00	4.371952e+06	
45	2.250000e+00	4.958324e+06	
46	2.300000e+00	5.527102e+06	
47	2.350000e+00	6.077788e+06	
48	2.400000e+00	6.610525e+06	
49	2.450000e+00	7.125772e+06	
50	2.500000e+00	7.624138e+06	
51	2.550000e+00	8.106293e+06	
52	2.600000e+00	8.572924e+06	
53	2.650000e+00	9.024712e+06	
54	2.700000e+00	9.462316e+06	

Index   v-sweep         rds             
--------------------------------------------------------------------------------
55	2.750000e+00	9.886368e+06	
56	2.800000e+00	1.029747e+07	
57	2.850000e+00	1.069620e+07	
58	2.900000e+00	1.108309e+07	
59	2.950000e+00	1.145866e+07	
60	3.000000e+00	1.182339e+07	
61	3.050000e+00	1.217775e+07	
62	3.100000e+00	1.252217e+07	
63	3.150000e+00	1.285705e+07	
64	3.200000e+00	1.318278e+07	
65	3.250000e+00	1.349974e+07	
66	3.300000e+00	1.380824e+07	
Reset re-loads circuit ***************************

Circuit: ***************************

Doing analysis at TEMP = 125.000000 and TNOM = 125.000000


No. of Data Rows : 67
                          ***************************
                          DC transfer characteristic  Mon Jan  9 13:58:14  2023
--------------------------------------------------------------------------------
Index   v-sweep         rds             
--------------------------------------------------------------------------------
0	0.000000e+00	2.654611e+04	
1	5.000000e-02	2.713671e+04	
2	1.000000e-01	2.775260e+04	
3	1.500000e-01	2.839542e+04	
4	2.000000e-01	2.906697e+04	
5	2.500000e-01	2.976924e+04	
6	3.000000e-01	3.050436e+04	
7	3.500000e-01	3.127471e+04	
8	4.000000e-01	3.208287e+04	
9	4.500000e-01	3.293170e+04	
10	5.000000e-01	3.382435e+04	
11	5.500000e-01	3.476428e+04	
12	6.000000e-01	3.575537e+04	
13	6.500000e-01	3.680190e+04	
14	7.000000e-01	3.790866e+04	
15	7.500000e-01	3.908099e+04	
16	8.000000e-01	4.032491e+04	
17	8.500000e-01	4.164716e+04	
18	9.000000e-01	4.305538e+04	
19	9.500000e-01	4.455825e+04	
20	1.000000e+00	4.616562e+04	
21	1.050000e+00	4.788879e+04	
22	1.100000e+00	4.974074e+04	
23	1.150000e+00	5.173644e+04	
24	1.200000e+00	5.389331e+04	
25	1.250000e+00	5.623169e+04	
26	1.300000e+00	5.877548e+04	
27	1.350000e+00	6.155299e+04	
28	1.400000e+00	6.459796e+04	
29	1.450000e+00	6.795095e+04	
30	1.500000e+00	7.166117e+04	
31	1.550000e+00	7.578888e+04	
32	1.600000e+00	8.040870e+04	
33	1.650000e+00	8.561412e+04	
34	1.700000e+00	9.152391e+04	
35	1.750000e+00	9.829118e+04	
36	1.800000e+00	1.061168e+05	
37	1.850000e+00	1.152695e+05	
38	1.900000e+00	1.261167e+05	
39	1.950000e+00	1.391744e+05	
40	2.000000e+00	1.551890e+05	
41	2.050000e+00	1.752788e+05	
42	2.100000e+00	2.011872e+05	
43	2.150000e+00	2.357564e+05	
44	2.200000e+00	2.838244e+05	
45	2.250000e+00	3.538520e+05	
46	2.300000e+00	4.602168e+05	
47	2.350000e+00	6.236362e+05	
48	2.400000e+00	8.630032e+05	
49	2.450000e+00	1.179863e+06	
50	2.500000e+00	1.555734e+06	
51	2.550000e+00	1.966254e+06	
52	2.600000e+00	2.392370e+06	
53	2.650000e+00	2.822164e+06	
54	2.700000e+00	3.248865e+06	

Index   v-sweep         rds             
--------------------------------------------------------------------------------
55	2.750000e+00	3.668792e+06	
56	2.800000e+00	4.080006e+06	
57	2.850000e+00	4.481545e+06	
58	2.900000e+00	4.872998e+06	
59	2.950000e+00	5.254270e+06	
60	3.000000e+00	5.625447e+06	
61	3.050000e+00	5.986721e+06	
62	3.100000e+00	6.338343e+06	
63	3.150000e+00	6.680597e+06	
64	3.200000e+00	7.013781e+06	
65	3.250000e+00	7.338202e+06	
66	3.300000e+00	7.654161e+06	
Reset re-loads circuit ***************************

Circuit: ***************************

Note: No ".plot", ".print", or ".fourier" lines; no simulations run
