
Note: Compatibility modes selected: hs

Warning: m=xx on .subckt line will override multiplier m hierarchy!


Circuit: ***************************

Doing analysis at TEMP = 125.000000 and TNOM = 125.000000


No. of Data Rows : 67
                          ***************************
                          DC transfer characteristic  Mon Jan  9 13:58:14  2023
--------------------------------------------------------------------------------
Index   v-sweep         rds             
--------------------------------------------------------------------------------
0	0.000000e+00	4.782505e+04	
1	5.000000e-02	6.037287e+04	
2	1.000000e-01	8.124373e+04	
3	1.500000e-01	1.222453e+05	
4	2.000000e-01	2.289986e+05	
5	2.500000e-01	6.099646e+05	
6	3.000000e-01	1.658727e+06	
7	3.500000e-01	3.071769e+06	
8	4.000000e-01	4.367167e+06	
9	4.500000e-01	5.472212e+06	
10	5.000000e-01	6.426434e+06	
11	5.500000e-01	7.266827e+06	
12	6.000000e-01	8.018316e+06	
13	6.500000e-01	8.697680e+06	
14	7.000000e-01	9.316784e+06	
15	7.500000e-01	9.884454e+06	
16	8.000000e-01	1.040753e+07	
17	8.500000e-01	1.089150e+07	
18	9.000000e-01	1.134084e+07	
19	9.500000e-01	1.175931e+07	
20	1.000000e+00	1.215010e+07	
21	1.050000e+00	1.251593e+07	
22	1.100000e+00	1.285917e+07	
23	1.150000e+00	1.318186e+07	
24	1.200000e+00	1.348581e+07	
25	1.250000e+00	1.377263e+07	
26	1.300000e+00	1.404372e+07	
27	1.350000e+00	1.430033e+07	
28	1.400000e+00	1.454361e+07	
29	1.450000e+00	1.477455e+07	
30	1.500000e+00	1.499406e+07	
31	1.550000e+00	1.520298e+07	
32	1.600000e+00	1.540203e+07	
33	1.650000e+00	1.559189e+07	
34	1.700000e+00	1.577318e+07	
35	1.750000e+00	1.594643e+07	
36	1.800000e+00	1.611213e+07	
37	1.850000e+00	1.627074e+07	
38	1.900000e+00	1.642261e+07	
39	1.950000e+00	1.656806e+07	
40	2.000000e+00	1.670733e+07	
41	2.050000e+00	1.684059e+07	
42	2.100000e+00	1.696789e+07	
43	2.150000e+00	1.708918e+07	
44	2.200000e+00	1.720428e+07	
45	2.250000e+00	1.731287e+07	
46	2.300000e+00	1.741442e+07	
47	2.350000e+00	1.750823e+07	
48	2.400000e+00	1.759334e+07	
49	2.450000e+00	1.766857e+07	
50	2.500000e+00	1.773245e+07	
51	2.550000e+00	1.778324e+07	
52	2.600000e+00	1.781888e+07	
53	2.650000e+00	1.783707e+07	
54	2.700000e+00	1.783519e+07	

Index   v-sweep         rds             
--------------------------------------------------------------------------------
55	2.750000e+00	1.781044e+07	
56	2.800000e+00	1.775980e+07	
57	2.850000e+00	1.768020e+07	
58	2.900000e+00	1.756857e+07	
59	2.950000e+00	1.742195e+07	
60	3.000000e+00	1.723768e+07	
61	3.050000e+00	1.701355e+07	
62	3.100000e+00	1.674793e+07	
63	3.150000e+00	1.643993e+07	
64	3.200000e+00	1.608954e+07	
65	3.250000e+00	1.569771e+07	
66	3.300000e+00	1.526641e+07	
Reset re-loads circuit ***************************

Circuit: ***************************

Doing analysis at TEMP = 125.000000 and TNOM = 125.000000


No. of Data Rows : 67
                          ***************************
                          DC transfer characteristic  Mon Jan  9 13:58:14  2023
--------------------------------------------------------------------------------
Index   v-sweep         rds             
--------------------------------------------------------------------------------
0	0.000000e+00	1.608855e+04	
1	5.000000e-02	1.754022e+04	
2	1.000000e-01	1.924962e+04	
3	1.500000e-01	2.129187e+04	
4	2.000000e-01	2.377429e+04	
5	2.500000e-01	2.685571e+04	
6	3.000000e-01	3.078123e+04	
7	3.500000e-01	3.594915e+04	
8	4.000000e-01	4.304941e+04	
9	4.500000e-01	5.337549e+04	
10	5.000000e-01	6.959035e+04	
11	5.500000e-01	9.767593e+04	
12	6.000000e-01	1.508812e+05	
13	6.500000e-01	2.491774e+05	
14	7.000000e-01	3.966704e+05	
15	7.500000e-01	5.708688e+05	
16	8.000000e-01	7.505702e+05	
17	8.500000e-01	9.265687e+05	
18	9.000000e-01	1.096067e+06	
19	9.500000e-01	1.258518e+06	
20	1.000000e+00	1.414072e+06	
21	1.050000e+00	1.563076e+06	
22	1.100000e+00	1.705919e+06	
23	1.150000e+00	1.842976e+06	
24	1.200000e+00	1.974599e+06	
25	1.250000e+00	2.101111e+06	
26	1.300000e+00	2.222810e+06	
27	1.350000e+00	2.339970e+06	
28	1.400000e+00	2.452842e+06	
29	1.450000e+00	2.561659e+06	
30	1.500000e+00	2.666637e+06	
31	1.550000e+00	2.767975e+06	
32	1.600000e+00	2.865860e+06	
33	1.650000e+00	2.960464e+06	
34	1.700000e+00	3.051950e+06	
35	1.750000e+00	3.140467e+06	
36	1.800000e+00	3.226158e+06	
37	1.850000e+00	3.309154e+06	
38	1.900000e+00	3.389579e+06	
39	1.950000e+00	3.467550e+06	
40	2.000000e+00	3.543174e+06	
41	2.050000e+00	3.616554e+06	
42	2.100000e+00	3.687782e+06	
43	2.150000e+00	3.756944e+06	
44	2.200000e+00	3.824115e+06	
45	2.250000e+00	3.889359e+06	
46	2.300000e+00	3.952722e+06	
47	2.350000e+00	4.014235e+06	
48	2.400000e+00	4.073901e+06	
49	2.450000e+00	4.131690e+06	
50	2.500000e+00	4.187533e+06	
51	2.550000e+00	4.241307e+06	
52	2.600000e+00	4.292829e+06	
53	2.650000e+00	4.341837e+06	
54	2.700000e+00	4.387978e+06	

Index   v-sweep         rds             
--------------------------------------------------------------------------------
55	2.750000e+00	4.430796e+06	
56	2.800000e+00	4.469717e+06	
57	2.850000e+00	4.504036e+06	
58	2.900000e+00	4.532913e+06	
59	2.950000e+00	4.555368e+06	
60	3.000000e+00	4.570291e+06	
61	3.050000e+00	4.576457e+06	
62	3.100000e+00	4.572553e+06	
63	3.150000e+00	4.557232e+06	
64	3.200000e+00	4.529166e+06	
65	3.250000e+00	4.487124e+06	
66	3.300000e+00	4.430061e+06	
Reset re-loads circuit ***************************

Circuit: ***************************

Doing analysis at TEMP = 125.000000 and TNOM = 125.000000


No. of Data Rows : 67
                          ***************************
                          DC transfer characteristic  Mon Jan  9 13:58:14  2023
--------------------------------------------------------------------------------
Index   v-sweep         rds             
--------------------------------------------------------------------------------
0	0.000000e+00	1.012822e+04	
1	5.000000e-02	1.069544e+04	
2	1.000000e-01	1.132015e+04	
3	1.500000e-01	1.201154e+04	
4	2.000000e-01	1.278084e+04	
5	2.500000e-01	1.364194e+04	
6	3.000000e-01	1.461227e+04	
7	3.500000e-01	1.571394e+04	
8	4.000000e-01	1.697547e+04	
9	4.500000e-01	1.843427e+04	
10	5.000000e-01	2.014035e+04	
11	5.500000e-01	2.216218e+04	
12	6.000000e-01	2.459596e+04	
13	6.500000e-01	2.758107e+04	
14	7.000000e-01	3.132707e+04	
15	7.500000e-01	3.616291e+04	
16	8.000000e-01	4.263143e+04	
17	8.500000e-01	5.167762e+04	
18	9.000000e-01	6.501390e+04	
19	9.500000e-01	8.566681e+04	
20	1.000000e+00	1.179432e+05	
21	1.050000e+00	1.648472e+05	
22	1.100000e+00	2.246391e+05	
23	1.150000e+00	2.924141e+05	
24	1.200000e+00	3.638653e+05	
25	1.250000e+00	4.363940e+05	
26	1.300000e+00	5.086305e+05	
27	1.350000e+00	5.798795e+05	
28	1.400000e+00	6.497919e+05	
29	1.450000e+00	7.181985e+05	
30	1.500000e+00	7.850252e+05	
31	1.550000e+00	8.502505e+05	
32	1.600000e+00	9.138825e+05	
33	1.650000e+00	9.759461e+05	
34	1.700000e+00	1.036476e+06	
35	1.750000e+00	1.095512e+06	
36	1.800000e+00	1.153097e+06	
37	1.850000e+00	1.209275e+06	
38	1.900000e+00	1.264089e+06	
39	1.950000e+00	1.317585e+06	
40	2.000000e+00	1.369804e+06	
41	2.050000e+00	1.420787e+06	
42	2.100000e+00	1.470577e+06	
43	2.150000e+00	1.519211e+06	
44	2.200000e+00	1.566727e+06	
45	2.250000e+00	1.613162e+06	
46	2.300000e+00	1.658551e+06	
47	2.350000e+00	1.702926e+06	
48	2.400000e+00	1.746319e+06	
49	2.450000e+00	1.788760e+06	
50	2.500000e+00	1.830275e+06	
51	2.550000e+00	1.870888e+06	
52	2.600000e+00	1.910616e+06	
53	2.650000e+00	1.949470e+06	
54	2.700000e+00	1.987453e+06	

Index   v-sweep         rds             
--------------------------------------------------------------------------------
55	2.750000e+00	2.024552e+06	
56	2.800000e+00	2.060737e+06	
57	2.850000e+00	2.095957e+06	
58	2.900000e+00	2.130126e+06	
59	2.950000e+00	2.163123e+06	
60	3.000000e+00	2.194779e+06	
61	3.050000e+00	2.224866e+06	
62	3.100000e+00	2.253090e+06	
63	3.150000e+00	2.279078e+06	
64	3.200000e+00	2.302374e+06	
65	3.250000e+00	2.322427e+06	
66	3.300000e+00	2.338594e+06	
Reset re-loads circuit ***************************

Circuit: ***************************

Doing analysis at TEMP = 125.000000 and TNOM = 125.000000


No. of Data Rows : 67
                          ***************************
                          DC transfer characteristic  Mon Jan  9 13:58:14  2023
--------------------------------------------------------------------------------
Index   v-sweep         rds             
--------------------------------------------------------------------------------
0	0.000000e+00	7.720978e+03	
1	5.000000e-02	8.040323e+03	
2	1.000000e-01	8.382323e+03	
3	1.500000e-01	8.749459e+03	
4	2.000000e-01	9.144591e+03	
5	2.500000e-01	9.571026e+03	
6	3.000000e-01	1.003262e+04	
7	3.500000e-01	1.053388e+04	
8	4.000000e-01	1.108012e+04	
9	4.500000e-01	1.167766e+04	
10	5.000000e-01	1.233405e+04	
11	5.500000e-01	1.305841e+04	
12	6.000000e-01	1.386183e+04	
13	6.500000e-01	1.475796e+04	
14	7.000000e-01	1.576380e+04	
15	7.500000e-01	1.690078e+04	
16	8.000000e-01	1.819628e+04	
17	8.500000e-01	1.968593e+04	
18	9.000000e-01	2.141689e+04	
19	9.500000e-01	2.345305e+04	
20	1.000000e+00	2.588313e+04	
21	1.050000e+00	2.883413e+04	
22	1.100000e+00	3.249452e+04	
23	1.150000e+00	3.715581e+04	
24	1.200000e+00	4.328913e+04	
25	1.250000e+00	5.167973e+04	
26	1.300000e+00	6.360512e+04	
27	1.350000e+00	8.082255e+04	
28	1.400000e+00	1.048296e+05	
29	1.450000e+00	1.356533e+05	
30	1.500000e+00	1.717826e+05	
31	1.550000e+00	2.112940e+05	
32	1.600000e+00	2.526575e+05	
33	1.650000e+00	2.948656e+05	
34	1.700000e+00	3.373000e+05	
35	1.750000e+00	3.795875e+05	
36	1.800000e+00	4.215026e+05	
37	1.850000e+00	4.629085e+05	
38	1.900000e+00	5.037224e+05	
39	1.950000e+00	5.438952e+05	
40	2.000000e+00	5.833993e+05	
41	2.050000e+00	6.222210e+05	
42	2.100000e+00	6.603561e+05	
43	2.150000e+00	6.978064e+05	
44	2.200000e+00	7.345778e+05	
45	2.250000e+00	7.706794e+05	
46	2.300000e+00	8.061219e+05	
47	2.350000e+00	8.409174e+05	
48	2.400000e+00	8.750788e+05	
49	2.450000e+00	9.086195e+05	
50	2.500000e+00	9.415531e+05	
51	2.550000e+00	9.738935e+05	
52	2.600000e+00	1.005654e+06	
53	2.650000e+00	1.036849e+06	
54	2.700000e+00	1.067491e+06	

Index   v-sweep         rds             
--------------------------------------------------------------------------------
55	2.750000e+00	1.097592e+06	
56	2.800000e+00	1.127165e+06	
57	2.850000e+00	1.156220e+06	
58	2.900000e+00	1.184765e+06	
59	2.950000e+00	1.212807e+06	
60	3.000000e+00	1.240346e+06	
61	3.050000e+00	1.267377e+06	
62	3.100000e+00	1.293886e+06	
63	3.150000e+00	1.319846e+06	
64	3.200000e+00	1.345212e+06	
65	3.250000e+00	1.369920e+06	
66	3.300000e+00	1.393874e+06	
Reset re-loads circuit ***************************

Circuit: ***************************

Doing analysis at TEMP = 125.000000 and TNOM = 125.000000


No. of Data Rows : 67
                          ***************************
                          DC transfer characteristic  Mon Jan  9 13:58:14  2023
--------------------------------------------------------------------------------
Index   v-sweep         rds             
--------------------------------------------------------------------------------
0	0.000000e+00	6.421263e+03	
1	5.000000e-02	6.632884e+03	
2	1.000000e-01	6.855983e+03	
3	1.500000e-01	7.091509e+03	
4	2.000000e-01	7.340520e+03	
5	2.500000e-01	7.604198e+03	
6	3.000000e-01	7.883866e+03	
7	3.500000e-01	8.181013e+03	
8	4.000000e-01	8.497317e+03	
9	4.500000e-01	8.834680e+03	
10	5.000000e-01	9.195263e+03	
11	5.500000e-01	9.581535e+03	
12	6.000000e-01	9.996327e+03	
13	6.500000e-01	1.044290e+04	
14	7.000000e-01	1.092504e+04	
15	7.500000e-01	1.144716e+04	
16	8.000000e-01	1.201442e+04	
17	8.500000e-01	1.263293e+04	
18	9.000000e-01	1.330994e+04	
19	9.500000e-01	1.405415e+04	
20	1.000000e+00	1.487610e+04	
21	1.050000e+00	1.578864e+04	
22	1.100000e+00	1.680766e+04	
23	1.150000e+00	1.795303e+04	
24	1.200000e+00	1.924998e+04	
25	1.250000e+00	2.073107e+04	
26	1.300000e+00	2.243918e+04	
27	1.350000e+00	2.443218e+04	
28	1.400000e+00	2.679051e+04	
29	1.450000e+00	2.963007e+04	
30	1.500000e+00	3.312528e+04	
31	1.550000e+00	3.755057e+04	
32	1.600000e+00	4.335065e+04	
33	1.650000e+00	5.122842e+04	
34	1.700000e+00	6.214377e+04	
35	1.750000e+00	7.700116e+04	
36	1.800000e+00	9.608122e+04	
37	1.850000e+00	1.188377e+05	
38	1.900000e+00	1.442958e+05	
39	1.950000e+00	1.715156e+05	
40	2.000000e+00	1.997829e+05	
41	2.050000e+00	2.286078e+05	
42	2.100000e+00	2.576666e+05	
43	2.150000e+00	2.867474e+05	
44	2.200000e+00	3.157107e+05	
45	2.250000e+00	3.444644e+05	
46	2.300000e+00	3.729467e+05	
47	2.350000e+00	4.011168e+05	
48	2.400000e+00	4.289474e+05	
49	2.450000e+00	4.564210e+05	
50	2.500000e+00	4.835267e+05	
51	2.550000e+00	5.102585e+05	
52	2.600000e+00	5.366135e+05	
53	2.650000e+00	5.625917e+05	
54	2.700000e+00	5.881944e+05	

Index   v-sweep         rds             
--------------------------------------------------------------------------------
55	2.750000e+00	6.134247e+05	
56	2.800000e+00	6.382864e+05	
57	2.850000e+00	6.627841e+05	
58	2.900000e+00	6.869229e+05	
59	2.950000e+00	7.107081e+05	
60	3.000000e+00	7.341453e+05	
61	3.050000e+00	7.572404e+05	
62	3.100000e+00	7.799988e+05	
63	3.150000e+00	8.024256e+05	
64	3.200000e+00	8.245255e+05	
65	3.250000e+00	8.463016e+05	
66	3.300000e+00	8.677550e+05	
Reset re-loads circuit ***************************

Circuit: ***************************

Doing analysis at TEMP = 125.000000 and TNOM = 125.000000


No. of Data Rows : 67
                          ***************************
                          DC transfer characteristic  Mon Jan  9 13:58:14  2023
--------------------------------------------------------------------------------
Index   v-sweep         rds             
--------------------------------------------------------------------------------
0	0.000000e+00	5.640806e+03	
1	5.000000e-02	5.795794e+03	
2	1.000000e-01	5.957563e+03	
3	1.500000e-01	6.126563e+03	
4	2.000000e-01	6.303283e+03	
5	2.500000e-01	6.488257e+03	
6	3.000000e-01	6.682070e+03	
7	3.500000e-01	6.885366e+03	
8	4.000000e-01	7.098848e+03	
9	4.500000e-01	7.323296e+03	
10	5.000000e-01	7.559568e+03	
11	5.500000e-01	7.808616e+03	
12	6.000000e-01	8.071495e+03	
13	6.500000e-01	8.349383e+03	
14	7.000000e-01	8.643592e+03	
15	7.500000e-01	8.955594e+03	
16	8.000000e-01	9.287045e+03	
17	8.500000e-01	9.639809e+03	
18	9.000000e-01	1.001600e+04	
19	9.500000e-01	1.041803e+04	
20	1.000000e+00	1.084863e+04	
21	1.050000e+00	1.131096e+04	
22	1.100000e+00	1.180865e+04	
23	1.150000e+00	1.234591e+04	
24	1.200000e+00	1.292766e+04	
25	1.250000e+00	1.355966e+04	
26	1.300000e+00	1.424874e+04	
27	1.350000e+00	1.500303e+04	
28	1.400000e+00	1.583232e+04	
29	1.450000e+00	1.674850e+04	
30	1.500000e+00	1.776620e+04	
31	1.550000e+00	1.890368e+04	
32	1.600000e+00	2.018413e+04	
33	1.650000e+00	2.163756e+04	
34	1.700000e+00	2.330394e+04	
35	1.750000e+00	2.523822e+04	
36	1.800000e+00	2.751904e+04	
37	1.850000e+00	3.026423e+04	
38	1.900000e+00	3.365827e+04	
39	1.950000e+00	3.799642e+04	
40	2.000000e+00	4.373542e+04	
41	2.050000e+00	5.149017e+04	
42	2.100000e+00	6.186551e+04	
43	2.150000e+00	7.514305e+04	
44	2.200000e+00	9.111409e+04	
45	2.250000e+00	1.092352e+05	
46	2.300000e+00	1.288963e+05	
47	2.350000e+00	1.495808e+05	
48	2.400000e+00	1.709035e+05	
49	2.450000e+00	1.925934e+05	
50	2.500000e+00	2.144630e+05	
51	2.550000e+00	2.363835e+05	
52	2.600000e+00	2.582656e+05	
53	2.650000e+00	2.800469e+05	
54	2.700000e+00	3.016838e+05	

Index   v-sweep         rds             
--------------------------------------------------------------------------------
55	2.750000e+00	3.231454e+05	
56	2.800000e+00	3.444098e+05	
57	2.850000e+00	3.654616e+05	
58	2.900000e+00	3.862903e+05	
59	2.950000e+00	4.068887e+05	
60	3.000000e+00	4.272521e+05	
61	3.050000e+00	4.473778e+05	
62	3.100000e+00	4.672646e+05	
63	3.150000e+00	4.869123e+05	
64	3.200000e+00	5.063216e+05	
65	3.250000e+00	5.254938e+05	
66	3.300000e+00	5.444306e+05	
Reset re-loads circuit ***************************

Circuit: ***************************

Note: No ".plot", ".print", or ".fourier" lines; no simulations run
