
Note: Compatibility modes selected: hs

Warning: m=xx on .subckt line will override multiplier m hierarchy!


Circuit: ***************************

Doing analysis at TEMP = 25.000000 and TNOM = 25.000000


No. of Data Rows : 67
                          ***************************
                          DC transfer characteristic  Mon Jan  9 13:58:13  2023
--------------------------------------------------------------------------------
Index   v-sweep         rds             
--------------------------------------------------------------------------------
0	0.000000e+00	4.426376e+05	
1	5.000000e-02	6.933356e+05	
2	1.000000e-01	1.549886e+06	
3	1.500000e-01	1.067446e+07	
4	2.000000e-01	8.749675e+07	
5	2.500000e-01	2.318219e+08	
6	3.000000e-01	3.526255e+08	
7	3.500000e-01	4.335653e+08	
8	4.000000e-01	4.878761e+08	
9	4.500000e-01	5.262028e+08	
10	5.000000e-01	5.546500e+08	
11	5.500000e-01	5.766555e+08	
12	6.000000e-01	5.942395e+08	
13	6.500000e-01	6.086535e+08	
14	7.000000e-01	6.207112e+08	
15	7.500000e-01	6.309652e+08	
16	8.000000e-01	6.398043e+08	
17	8.500000e-01	6.475107e+08	
18	9.000000e-01	6.542947e+08	
19	9.500000e-01	6.603164e+08	
20	1.000000e+00	6.657004e+08	
21	1.050000e+00	6.705448e+08	
22	1.100000e+00	6.749282e+08	
23	1.150000e+00	6.789145e+08	
24	1.200000e+00	6.825561e+08	
25	1.250000e+00	6.858964e+08	
26	1.300000e+00	6.889717e+08	
27	1.350000e+00	6.918127e+08	
28	1.400000e+00	6.944454e+08	
29	1.450000e+00	6.968921e+08	
30	1.500000e+00	6.991719e+08	
31	1.550000e+00	7.013013e+08	
32	1.600000e+00	7.032949e+08	
33	1.650000e+00	7.051649e+08	
34	1.700000e+00	7.069224e+08	
35	1.750000e+00	7.085767e+08	
36	1.800000e+00	7.101359e+08	
37	1.850000e+00	7.116068e+08	
38	1.900000e+00	7.129951e+08	
39	1.950000e+00	7.143050e+08	
40	2.000000e+00	7.155396e+08	
41	2.050000e+00	7.167006e+08	
42	2.100000e+00	7.177881e+08	
43	2.150000e+00	7.188007e+08	
44	2.200000e+00	7.197351e+08	
45	2.250000e+00	7.205859e+08	
46	2.300000e+00	7.213457e+08	
47	2.350000e+00	7.220045e+08	
48	2.400000e+00	7.225501e+08	
49	2.450000e+00	7.229672e+08	
50	2.500000e+00	7.232378e+08	
51	2.550000e+00	7.233410e+08	
52	2.600000e+00	7.232527e+08	
53	2.650000e+00	7.229458e+08	
54	2.700000e+00	7.223905e+08	

Index   v-sweep         rds             
--------------------------------------------------------------------------------
55	2.750000e+00	7.215537e+08	
56	2.800000e+00	7.204001e+08	
57	2.850000e+00	7.188920e+08	
58	2.900000e+00	7.169897e+08	
59	2.950000e+00	7.146524e+08	
60	3.000000e+00	7.118384e+08	
61	3.050000e+00	7.085064e+08	
62	3.100000e+00	7.046158e+08	
63	3.150000e+00	7.001278e+08	
64	3.200000e+00	6.950066e+08	
65	3.250000e+00	6.892201e+08	
66	3.300000e+00	6.827413e+08	
Reset re-loads circuit ***************************

Circuit: ***************************

Doing analysis at TEMP = 25.000000 and TNOM = 25.000000


No. of Data Rows : 67
                          ***************************
                          DC transfer characteristic  Mon Jan  9 13:58:13  2023
--------------------------------------------------------------------------------
Index   v-sweep         rds             
--------------------------------------------------------------------------------
0	0.000000e+00	1.077173e+05	
1	5.000000e-02	1.200259e+05	
2	1.000000e-01	1.354699e+05	
3	1.500000e-01	1.554207e+05	
4	2.000000e-01	1.821842e+05	
5	2.500000e-01	2.199545e+05	
6	3.000000e-01	2.772199e+05	
7	3.500000e-01	3.739757e+05	
8	4.000000e-01	5.692518e+05	
9	4.500000e-01	1.103664e+06	
10	5.000000e-01	3.192292e+06	
11	5.500000e-01	1.017493e+07	
12	6.000000e-01	2.270100e+07	
13	6.500000e-01	3.678975e+07	
14	7.000000e-01	4.967776e+07	
15	7.500000e-01	6.071081e+07	
16	8.000000e-01	7.004428e+07	
17	8.500000e-01	7.798765e+07	
18	9.000000e-01	8.482116e+07	
19	9.500000e-01	9.076569e+07	
20	1.000000e+00	9.598982e+07	
21	1.050000e+00	1.006222e+08	
22	1.100000e+00	1.047621e+08	
23	1.150000e+00	1.084873e+08	
24	1.200000e+00	1.118593e+08	
25	1.250000e+00	1.149278e+08	
26	1.300000e+00	1.177334e+08	
27	1.350000e+00	1.203094e+08	
28	1.400000e+00	1.226835e+08	
29	1.450000e+00	1.248792e+08	
30	1.500000e+00	1.269162e+08	
31	1.550000e+00	1.288115e+08	
32	1.600000e+00	1.305797e+08	
33	1.650000e+00	1.322332e+08	
34	1.700000e+00	1.337831e+08	
35	1.750000e+00	1.352389e+08	
36	1.800000e+00	1.366091e+08	
37	1.850000e+00	1.379009e+08	
38	1.900000e+00	1.391211e+08	
39	1.950000e+00	1.402753e+08	
40	2.000000e+00	1.413688e+08	
41	2.050000e+00	1.424061e+08	
42	2.100000e+00	1.433911e+08	
43	2.150000e+00	1.443272e+08	
44	2.200000e+00	1.452175e+08	
45	2.250000e+00	1.460641e+08	
46	2.300000e+00	1.468688e+08	
47	2.350000e+00	1.476326e+08	
48	2.400000e+00	1.483558e+08	
49	2.450000e+00	1.490378e+08	
50	2.500000e+00	1.496771e+08	
51	2.550000e+00	1.502710e+08	
52	2.600000e+00	1.508157e+08	
53	2.650000e+00	1.513060e+08	
54	2.700000e+00	1.517352e+08	

Index   v-sweep         rds             
--------------------------------------------------------------------------------
55	2.750000e+00	1.520950e+08	
56	2.800000e+00	1.523755e+08	
57	2.850000e+00	1.525652e+08	
58	2.900000e+00	1.526505e+08	
59	2.950000e+00	1.526166e+08	
60	3.000000e+00	1.524469e+08	
61	3.050000e+00	1.521236e+08	
62	3.100000e+00	1.516279e+08	
63	3.150000e+00	1.509405e+08	
64	3.200000e+00	1.500422e+08	
65	3.250000e+00	1.489144e+08	
66	3.300000e+00	1.475398e+08	
Reset re-loads circuit ***************************

Circuit: ***************************

Doing analysis at TEMP = 25.000000 and TNOM = 25.000000


No. of Data Rows : 67
                          ***************************
                          DC transfer characteristic  Mon Jan  9 13:58:13  2023
--------------------------------------------------------------------------------
Index   v-sweep         rds             
--------------------------------------------------------------------------------
0	0.000000e+00	6.403597e+04	
1	5.000000e-02	6.796979e+04	
2	1.000000e-01	7.240840e+04	
3	1.500000e-01	7.745562e+04	
4	2.000000e-01	8.324577e+04	
5	2.500000e-01	8.995588e+04	
6	3.000000e-01	9.782399e+04	
7	3.500000e-01	1.071780e+05	
8	4.000000e-01	1.184822e+05	
9	4.500000e-01	1.324166e+05	
10	5.000000e-01	1.500180e+05	
11	5.500000e-01	1.729479e+05	
12	6.000000e-01	2.040412e+05	
13	6.500000e-01	2.485453e+05	
14	7.000000e-01	3.172756e+05	
15	7.500000e-01	4.359710e+05	
16	8.000000e-01	6.778910e+05	
17	8.500000e-01	1.281895e+06	
18	9.000000e-01	2.886107e+06	
19	9.500000e-01	6.151676e+06	
20	1.000000e+00	1.071564e+07	
21	1.050000e+00	1.568467e+07	
22	1.100000e+00	2.049216e+07	
23	1.150000e+00	2.492943e+07	
24	1.200000e+00	2.895994e+07	
25	1.250000e+00	3.260882e+07	
26	1.300000e+00	3.591769e+07	
27	1.350000e+00	3.892873e+07	
28	1.400000e+00	4.167974e+07	
29	1.450000e+00	4.420328e+07	
30	1.500000e+00	4.652700e+07	
31	1.550000e+00	4.867430e+07	
32	1.600000e+00	5.066505e+07	
33	1.650000e+00	5.251620e+07	
34	1.700000e+00	5.424230e+07	
35	1.750000e+00	5.585589e+07	
36	1.800000e+00	5.736786e+07	
37	1.850000e+00	5.878769e+07	
38	1.900000e+00	6.012372e+07	
39	1.950000e+00	6.138326e+07	
40	2.000000e+00	6.257279e+07	
41	2.050000e+00	6.369809e+07	
42	2.100000e+00	6.476426e+07	
43	2.150000e+00	6.577591e+07	
44	2.200000e+00	6.673715e+07	
45	2.250000e+00	6.765167e+07	
46	2.300000e+00	6.852280e+07	
47	2.350000e+00	6.935353e+07	
48	2.400000e+00	7.014654e+07	
49	2.450000e+00	7.090419e+07	
50	2.500000e+00	7.162856e+07	
51	2.550000e+00	7.232142e+07	
52	2.600000e+00	7.298420e+07	
53	2.650000e+00	7.361794e+07	
54	2.700000e+00	7.422326e+07	

Index   v-sweep         rds             
--------------------------------------------------------------------------------
55	2.750000e+00	7.480030e+07	
56	2.800000e+00	7.534860e+07	
57	2.850000e+00	7.586703e+07	
58	2.900000e+00	7.635368e+07	
59	2.950000e+00	7.680575e+07	
60	3.000000e+00	7.721946e+07	
61	3.050000e+00	7.758988e+07	
62	3.100000e+00	7.791092e+07	
63	3.150000e+00	7.817518e+07	
64	3.200000e+00	7.837395e+07	
65	3.250000e+00	7.849723e+07	
66	3.300000e+00	7.853376e+07	
Reset re-loads circuit ***************************

Circuit: ***************************

Doing analysis at TEMP = 25.000000 and TNOM = 25.000000


No. of Data Rows : 67
                          ***************************
                          DC transfer characteristic  Mon Jan  9 13:58:13  2023
--------------------------------------------------------------------------------
Index   v-sweep         rds             
--------------------------------------------------------------------------------
0	0.000000e+00	4.767260e+04	
1	5.000000e-02	4.962653e+04	
2	1.000000e-01	5.174301e+04	
3	1.500000e-01	5.404319e+04	
4	2.000000e-01	5.655209e+04	
5	2.500000e-01	5.929944e+04	
6	3.000000e-01	6.232093e+04	
7	3.500000e-01	6.565974e+04	
8	4.000000e-01	6.936862e+04	
9	4.500000e-01	7.351267e+04	
10	5.000000e-01	7.817323e+04	
11	5.500000e-01	8.345326e+04	
12	6.000000e-01	8.948499e+04	
13	6.500000e-01	9.644113e+04	
14	7.000000e-01	1.045517e+05	
15	7.500000e-01	1.141296e+05	
16	8.000000e-01	1.256123e+05	
17	8.500000e-01	1.396291e+05	
18	9.000000e-01	1.571202e+05	
19	9.500000e-01	1.795527e+05	
20	1.000000e+00	2.093445e+05	
21	1.050000e+00	2.507628e+05	
22	1.100000e+00	3.120157e+05	
23	1.150000e+00	4.106654e+05	
24	1.200000e+00	5.888950e+05	
25	1.250000e+00	9.545196e+05	
26	1.300000e+00	1.740463e+06	
27	1.350000e+00	3.203696e+06	
28	1.400000e+00	5.310668e+06	
29	1.450000e+00	7.768331e+06	
30	1.500000e+00	1.030958e+07	
31	1.550000e+00	1.278747e+07	
32	1.600000e+00	1.513995e+07	
33	1.650000e+00	1.734790e+07	
34	1.700000e+00	1.941122e+07	
35	1.750000e+00	2.133750e+07	
36	1.800000e+00	2.313697e+07	
37	1.850000e+00	2.482028e+07	
38	1.900000e+00	2.639759e+07	
39	1.950000e+00	2.787828e+07	
40	2.000000e+00	2.927081e+07	
41	2.050000e+00	3.058277e+07	
42	2.100000e+00	3.182095e+07	
43	2.150000e+00	3.299142e+07	
44	2.200000e+00	3.409962e+07	
45	2.250000e+00	3.515041e+07	
46	2.300000e+00	3.614818e+07	
47	2.350000e+00	3.709687e+07	
48	2.400000e+00	3.800004e+07	
49	2.450000e+00	3.886090e+07	
50	2.500000e+00	3.968239e+07	
51	2.550000e+00	4.046716e+07	
52	2.600000e+00	4.121762e+07	
53	2.650000e+00	4.193597e+07	
54	2.700000e+00	4.262424e+07	

Index   v-sweep         rds             
--------------------------------------------------------------------------------
55	2.750000e+00	4.328424e+07	
56	2.800000e+00	4.391763e+07	
57	2.850000e+00	4.452587e+07	
58	2.900000e+00	4.511027e+07	
59	2.950000e+00	4.567193e+07	
60	3.000000e+00	4.621172e+07	
61	3.050000e+00	4.673026e+07	
62	3.100000e+00	4.722785e+07	
63	3.150000e+00	4.770445e+07	
64	3.200000e+00	4.815954e+07	
65	3.250000e+00	4.859210e+07	
66	3.300000e+00	4.900050e+07	
Reset re-loads circuit ***************************

Circuit: ***************************

Doing analysis at TEMP = 25.000000 and TNOM = 25.000000


No. of Data Rows : 67
                          ***************************
                          DC transfer characteristic  Mon Jan  9 13:58:13  2023
--------------------------------------------------------------------------------
Index   v-sweep         rds             
--------------------------------------------------------------------------------
0	0.000000e+00	3.973703e+04	
1	5.000000e-02	4.093807e+04	
2	1.000000e-01	4.221150e+04	
3	1.500000e-01	4.356405e+04	
4	2.000000e-01	4.500334e+04	
5	2.500000e-01	4.653799e+04	
6	3.000000e-01	4.817779e+04	
7	3.500000e-01	4.993393e+04	
8	4.000000e-01	5.181925e+04	
9	4.500000e-01	5.384854e+04	
10	5.000000e-01	5.603895e+04	
11	5.500000e-01	5.841044e+04	
12	6.000000e-01	6.098643e+04	
13	6.500000e-01	6.379457e+04	
14	7.000000e-01	6.686771e+04	
15	7.500000e-01	7.024520e+04	
16	8.000000e-01	7.397461e+04	
17	8.500000e-01	7.811393e+04	
18	9.000000e-01	8.273465e+04	
19	9.500000e-01	8.792589e+04	
20	1.000000e+00	9.380022e+04	
21	1.050000e+00	1.005019e+05	
22	1.100000e+00	1.082187e+05	
23	1.150000e+00	1.171999e+05	
24	1.200000e+00	1.277835e+05	
25	1.250000e+00	1.404395e+05	
26	1.300000e+00	1.558404e+05	
27	1.350000e+00	1.749831e+05	
28	1.400000e+00	1.994082e+05	
29	1.450000e+00	2.316205e+05	
30	1.500000e+00	2.759511e+05	
31	1.550000e+00	3.404627e+05	
32	1.600000e+00	4.414453e+05	
33	1.650000e+00	6.141025e+05	
34	1.700000e+00	9.331488e+05	
35	1.750000e+00	1.522324e+06	
36	1.800000e+00	2.481537e+06	
37	1.850000e+00	3.776716e+06	
38	1.900000e+00	5.275131e+06	
39	1.950000e+00	6.851255e+06	
40	2.000000e+00	8.425978e+06	
41	2.050000e+00	9.958070e+06	
42	2.100000e+00	1.142869e+07	
43	2.150000e+00	1.283082e+07	
44	2.200000e+00	1.416340e+07	
45	2.250000e+00	1.542828e+07	
46	2.300000e+00	1.662862e+07	
47	2.350000e+00	1.776815e+07	
48	2.400000e+00	1.885070e+07	
49	2.450000e+00	1.988000e+07	
50	2.500000e+00	2.085963e+07	
51	2.550000e+00	2.179291e+07	
52	2.600000e+00	2.268295e+07	
53	2.650000e+00	2.353261e+07	
54	2.700000e+00	2.434451e+07	

Index   v-sweep         rds             
--------------------------------------------------------------------------------
55	2.750000e+00	2.512109e+07	
56	2.800000e+00	2.586457e+07	
57	2.850000e+00	2.657701e+07	
58	2.900000e+00	2.726029e+07	
59	2.950000e+00	2.791617e+07	
60	3.000000e+00	2.854625e+07	
61	3.050000e+00	2.915202e+07	
62	3.100000e+00	2.973484e+07	
63	3.150000e+00	3.029598e+07	
64	3.200000e+00	3.083658e+07	
65	3.250000e+00	3.135771e+07	
66	3.300000e+00	3.186029e+07	
Reset re-loads circuit ***************************

Circuit: ***************************

Doing analysis at TEMP = 25.000000 and TNOM = 25.000000


No. of Data Rows : 67
                          ***************************
                          DC transfer characteristic  Mon Jan  9 13:58:13  2023
--------------------------------------------------------------------------------
Index   v-sweep         rds             
--------------------------------------------------------------------------------
0	0.000000e+00	3.523935e+04	
1	5.000000e-02	3.606621e+04	
2	1.000000e-01	3.693125e+04	
3	1.500000e-01	3.783718e+04	
4	2.000000e-01	3.878697e+04	
5	2.500000e-01	3.978388e+04	
6	3.000000e-01	4.083150e+04	
7	3.500000e-01	4.193380e+04	
8	4.000000e-01	4.309518e+04	
9	4.500000e-01	4.432052e+04	
10	5.000000e-01	4.561524e+04	
11	5.500000e-01	4.698542e+04	
12	6.000000e-01	4.843784e+04	
13	6.500000e-01	4.998013e+04	
14	7.000000e-01	5.162090e+04	
15	7.500000e-01	5.336989e+04	
16	8.000000e-01	5.523817e+04	
17	8.500000e-01	5.723838e+04	
18	9.000000e-01	5.938498e+04	
19	9.500000e-01	6.169467e+04	
20	1.000000e+00	6.418675e+04	
21	1.050000e+00	6.688372e+04	
22	1.100000e+00	6.981191e+04	
23	1.150000e+00	7.300239e+04	
24	1.200000e+00	7.649204e+04	
25	1.250000e+00	8.032500e+04	
26	1.300000e+00	8.455452e+04	
27	1.350000e+00	8.924549e+04	
28	1.400000e+00	9.447775e+04	
29	1.450000e+00	1.003507e+05	
30	1.500000e+00	1.069895e+05	
31	1.550000e+00	1.145544e+05	
32	1.600000e+00	1.232534e+05	
33	1.650000e+00	1.333618e+05	
34	1.700000e+00	1.452517e+05	
35	1.750000e+00	1.594381e+05	
36	1.800000e+00	1.766542e+05	
37	1.850000e+00	1.979798e+05	
38	1.900000e+00	2.250685e+05	
39	1.950000e+00	2.605740e+05	
40	2.000000e+00	3.089947e+05	
41	2.050000e+00	3.784320e+05	
42	2.100000e+00	4.843198e+05	
43	2.150000e+00	6.566503e+05	
44	2.200000e+00	9.487160e+05	
45	2.250000e+00	1.429173e+06	
46	2.300000e+00	2.135896e+06	
47	2.350000e+00	3.038487e+06	
48	2.400000e+00	4.065944e+06	
49	2.450000e+00	5.151673e+06	
50	2.500000e+00	6.250299e+06	
51	2.550000e+00	7.335167e+06	
52	2.600000e+00	8.391885e+06	
53	2.650000e+00	9.413286e+06	
54	2.700000e+00	1.039631e+07	

Index   v-sweep         rds             
--------------------------------------------------------------------------------
55	2.750000e+00	1.134017e+07	
56	2.800000e+00	1.224536e+07	
57	2.850000e+00	1.311306e+07	
58	2.900000e+00	1.394479e+07	
59	2.950000e+00	1.474222e+07	
60	3.000000e+00	1.550708e+07	
61	3.050000e+00	1.624109e+07	
62	3.100000e+00	1.694588e+07	
63	3.150000e+00	1.762306e+07	
64	3.200000e+00	1.827410e+07	
65	3.250000e+00	1.890043e+07	
66	3.300000e+00	1.950337e+07	
Reset re-loads circuit ***************************

Circuit: ***************************

Note: No ".plot", ".print", or ".fourier" lines; no simulations run
