
Note: Compatibility modes selected: hs

Warning: m=xx on .subckt line will override multiplier m hierarchy!


Circuit: ***************************

Doing analysis at TEMP = 125.000000 and TNOM = 125.000000


No. of Data Rows : 67
                          ***************************
                          DC transfer characteristic  Mon Jan  9 13:58:14  2023
--------------------------------------------------------------------------------
Index   v-sweep         rds             
--------------------------------------------------------------------------------
0	0.000000e+00	7.817585e+04	
1	5.000000e-02	1.005248e+05	
2	1.000000e-01	1.405718e+05	
3	1.500000e-01	2.321014e+05	
4	2.000000e-01	5.874904e+05	
5	2.500000e-01	3.458476e+06	
6	3.000000e-01	1.622164e+07	
7	3.500000e-01	3.554248e+07	
8	4.000000e-01	5.217917e+07	
9	4.500000e-01	6.435045e+07	
10	5.000000e-01	7.320735e+07	
11	5.500000e-01	7.987482e+07	
12	6.000000e-01	8.508166e+07	
13	6.500000e-01	8.927649e+07	
14	7.000000e-01	9.274158e+07	
15	7.500000e-01	9.566156e+07	
16	8.000000e-01	9.816206e+07	
17	8.500000e-01	1.003317e+08	
18	9.000000e-01	1.022349e+08	
19	9.500000e-01	1.039199e+08	
20	1.000000e+00	1.054235e+08	
21	1.050000e+00	1.067745e+08	
22	1.100000e+00	1.079957e+08	
23	1.150000e+00	1.091053e+08	
24	1.200000e+00	1.101185e+08	
25	1.250000e+00	1.110475e+08	
26	1.300000e+00	1.119025e+08	
27	1.350000e+00	1.126923e+08	
28	1.400000e+00	1.134241e+08	
29	1.450000e+00	1.141042e+08	
30	1.500000e+00	1.147379e+08	
31	1.550000e+00	1.153299e+08	
32	1.600000e+00	1.158841e+08	
33	1.650000e+00	1.164042e+08	
34	1.700000e+00	1.168931e+08	
35	1.750000e+00	1.173536e+08	
36	1.800000e+00	1.177880e+08	
37	1.850000e+00	1.181983e+08	
38	1.900000e+00	1.185862e+08	
39	1.950000e+00	1.189533e+08	
40	2.000000e+00	1.193007e+08	
41	2.050000e+00	1.196293e+08	
42	2.100000e+00	1.199395e+08	
43	2.150000e+00	1.202318e+08	
44	2.200000e+00	1.205058e+08	
45	2.250000e+00	1.207610e+08	
46	2.300000e+00	1.209963e+08	
47	2.350000e+00	1.212102e+08	
48	2.400000e+00	1.214005e+08	
49	2.450000e+00	1.215645e+08	
50	2.500000e+00	1.216986e+08	
51	2.550000e+00	1.217988e+08	
52	2.600000e+00	1.218603e+08	
53	2.650000e+00	1.218774e+08	
54	2.700000e+00	1.218437e+08	

Index   v-sweep         rds             
--------------------------------------------------------------------------------
55	2.750000e+00	1.217523e+08	
56	2.800000e+00	1.215953e+08	
57	2.850000e+00	1.213643e+08	
58	2.900000e+00	1.210506e+08	
59	2.950000e+00	1.206448e+08	
60	3.000000e+00	1.201375e+08	
61	3.050000e+00	1.195193e+08	
62	3.100000e+00	1.187807e+08	
63	3.150000e+00	1.179132e+08	
64	3.200000e+00	1.169086e+08	
65	3.250000e+00	1.157599e+08	
66	3.300000e+00	1.144616e+08	
Reset re-loads circuit ***************************

Circuit: ***************************

Doing analysis at TEMP = 125.000000 and TNOM = 125.000000


No. of Data Rows : 67
                          ***************************
                          DC transfer characteristic  Mon Jan  9 13:58:14  2023
--------------------------------------------------------------------------------
Index   v-sweep         rds             
--------------------------------------------------------------------------------
0	0.000000e+00	2.774616e+04	
1	5.000000e-02	3.032459e+04	
2	1.000000e-01	3.342547e+04	
3	1.500000e-01	3.722536e+04	
4	2.000000e-01	4.199043e+04	
5	2.500000e-01	4.814129e+04	
6	3.000000e-01	5.638361e+04	
7	3.500000e-01	6.799673e+04	
8	4.000000e-01	8.555529e+04	
9	4.500000e-01	1.150566e+05	
10	5.000000e-01	1.737452e+05	
11	5.500000e-01	3.271817e+05	
12	6.000000e-01	8.636298e+05	
13	6.500000e-01	2.494390e+06	
14	7.000000e-01	5.360936e+06	
15	7.500000e-01	8.602991e+06	
16	8.000000e-01	1.158915e+07	
17	8.500000e-01	1.416246e+07	
18	9.000000e-01	1.635563e+07	
19	9.500000e-01	1.823780e+07	
20	1.000000e+00	1.987139e+07	
21	1.050000e+00	2.130526e+07	
22	1.100000e+00	2.257650e+07	
23	1.150000e+00	2.371331e+07	
24	1.200000e+00	2.473745e+07	
25	1.250000e+00	2.566598e+07	
26	1.300000e+00	2.651249e+07	
27	1.350000e+00	2.728796e+07	
28	1.400000e+00	2.800140e+07	
29	1.450000e+00	2.866027e+07	
30	1.500000e+00	2.927085e+07	
31	1.550000e+00	2.983844e+07	
32	1.600000e+00	3.036755e+07	
33	1.650000e+00	3.086207e+07	
34	1.700000e+00	3.132538e+07	
35	1.750000e+00	3.176039e+07	
36	1.800000e+00	3.216967e+07	
37	1.850000e+00	3.255548e+07	
38	1.900000e+00	3.291982e+07	
39	1.950000e+00	3.326444e+07	
40	2.000000e+00	3.359091e+07	
41	2.050000e+00	3.390065e+07	
42	2.100000e+00	3.419488e+07	
43	2.150000e+00	3.447471e+07	
44	2.200000e+00	3.474110e+07	
45	2.250000e+00	3.499488e+07	
46	2.300000e+00	3.523676e+07	
47	2.350000e+00	3.546728e+07	
48	2.400000e+00	3.568684e+07	
49	2.450000e+00	3.589564e+07	
50	2.500000e+00	3.609372e+07	
51	2.550000e+00	3.628084e+07	
52	2.600000e+00	3.645653e+07	
53	2.650000e+00	3.662002e+07	
54	2.700000e+00	3.677018e+07	

Index   v-sweep         rds             
--------------------------------------------------------------------------------
55	2.750000e+00	3.690553e+07	
56	2.800000e+00	3.702416e+07	
57	2.850000e+00	3.712376e+07	
58	2.900000e+00	3.720151e+07	
59	2.950000e+00	3.725415e+07	
60	3.000000e+00	3.727795e+07	
61	3.050000e+00	3.726870e+07	
62	3.100000e+00	3.722184e+07	
63	3.150000e+00	3.713244e+07	
64	3.200000e+00	3.699538e+07	
65	3.250000e+00	3.680543e+07	
66	3.300000e+00	3.655745e+07	
Reset re-loads circuit ***************************

Circuit: ***************************

Doing analysis at TEMP = 125.000000 and TNOM = 125.000000


No. of Data Rows : 67
                          ***************************
                          DC transfer characteristic  Mon Jan  9 13:58:14  2023
--------------------------------------------------------------------------------
Index   v-sweep         rds             
--------------------------------------------------------------------------------
0	0.000000e+00	1.761943e+04	
1	5.000000e-02	1.856526e+04	
2	1.000000e-01	1.961663e+04	
3	1.500000e-01	2.079223e+04	
4	2.000000e-01	2.211546e+04	
5	2.500000e-01	2.361599e+04	
6	3.000000e-01	2.533200e+04	
7	3.500000e-01	2.731347e+04	
8	4.000000e-01	2.962713e+04	
9	4.500000e-01	3.236408e+04	
10	5.000000e-01	3.565207e+04	
11	5.500000e-01	3.967584e+04	
12	6.000000e-01	4.471287e+04	
13	6.500000e-01	5.119945e+04	
14	7.000000e-01	5.986205e+04	
15	7.500000e-01	7.200203e+04	
16	8.000000e-01	9.018299e+04	
17	8.500000e-01	1.201256e+05	
18	9.000000e-01	1.767478e+05	
19	9.500000e-01	3.049488e+05	
20	1.000000e+00	6.315442e+05	
21	1.050000e+00	1.348298e+06	
22	1.100000e+00	2.454736e+06	
23	1.150000e+00	3.727447e+06	
24	1.200000e+00	4.981338e+06	
25	1.250000e+00	6.141533e+06	
26	1.300000e+00	7.193584e+06	
27	1.350000e+00	8.144438e+06	
28	1.400000e+00	9.006227e+06	
29	1.450000e+00	9.790922e+06	
30	1.500000e+00	1.050894e+07	
31	1.550000e+00	1.116901e+07	
32	1.600000e+00	1.177838e+07	
33	1.650000e+00	1.234307e+07	
34	1.700000e+00	1.286814e+07	
35	1.750000e+00	1.335787e+07	
36	1.800000e+00	1.381589e+07	
37	1.850000e+00	1.424534e+07	
38	1.900000e+00	1.464891e+07	
39	1.950000e+00	1.502896e+07	
40	2.000000e+00	1.538757e+07	
41	2.050000e+00	1.572654e+07	
42	2.100000e+00	1.604750e+07	
43	2.150000e+00	1.635187e+07	
44	2.200000e+00	1.664094e+07	
45	2.250000e+00	1.691586e+07	
46	2.300000e+00	1.717765e+07	
47	2.350000e+00	1.742724e+07	
48	2.400000e+00	1.766548e+07	
49	2.450000e+00	1.789312e+07	
50	2.500000e+00	1.811083e+07	
51	2.550000e+00	1.831924e+07	
52	2.600000e+00	1.851886e+07	
53	2.650000e+00	1.871016e+07	
54	2.700000e+00	1.889350e+07	

Index   v-sweep         rds             
--------------------------------------------------------------------------------
55	2.750000e+00	1.906916e+07	
56	2.800000e+00	1.923731e+07	
57	2.850000e+00	1.939800e+07	
58	2.900000e+00	1.955112e+07	
59	2.950000e+00	1.969638e+07	
60	3.000000e+00	1.983330e+07	
61	3.050000e+00	1.996115e+07	
62	3.100000e+00	2.007894e+07	
63	3.150000e+00	2.018538e+07	
64	3.200000e+00	2.027885e+07	
65	3.250000e+00	2.035739e+07	
66	3.300000e+00	2.041866e+07	
Reset re-loads circuit ***************************

Circuit: ***************************

Doing analysis at TEMP = 125.000000 and TNOM = 125.000000


No. of Data Rows : 67
                          ***************************
                          DC transfer characteristic  Mon Jan  9 13:58:14  2023
--------------------------------------------------------------------------------
Index   v-sweep         rds             
--------------------------------------------------------------------------------
0	0.000000e+00	1.347347e+04	
1	5.000000e-02	1.397074e+04	
2	1.000000e-01	1.450528e+04	
3	1.500000e-01	1.508145e+04	
4	2.000000e-01	1.570431e+04	
5	2.500000e-01	1.637978e+04	
6	3.000000e-01	1.711481e+04	
7	3.500000e-01	1.791765e+04	
8	4.000000e-01	1.879812e+04	
9	4.500000e-01	1.976806e+04	
10	5.000000e-01	2.084183e+04	
11	5.500000e-01	2.203704e+04	
12	6.000000e-01	2.337553e+04	
13	6.500000e-01	2.488467e+04	
14	7.000000e-01	2.659932e+04	
15	7.500000e-01	2.856449e+04	
16	8.000000e-01	3.083937e+04	
17	8.500000e-01	3.350333e+04	
18	9.000000e-01	3.666537e+04	
19	9.500000e-01	4.047924e+04	
20	1.000000e+00	4.516896e+04	
21	1.050000e+00	5.107370e+04	
22	1.100000e+00	5.873178e+04	
23	1.150000e+00	6.904839e+04	
24	1.200000e+00	8.365961e+04	
25	1.250000e+00	1.057987e+05	
26	1.300000e+00	1.425591e+05	
27	1.350000e+00	2.110593e+05	
28	1.400000e+00	3.523891e+05	
29	1.450000e+00	6.391786e+05	
30	1.500000e+00	1.119357e+06	
31	1.550000e+00	1.746170e+06	
32	1.600000e+00	2.430050e+06	
33	1.650000e+00	3.108914e+06	
34	1.700000e+00	3.755090e+06	
35	1.750000e+00	4.360106e+06	
36	1.800000e+00	4.923649e+06	
37	1.850000e+00	5.448334e+06	
38	1.900000e+00	5.937576e+06	
39	1.950000e+00	6.394777e+06	
40	2.000000e+00	6.823057e+06	
41	2.050000e+00	7.225190e+06	
42	2.100000e+00	7.603616e+06	
43	2.150000e+00	7.960474e+06	
44	2.200000e+00	8.297644e+06	
45	2.250000e+00	8.616784e+06	
46	2.300000e+00	8.919359e+06	
47	2.350000e+00	9.206676e+06	
48	2.400000e+00	9.479896e+06	
49	2.450000e+00	9.740065e+06	
50	2.500000e+00	9.988121e+06	
51	2.550000e+00	1.022491e+07	
52	2.600000e+00	1.045120e+07	
53	2.650000e+00	1.066769e+07	
54	2.700000e+00	1.087501e+07	

Index   v-sweep         rds             
--------------------------------------------------------------------------------
55	2.750000e+00	1.107374e+07	
56	2.800000e+00	1.126441e+07	
57	2.850000e+00	1.144749e+07	
58	2.900000e+00	1.162344e+07	
59	2.950000e+00	1.179263e+07	
60	3.000000e+00	1.195542e+07	
61	3.050000e+00	1.211212e+07	
62	3.100000e+00	1.226297e+07	
63	3.150000e+00	1.240816e+07	
64	3.200000e+00	1.254780e+07	
65	3.250000e+00	1.268193e+07	
66	3.300000e+00	1.281046e+07	
Reset re-loads circuit ***************************

Circuit: ***************************

Doing analysis at TEMP = 125.000000 and TNOM = 125.000000


No. of Data Rows : 67
                          ***************************
                          DC transfer characteristic  Mon Jan  9 13:58:14  2023
--------------------------------------------------------------------------------
Index   v-sweep         rds             
--------------------------------------------------------------------------------
0	0.000000e+00	1.131695e+04	
1	5.000000e-02	1.162913e+04	
2	1.000000e-01	1.195855e+04	
3	1.500000e-01	1.230666e+04	
4	2.000000e-01	1.267512e+04	
5	2.500000e-01	1.306576e+04	
6	3.000000e-01	1.348064e+04	
7	3.500000e-01	1.392209e+04	
8	4.000000e-01	1.439274e+04	
9	4.500000e-01	1.489560e+04	
10	5.000000e-01	1.543408e+04	
11	5.500000e-01	1.601212e+04	
12	6.000000e-01	1.663422e+04	
13	6.500000e-01	1.730563e+04	
14	7.000000e-01	1.803245e+04	
15	7.500000e-01	1.882184e+04	
16	8.000000e-01	1.968224e+04	
17	8.500000e-01	2.062367e+04	
18	9.000000e-01	2.165815e+04	
19	9.500000e-01	2.280018e+04	
20	1.000000e+00	2.406745e+04	
21	1.050000e+00	2.548174e+04	
22	1.100000e+00	2.707019e+04	
23	1.150000e+00	2.886708e+04	
24	1.200000e+00	3.091625e+04	
25	1.250000e+00	3.327478e+04	
26	1.300000e+00	3.601834e+04	
27	1.350000e+00	3.924937e+04	
28	1.400000e+00	4.311002e+04	
29	1.450000e+00	4.780336e+04	
30	1.500000e+00	5.362943e+04	
31	1.550000e+00	6.105001e+04	
32	1.600000e+00	7.081143e+04	
33	1.650000e+00	8.419294e+04	
34	1.700000e+00	1.035445e+05	
35	1.750000e+00	1.335211e+05	
36	1.800000e+00	1.839185e+05	
37	1.850000e+00	2.750210e+05	
38	1.900000e+00	4.404308e+05	
39	1.950000e+00	7.086751e+05	
40	2.000000e+00	1.070882e+06	
41	2.050000e+00	1.487507e+06	
42	2.100000e+00	1.921007e+06	
43	2.150000e+00	2.349062e+06	
44	2.200000e+00	2.761342e+06	
45	2.250000e+00	3.154035e+06	
46	2.300000e+00	3.526397e+06	
47	2.350000e+00	3.879008e+06	
48	2.400000e+00	4.212970e+06	
49	2.450000e+00	4.529537e+06	
50	2.500000e+00	4.829964e+06	
51	2.550000e+00	5.115437e+06	
52	2.600000e+00	5.387054e+06	
53	2.650000e+00	5.645815e+06	
54	2.700000e+00	5.892633e+06	

Index   v-sweep         rds             
--------------------------------------------------------------------------------
55	2.750000e+00	6.128333e+06	
56	2.800000e+00	6.353669e+06	
57	2.850000e+00	6.569324e+06	
58	2.900000e+00	6.775924e+06	
59	2.950000e+00	6.974038e+06	
60	3.000000e+00	7.164187e+06	
61	3.050000e+00	7.346852e+06	
62	3.100000e+00	7.522473e+06	
63	3.150000e+00	7.691454e+06	
64	3.200000e+00	7.854169e+06	
65	3.250000e+00	8.010962e+06	
66	3.300000e+00	8.162151e+06	
Reset re-loads circuit ***************************

Circuit: ***************************

Doing analysis at TEMP = 125.000000 and TNOM = 125.000000


No. of Data Rows : 67
                          ***************************
                          DC transfer characteristic  Mon Jan  9 13:58:14  2023
--------------------------------------------------------------------------------
Index   v-sweep         rds             
--------------------------------------------------------------------------------
0	0.000000e+00	1.005265e+04	
1	5.000000e-02	1.027002e+04	
2	1.000000e-01	1.049670e+04	
3	1.500000e-01	1.073330e+04	
4	2.000000e-01	1.098048e+04	
5	2.500000e-01	1.123896e+04	
6	3.000000e-01	1.150954e+04	
7	3.500000e-01	1.179309e+04	
8	4.000000e-01	1.209057e+04	
9	4.500000e-01	1.240302e+04	
10	5.000000e-01	1.273160e+04	
11	5.500000e-01	1.307760e+04	
12	6.000000e-01	1.344244e+04	
13	6.500000e-01	1.382771e+04	
14	7.000000e-01	1.423515e+04	
15	7.500000e-01	1.466675e+04	
16	8.000000e-01	1.512473e+04	
17	8.500000e-01	1.561156e+04	
18	9.000000e-01	1.613008e+04	
19	9.500000e-01	1.668346e+04	
20	1.000000e+00	1.727537e+04	
21	1.050000e+00	1.790995e+04	
22	1.100000e+00	1.859200e+04	
23	1.150000e+00	1.932705e+04	
24	1.200000e+00	2.012152e+04	
25	1.250000e+00	2.098292e+04	
26	1.300000e+00	2.192008e+04	
27	1.350000e+00	2.294345e+04	
28	1.400000e+00	2.406549e+04	
29	1.450000e+00	2.530120e+04	
30	1.500000e+00	2.666874e+04	
31	1.550000e+00	2.819040e+04	
32	1.600000e+00	2.989376e+04	
33	1.650000e+00	3.181341e+04	
34	1.700000e+00	3.399327e+04	
35	1.750000e+00	3.649002e+04	
36	1.800000e+00	3.937801e+04	
37	1.850000e+00	4.275677e+04	
38	1.900000e+00	4.676247e+04	
39	1.950000e+00	5.158644e+04	
40	2.000000e+00	5.750573e+04	
41	2.050000e+00	6.493613e+04	
42	2.100000e+00	7.452835e+04	
43	2.150000e+00	8.735170e+04	
44	2.200000e+00	1.052621e+05	
45	2.250000e+00	1.316622e+05	
46	2.300000e+00	1.730174e+05	
47	2.350000e+00	2.412400e+05	
48	2.400000e+00	3.544607e+05	
49	2.450000e+00	5.289927e+05	
50	2.500000e+00	7.642874e+05	
51	2.550000e+00	1.041884e+06	
52	2.600000e+00	1.339748e+06	
53	2.650000e+00	1.642009e+06	
54	2.700000e+00	1.939692e+06	

Index   v-sweep         rds             
--------------------------------------------------------------------------------
55	2.750000e+00	2.228404e+06	
56	2.800000e+00	2.506282e+06	
57	2.850000e+00	2.772760e+06	
58	2.900000e+00	3.027913e+06	
59	2.950000e+00	3.272118e+06	
60	3.000000e+00	3.505887e+06	
61	3.050000e+00	3.729775e+06	
62	3.100000e+00	3.944342e+06	
63	3.150000e+00	4.150127e+06	
64	3.200000e+00	4.347645e+06	
65	3.250000e+00	4.537376e+06	
66	3.300000e+00	4.719768e+06	
Reset re-loads circuit ***************************

Circuit: ***************************

Note: No ".plot", ".print", or ".fourier" lines; no simulations run
