
Note: Compatibility modes selected: hs

Warning: m=xx on .subckt line will override multiplier m hierarchy!


Circuit: ***************************

Doing analysis at TEMP = -40.000000 and TNOM = -40.000000


No. of Data Rows : 67
                          ***************************
                          DC transfer characteristic  Mon Jan  9 13:58:14  2023
--------------------------------------------------------------------------------
Index   v-sweep         rds             
--------------------------------------------------------------------------------
0	0.000000e+00	4.348085e+04	
1	5.000000e-02	6.880844e+04	
2	1.000000e-01	1.268413e+05	
3	1.500000e-01	2.536563e+05	
4	2.000000e-01	4.261457e+05	
5	2.500000e-01	5.739215e+05	
6	3.000000e-01	6.802708e+05	
7	3.500000e-01	7.551180e+05	
8	4.000000e-01	8.086282e+05	
9	4.500000e-01	8.476217e+05	
10	5.000000e-01	8.764593e+05	
11	5.500000e-01	8.979804e+05	
12	6.000000e-01	9.140917e+05	
13	6.500000e-01	9.261138e+05	
14	7.000000e-01	9.349871e+05	
15	7.500000e-01	9.413976e+05	
16	8.000000e-01	9.458562e+05	
17	8.500000e-01	9.487507e+05	
18	9.000000e-01	9.503798e+05	
19	9.500000e-01	9.509773e+05	
20	1.000000e+00	9.507280e+05	
21	1.050000e+00	9.497800e+05	
22	1.100000e+00	9.482529e+05	
23	1.150000e+00	9.462442e+05	
24	1.200000e+00	9.438340e+05	
25	1.250000e+00	9.410887e+05	
26	1.300000e+00	9.380635e+05	
27	1.350000e+00	9.348047e+05	
28	1.400000e+00	9.313513e+05	
29	1.450000e+00	9.277362e+05	
30	1.500000e+00	9.239874e+05	
31	1.550000e+00	9.201288e+05	
32	1.600000e+00	9.161808e+05	
33	1.650000e+00	9.121608e+05	
34	1.700000e+00	9.080837e+05	
35	1.750000e+00	9.039620e+05	
36	1.800000e+00	8.998064e+05	
37	1.850000e+00	8.956258e+05	
38	1.900000e+00	8.914272e+05	
39	1.950000e+00	8.872158e+05	
40	2.000000e+00	8.829953e+05	
41	2.050000e+00	8.787675e+05	
42	2.100000e+00	8.745322e+05	
43	2.150000e+00	8.702872e+05	
44	2.200000e+00	8.660279e+05	
45	2.250000e+00	8.617473e+05	
46	2.300000e+00	8.574355e+05	
47	2.350000e+00	8.530798e+05	
48	2.400000e+00	8.486639e+05	
49	2.450000e+00	8.441684e+05	
50	2.500000e+00	8.395698e+05	
51	2.550000e+00	8.348408e+05	
52	2.600000e+00	8.299503e+05	
53	2.650000e+00	8.248629e+05	
54	2.700000e+00	8.195391e+05	

Index   v-sweep         rds             
--------------------------------------------------------------------------------
55	2.750000e+00	8.139357e+05	
56	2.800000e+00	8.080058e+05	
57	2.850000e+00	8.016994e+05	
58	2.900000e+00	7.949636e+05	
59	2.950000e+00	7.877442e+05	
60	3.000000e+00	7.799857e+05	
61	3.050000e+00	7.716332e+05	
62	3.100000e+00	7.626333e+05	
63	3.150000e+00	7.529357e+05	
64	3.200000e+00	7.424950e+05	
65	3.250000e+00	7.312720e+05	
66	3.300000e+00	7.192360e+05	
Reset re-loads circuit ***************************

Circuit: ***************************

Doing analysis at TEMP = -40.000000 and TNOM = -40.000000


No. of Data Rows : 67
                          ***************************
                          DC transfer characteristic  Mon Jan  9 13:58:14  2023
--------------------------------------------------------------------------------
Index   v-sweep         rds             
--------------------------------------------------------------------------------
0	0.000000e+00	1.018174e+04	
1	5.000000e-02	1.172230e+04	
2	1.000000e-01	1.359871e+04	
3	1.500000e-01	1.592976e+04	
4	2.000000e-01	1.889946e+04	
5	2.500000e-01	2.280944e+04	
6	3.000000e-01	2.818198e+04	
7	3.500000e-01	3.592085e+04	
8	4.000000e-01	4.731945e+04	
9	4.500000e-01	6.330505e+04	
10	5.000000e-01	8.326143e+04	
11	5.500000e-01	1.053148e+05	
12	6.000000e-01	1.276540e+05	
13	6.500000e-01	1.491437e+05	
14	7.000000e-01	1.692394e+05	
15	7.500000e-01	1.877537e+05	
16	8.000000e-01	2.046856e+05	
17	8.500000e-01	2.201212e+05	
18	9.000000e-01	2.341816e+05	
19	9.500000e-01	2.469966e+05	
20	1.000000e+00	2.586924e+05	
21	1.050000e+00	2.693859e+05	
22	1.100000e+00	2.791828e+05	
23	1.150000e+00	2.881774e+05	
24	1.200000e+00	2.964532e+05	
25	1.250000e+00	3.040837e+05	
26	1.300000e+00	3.111339e+05	
27	1.350000e+00	3.176608e+05	
28	1.400000e+00	3.237151e+05	
29	1.450000e+00	3.293412e+05	
30	1.500000e+00	3.345786e+05	
31	1.550000e+00	3.394622e+05	
32	1.600000e+00	3.440232e+05	
33	1.650000e+00	3.482893e+05	
34	1.700000e+00	3.522852e+05	
35	1.750000e+00	3.560332e+05	
36	1.800000e+00	3.595530e+05	
37	1.850000e+00	3.628626e+05	
38	1.900000e+00	3.659779e+05	
39	1.950000e+00	3.689132e+05	
40	2.000000e+00	3.716812e+05	
41	2.050000e+00	3.742931e+05	
42	2.100000e+00	3.767587e+05	
43	2.150000e+00	3.790860e+05	
44	2.200000e+00	3.812814e+05	
45	2.250000e+00	3.833497e+05	
46	2.300000e+00	3.852931e+05	
47	2.350000e+00	3.871120e+05	
48	2.400000e+00	3.888035e+05	
49	2.450000e+00	3.903621e+05	
50	2.500000e+00	3.917785e+05	
51	2.550000e+00	3.930394e+05	
52	2.600000e+00	3.941272e+05	
53	2.650000e+00	3.950195e+05	
54	2.700000e+00	3.956887e+05	

Index   v-sweep         rds             
--------------------------------------------------------------------------------
55	2.750000e+00	3.961016e+05	
56	2.800000e+00	3.962197e+05	
57	2.850000e+00	3.959988e+05	
58	2.900000e+00	3.953897e+05	
59	2.950000e+00	3.943385e+05	
60	3.000000e+00	3.927879e+05	
61	3.050000e+00	3.906781e+05	
62	3.100000e+00	3.879492e+05	
63	3.150000e+00	3.845429e+05	
64	3.200000e+00	3.804051e+05	
65	3.250000e+00	3.754888e+05	
66	3.300000e+00	3.697574e+05	
Reset re-loads circuit ***************************

Circuit: ***************************

Doing analysis at TEMP = -40.000000 and TNOM = -40.000000


No. of Data Rows : 67
                          ***************************
                          DC transfer characteristic  Mon Jan  9 13:58:14  2023
--------------------------------------------------------------------------------
Index   v-sweep         rds             
--------------------------------------------------------------------------------
0	0.000000e+00	6.922116e+03	
1	5.000000e-02	7.611251e+03	
2	1.000000e-01	8.387448e+03	
3	1.500000e-01	9.267326e+03	
4	2.000000e-01	1.027238e+04	
5	2.500000e-01	1.143119e+04	
6	3.000000e-01	1.278320e+04	
7	3.500000e-01	1.438573e+04	
8	4.000000e-01	1.632750e+04	
9	4.500000e-01	1.875561e+04	
10	5.000000e-01	2.192432e+04	
11	5.500000e-01	2.625597e+04	
12	6.000000e-01	3.232437e+04	
13	6.500000e-01	4.060388e+04	
14	7.000000e-01	5.109457e+04	
15	7.500000e-01	6.327604e+04	
16	8.000000e-01	7.642747e+04	
17	8.500000e-01	8.991809e+04	
18	9.000000e-01	1.033037e+05	
19	9.500000e-01	1.163084e+05	
20	1.000000e+00	1.287775e+05	
21	1.050000e+00	1.406351e+05	
22	1.100000e+00	1.518544e+05	
23	1.150000e+00	1.624380e+05	
24	1.200000e+00	1.724053e+05	
25	1.250000e+00	1.817851e+05	
26	1.300000e+00	1.906107e+05	
27	1.350000e+00	1.989170e+05	
28	1.400000e+00	2.067386e+05	
29	1.450000e+00	2.141090e+05	
30	1.500000e+00	2.210603e+05	
31	1.550000e+00	2.276222e+05	
32	1.600000e+00	2.338226e+05	
33	1.650000e+00	2.396871e+05	
34	1.700000e+00	2.452396e+05	
35	1.750000e+00	2.505020e+05	
36	1.800000e+00	2.554943e+05	
37	1.850000e+00	2.602351e+05	
38	1.900000e+00	2.647412e+05	
39	1.950000e+00	2.690284e+05	
40	2.000000e+00	2.731108e+05	
41	2.050000e+00	2.770017e+05	
42	2.100000e+00	2.807129e+05	
43	2.150000e+00	2.842552e+05	
44	2.200000e+00	2.876384e+05	
45	2.250000e+00	2.908711e+05	
46	2.300000e+00	2.939604e+05	
47	2.350000e+00	2.969122e+05	
48	2.400000e+00	2.997307e+05	
49	2.450000e+00	3.024179e+05	
50	2.500000e+00	3.049738e+05	
51	2.550000e+00	3.073953e+05	
52	2.600000e+00	3.096763e+05	
53	2.650000e+00	3.118065e+05	
54	2.700000e+00	3.137713e+05	

Index   v-sweep         rds             
--------------------------------------------------------------------------------
55	2.750000e+00	3.155513e+05	
56	2.800000e+00	3.171210e+05	
57	2.850000e+00	3.184491e+05	
58	2.900000e+00	3.194976e+05	
59	2.950000e+00	3.202218e+05	
60	3.000000e+00	3.205705e+05	
61	3.050000e+00	3.204861e+05	
62	3.100000e+00	3.199062e+05	
63	3.150000e+00	3.187644e+05	
64	3.200000e+00	3.169928e+05	
65	3.250000e+00	3.145247e+05	
66	3.300000e+00	3.112976e+05	
Reset re-loads circuit ***************************

Circuit: ***************************

Doing analysis at TEMP = -40.000000 and TNOM = -40.000000


No. of Data Rows : 67
                          ***************************
                          DC transfer characteristic  Mon Jan  9 13:58:14  2023
--------------------------------------------------------------------------------
Index   v-sweep         rds             
--------------------------------------------------------------------------------
0	0.000000e+00	5.564018e+03	
1	5.000000e-02	5.976890e+03	
2	1.000000e-01	6.426127e+03	
3	1.500000e-01	6.916335e+03	
4	2.000000e-01	7.453005e+03	
5	2.500000e-01	8.042767e+03	
6	3.000000e-01	8.693777e+03	
7	3.500000e-01	9.416294e+03	
8	4.000000e-01	1.022364e+04	
9	4.500000e-01	1.113383e+04	
10	5.000000e-01	1.217255e+04	
11	5.500000e-01	1.337866e+04	
12	6.000000e-01	1.481465e+04	
13	6.500000e-01	1.658531e+04	
14	7.000000e-01	1.886600e+04	
15	7.500000e-01	2.192748e+04	
16	8.000000e-01	2.611107e+04	
17	8.500000e-01	3.170281e+04	
18	9.000000e-01	3.876592e+04	
19	9.500000e-01	4.709643e+04	
20	1.000000e+00	5.633614e+04	
21	1.050000e+00	6.611306e+04	
22	1.100000e+00	7.611897e+04	
23	1.150000e+00	8.612751e+04	
24	1.200000e+00	9.598418e+04	
25	1.250000e+00	1.055892e+05	
26	1.300000e+00	1.148820e+05	
27	1.350000e+00	1.238286e+05	
28	1.400000e+00	1.324135e+05	
29	1.450000e+00	1.406331e+05	
30	1.500000e+00	1.484919e+05	
31	1.550000e+00	1.559991e+05	
32	1.600000e+00	1.631673e+05	
33	1.650000e+00	1.700109e+05	
34	1.700000e+00	1.765448e+05	
35	1.750000e+00	1.827845e+05	
36	1.800000e+00	1.887454e+05	
37	1.850000e+00	1.944422e+05	
38	1.900000e+00	1.998895e+05	
39	1.950000e+00	2.051009e+05	
40	2.000000e+00	2.100895e+05	
41	2.050000e+00	2.148676e+05	
42	2.100000e+00	2.194468e+05	
43	2.150000e+00	2.238381e+05	
44	2.200000e+00	2.280516e+05	
45	2.250000e+00	2.320968e+05	
46	2.300000e+00	2.359825e+05	
47	2.350000e+00	2.397168e+05	
48	2.400000e+00	2.433068e+05	
49	2.450000e+00	2.467588e+05	
50	2.500000e+00	2.500779e+05	
51	2.550000e+00	2.532677e+05	
52	2.600000e+00	2.563303e+05	
53	2.650000e+00	2.592656e+05	
54	2.700000e+00	2.620710e+05	

Index   v-sweep         rds             
--------------------------------------------------------------------------------
55	2.750000e+00	2.647405e+05	
56	2.800000e+00	2.672645e+05	
57	2.850000e+00	2.696288e+05	
58	2.900000e+00	2.718139e+05	
59	2.950000e+00	2.737943e+05	
60	3.000000e+00	2.755379e+05	
61	3.050000e+00	2.770051e+05	
62	3.100000e+00	2.781488e+05	
63	3.150000e+00	2.789145e+05	
64	3.200000e+00	2.792401e+05	
65	3.250000e+00	2.790577e+05	
66	3.300000e+00	2.782950e+05	
Reset re-loads circuit ***************************

Circuit: ***************************

Doing analysis at TEMP = -40.000000 and TNOM = -40.000000


No. of Data Rows : 67
                          ***************************
                          DC transfer characteristic  Mon Jan  9 13:58:14  2023
--------------------------------------------------------------------------------
Index   v-sweep         rds             
--------------------------------------------------------------------------------
0	0.000000e+00	4.985304e+03	
1	5.000000e-02	5.291468e+03	
2	1.000000e-01	5.619255e+03	
3	1.500000e-01	5.970799e+03	
4	2.000000e-01	6.348549e+03	
5	2.500000e-01	6.755339e+03	
6	3.000000e-01	7.194483e+03	
7	3.500000e-01	7.669910e+03	
8	4.000000e-01	8.186352e+03	
9	4.500000e-01	8.749642e+03	
10	5.000000e-01	9.367178e+03	
11	5.500000e-01	1.004870e+04	
12	6.000000e-01	1.080761e+04	
13	6.500000e-01	1.166337e+04	
14	7.000000e-01	1.264574e+04	
15	7.500000e-01	1.380239e+04	
16	8.000000e-01	1.521156e+04	
17	8.500000e-01	1.699988e+04	
18	9.000000e-01	1.935752e+04	
19	9.500000e-01	2.252646e+04	
20	1.000000e+00	2.673330e+04	
21	1.050000e+00	3.208585e+04	
22	1.100000e+00	3.851633e+04	
23	1.150000e+00	4.581925e+04	
24	1.200000e+00	5.373638e+04	
25	1.250000e+00	6.202390e+04	
26	1.300000e+00	7.048274e+04	
27	1.350000e+00	7.896324e+04	
28	1.400000e+00	8.735861e+04	
29	1.450000e+00	9.559562e+04	
30	1.500000e+00	1.036260e+05	
31	1.550000e+00	1.114194e+05	
32	1.600000e+00	1.189586e+05	
33	1.650000e+00	1.262350e+05	
34	1.700000e+00	1.332468e+05	
35	1.750000e+00	1.399960e+05	
36	1.800000e+00	1.464880e+05	
37	1.850000e+00	1.527300e+05	
38	1.900000e+00	1.587302e+05	
39	1.950000e+00	1.644980e+05	
40	2.000000e+00	1.700427e+05	
41	2.050000e+00	1.753739e+05	
42	2.100000e+00	1.805013e+05	
43	2.150000e+00	1.854341e+05	
44	2.200000e+00	1.901814e+05	
45	2.250000e+00	1.947519e+05	
46	2.300000e+00	1.991540e+05	
47	2.350000e+00	2.033956e+05	
48	2.400000e+00	2.074843e+05	
49	2.450000e+00	2.114271e+05	
50	2.500000e+00	2.152305e+05	
51	2.550000e+00	2.189001e+05	
52	2.600000e+00	2.224412e+05	
53	2.650000e+00	2.258576e+05	
54	2.700000e+00	2.291520e+05	

Index   v-sweep         rds             
--------------------------------------------------------------------------------
55	2.750000e+00	2.323257e+05	
56	2.800000e+00	2.353775e+05	
57	2.850000e+00	2.383039e+05	
58	2.900000e+00	2.410979e+05	
59	2.950000e+00	2.437489e+05	
60	3.000000e+00	2.462410e+05	
61	3.050000e+00	2.485531e+05	
62	3.100000e+00	2.506575e+05	
63	3.150000e+00	2.525192e+05	
64	3.200000e+00	2.540954e+05	
65	3.250000e+00	2.553351e+05	
66	3.300000e+00	2.561793e+05	
Reset re-loads circuit ***************************

Circuit: ***************************

Doing analysis at TEMP = -40.000000 and TNOM = -40.000000


No. of Data Rows : 67
                          ***************************
                          DC transfer characteristic  Mon Jan  9 13:58:14  2023
--------------------------------------------------------------------------------
Index   v-sweep         rds             
--------------------------------------------------------------------------------
0	0.000000e+00	4.569084e+03	
1	5.000000e-02	4.804695e+03	
2	1.000000e-01	5.053949e+03	
3	1.500000e-01	5.317923e+03	
4	2.000000e-01	5.597820e+03	
5	2.500000e-01	5.894990e+03	
6	3.000000e-01	6.210962e+03	
7	3.500000e-01	6.547475e+03	
8	4.000000e-01	6.906527e+03	
9	4.500000e-01	7.290445e+03	
10	5.000000e-01	7.701981e+03	
11	5.500000e-01	8.144449e+03	
12	6.000000e-01	8.621946e+03	
13	6.500000e-01	9.139694e+03	
14	7.000000e-01	9.704601e+03	
15	7.500000e-01	1.032621e+04	
16	8.000000e-01	1.101831e+04	
17	8.500000e-01	1.180172e+04	
18	9.000000e-01	1.270902e+04	
19	9.500000e-01	1.379218e+04	
20	1.000000e+00	1.513336e+04	
21	1.050000e+00	1.685613e+04	
22	1.100000e+00	1.912668e+04	
23	1.150000e+00	2.212815e+04	
24	1.200000e+00	2.600256e+04	
25	1.250000e+00	3.079092e+04	
26	1.300000e+00	3.641769e+04	
27	1.350000e+00	4.272639e+04	
28	1.400000e+00	4.953204e+04	
29	1.450000e+00	5.665986e+04	
30	1.500000e+00	6.396333e+04	
31	1.550000e+00	7.132790e+04	
32	1.600000e+00	7.866792e+04	
33	1.650000e+00	8.592133e+04	
34	1.700000e+00	9.304440e+04	
35	1.750000e+00	1.000073e+05	
36	1.800000e+00	1.067903e+05	
37	1.850000e+00	1.133816e+05	
38	1.900000e+00	1.197746e+05	
39	1.950000e+00	1.259669e+05	
40	2.000000e+00	1.319590e+05	
41	2.050000e+00	1.377535e+05	
42	2.100000e+00	1.433543e+05	
43	2.150000e+00	1.487665e+05	
44	2.200000e+00	1.539956e+05	
45	2.250000e+00	1.590479e+05	
46	2.300000e+00	1.639295e+05	
47	2.350000e+00	1.686468e+05	
48	2.400000e+00	1.732062e+05	
49	2.450000e+00	1.776140e+05	
50	2.500000e+00	1.818762e+05	
51	2.550000e+00	1.859987e+05	
52	2.600000e+00	1.899871e+05	
53	2.650000e+00	1.938467e+05	
54	2.700000e+00	1.975823e+05	

Index   v-sweep         rds             
--------------------------------------------------------------------------------
55	2.750000e+00	2.011979e+05	
56	2.800000e+00	2.046970e+05	
57	2.850000e+00	2.080819e+05	
58	2.900000e+00	2.113535e+05	
59	2.950000e+00	2.145107e+05	
60	3.000000e+00	2.175502e+05	
61	3.050000e+00	2.204655e+05	
62	3.100000e+00	2.232462e+05	
63	3.150000e+00	2.258776e+05	
64	3.200000e+00	2.283390e+05	
65	3.250000e+00	2.306033e+05	
66	3.300000e+00	2.326362e+05	
Reset re-loads circuit ***************************

Circuit: ***************************

Note: No ".plot", ".print", or ".fourier" lines; no simulations run
