
Note: Compatibility modes selected: hs

Warning: m=xx on .subckt line will override multiplier m hierarchy!


Circuit: ***************************

Doing analysis at TEMP = 125.000000 and TNOM = 125.000000


No. of Data Rows : 67
                          ***************************
                          DC transfer characteristic  Mon Jan  9 13:58:14  2023
--------------------------------------------------------------------------------
Index   v-sweep         rds             
--------------------------------------------------------------------------------
0	0.000000e+00	4.200137e+05	
1	5.000000e-02	5.375289e+05	
2	1.000000e-01	7.454241e+05	
3	1.500000e-01	1.208647e+06	
4	2.000000e-01	2.903574e+06	
5	2.500000e-01	1.609494e+07	
6	3.000000e-01	8.004157e+07	
7	3.500000e-01	1.843541e+08	
8	4.000000e-01	2.769225e+08	
9	4.500000e-01	3.449711e+08	
10	5.000000e-01	3.943476e+08	
11	5.500000e-01	4.313783e+08	
12	6.000000e-01	4.602103e+08	
13	6.500000e-01	4.833907e+08	
14	7.000000e-01	5.025134e+08	
15	7.500000e-01	5.186149e+08	
16	8.000000e-01	5.323972e+08	
17	8.500000e-01	5.443532e+08	
18	9.000000e-01	5.548407e+08	
19	9.500000e-01	5.641262e+08	
20	1.000000e+00	5.724133e+08	
21	1.050000e+00	5.798604e+08	
22	1.100000e+00	5.865932e+08	
23	1.150000e+00	5.927126e+08	
24	1.200000e+00	5.983009e+08	
25	1.250000e+00	6.034259e+08	
26	1.300000e+00	6.081442e+08	
27	1.350000e+00	6.125031e+08	
28	1.400000e+00	6.165430e+08	
29	1.450000e+00	6.202980e+08	
30	1.500000e+00	6.237977e+08	
31	1.550000e+00	6.270676e+08	
32	1.600000e+00	6.301298e+08	
33	1.650000e+00	6.330035e+08	
34	1.700000e+00	6.357057e+08	
35	1.750000e+00	6.382510e+08	
36	1.800000e+00	6.406524e+08	
37	1.850000e+00	6.429211e+08	
38	1.900000e+00	6.450667e+08	
39	1.950000e+00	6.470972e+08	
40	2.000000e+00	6.490190e+08	
41	2.050000e+00	6.508371e+08	
42	2.100000e+00	6.525546e+08	
43	2.150000e+00	6.541726e+08	
44	2.200000e+00	6.556902e+08	
45	2.250000e+00	6.571042e+08	
46	2.300000e+00	6.584088e+08	
47	2.350000e+00	6.595952e+08	
48	2.400000e+00	6.606516e+08	
49	2.450000e+00	6.615626e+08	
50	2.500000e+00	6.623093e+08	
51	2.550000e+00	6.628689e+08	
52	2.600000e+00	6.632143e+08	
53	2.650000e+00	6.633144e+08	
54	2.700000e+00	6.631340e+08	

Index   v-sweep         rds             
--------------------------------------------------------------------------------
55	2.750000e+00	6.626338e+08	
56	2.800000e+00	6.617706e+08	
57	2.850000e+00	6.604980e+08	
58	2.900000e+00	6.587666e+08	
59	2.950000e+00	6.565250e+08	
60	3.000000e+00	6.537205e+08	
61	3.050000e+00	6.503007e+08	
62	3.100000e+00	6.462142e+08	
63	3.150000e+00	6.414124e+08	
64	3.200000e+00	6.358509e+08	
65	3.250000e+00	6.294915e+08	
66	3.300000e+00	6.223032e+08	
Reset re-loads circuit ***************************

Circuit: ***************************

Doing analysis at TEMP = 125.000000 and TNOM = 125.000000


No. of Data Rows : 67
                          ***************************
                          DC transfer characteristic  Mon Jan  9 13:58:14  2023
--------------------------------------------------------------------------------
Index   v-sweep         rds             
--------------------------------------------------------------------------------
0	0.000000e+00	1.512333e+05	
1	5.000000e-02	1.652742e+05	
2	1.000000e-01	1.821594e+05	
3	1.500000e-01	2.028504e+05	
4	2.000000e-01	2.287956e+05	
5	2.500000e-01	2.622843e+05	
6	3.000000e-01	3.071566e+05	
7	3.500000e-01	3.703731e+05	
8	4.000000e-01	4.659390e+05	
9	4.500000e-01	6.264667e+05	
10	5.000000e-01	9.457004e+05	
11	5.500000e-01	1.780251e+06	
12	6.000000e-01	4.708422e+06	
13	6.500000e-01	1.370556e+07	
14	7.000000e-01	2.967920e+07	
15	7.500000e-01	4.779294e+07	
16	8.000000e-01	6.443158e+07	
17	8.500000e-01	7.871023e+07	
18	9.000000e-01	9.083477e+07	
19	9.500000e-01	1.012114e+08	
20	1.000000e+00	1.102004e+08	
21	1.050000e+00	1.180803e+08	
22	1.100000e+00	1.250608e+08	
23	1.150000e+00	1.313001e+08	
24	1.200000e+00	1.369195e+08	
25	1.250000e+00	1.420136e+08	
26	1.300000e+00	1.466576e+08	
27	1.350000e+00	1.509121e+08	
28	1.400000e+00	1.548267e+08	
29	1.450000e+00	1.584424e+08	
30	1.500000e+00	1.617936e+08	
31	1.550000e+00	1.649093e+08	
32	1.600000e+00	1.678143e+08	
33	1.650000e+00	1.705299e+08	
34	1.700000e+00	1.730745e+08	
35	1.750000e+00	1.754642e+08	
36	1.800000e+00	1.777129e+08	
37	1.850000e+00	1.798331e+08	
38	1.900000e+00	1.818355e+08	
39	1.950000e+00	1.837299e+08	
40	2.000000e+00	1.855249e+08	
41	2.050000e+00	1.872281e+08	
42	2.100000e+00	1.888463e+08	
43	2.150000e+00	1.903855e+08	
44	2.200000e+00	1.918509e+08	
45	2.250000e+00	1.932472e+08	
46	2.300000e+00	1.945782e+08	
47	2.350000e+00	1.958467e+08	
48	2.400000e+00	1.970550e+08	
49	2.450000e+00	1.982042e+08	
50	2.500000e+00	1.992943e+08	
51	2.550000e+00	2.003240e+08	
52	2.600000e+00	2.012905e+08	
53	2.650000e+00	2.021896e+08	
54	2.700000e+00	2.030150e+08	

Index   v-sweep         rds             
--------------------------------------------------------------------------------
55	2.750000e+00	2.037582e+08	
56	2.800000e+00	2.044086e+08	
57	2.850000e+00	2.049532e+08	
58	2.900000e+00	2.053764e+08	
59	2.950000e+00	2.056597e+08	
60	3.000000e+00	2.057825e+08	
61	3.050000e+00	2.057211e+08	
62	3.100000e+00	2.054502e+08	
63	3.150000e+00	2.049422e+08	
64	3.200000e+00	2.041686e+08	
65	3.250000e+00	2.031002e+08	
66	3.300000e+00	2.017086e+08	
Reset re-loads circuit ***************************

Circuit: ***************************

Doing analysis at TEMP = 125.000000 and TNOM = 125.000000


No. of Data Rows : 67
                          ***************************
                          DC transfer characteristic  Mon Jan  9 13:58:14  2023
--------------------------------------------------------------------------------
Index   v-sweep         rds             
--------------------------------------------------------------------------------
0	0.000000e+00	9.565613e+04	
1	5.000000e-02	1.008176e+05	
2	1.000000e-01	1.065588e+05	
3	1.500000e-01	1.129832e+05	
4	2.000000e-01	1.202205e+05	
5	2.500000e-01	1.284352e+05	
6	3.000000e-01	1.378397e+05	
7	3.500000e-01	1.487125e+05	
8	4.000000e-01	1.614263e+05	
9	4.500000e-01	1.764917e+05	
10	5.000000e-01	1.946268e+05	
11	5.500000e-01	2.168746e+05	
12	6.000000e-01	2.448092e+05	
13	6.500000e-01	2.809211e+05	
14	7.000000e-01	3.293899e+05	
15	7.500000e-01	3.977780e+05	
16	8.000000e-01	5.011829e+05	
17	8.500000e-01	6.738958e+05	
18	9.000000e-01	1.007298e+06	
19	9.500000e-01	1.780892e+06	
20	1.000000e+00	3.768488e+06	
21	1.050000e+00	8.031229e+06	
22	1.100000e+00	1.439905e+07	
23	1.150000e+00	2.154961e+07	
24	1.200000e+00	2.849407e+07	
25	1.250000e+00	3.486657e+07	
26	1.300000e+00	4.061678e+07	
27	1.350000e+00	4.579831e+07	
28	1.400000e+00	5.048568e+07	
29	1.450000e+00	5.474867e+07	
30	1.500000e+00	5.864651e+07	
31	1.550000e+00	6.222811e+07	
32	1.600000e+00	6.553370e+07	
33	1.650000e+00	6.859653e+07	
34	1.700000e+00	7.144435e+07	
35	1.750000e+00	7.410052e+07	
36	1.800000e+00	7.658487e+07	
37	1.850000e+00	7.891444e+07	
38	1.900000e+00	8.110391e+07	
39	1.950000e+00	8.316607e+07	
40	2.000000e+00	8.511212e+07	
41	2.050000e+00	8.695192e+07	
42	2.100000e+00	8.869418e+07	
43	2.150000e+00	9.034667e+07	
44	2.200000e+00	9.191631e+07	
45	2.250000e+00	9.340931e+07	
46	2.300000e+00	9.483123e+07	
47	2.350000e+00	9.618712e+07	
48	2.400000e+00	9.748150e+07	
49	2.450000e+00	9.871845e+07	
50	2.500000e+00	9.990163e+07	
51	2.550000e+00	1.010343e+08	
52	2.600000e+00	1.021194e+08	
53	2.650000e+00	1.031592e+08	
54	2.700000e+00	1.041558e+08	

Index   v-sweep         rds             
--------------------------------------------------------------------------------
55	2.750000e+00	1.051106e+08	
56	2.800000e+00	1.060244e+08	
57	2.850000e+00	1.068973e+08	
58	2.900000e+00	1.077287e+08	
59	2.950000e+00	1.085168e+08	
60	3.000000e+00	1.092587e+08	
61	3.050000e+00	1.099503e+08	
62	3.100000e+00	1.105858e+08	
63	3.150000e+00	1.111580e+08	
64	3.200000e+00	1.116576e+08	
65	3.250000e+00	1.120735e+08	
66	3.300000e+00	1.123926e+08	
Reset re-loads circuit ***************************

Circuit: ***************************

Doing analysis at TEMP = 125.000000 and TNOM = 125.000000


No. of Data Rows : 67
                          ***************************
                          DC transfer characteristic  Mon Jan  9 13:58:14  2023
--------------------------------------------------------------------------------
Index   v-sweep         rds             
--------------------------------------------------------------------------------
0	0.000000e+00	7.235543e+04	
1	5.000000e-02	7.504174e+04	
2	1.000000e-01	7.793093e+04	
3	1.500000e-01	8.104690e+04	
4	2.000000e-01	8.441743e+04	
5	2.500000e-01	8.807504e+04	
6	3.000000e-01	9.205803e+04	
7	3.500000e-01	9.641184e+04	
8	4.000000e-01	1.011908e+05	
9	4.500000e-01	1.064602e+05	
10	5.000000e-01	1.122999e+05	
11	5.500000e-01	1.188075e+05	
12	6.000000e-01	1.261046e+05	
13	6.500000e-01	1.343440e+05	
14	7.000000e-01	1.437209e+05	
15	7.500000e-01	1.544879e+05	
16	8.000000e-01	1.669788e+05	
17	8.500000e-01	1.816430e+05	
18	9.000000e-01	1.991007e+05	
19	9.500000e-01	2.202322e+05	
20	1.000000e+00	2.463291e+05	
21	1.050000e+00	2.793639e+05	
22	1.100000e+00	3.225008e+05	
23	1.150000e+00	3.811311e+05	
24	1.200000e+00	4.651626e+05	
25	1.250000e+00	5.945827e+05	
26	1.300000e+00	8.142764e+05	
27	1.350000e+00	1.234483e+06	
28	1.400000e+00	2.116002e+06	
29	1.450000e+00	3.879482e+06	
30	1.500000e+00	6.717879e+06	
31	1.550000e+00	1.028463e+07	
32	1.600000e+00	1.407963e+07	
33	1.650000e+00	1.779289e+07	
34	1.700000e+00	2.129877e+07	
35	1.750000e+00	2.456590e+07	
36	1.800000e+00	2.760042e+07	
37	1.850000e+00	3.042066e+07	
38	1.900000e+00	3.304738e+07	
39	1.950000e+00	3.550023e+07	
40	2.000000e+00	3.779680e+07	
41	2.050000e+00	3.995249e+07	
42	2.100000e+00	4.198070e+07	
43	2.150000e+00	4.389310e+07	
44	2.200000e+00	4.569990e+07	
45	2.250000e+00	4.741007e+07	
46	2.300000e+00	4.903152e+07	
47	2.350000e+00	5.057128e+07	
48	2.400000e+00	5.203559e+07	
49	2.450000e+00	5.343007e+07	
50	2.500000e+00	5.475973e+07	
51	2.550000e+00	5.602912e+07	
52	2.600000e+00	5.724235e+07	
53	2.650000e+00	5.840315e+07	
54	2.700000e+00	5.951490e+07	

Index   v-sweep         rds             
--------------------------------------------------------------------------------
55	2.750000e+00	6.058069e+07	
56	2.800000e+00	6.160335e+07	
57	2.850000e+00	6.258544e+07	
58	2.900000e+00	6.352928e+07	
59	2.950000e+00	6.443698e+07	
60	3.000000e+00	6.531039e+07	
61	3.050000e+00	6.615108e+07	
62	3.100000e+00	6.696035e+07	
63	3.150000e+00	6.773916e+07	
64	3.200000e+00	6.848802e+07	
65	3.250000e+00	6.920698e+07	
66	3.300000e+00	6.989546e+07	
Reset re-loads circuit ***************************

Circuit: ***************************

Doing analysis at TEMP = 125.000000 and TNOM = 125.000000


No. of Data Rows : 67
                          ***************************
                          DC transfer characteristic  Mon Jan  9 13:58:14  2023
--------------------------------------------------------------------------------
Index   v-sweep         rds             
--------------------------------------------------------------------------------
0	0.000000e+00	5.982653e+04	
1	5.000000e-02	6.148173e+04	
2	1.000000e-01	6.322869e+04	
3	1.500000e-01	6.507526e+04	
4	2.000000e-01	6.703022e+04	
5	2.500000e-01	6.910338e+04	
6	3.000000e-01	7.130580e+04	
7	3.500000e-01	7.364996e+04	
8	4.000000e-01	7.615000e+04	
9	4.500000e-01	7.882198e+04	
10	5.000000e-01	8.168429e+04	
11	5.500000e-01	8.475799e+04	
12	6.000000e-01	8.806741e+04	
13	6.500000e-01	9.164074e+04	
14	7.000000e-01	9.551084e+04	
15	7.500000e-01	9.971628e+04	
16	8.000000e-01	1.043026e+05	
17	8.500000e-01	1.093240e+05	
18	9.000000e-01	1.148455e+05	
19	9.500000e-01	1.209456e+05	
20	1.000000e+00	1.277202e+05	
21	1.050000e+00	1.352879e+05	
22	1.100000e+00	1.437962e+05	
23	1.150000e+00	1.534323e+05	
24	1.200000e+00	1.644358e+05	
25	1.250000e+00	1.771199e+05	
26	1.300000e+00	1.919005e+05	
27	1.350000e+00	2.093431e+05	
28	1.400000e+00	2.302355e+05	
29	1.450000e+00	2.557083e+05	
30	1.500000e+00	2.874419e+05	
31	1.550000e+00	3.280402e+05	
32	1.600000e+00	3.817465e+05	
33	1.650000e+00	4.559075e+05	
34	1.700000e+00	5.641785e+05	
35	1.750000e+00	7.339448e+05	
36	1.800000e+00	1.023339e+06	
37	1.850000e+00	1.551913e+06	
38	1.900000e+00	2.509213e+06	
39	1.950000e+00	4.034996e+06	
40	2.000000e+00	6.050841e+06	
41	2.050000e+00	8.329717e+06	
42	2.100000e+00	1.067408e+07	
43	2.150000e+00	1.297270e+07	
44	2.200000e+00	1.517683e+07	
45	2.250000e+00	1.727025e+07	
46	2.300000e+00	1.925151e+07	
47	2.350000e+00	2.112523e+07	
48	2.400000e+00	2.289819e+07	
49	2.450000e+00	2.457771e+07	
50	2.500000e+00	2.617082e+07	
51	2.550000e+00	2.768411e+07	
52	2.600000e+00	2.912356e+07	
53	2.650000e+00	3.049462e+07	
54	2.700000e+00	3.180222e+07	

Index   v-sweep         rds             
--------------------------------------------------------------------------------
55	2.750000e+00	3.305079e+07	
56	2.800000e+00	3.424438e+07	
57	2.850000e+00	3.538664e+07	
58	2.900000e+00	3.648091e+07	
59	2.950000e+00	3.753021e+07	
60	3.000000e+00	3.853734e+07	
61	3.050000e+00	3.950483e+07	
62	3.100000e+00	4.043502e+07	
63	3.150000e+00	4.133006e+07	
64	3.200000e+00	4.219194e+07	
65	3.250000e+00	4.302247e+07	
66	3.300000e+00	4.382334e+07	
Reset re-loads circuit ***************************

Circuit: ***************************

Doing analysis at TEMP = 125.000000 and TNOM = 125.000000


No. of Data Rows : 67
                          ***************************
                          DC transfer characteristic  Mon Jan  9 13:58:14  2023
--------------------------------------------------------------------------------
Index   v-sweep         rds             
--------------------------------------------------------------------------------
0	0.000000e+00	5.259591e+04	
1	5.000000e-02	5.373886e+04	
2	1.000000e-01	5.493103e+04	
3	1.500000e-01	5.617567e+04	
4	2.000000e-01	5.747631e+04	
5	2.500000e-01	5.883684e+04	
6	3.000000e-01	6.026147e+04	
7	3.500000e-01	6.175485e+04	
8	4.000000e-01	6.332207e+04	
9	4.500000e-01	6.496875e+04	
10	5.000000e-01	6.670109e+04	
11	5.500000e-01	6.852595e+04	
12	6.000000e-01	7.045095e+04	
13	6.500000e-01	7.248454e+04	
14	7.000000e-01	7.463620e+04	
15	7.500000e-01	7.691651e+04	
16	8.000000e-01	7.933736e+04	
17	8.500000e-01	8.191214e+04	
18	9.000000e-01	8.465603e+04	
19	9.500000e-01	8.758625e+04	
20	1.000000e+00	9.072243e+04	
21	1.050000e+00	9.408709e+04	
22	1.100000e+00	9.770611e+04	
23	1.150000e+00	1.016095e+05	
24	1.200000e+00	1.058321e+05	
25	1.250000e+00	1.104147e+05	
26	1.300000e+00	1.154055e+05	
27	1.350000e+00	1.208614e+05	
28	1.400000e+00	1.268506e+05	
29	1.450000e+00	1.334554e+05	
30	1.500000e+00	1.407757e+05	
31	1.550000e+00	1.489343e+05	
32	1.600000e+00	1.580839e+05	
33	1.650000e+00	1.684166e+05	
34	1.700000e+00	1.801772e+05	
35	1.750000e+00	1.936833e+05	
36	1.800000e+00	2.093536e+05	
37	1.850000e+00	2.277521e+05	
38	1.900000e+00	2.496557e+05	
39	1.950000e+00	2.761650e+05	
40	2.000000e+00	3.088890e+05	
41	2.050000e+00	3.502697e+05	
42	2.100000e+00	4.041796e+05	
43	2.150000e+00	4.770809e+05	
44	2.200000e+00	5.803789e+05	
45	2.250000e+00	7.353081e+05	
46	2.300000e+00	9.824591e+05	
47	2.350000e+00	1.395004e+06	
48	2.400000e+00	2.075524e+06	
49	2.450000e+00	3.096950e+06	
50	2.500000e+00	4.427366e+06	
51	2.550000e+00	5.952731e+06	
52	2.600000e+00	7.558711e+06	
53	2.650000e+00	9.169808e+06	
54	2.700000e+00	1.074575e+07	

Index   v-sweep         rds             
--------------------------------------------------------------------------------
55	2.750000e+00	1.226791e+07	
56	2.800000e+00	1.372919e+07	
57	2.850000e+00	1.512818e+07	
58	2.900000e+00	1.646622e+07	
59	2.950000e+00	1.774587e+07	
60	3.000000e+00	1.897016e+07	
61	3.050000e+00	2.014224e+07	
62	3.100000e+00	2.126521e+07	
63	3.150000e+00	2.234199e+07	
64	3.200000e+00	2.337535e+07	
65	3.250000e+00	2.436786e+07	
66	3.300000e+00	2.532190e+07	
Reset re-loads circuit ***************************

Circuit: ***************************

Note: No ".plot", ".print", or ".fourier" lines; no simulations run
