
Note: Compatibility modes selected: hs

Warning: m=xx on .subckt line will override multiplier m hierarchy!


Circuit: ***************************

Doing analysis at TEMP = 125.000000 and TNOM = 125.000000


No. of Data Rows : 67
                          ***************************
                          DC transfer characteristic  Mon Jan  9 13:58:14  2023
--------------------------------------------------------------------------------
Index   v-sweep         rds             
--------------------------------------------------------------------------------
0	0.000000e+00	1.199914e+03	
1	5.000000e-02	1.493779e+03	
2	1.000000e-01	1.933624e+03	
3	1.500000e-01	2.648196e+03	
4	2.000000e-01	3.918072e+03	
5	2.500000e-01	6.247979e+03	
6	3.000000e-01	9.955296e+03	
7	3.500000e-01	1.434197e+04	
8	4.000000e-01	1.832468e+04	
9	4.500000e-01	2.146727e+04	
10	5.000000e-01	2.382981e+04	
11	5.500000e-01	2.559596e+04	
12	6.000000e-01	2.692929e+04	
13	6.500000e-01	2.794972e+04	
14	7.000000e-01	2.874098e+04	
15	7.500000e-01	2.936133e+04	
16	8.000000e-01	2.985179e+04	
17	8.500000e-01	3.024176e+04	
18	9.000000e-01	3.055274e+04	
19	9.500000e-01	3.080072e+04	
20	1.000000e+00	3.099780e+04	
21	1.050000e+00	3.115329e+04	
22	1.100000e+00	3.127445e+04	
23	1.150000e+00	3.136703e+04	
24	1.200000e+00	3.143562e+04	
25	1.250000e+00	3.148392e+04	
26	1.300000e+00	3.151496e+04	
27	1.350000e+00	3.153125e+04	
28	1.400000e+00	3.153485e+04	
29	1.450000e+00	3.152749e+04	
30	1.500000e+00	3.151063e+04	
31	1.550000e+00	3.148552e+04	
32	1.600000e+00	3.145319e+04	
33	1.650000e+00	3.141456e+04	
34	1.700000e+00	3.137040e+04	
35	1.750000e+00	3.132137e+04	
36	1.800000e+00	3.126805e+04	
37	1.850000e+00	3.121093e+04	
38	1.900000e+00	3.115042e+04	
39	1.950000e+00	3.108688e+04	
40	2.000000e+00	3.102060e+04	
41	2.050000e+00	3.095177e+04	
42	2.100000e+00	3.088054e+04	
43	2.150000e+00	3.080699e+04	
44	2.200000e+00	3.073107e+04	
45	2.250000e+00	3.065269e+04	
46	2.300000e+00	3.057162e+04	
47	2.350000e+00	3.048752e+04	
48	2.400000e+00	3.039991e+04	
49	2.450000e+00	3.030817e+04	
50	2.500000e+00	3.021152e+04	
51	2.550000e+00	3.010902e+04	
52	2.600000e+00	2.999951e+04	
53	2.650000e+00	2.988166e+04	
54	2.700000e+00	2.975395e+04	

Index   v-sweep         rds             
--------------------------------------------------------------------------------
55	2.750000e+00	2.961464e+04	
56	2.800000e+00	2.946180e+04	
57	2.850000e+00	2.929333e+04	
58	2.900000e+00	2.910695e+04	
59	2.950000e+00	2.890026e+04	
60	3.000000e+00	2.867078e+04	
61	3.050000e+00	2.841596e+04	
62	3.100000e+00	2.813329e+04	
63	3.150000e+00	2.782034e+04	
64	3.200000e+00	2.747486e+04	
65	3.250000e+00	2.709487e+04	
66	3.300000e+00	2.667870e+04	
Reset re-loads circuit ***************************

Circuit: ***************************

Doing analysis at TEMP = 125.000000 and TNOM = 125.000000


No. of Data Rows : 67
                          ***************************
                          DC transfer characteristic  Mon Jan  9 13:58:14  2023
--------------------------------------------------------------------------------
Index   v-sweep         rds             
--------------------------------------------------------------------------------
0	0.000000e+00	4.578056e+02	
1	5.000000e-02	5.061998e+02	
2	1.000000e-01	5.625641e+02	
3	1.500000e-01	6.289974e+02	
4	2.000000e-01	7.084126e+02	
5	2.500000e-01	8.049751e+02	
6	3.000000e-01	9.248543e+02	
7	3.500000e-01	1.077561e+03	
8	4.000000e-01	1.278356e+03	
9	4.500000e-01	1.552341e+03	
10	5.000000e-01	1.939512e+03	
11	5.500000e-01	2.493380e+03	
12	6.000000e-01	3.255984e+03	
13	6.500000e-01	4.213313e+03	
14	7.000000e-01	5.286782e+03	
15	7.500000e-01	6.379721e+03	
16	8.000000e-01	7.420751e+03	
17	8.500000e-01	8.373001e+03	
18	9.000000e-01	9.224684e+03	
19	9.500000e-01	9.977878e+03	
20	1.000000e+00	1.064090e+04	
21	1.050000e+00	1.122411e+04	
22	1.100000e+00	1.173785e+04	
23	1.150000e+00	1.219160e+04	
24	1.200000e+00	1.259367e+04	
25	1.250000e+00	1.295120e+04	
26	1.300000e+00	1.327026e+04	
27	1.350000e+00	1.355600e+04	
28	1.400000e+00	1.381276e+04	
29	1.450000e+00	1.404422e+04	
30	1.500000e+00	1.425350e+04	
31	1.550000e+00	1.444326e+04	
32	1.600000e+00	1.461576e+04	
33	1.650000e+00	1.477297e+04	
34	1.700000e+00	1.491655e+04	
35	1.750000e+00	1.504797e+04	
36	1.800000e+00	1.516847e+04	
37	1.850000e+00	1.527916e+04	
38	1.900000e+00	1.538100e+04	
39	1.950000e+00	1.547483e+04	
40	2.000000e+00	1.556138e+04	
41	2.050000e+00	1.564132e+04	
42	2.100000e+00	1.571521e+04	
43	2.150000e+00	1.578355e+04	
44	2.200000e+00	1.584676e+04	
45	2.250000e+00	1.590522e+04	
46	2.300000e+00	1.595921e+04	
47	2.350000e+00	1.600896e+04	
48	2.400000e+00	1.605462e+04	
49	2.450000e+00	1.609624e+04	
50	2.500000e+00	1.613378e+04	
51	2.550000e+00	1.616708e+04	
52	2.600000e+00	1.619587e+04	
53	2.650000e+00	1.621971e+04	
54	2.700000e+00	1.623802e+04	

Index   v-sweep         rds             
--------------------------------------------------------------------------------
55	2.750000e+00	1.625001e+04	
56	2.800000e+00	1.625472e+04	
57	2.850000e+00	1.625097e+04	
58	2.900000e+00	1.623736e+04	
59	2.950000e+00	1.621225e+04	
60	3.000000e+00	1.617380e+04	
61	3.050000e+00	1.611997e+04	
62	3.100000e+00	1.604853e+04	
63	3.150000e+00	1.595714e+04	
64	3.200000e+00	1.584336e+04	
65	3.250000e+00	1.570479e+04	
66	3.300000e+00	1.553909e+04	
Reset re-loads circuit ***************************

Circuit: ***************************

Doing analysis at TEMP = 125.000000 and TNOM = 125.000000


No. of Data Rows : 67
                          ***************************
                          DC transfer characteristic  Mon Jan  9 13:58:14  2023
--------------------------------------------------------------------------------
Index   v-sweep         rds             
--------------------------------------------------------------------------------
0	0.000000e+00	3.113591e+02	
1	5.000000e-02	3.338357e+02	
2	1.000000e-01	3.585838e+02	
3	1.500000e-01	3.859530e+02	
4	2.000000e-01	4.163699e+02	
5	2.500000e-01	4.503623e+02	
6	3.000000e-01	4.885919e+02	
7	3.500000e-01	5.319030e+02	
8	4.000000e-01	5.813947e+02	
9	4.500000e-01	6.385343e+02	
10	5.000000e-01	7.053416e+02	
11	5.500000e-01	7.847002e+02	
12	6.000000e-01	8.808960e+02	
13	6.500000e-01	1.000541e+03	
14	7.000000e-01	1.154010e+03	
15	7.500000e-01	1.357066e+03	
16	8.000000e-01	1.630725e+03	
17	8.500000e-01	1.995522e+03	
18	9.000000e-01	2.459494e+03	
19	9.500000e-01	3.009479e+03	
20	1.000000e+00	3.615681e+03	
21	1.050000e+00	4.244457e+03	
22	1.100000e+00	4.868063e+03	
23	1.150000e+00	5.467800e+03	
24	1.200000e+00	6.033035e+03	
25	1.250000e+00	6.558956e+03	
26	1.300000e+00	7.044479e+03	
27	1.350000e+00	7.490705e+03	
28	1.400000e+00	7.899895e+03	
29	1.450000e+00	8.274837e+03	
30	1.500000e+00	8.618477e+03	
31	1.550000e+00	8.933702e+03	
32	1.600000e+00	9.223235e+03	
33	1.650000e+00	9.489581e+03	
34	1.700000e+00	9.735015e+03	
35	1.750000e+00	9.961582e+03	
36	1.800000e+00	1.017111e+04	
37	1.850000e+00	1.036523e+04	
38	1.900000e+00	1.054540e+04	
39	1.950000e+00	1.071291e+04	
40	2.000000e+00	1.086891e+04	
41	2.050000e+00	1.101443e+04	
42	2.100000e+00	1.115038e+04	
43	2.150000e+00	1.127758e+04	
44	2.200000e+00	1.139676e+04	
45	2.250000e+00	1.150857e+04	
46	2.300000e+00	1.161361e+04	
47	2.350000e+00	1.171238e+04	
48	2.400000e+00	1.180535e+04	
49	2.450000e+00	1.189291e+04	
50	2.500000e+00	1.197541e+04	
51	2.550000e+00	1.205311e+04	
52	2.600000e+00	1.212622e+04	
53	2.650000e+00	1.219485e+04	
54	2.700000e+00	1.225904e+04	

Index   v-sweep         rds             
--------------------------------------------------------------------------------
55	2.750000e+00	1.231870e+04	
56	2.800000e+00	1.237362e+04	
57	2.850000e+00	1.242345e+04	
58	2.900000e+00	1.246766e+04	
59	2.950000e+00	1.250555e+04	
60	3.000000e+00	1.253618e+04	
61	3.050000e+00	1.255841e+04	
62	3.100000e+00	1.257082e+04	
63	3.150000e+00	1.257178e+04	
64	3.200000e+00	1.255939e+04	
65	3.250000e+00	1.253151e+04	
66	3.300000e+00	1.248582e+04	
Reset re-loads circuit ***************************

Circuit: ***************************

Doing analysis at TEMP = 125.000000 and TNOM = 125.000000


No. of Data Rows : 67
                          ***************************
                          DC transfer characteristic  Mon Jan  9 13:58:14  2023
--------------------------------------------------------------------------------
Index   v-sweep         rds             
--------------------------------------------------------------------------------
0	0.000000e+00	2.514128e+02	
1	5.000000e-02	2.655335e+02	
2	1.000000e-01	2.807012e+02	
3	1.500000e-01	2.970305e+02	
4	2.000000e-01	3.146537e+02	
5	2.500000e-01	3.337248e+02	
6	3.000000e-01	3.544242e+02	
7	3.500000e-01	3.769651e+02	
8	4.000000e-01	4.016020e+02	
9	4.500000e-01	4.286420e+02	
10	5.000000e-01	4.584612e+02	
11	5.500000e-01	4.915283e+02	
12	6.000000e-01	5.284395e+02	
13	6.500000e-01	5.699739e+02	
14	7.000000e-01	6.171811e+02	
15	7.500000e-01	6.715285e+02	
16	8.000000e-01	7.351470e+02	
17	8.500000e-01	8.112413e+02	
18	9.000000e-01	9.047265e+02	
19	9.500000e-01	1.023049e+03	
20	1.000000e+00	1.176744e+03	
21	1.050000e+00	1.378531e+03	
22	1.100000e+00	1.639598e+03	
23	1.150000e+00	1.964001e+03	
24	1.200000e+00	2.345392e+03	
25	1.250000e+00	2.769067e+03	
26	1.300000e+00	3.217218e+03	
27	1.350000e+00	3.673488e+03	
28	1.400000e+00	4.125148e+03	
29	1.450000e+00	4.563400e+03	
30	1.500000e+00	4.982772e+03	
31	1.550000e+00	5.380285e+03	
32	1.600000e+00	5.754691e+03	
33	1.650000e+00	6.105881e+03	
34	1.700000e+00	6.434461e+03	
35	1.750000e+00	6.741450e+03	
36	1.800000e+00	7.028094e+03	
37	1.850000e+00	7.295728e+03	
38	1.900000e+00	7.545707e+03	
39	1.950000e+00	7.779346e+03	
40	2.000000e+00	7.997899e+03	
41	2.050000e+00	8.202543e+03	
42	2.100000e+00	8.394367e+03	
43	2.150000e+00	8.574379e+03	
44	2.200000e+00	8.743502e+03	
45	2.250000e+00	8.902580e+03	
46	2.300000e+00	9.052384e+03	
47	2.350000e+00	9.193618e+03	
48	2.400000e+00	9.326921e+03	
49	2.450000e+00	9.452877e+03	
50	2.500000e+00	9.572014e+03	
51	2.550000e+00	9.684808e+03	
52	2.600000e+00	9.791689e+03	
53	2.650000e+00	9.893035e+03	
54	2.700000e+00	9.989173e+03	

Index   v-sweep         rds             
--------------------------------------------------------------------------------
55	2.750000e+00	1.008037e+04	
56	2.800000e+00	1.016685e+04	
57	2.850000e+00	1.024872e+04	
58	2.900000e+00	1.032605e+04	
59	2.950000e+00	1.039878e+04	
60	3.000000e+00	1.046672e+04	
61	3.050000e+00	1.052955e+04	
62	3.100000e+00	1.058678e+04	
63	3.150000e+00	1.063772e+04	
64	3.200000e+00	1.068145e+04	
65	3.250000e+00	1.071681e+04	
66	3.300000e+00	1.074240e+04	
Reset re-loads circuit ***************************

Circuit: ***************************

Doing analysis at TEMP = 125.000000 and TNOM = 125.000000


No. of Data Rows : 67
                          ***************************
                          DC transfer characteristic  Mon Jan  9 13:58:14  2023
--------------------------------------------------------------------------------
Index   v-sweep         rds             
--------------------------------------------------------------------------------
0	0.000000e+00	2.197726e+02	
1	5.000000e-02	2.299718e+02	
2	1.000000e-01	2.407739e+02	
3	1.500000e-01	2.522300e+02	
4	2.000000e-01	2.643979e+02	
5	2.500000e-01	2.773424e+02	
6	3.000000e-01	2.911366e+02	
7	3.500000e-01	3.058636e+02	
8	4.000000e-01	3.216183e+02	
9	4.500000e-01	3.385100e+02	
10	5.000000e-01	3.566647e+02	
11	5.500000e-01	3.762301e+02	
12	6.000000e-01	3.973803e+02	
13	6.500000e-01	4.203235e+02	
14	7.000000e-01	4.453125e+02	
15	7.500000e-01	4.726601e+02	
16	8.000000e-01	5.027625e+02	
17	8.500000e-01	5.361356e+02	
18	9.000000e-01	5.734724e+02	
19	9.500000e-01	6.157368e+02	
20	1.000000e+00	6.643164e+02	
21	1.050000e+00	7.212658e+02	
22	1.100000e+00	7.896739e+02	
23	1.150000e+00	8.741356e+02	
24	1.200000e+00	9.811496e+02	
25	1.250000e+00	1.118942e+03	
26	1.300000e+00	1.296000e+03	
27	1.350000e+00	1.518208e+03	
28	1.400000e+00	1.786027e+03	
29	1.450000e+00	2.093798e+03	
30	1.500000e+00	2.431604e+03	
31	1.550000e+00	2.788141e+03	
32	1.600000e+00	3.152969e+03	
33	1.650000e+00	3.517625e+03	
34	1.700000e+00	3.875852e+03	
35	1.750000e+00	4.223363e+03	
36	1.800000e+00	4.557442e+03	
37	1.850000e+00	4.876551e+03	
38	1.900000e+00	5.179992e+03	
39	1.950000e+00	5.467646e+03	
40	2.000000e+00	5.739781e+03	
41	2.050000e+00	5.996910e+03	
42	2.100000e+00	6.239694e+03	
43	2.150000e+00	6.468876e+03	
44	2.200000e+00	6.685232e+03	
45	2.250000e+00	6.889540e+03	
46	2.300000e+00	7.082563e+03	
47	2.350000e+00	7.265034e+03	
48	2.400000e+00	7.437649e+03	
49	2.450000e+00	7.601063e+03	
50	2.500000e+00	7.755892e+03	
51	2.550000e+00	7.902707e+03	
52	2.600000e+00	8.042040e+03	
53	2.650000e+00	8.174382e+03	
54	2.700000e+00	8.300186e+03	

Index   v-sweep         rds             
--------------------------------------------------------------------------------
55	2.750000e+00	8.419869e+03	
56	2.800000e+00	8.533807e+03	
57	2.850000e+00	8.642339e+03	
58	2.900000e+00	8.745761e+03	
59	2.950000e+00	8.844322e+03	
60	3.000000e+00	8.938212e+03	
61	3.050000e+00	9.027559e+03	
62	3.100000e+00	9.112408e+03	
63	3.150000e+00	9.192706e+03	
64	3.200000e+00	9.268279e+03	
65	3.250000e+00	9.338813e+03	
66	3.300000e+00	9.403820e+03	
Reset re-loads circuit ***************************

Circuit: ***************************

Doing analysis at TEMP = 125.000000 and TNOM = 125.000000


No. of Data Rows : 67
                          ***************************
                          DC transfer characteristic  Mon Jan  9 13:58:14  2023
--------------------------------------------------------------------------------
Index   v-sweep         rds             
--------------------------------------------------------------------------------
0	0.000000e+00	2.003651e+02	
1	5.000000e-02	2.083110e+02	
2	1.000000e-01	2.166486e+02	
3	1.500000e-01	2.254053e+02	
4	2.000000e-01	2.346113e+02	
5	2.500000e-01	2.442996e+02	
6	3.000000e-01	2.545068e+02	
7	3.500000e-01	2.652734e+02	
8	4.000000e-01	2.766447e+02	
9	4.500000e-01	2.886709e+02	
10	5.000000e-01	3.014084e+02	
11	5.500000e-01	3.149208e+02	
12	6.000000e-01	3.292803e+02	
13	6.500000e-01	3.445692e+02	
14	7.000000e-01	3.608822e+02	
15	7.500000e-01	3.783294e+02	
16	8.000000e-01	3.970403e+02	
17	8.500000e-01	4.171694e+02	
18	9.000000e-01	4.389041e+02	
19	9.500000e-01	4.624766e+02	
20	1.000000e+00	4.881817e+02	
21	1.050000e+00	5.164040e+02	
22	1.100000e+00	5.476610e+02	
23	1.150000e+00	5.826705e+02	
24	1.200000e+00	6.224582e+02	
25	1.250000e+00	6.685216e+02	
26	1.300000e+00	7.230696e+02	
27	1.350000e+00	7.893232e+02	
28	1.400000e+00	8.717852e+02	
29	1.450000e+00	9.762237e+02	
30	1.500000e+00	1.108976e+03	
31	1.550000e+00	1.275376e+03	
32	1.600000e+00	1.477823e+03	
33	1.650000e+00	1.714648e+03	
34	1.700000e+00	1.980519e+03	
35	1.750000e+00	2.267980e+03	
36	1.800000e+00	2.569136e+03	
37	1.850000e+00	2.876836e+03	
38	1.900000e+00	3.185216e+03	
39	1.950000e+00	3.489808e+03	
40	2.000000e+00	3.787402e+03	
41	2.050000e+00	4.075821e+03	
42	2.100000e+00	4.353691e+03	
43	2.150000e+00	4.620241e+03	
44	2.200000e+00	4.875134e+03	
45	2.250000e+00	5.118343e+03	
46	2.300000e+00	5.350055e+03	
47	2.350000e+00	5.570597e+03	
48	2.400000e+00	5.780389e+03	
49	2.450000e+00	5.979904e+03	
50	2.500000e+00	6.169640e+03	
51	2.550000e+00	6.350106e+03	
52	2.600000e+00	6.521807e+03	
53	2.650000e+00	6.685236e+03	
54	2.700000e+00	6.840865e+03	

Index   v-sweep         rds             
--------------------------------------------------------------------------------
55	2.750000e+00	6.989148e+03	
56	2.800000e+00	7.130514e+03	
57	2.850000e+00	7.265368e+03	
58	2.900000e+00	7.394088e+03	
59	2.950000e+00	7.517027e+03	
60	3.000000e+00	7.634509e+03	
61	3.050000e+00	7.746828e+03	
62	3.100000e+00	7.854243e+03	
63	3.150000e+00	7.956976e+03	
64	3.200000e+00	8.055195e+03	
65	3.250000e+00	8.149014e+03	
66	3.300000e+00	8.238468e+03	
Reset re-loads circuit ***************************

Circuit: ***************************

Note: No ".plot", ".print", or ".fourier" lines; no simulations run
