
Note: Compatibility modes selected: hs

Warning: m=xx on .subckt line will override multiplier m hierarchy!


Circuit: ***************************

Doing analysis at TEMP = 25.000000 and TNOM = 25.000000


No. of Data Rows : 67
                          ***************************
                          DC transfer characteristic  Mon Jan  9 13:58:13  2023
--------------------------------------------------------------------------------
Index   v-sweep         rds             
--------------------------------------------------------------------------------
0	0.000000e+00	8.955321e+05	
1	5.000000e-02	1.380523e+06	
2	1.000000e-01	2.939723e+06	
3	1.500000e-01	1.770360e+07	
4	2.000000e-01	1.549253e+08	
5	2.500000e-01	4.442056e+08	
6	3.000000e-01	6.995612e+08	
7	3.500000e-01	8.722842e+08	
8	4.000000e-01	9.874233e+08	
9	4.500000e-01	1.067861e+09	
10	5.000000e-01	1.126989e+09	
11	5.500000e-01	1.172348e+09	
12	6.000000e-01	1.208343e+09	
13	6.500000e-01	1.237679e+09	
14	7.000000e-01	1.262103e+09	
15	7.500000e-01	1.282789e+09	
16	8.000000e-01	1.300560e+09	
17	8.500000e-01	1.316009e+09	
18	9.000000e-01	1.329574e+09	
19	9.500000e-01	1.341589e+09	
20	1.000000e+00	1.352311e+09	
21	1.050000e+00	1.361942e+09	
22	1.100000e+00	1.370643e+09	
23	1.150000e+00	1.378545e+09	
24	1.200000e+00	1.385756e+09	
25	1.250000e+00	1.392362e+09	
26	1.300000e+00	1.398438e+09	
27	1.350000e+00	1.404047e+09	
28	1.400000e+00	1.409239e+09	
29	1.450000e+00	1.414061e+09	
30	1.500000e+00	1.418551e+09	
31	1.550000e+00	1.422743e+09	
32	1.600000e+00	1.426664e+09	
33	1.650000e+00	1.430340e+09	
34	1.700000e+00	1.433794e+09	
35	1.750000e+00	1.437043e+09	
36	1.800000e+00	1.440103e+09	
37	1.850000e+00	1.442989e+09	
38	1.900000e+00	1.445712e+09	
39	1.950000e+00	1.448279e+09	
40	2.000000e+00	1.450697e+09	
41	2.050000e+00	1.452970e+09	
42	2.100000e+00	1.455097e+09	
43	2.150000e+00	1.457074e+09	
44	2.200000e+00	1.458896e+09	
45	2.250000e+00	1.460550e+09	
46	2.300000e+00	1.462022e+09	
47	2.350000e+00	1.463290e+09	
48	2.400000e+00	1.464329e+09	
49	2.450000e+00	1.465108e+09	
50	2.500000e+00	1.465590e+09	
51	2.550000e+00	1.465730e+09	
52	2.600000e+00	1.465480e+09	
53	2.650000e+00	1.464783e+09	
54	2.700000e+00	1.463577e+09	

Index   v-sweep         rds             
--------------------------------------------------------------------------------
55	2.750000e+00	1.461794e+09	
56	2.800000e+00	1.459362e+09	
57	2.850000e+00	1.456202e+09	
58	2.900000e+00	1.452232e+09	
59	2.950000e+00	1.447367e+09	
60	3.000000e+00	1.441522e+09	
61	3.050000e+00	1.434612e+09	
62	3.100000e+00	1.426552e+09	
63	3.150000e+00	1.417263e+09	
64	3.200000e+00	1.406672e+09	
65	3.250000e+00	1.394712e+09	
66	3.300000e+00	1.381329e+09	
Reset re-loads circuit ***************************

Circuit: ***************************

Doing analysis at TEMP = 25.000000 and TNOM = 25.000000


No. of Data Rows : 67
                          ***************************
                          DC transfer characteristic  Mon Jan  9 13:58:13  2023
--------------------------------------------------------------------------------
Index   v-sweep         rds             
--------------------------------------------------------------------------------
0	0.000000e+00	2.249075e+05	
1	5.000000e-02	2.506084e+05	
2	1.000000e-01	2.828573e+05	
3	1.500000e-01	3.245193e+05	
4	2.000000e-01	3.804114e+05	
5	2.500000e-01	4.592973e+05	
6	3.000000e-01	5.789168e+05	
7	3.500000e-01	7.810721e+05	
8	4.000000e-01	1.189248e+06	
9	4.500000e-01	2.307551e+06	
10	5.000000e-01	6.694584e+06	
11	5.500000e-01	2.150654e+07	
12	6.000000e-01	4.844077e+07	
13	6.500000e-01	7.902319e+07	
14	7.000000e-01	1.070604e+08	
15	7.500000e-01	1.309927e+08	
16	8.000000e-01	1.511322e+08	
17	8.500000e-01	1.681699e+08	
18	9.000000e-01	1.827404e+08	
19	9.500000e-01	1.953451e+08	
20	1.000000e+00	2.063662e+08	
21	1.050000e+00	2.160942e+08	
22	1.100000e+00	2.247519e+08	
23	1.150000e+00	2.325130e+08	
24	1.200000e+00	2.395147e+08	
25	1.250000e+00	2.458667e+08	
26	1.300000e+00	2.516581e+08	
27	1.350000e+00	2.569620e+08	
28	1.400000e+00	2.618388e+08	
29	1.450000e+00	2.663394e+08	
30	1.500000e+00	2.705065e+08	
31	1.550000e+00	2.743765e+08	
32	1.600000e+00	2.779807e+08	
33	1.650000e+00	2.813459e+08	
34	1.700000e+00	2.844955e+08	
35	1.750000e+00	2.874499e+08	
36	1.800000e+00	2.902267e+08	
37	1.850000e+00	2.928417e+08	
38	1.900000e+00	2.953087e+08	
39	1.950000e+00	2.976399e+08	
40	2.000000e+00	2.998462e+08	
41	2.050000e+00	3.019368e+08	
42	2.100000e+00	3.039203e+08	
43	2.150000e+00	3.058037e+08	
44	2.200000e+00	3.075930e+08	
45	2.250000e+00	3.092929e+08	
46	2.300000e+00	3.109069e+08	
47	2.350000e+00	3.124372e+08	
48	2.400000e+00	3.138840e+08	
49	2.450000e+00	3.152460e+08	
50	2.500000e+00	3.165198e+08	
51	2.550000e+00	3.176997e+08	
52	2.600000e+00	3.187773e+08	
53	2.650000e+00	3.197414e+08	
54	2.700000e+00	3.205778e+08	

Index   v-sweep         rds             
--------------------------------------------------------------------------------
55	2.750000e+00	3.212687e+08	
56	2.800000e+00	3.217930e+08	
57	2.850000e+00	3.221258e+08	
58	2.900000e+00	3.222389e+08	
59	2.950000e+00	3.221001e+08	
60	3.000000e+00	3.216746e+08	
61	3.050000e+00	3.209245e+08	
62	3.100000e+00	3.198101e+08	
63	3.150000e+00	3.182906e+08	
64	3.200000e+00	3.163255e+08	
65	3.250000e+00	3.138754e+08	
66	3.300000e+00	3.109044e+08	
Reset re-loads circuit ***************************

Circuit: ***************************

Doing analysis at TEMP = 25.000000 and TNOM = 25.000000


No. of Data Rows : 67
                          ***************************
                          DC transfer characteristic  Mon Jan  9 13:58:13  2023
--------------------------------------------------------------------------------
Index   v-sweep         rds             
--------------------------------------------------------------------------------
0	0.000000e+00	1.323765e+05	
1	5.000000e-02	1.404884e+05	
2	1.000000e-01	1.496386e+05	
3	1.500000e-01	1.600400e+05	
4	2.000000e-01	1.719679e+05	
5	2.500000e-01	1.857850e+05	
6	3.000000e-01	2.019783e+05	
7	3.500000e-01	2.212182e+05	
8	4.000000e-01	2.444528e+05	
9	4.500000e-01	2.730686e+05	
10	5.000000e-01	3.091757e+05	
11	5.500000e-01	3.561480e+05	
12	6.000000e-01	4.197269e+05	
13	6.500000e-01	5.104995e+05	
14	7.000000e-01	6.501815e+05	
15	7.500000e-01	8.901246e+05	
16	8.000000e-01	1.375506e+06	
17	8.500000e-01	2.580144e+06	
18	9.000000e-01	5.808915e+06	
19	9.500000e-01	1.255574e+07	
20	1.000000e+00	2.222978e+07	
21	1.050000e+00	3.292637e+07	
22	1.100000e+00	4.334103e+07	
23	1.150000e+00	5.296146e+07	
24	1.200000e+00	6.168223e+07	
25	1.250000e+00	6.955088e+07	
26	1.300000e+00	7.665875e+07	
27	1.350000e+00	8.310108e+07	
28	1.400000e+00	8.896412e+07	
29	1.450000e+00	9.432230e+07	
30	1.500000e+00	9.923878e+07	
31	1.550000e+00	1.037670e+08	
32	1.600000e+00	1.079520e+08	
33	1.650000e+00	1.118323e+08	
34	1.700000e+00	1.154406e+08	
35	1.750000e+00	1.188051e+08	
36	1.800000e+00	1.219503e+08	
37	1.850000e+00	1.248972e+08	
38	1.900000e+00	1.276643e+08	
39	1.950000e+00	1.302679e+08	
40	2.000000e+00	1.327221e+08	
41	2.050000e+00	1.350397e+08	
42	2.100000e+00	1.372319e+08	
43	2.150000e+00	1.393087e+08	
44	2.200000e+00	1.412791e+08	
45	2.250000e+00	1.431510e+08	
46	2.300000e+00	1.449317e+08	
47	2.350000e+00	1.466277e+08	
48	2.400000e+00	1.482446e+08	
49	2.450000e+00	1.497876e+08	
50	2.500000e+00	1.512611e+08	
51	2.550000e+00	1.526690e+08	
52	2.600000e+00	1.540142e+08	
53	2.650000e+00	1.552990e+08	
54	2.700000e+00	1.565248e+08	

Index   v-sweep         rds             
--------------------------------------------------------------------------------
55	2.750000e+00	1.576917e+08	
56	2.800000e+00	1.587989e+08	
57	2.850000e+00	1.598440e+08	
58	2.900000e+00	1.608228e+08	
59	2.950000e+00	1.617294e+08	
60	3.000000e+00	1.625559e+08	
61	3.050000e+00	1.632917e+08	
62	3.100000e+00	1.639238e+08	
63	3.150000e+00	1.644368e+08	
64	3.200000e+00	1.648120e+08	
65	3.250000e+00	1.650282e+08	
66	3.300000e+00	1.650617e+08	
Reset re-loads circuit ***************************

Circuit: ***************************

Doing analysis at TEMP = 25.000000 and TNOM = 25.000000


No. of Data Rows : 67
                          ***************************
                          DC transfer characteristic  Mon Jan  9 13:58:13  2023
--------------------------------------------------------------------------------
Index   v-sweep         rds             
--------------------------------------------------------------------------------
0	0.000000e+00	9.807107e+04	
1	5.000000e-02	1.020929e+05	
2	1.000000e-01	1.064495e+05	
3	1.500000e-01	1.111845e+05	
4	2.000000e-01	1.163494e+05	
5	2.500000e-01	1.220055e+05	
6	3.000000e-01	1.282264e+05	
7	3.500000e-01	1.351012e+05	
8	4.000000e-01	1.427386e+05	
9	4.500000e-01	1.512728e+05	
10	5.000000e-01	1.608718e+05	
11	5.500000e-01	1.717479e+05	
12	6.000000e-01	1.841739e+05	
13	6.500000e-01	1.985066e+05	
14	7.000000e-01	2.152208e+05	
15	7.500000e-01	2.349631e+05	
16	8.000000e-01	2.586372e+05	
17	8.500000e-01	2.875448e+05	
18	9.000000e-01	3.236311e+05	
19	9.500000e-01	3.699338e+05	
20	1.000000e+00	4.314653e+05	
21	1.050000e+00	5.170824e+05	
22	1.100000e+00	6.438545e+05	
23	1.150000e+00	8.483990e+05	
24	1.200000e+00	1.219005e+06	
25	1.250000e+00	1.982571e+06	
26	1.300000e+00	3.633642e+06	
27	1.350000e+00	6.730492e+06	
28	1.400000e+00	1.122628e+07	
29	1.450000e+00	1.650553e+07	
30	1.500000e+00	2.198545e+07	
31	1.550000e+00	2.733528e+07	
32	1.600000e+00	3.241116e+07	
33	1.650000e+00	3.716677e+07	
34	1.700000e+00	4.160020e+07	
35	1.750000e+00	4.572790e+07	
36	1.800000e+00	4.957285e+07	
37	1.850000e+00	5.315924e+07	
38	1.900000e+00	5.651031e+07	
39	1.950000e+00	5.964744e+07	
40	2.000000e+00	6.258997e+07	
41	2.050000e+00	6.535520e+07	
42	2.100000e+00	6.795860e+07	
43	2.150000e+00	7.041393e+07	
44	2.200000e+00	7.273349e+07	
45	2.250000e+00	7.492828e+07	
46	2.300000e+00	7.700813e+07	
47	2.350000e+00	7.898189e+07	
48	2.400000e+00	8.085751e+07	
49	2.450000e+00	8.264217e+07	
50	2.500000e+00	8.434235e+07	
51	2.550000e+00	8.596394e+07	
52	2.600000e+00	8.751229e+07	
53	2.650000e+00	8.899225e+07	
54	2.700000e+00	9.040822e+07	

Index   v-sweep         rds             
--------------------------------------------------------------------------------
55	2.750000e+00	9.176421e+07	
56	2.800000e+00	9.306383e+07	
57	2.850000e+00	9.431029e+07	
58	2.900000e+00	9.550642e+07	
59	2.950000e+00	9.665460e+07	
60	3.000000e+00	9.775672e+07	
61	3.050000e+00	9.881411e+07	
62	3.100000e+00	9.982742e+07	
63	3.150000e+00	1.007965e+08	
64	3.200000e+00	1.017203e+08	
65	3.250000e+00	1.025966e+08	
66	3.300000e+00	1.034218e+08	
Reset re-loads circuit ***************************

Circuit: ***************************

Doing analysis at TEMP = 25.000000 and TNOM = 25.000000


No. of Data Rows : 67
                          ***************************
                          DC transfer characteristic  Mon Jan  9 13:58:13  2023
--------------------------------------------------------------------------------
Index   v-sweep         rds             
--------------------------------------------------------------------------------
0	0.000000e+00	8.119688e+04	
1	5.000000e-02	8.365593e+04	
2	1.000000e-01	8.626347e+04	
3	1.500000e-01	8.903336e+04	
4	2.000000e-01	9.198125e+04	
5	2.500000e-01	9.512486e+04	
6	3.000000e-01	9.848435e+04	
7	3.500000e-01	1.020827e+05	
8	4.000000e-01	1.059465e+05	
9	4.500000e-01	1.101059e+05	
10	5.000000e-01	1.145965e+05	
11	5.500000e-01	1.194593e+05	
12	6.000000e-01	1.247427e+05	
13	6.500000e-01	1.305036e+05	
14	7.000000e-01	1.368097e+05	
15	7.500000e-01	1.437425e+05	
16	8.000000e-01	1.514000e+05	
17	8.500000e-01	1.599023e+05	
18	9.000000e-01	1.693971e+05	
19	9.500000e-01	1.800690e+05	
20	1.000000e+00	1.921511e+05	
21	1.050000e+00	2.059427e+05	
22	1.100000e+00	2.218339e+05	
23	1.150000e+00	2.403429e+05	
24	1.200000e+00	2.621736e+05	
25	1.250000e+00	2.883065e+05	
26	1.300000e+00	3.201478e+05	
27	1.350000e+00	3.597875e+05	
28	1.400000e+00	4.104658e+05	
29	1.450000e+00	4.774718e+05	
30	1.500000e+00	5.699972e+05	
31	1.550000e+00	7.052621e+05	
32	1.600000e+00	9.183162e+05	
33	1.650000e+00	1.285442e+06	
34	1.700000e+00	1.968905e+06	
35	1.750000e+00	3.235218e+06	
36	1.800000e+00	5.294969e+06	
37	1.850000e+00	8.073057e+06	
38	1.900000e+00	1.128785e+07	
39	1.950000e+00	1.467148e+07	
40	2.000000e+00	1.805258e+07	
41	2.050000e+00	2.134027e+07	
42	2.100000e+00	2.449230e+07	
43	2.150000e+00	2.749260e+07	
44	2.200000e+00	3.033859e+07	
45	2.250000e+00	3.303431e+07	
46	2.300000e+00	3.558692e+07	
47	2.350000e+00	3.800483e+07	
48	2.400000e+00	4.029675e+07	
49	2.450000e+00	4.247122e+07	
50	2.500000e+00	4.453635e+07	
51	2.550000e+00	4.649971e+07	
52	2.600000e+00	4.836834e+07	
53	2.650000e+00	5.014872e+07	
54	2.700000e+00	5.184681e+07	

Index   v-sweep         rds             
--------------------------------------------------------------------------------
55	2.750000e+00	5.346807e+07	
56	2.800000e+00	5.501754e+07	
57	2.850000e+00	5.649982e+07	
58	2.900000e+00	5.791916e+07	
59	2.950000e+00	5.927943e+07	
60	3.000000e+00	6.058424e+07	
61	3.050000e+00	6.183688e+07	
62	3.100000e+00	6.304039e+07	
63	3.150000e+00	6.419754e+07	
64	3.200000e+00	6.531091e+07	
65	3.250000e+00	6.638278e+07	
66	3.300000e+00	6.741522e+07	
Reset re-loads circuit ***************************

Circuit: ***************************

Doing analysis at TEMP = 25.000000 and TNOM = 25.000000


No. of Data Rows : 67
                          ***************************
                          DC transfer characteristic  Mon Jan  9 13:58:13  2023
--------------------------------------------------------------------------------
Index   v-sweep         rds             
--------------------------------------------------------------------------------
0	0.000000e+00	7.173760e+04	
1	5.000000e-02	7.343068e+04	
2	1.000000e-01	7.520239e+04	
3	1.500000e-01	7.705835e+04	
4	2.000000e-01	7.900470e+04	
5	2.500000e-01	8.104821e+04	
6	3.000000e-01	8.319635e+04	
7	3.500000e-01	8.545735e+04	
8	4.000000e-01	8.784035e+04	
9	4.500000e-01	9.035549e+04	
10	5.000000e-01	9.301408e+04	
11	5.500000e-01	9.582874e+04	
12	6.000000e-01	9.881362e+04	
13	6.500000e-01	1.019847e+05	
14	7.000000e-01	1.053598e+05	
15	7.500000e-01	1.089594e+05	
16	8.000000e-01	1.128067e+05	
17	8.500000e-01	1.169280e+05	
18	9.000000e-01	1.213538e+05	
19	9.500000e-01	1.261191e+05	
20	1.000000e+00	1.312645e+05	
21	1.050000e+00	1.368373e+05	
22	1.100000e+00	1.428931e+05	
23	1.150000e+00	1.494976e+05	
24	1.200000e+00	1.567287e+05	
25	1.250000e+00	1.646802e+05	
26	1.300000e+00	1.734651e+05	
27	1.350000e+00	1.832219e+05	
28	1.400000e+00	1.941211e+05	
29	1.450000e+00	2.063758e+05	
30	1.500000e+00	2.202553e+05	
31	1.550000e+00	2.361056e+05	
32	1.600000e+00	2.543779e+05	
33	1.650000e+00	2.756724e+05	
34	1.700000e+00	3.008050e+05	
35	1.750000e+00	3.309128e+05	
36	1.800000e+00	3.676282e+05	
37	1.850000e+00	4.133780e+05	
38	1.900000e+00	4.719222e+05	
39	1.950000e+00	5.493795e+05	
40	2.000000e+00	6.562940e+05	
41	2.050000e+00	8.120015e+05	
42	2.100000e+00	1.053913e+06	
43	2.150000e+00	1.454829e+06	
44	2.200000e+00	2.139608e+06	
45	2.250000e+00	3.253293e+06	
46	2.300000e+00	4.852168e+06	
47	2.350000e+00	6.848016e+06	
48	2.400000e+00	9.085626e+06	
49	2.450000e+00	1.142928e+07	
50	2.500000e+00	1.378846e+07	
51	2.550000e+00	1.611017e+07	
52	2.600000e+00	1.836581e+07	
53	2.650000e+00	2.054123e+07	
54	2.700000e+00	2.263060e+07	

Index   v-sweep         rds             
--------------------------------------------------------------------------------
55	2.750000e+00	2.463275e+07	
56	2.800000e+00	2.654916e+07	
57	2.850000e+00	2.838267e+07	
58	2.900000e+00	3.013688e+07	
59	2.950000e+00	3.181566e+07	
60	3.000000e+00	3.342298e+07	
61	3.050000e+00	3.496274e+07	
62	3.100000e+00	3.643869e+07	
63	3.150000e+00	3.785443e+07	
64	3.200000e+00	3.921335e+07	
65	3.250000e+00	4.051862e+07	
66	3.300000e+00	4.177323e+07	
Reset re-loads circuit ***************************

Circuit: ***************************

Note: No ".plot", ".print", or ".fourier" lines; no simulations run
