
Note: Compatibility modes selected: hs

Warning: m=xx on .subckt line will override multiplier m hierarchy!


Circuit: ***************************

Doing analysis at TEMP = -40.000000 and TNOM = -40.000000


No. of Data Rows : 67
                          ***************************
                          DC transfer characteristic  Mon Jan  9 13:58:13  2023
--------------------------------------------------------------------------------
Index   v-sweep         rds             
--------------------------------------------------------------------------------
0	0.000000e+00	9.187850e+04	
1	5.000000e-02	2.185170e+05	
2	1.000000e-01	2.511690e+06	
3	1.500000e-01	2.610509e+07	
4	2.000000e-01	6.323386e+07	
5	2.500000e-01	8.896317e+07	
6	3.000000e-01	1.043058e+08	
7	3.500000e-01	1.139143e+08	
8	4.000000e-01	1.203946e+08	
9	4.500000e-01	1.250489e+08	
10	5.000000e-01	1.285585e+08	
11	5.500000e-01	1.313056e+08	
12	6.000000e-01	1.335188e+08	
13	6.500000e-01	1.353433e+08	
14	7.000000e-01	1.368753e+08	
15	7.500000e-01	1.381814e+08	
16	8.000000e-01	1.393091e+08	
17	8.500000e-01	1.402932e+08	
18	9.000000e-01	1.411599e+08	
19	9.500000e-01	1.419295e+08	
20	1.000000e+00	1.426175e+08	
21	1.050000e+00	1.432365e+08	
22	1.100000e+00	1.437964e+08	
23	1.150000e+00	1.443055e+08	
24	1.200000e+00	1.447703e+08	
25	1.250000e+00	1.451964e+08	
26	1.300000e+00	1.455886e+08	
27	1.350000e+00	1.459507e+08	
28	1.400000e+00	1.462861e+08	
29	1.450000e+00	1.465977e+08	
30	1.500000e+00	1.468878e+08	
31	1.550000e+00	1.471586e+08	
32	1.600000e+00	1.474120e+08	
33	1.650000e+00	1.476496e+08	
34	1.700000e+00	1.478727e+08	
35	1.750000e+00	1.480824e+08	
36	1.800000e+00	1.482799e+08	
37	1.850000e+00	1.484659e+08	
38	1.900000e+00	1.486410e+08	
39	1.950000e+00	1.488058e+08	
40	2.000000e+00	1.489604e+08	
41	2.050000e+00	1.491049e+08	
42	2.100000e+00	1.492392e+08	
43	2.150000e+00	1.493629e+08	
44	2.200000e+00	1.494752e+08	
45	2.250000e+00	1.495752e+08	
46	2.300000e+00	1.496617e+08	
47	2.350000e+00	1.497329e+08	
48	2.400000e+00	1.497869e+08	
49	2.450000e+00	1.498213e+08	
50	2.500000e+00	1.498332e+08	
51	2.550000e+00	1.498196e+08	
52	2.600000e+00	1.497767e+08	
53	2.650000e+00	1.497005e+08	
54	2.700000e+00	1.495866e+08	

Index   v-sweep         rds             
--------------------------------------------------------------------------------
55	2.750000e+00	1.494301e+08	
56	2.800000e+00	1.492259e+08	
57	2.850000e+00	1.489683e+08	
58	2.900000e+00	1.486515e+08	
59	2.950000e+00	1.482696e+08	
60	3.000000e+00	1.478163e+08	
61	3.050000e+00	1.472854e+08	
62	3.100000e+00	1.466708e+08	
63	3.150000e+00	1.459663e+08	
64	3.200000e+00	1.451662e+08	
65	3.250000e+00	1.442650e+08	
66	3.300000e+00	1.432578e+08	
Reset re-loads circuit ***************************

Circuit: ***************************

Doing analysis at TEMP = -40.000000 and TNOM = -40.000000


No. of Data Rows : 67
                          ***************************
                          DC transfer characteristic  Mon Jan  9 13:58:13  2023
--------------------------------------------------------------------------------
Index   v-sweep         rds             
--------------------------------------------------------------------------------
0	0.000000e+00	1.416785e+04	
1	5.000000e-02	1.604158e+04	
2	1.000000e-01	1.847638e+04	
3	1.500000e-01	2.176818e+04	
4	2.000000e-01	2.646450e+04	
5	2.500000e-01	3.370095e+04	
6	3.000000e-01	4.625595e+04	
7	3.500000e-01	7.287870e+04	
8	4.000000e-01	1.532455e+05	
9	4.500000e-01	4.996918e+05	
10	5.000000e-01	1.591429e+06	
11	5.500000e-01	3.360647e+06	
12	6.000000e-01	5.255916e+06	
13	6.500000e-01	6.970142e+06	
14	7.000000e-01	8.438696e+06	
15	7.500000e-01	9.683443e+06	
16	8.000000e-01	1.074317e+07	
17	8.500000e-01	1.165355e+07	
18	9.000000e-01	1.244338e+07	
19	9.500000e-01	1.313505e+07	
20	1.000000e+00	1.374595e+07	
21	1.050000e+00	1.428963e+07	
22	1.100000e+00	1.477677e+07	
23	1.150000e+00	1.521591e+07	
24	1.200000e+00	1.561391e+07	
25	1.250000e+00	1.597639e+07	
26	1.300000e+00	1.630795e+07	
27	1.350000e+00	1.661246e+07	
28	1.400000e+00	1.689313e+07	
29	1.450000e+00	1.715269e+07	
30	1.500000e+00	1.739345e+07	
31	1.550000e+00	1.761741e+07	
32	1.600000e+00	1.782629e+07	
33	1.650000e+00	1.802156e+07	
34	1.700000e+00	1.820453e+07	
35	1.750000e+00	1.837632e+07	
36	1.800000e+00	1.853795e+07	
37	1.850000e+00	1.869028e+07	
38	1.900000e+00	1.883409e+07	
39	1.950000e+00	1.897006e+07	
40	2.000000e+00	1.909880e+07	
41	2.050000e+00	1.922084e+07	
42	2.100000e+00	1.933663e+07	
43	2.150000e+00	1.944655e+07	
44	2.200000e+00	1.955091e+07	
45	2.250000e+00	1.964994e+07	
46	2.300000e+00	1.974377e+07	
47	2.350000e+00	1.983246e+07	
48	2.400000e+00	1.991594e+07	
49	2.450000e+00	1.999403e+07	
50	2.500000e+00	2.006642e+07	
51	2.550000e+00	2.013263e+07	
52	2.600000e+00	2.019205e+07	
53	2.650000e+00	2.024385e+07	
54	2.700000e+00	2.028703e+07	

Index   v-sweep         rds             
--------------------------------------------------------------------------------
55	2.750000e+00	2.032040e+07	
56	2.800000e+00	2.034253e+07	
57	2.850000e+00	2.035180e+07	
58	2.900000e+00	2.034641e+07	
59	2.950000e+00	2.032433e+07	
60	3.000000e+00	2.028342e+07	
61	3.050000e+00	2.022137e+07	
62	3.100000e+00	2.013584e+07	
63	3.150000e+00	2.002444e+07	
64	3.200000e+00	1.988488e+07	
65	3.250000e+00	1.971497e+07	
66	3.300000e+00	1.951280e+07	
Reset re-loads circuit ***************************

Circuit: ***************************

Doing analysis at TEMP = -40.000000 and TNOM = -40.000000


No. of Data Rows : 67
                          ***************************
                          DC transfer characteristic  Mon Jan  9 13:58:13  2023
--------------------------------------------------------------------------------
Index   v-sweep         rds             
--------------------------------------------------------------------------------
0	0.000000e+00	8.060378e+03	
1	5.000000e-02	8.598092e+03	
2	1.000000e-01	9.210523e+03	
3	1.500000e-01	9.914403e+03	
4	2.000000e-01	1.073186e+04	
5	2.500000e-01	1.169278e+04	
6	3.000000e-01	1.283855e+04	
7	3.500000e-01	1.422812e+04	
8	4.000000e-01	1.594849e+04	
9	4.500000e-01	1.813351e+04	
10	5.000000e-01	2.100023e+04	
11	5.500000e-01	2.492476e+04	
12	6.000000e-01	3.061807e+04	
13	6.500000e-01	3.959017e+04	
14	7.000000e-01	5.559396e+04	
15	7.500000e-01	8.991980e+04	
16	8.000000e-01	1.801844e+05	
17	8.500000e-01	4.144267e+05	
18	9.000000e-01	8.507825e+05	
19	9.500000e-01	1.424223e+06	
20	1.000000e+00	2.038463e+06	
21	1.050000e+00	2.636264e+06	
22	1.100000e+00	3.194381e+06	
23	1.150000e+00	3.706673e+06	
24	1.200000e+00	4.174124e+06	
25	1.250000e+00	4.600285e+06	
26	1.300000e+00	4.989365e+06	
27	1.350000e+00	5.345471e+06	
28	1.400000e+00	5.672345e+06	
29	1.450000e+00	5.973293e+06	
30	1.500000e+00	6.251198e+06	
31	1.550000e+00	6.508561e+06	
32	1.600000e+00	6.747553e+06	
33	1.650000e+00	6.970059e+06	
34	1.700000e+00	7.177720e+06	
35	1.750000e+00	7.371970e+06	
36	1.800000e+00	7.554065e+06	
37	1.850000e+00	7.725112e+06	
38	1.900000e+00	7.886086e+06	
39	1.950000e+00	8.037852e+06	
40	2.000000e+00	8.181178e+06	
41	2.050000e+00	8.316751e+06	
42	2.100000e+00	8.445182e+06	
43	2.150000e+00	8.567022e+06	
44	2.200000e+00	8.682763e+06	
45	2.250000e+00	8.792848e+06	
46	2.300000e+00	8.897676e+06	
47	2.350000e+00	8.997601e+06	
48	2.400000e+00	9.092938e+06	
49	2.450000e+00	9.183962e+06	
50	2.500000e+00	9.270905e+06	
51	2.550000e+00	9.353957e+06	
52	2.600000e+00	9.433254e+06	
53	2.650000e+00	9.508881e+06	
54	2.700000e+00	9.580854e+06	

Index   v-sweep         rds             
--------------------------------------------------------------------------------
55	2.750000e+00	9.649117e+06	
56	2.800000e+00	9.713527e+06	
57	2.850000e+00	9.773841e+06	
58	2.900000e+00	9.829707e+06	
59	2.950000e+00	9.880645e+06	
60	3.000000e+00	9.926037e+06	
61	3.050000e+00	9.965117e+06	
62	3.100000e+00	9.996961e+06	
63	3.150000e+00	1.002048e+07	
64	3.200000e+00	1.003444e+07	
65	3.250000e+00	1.003744e+07	
66	3.300000e+00	1.002796e+07	
Reset re-loads circuit ***************************

Circuit: ***************************

Doing analysis at TEMP = -40.000000 and TNOM = -40.000000


No. of Data Rows : 67
                          ***************************
                          DC transfer characteristic  Mon Jan  9 13:58:13  2023
--------------------------------------------------------------------------------
Index   v-sweep         rds             
--------------------------------------------------------------------------------
0	0.000000e+00	5.984614e+03	
1	5.000000e-02	6.245969e+03	
2	1.000000e-01	6.530290e+03	
3	1.500000e-01	6.840742e+03	
4	2.000000e-01	7.181100e+03	
5	2.500000e-01	7.555903e+03	
6	3.000000e-01	7.970656e+03	
7	3.500000e-01	8.432105e+03	
8	4.000000e-01	8.948602e+03	
9	4.500000e-01	9.530620e+03	
10	5.000000e-01	1.019147e+04	
11	5.500000e-01	1.094831e+04	
12	6.000000e-01	1.182371e+04	
13	6.500000e-01	1.284785e+04	
14	7.000000e-01	1.406214e+04	
15	7.500000e-01	1.552491e+04	
16	8.000000e-01	1.732098e+04	
17	8.500000e-01	1.957864e+04	
18	9.000000e-01	2.250129e+04	
19	9.500000e-01	2.643113e+04	
20	1.000000e+00	3.198870e+04	
21	1.050000e+00	4.041204e+04	
22	1.100000e+00	5.447640e+04	
23	1.150000e+00	8.115171e+04	
24	1.200000e+00	1.379988e+05	
25	1.250000e+00	2.566021e+05	
26	1.300000e+00	4.577186e+05	
27	1.350000e+00	7.253138e+05	
28	1.400000e+00	1.027041e+06	
29	1.450000e+00	1.337703e+06	
30	1.500000e+00	1.642947e+06	
31	1.550000e+00	1.935781e+06	
32	1.600000e+00	2.213299e+06	
33	1.650000e+00	2.474706e+06	
34	1.700000e+00	2.720253e+06	
35	1.750000e+00	2.950686e+06	
36	1.800000e+00	3.166957e+06	
37	1.850000e+00	3.370079e+06	
38	1.900000e+00	3.561050e+06	
39	1.950000e+00	3.740820e+06	
40	2.000000e+00	3.910268e+06	
41	2.050000e+00	4.070208e+06	
42	2.100000e+00	4.221380e+06	
43	2.150000e+00	4.364457e+06	
44	2.200000e+00	4.500055e+06	
45	2.250000e+00	4.628728e+06	
46	2.300000e+00	4.750983e+06	
47	2.350000e+00	4.867280e+06	
48	2.400000e+00	4.978036e+06	
49	2.450000e+00	5.083634e+06	
50	2.500000e+00	5.184420e+06	
51	2.550000e+00	5.280713e+06	
52	2.600000e+00	5.372802e+06	
53	2.650000e+00	5.460950e+06	
54	2.700000e+00	5.545398e+06	

Index   v-sweep         rds             
--------------------------------------------------------------------------------
55	2.750000e+00	5.626364e+06	
56	2.800000e+00	5.704039e+06	
57	2.850000e+00	5.778593e+06	
58	2.900000e+00	5.850167e+06	
59	2.950000e+00	5.918872e+06	
60	3.000000e+00	5.984783e+06	
61	3.050000e+00	6.047934e+06	
62	3.100000e+00	6.108307e+06	
63	3.150000e+00	6.165825e+06	
64	3.200000e+00	6.220343e+06	
65	3.250000e+00	6.271631e+06	
66	3.300000e+00	6.319368e+06	
Reset re-loads circuit ***************************

Circuit: ***************************

Doing analysis at TEMP = -40.000000 and TNOM = -40.000000


No. of Data Rows : 67
                          ***************************
                          DC transfer characteristic  Mon Jan  9 13:58:13  2023
--------------------------------------------------------------------------------
Index   v-sweep         rds             
--------------------------------------------------------------------------------
0	0.000000e+00	5.021815e+03	
1	5.000000e-02	5.181872e+03	
2	1.000000e-01	5.351977e+03	
3	1.500000e-01	5.533107e+03	
4	2.000000e-01	5.726370e+03	
5	2.500000e-01	5.933027e+03	
6	3.000000e-01	6.154518e+03	
7	3.500000e-01	6.392501e+03	
8	4.000000e-01	6.648887e+03	
9	4.500000e-01	6.925895e+03	
10	5.000000e-01	7.226119e+03	
11	5.500000e-01	7.552602e+03	
12	6.000000e-01	7.908946e+03	
13	6.500000e-01	8.299443e+03	
14	7.000000e-01	8.729250e+03	
15	7.500000e-01	9.204614e+03	
16	8.000000e-01	9.733182e+03	
17	8.500000e-01	1.032441e+04	
18	9.000000e-01	1.099015e+04	
19	9.500000e-01	1.174542e+04	
20	1.000000e+00	1.260958e+04	
21	1.050000e+00	1.360801e+04	
22	1.100000e+00	1.477460e+04	
23	1.150000e+00	1.615574e+04	
24	1.200000e+00	1.781654e+04	
25	1.250000e+00	1.985138e+04	
26	1.300000e+00	2.240233e+04	
27	1.350000e+00	2.569325e+04	
28	1.400000e+00	3.009744e+04	
29	1.450000e+00	3.628191e+04	
30	1.500000e+00	4.554080e+04	
31	1.550000e+00	6.060656e+04	
32	1.600000e+00	8.749226e+04	
33	1.650000e+00	1.379642e+05	
34	1.700000e+00	2.267181e+05	
35	1.750000e+00	3.588602e+05	
36	1.800000e+00	5.250298e+05	
37	1.850000e+00	7.108659e+05	
38	1.900000e+00	9.047314e+05	
39	1.950000e+00	1.099147e+06	
40	2.000000e+00	1.289786e+06	
41	2.050000e+00	1.474318e+06	
42	2.100000e+00	1.651599e+06	
43	2.150000e+00	1.821169e+06	
44	2.200000e+00	1.982967e+06	
45	2.250000e+00	2.137151e+06	
46	2.300000e+00	2.284003e+06	
47	2.350000e+00	2.423866e+06	
48	2.400000e+00	2.557110e+06	
49	2.450000e+00	2.684108e+06	
50	2.500000e+00	2.805228e+06	
51	2.550000e+00	2.920822e+06	
52	2.600000e+00	3.031226e+06	
53	2.650000e+00	3.136755e+06	
54	2.700000e+00	3.237703e+06	

Index   v-sweep         rds             
--------------------------------------------------------------------------------
55	2.750000e+00	3.334348e+06	
56	2.800000e+00	3.426946e+06	
57	2.850000e+00	3.515736e+06	
58	2.900000e+00	3.600939e+06	
59	2.950000e+00	3.682761e+06	
60	3.000000e+00	3.761395e+06	
61	3.050000e+00	3.837015e+06	
62	3.100000e+00	3.909787e+06	
63	3.150000e+00	3.979858e+06	
64	3.200000e+00	4.047365e+06	
65	3.250000e+00	4.112428e+06	
66	3.300000e+00	4.175148e+06	
Reset re-loads circuit ***************************

Circuit: ***************************

Doing analysis at TEMP = -40.000000 and TNOM = -40.000000


No. of Data Rows : 67
                          ***************************
                          DC transfer characteristic  Mon Jan  9 13:58:13  2023
--------------------------------------------------------------------------------
Index   v-sweep         rds             
--------------------------------------------------------------------------------
0	0.000000e+00	4.520520e+03	
1	5.000000e-02	4.632018e+03	
2	1.000000e-01	4.748852e+03	
3	1.500000e-01	4.871414e+03	
4	2.000000e-01	5.000135e+03	
5	2.500000e-01	5.135491e+03	
6	3.000000e-01	5.278009e+03	
7	3.500000e-01	5.428272e+03	
8	4.000000e-01	5.586929e+03	
9	4.500000e-01	5.754702e+03	
10	5.000000e-01	5.932400e+03	
11	5.500000e-01	6.120931e+03	
12	6.000000e-01	6.321315e+03	
13	6.500000e-01	6.534707e+03	
14	7.000000e-01	6.762414e+03	
15	7.500000e-01	7.005927e+03	
16	8.000000e-01	7.266950e+03	
17	8.500000e-01	7.547440e+03	
18	9.000000e-01	7.849661e+03	
19	9.500000e-01	8.176238e+03	
20	1.000000e+00	8.530238e+03	
21	1.050000e+00	8.915267e+03	
22	1.100000e+00	9.335589e+03	
23	1.150000e+00	9.796289e+03	
24	1.200000e+00	1.030348e+04	
25	1.250000e+00	1.086457e+04	
26	1.300000e+00	1.148864e+04	
27	1.350000e+00	1.218691e+04	
28	1.400000e+00	1.297346e+04	
29	1.450000e+00	1.386616e+04	
30	1.500000e+00	1.488807e+04	
31	1.550000e+00	1.606942e+04	
32	1.600000e+00	1.745070e+04	
33	1.650000e+00	1.908736e+04	
34	1.700000e+00	2.105746e+04	
35	1.750000e+00	2.347442e+04	
36	1.800000e+00	2.650949e+04	
37	1.850000e+00	3.043336e+04	
38	1.900000e+00	3.569825e+04	
39	1.950000e+00	4.310930e+04	
40	2.000000e+00	5.419602e+04	
41	2.050000e+00	7.197713e+04	
42	2.100000e+00	1.020797e+05	
43	2.150000e+00	1.525514e+05	
44	2.200000e+00	2.294302e+05	
45	2.250000e+00	3.316660e+05	
46	2.300000e+00	4.525850e+05	
47	2.350000e+00	5.846106e+05	
48	2.400000e+00	7.217859e+05	
49	2.450000e+00	8.600876e+05	
50	2.500000e+00	9.969865e+05	
51	2.550000e+00	1.130960e+06	
52	2.600000e+00	1.261133e+06	
53	2.650000e+00	1.387038e+06	
54	2.700000e+00	1.508464e+06	

Index   v-sweep         rds             
--------------------------------------------------------------------------------
55	2.750000e+00	1.625360e+06	
56	2.800000e+00	1.737774e+06	
57	2.850000e+00	1.845818e+06	
58	2.900000e+00	1.949637e+06	
59	2.950000e+00	2.049398e+06	
60	3.000000e+00	2.145275e+06	
61	3.050000e+00	2.237448e+06	
62	3.100000e+00	2.326093e+06	
63	3.150000e+00	2.411381e+06	
64	3.200000e+00	2.493480e+06	
65	3.250000e+00	2.572548e+06	
66	3.300000e+00	2.648736e+06	
Reset re-loads circuit ***************************

Circuit: ***************************

Note: No ".plot", ".print", or ".fourier" lines; no simulations run
