
Note: Compatibility modes selected: hs

Warning: m=xx on .subckt line will override multiplier m hierarchy!


Circuit: ***************************

Doing analysis at TEMP = 125.000000 and TNOM = 125.000000


No. of Data Rows : 67
                          ***************************
                          DC transfer characteristic  Mon Jan  9 13:58:14  2023
--------------------------------------------------------------------------------
Index   v-sweep         rds             
--------------------------------------------------------------------------------
0	0.000000e+00	9.297223e+04	
1	5.000000e-02	1.164136e+05	
2	1.000000e-01	1.545943e+05	
3	1.500000e-01	2.269740e+05	
4	2.000000e-01	4.040770e+05	
5	2.500000e-01	1.002960e+06	
6	3.000000e-01	2.768870e+06	
7	3.500000e-01	5.382956e+06	
8	4.000000e-01	7.864699e+06	
9	4.500000e-01	9.995415e+06	
10	5.000000e-01	1.183739e+07	
11	5.500000e-01	1.346118e+07	
12	6.000000e-01	1.491507e+07	
13	6.500000e-01	1.623143e+07	
14	7.000000e-01	1.743295e+07	
15	7.500000e-01	1.853642e+07	
16	8.000000e-01	1.955480e+07	
17	8.500000e-01	2.049843e+07	
18	9.000000e-01	2.137579e+07	
19	9.500000e-01	2.219398e+07	
20	1.000000e+00	2.295901e+07	
21	1.050000e+00	2.367603e+07	
22	1.100000e+00	2.434952e+07	
23	1.150000e+00	2.498338e+07	
24	1.200000e+00	2.558104e+07	
25	1.250000e+00	2.614554e+07	
26	1.300000e+00	2.667956e+07	
27	1.350000e+00	2.718552e+07	
28	1.400000e+00	2.766556e+07	
29	1.450000e+00	2.812162e+07	
30	1.500000e+00	2.855544e+07	
31	1.550000e+00	2.896860e+07	
32	1.600000e+00	2.936252e+07	
33	1.650000e+00	2.973851e+07	
34	1.700000e+00	3.009772e+07	
35	1.750000e+00	3.044123e+07	
36	1.800000e+00	3.076999e+07	
37	1.850000e+00	3.108484e+07	
38	1.900000e+00	3.138651e+07	
39	1.950000e+00	3.167562e+07	
40	2.000000e+00	3.195264e+07	
41	2.050000e+00	3.221791e+07	
42	2.100000e+00	3.247157e+07	
43	2.150000e+00	3.271355e+07	
44	2.200000e+00	3.294353e+07	
45	2.250000e+00	3.316090e+07	
46	2.300000e+00	3.336471e+07	
47	2.350000e+00	3.355363e+07	
48	2.400000e+00	3.372586e+07	
49	2.450000e+00	3.387916e+07	
50	2.500000e+00	3.401074e+07	
51	2.550000e+00	3.411725e+07	
52	2.600000e+00	3.419479e+07	
53	2.650000e+00	3.423888e+07	
54	2.700000e+00	3.424451e+07	

Index   v-sweep         rds             
--------------------------------------------------------------------------------
55	2.750000e+00	3.420622e+07	
56	2.800000e+00	3.411819e+07	
57	2.850000e+00	3.397440e+07	
58	2.900000e+00	3.376884e+07	
59	2.950000e+00	3.349571e+07	
60	3.000000e+00	3.314976e+07	
61	3.050000e+00	3.272655e+07	
62	3.100000e+00	3.222278e+07	
63	3.150000e+00	3.163661e+07	
64	3.200000e+00	3.096786e+07	
65	3.250000e+00	3.021825e+07	
66	3.300000e+00	2.939147e+07	
Reset re-loads circuit ***************************

Circuit: ***************************

Doing analysis at TEMP = 125.000000 and TNOM = 125.000000


No. of Data Rows : 67
                          ***************************
                          DC transfer characteristic  Mon Jan  9 13:58:14  2023
--------------------------------------------------------------------------------
Index   v-sweep         rds             
--------------------------------------------------------------------------------
0	0.000000e+00	3.199354e+04	
1	5.000000e-02	3.483588e+04	
2	1.000000e-01	3.817316e+04	
3	1.500000e-01	4.214655e+04	
4	2.000000e-01	4.695642e+04	
5	2.500000e-01	5.289678e+04	
6	3.000000e-01	6.041676e+04	
7	3.500000e-01	7.023700e+04	
8	4.000000e-01	8.358607e+04	
9	4.500000e-01	1.027217e+05	
10	5.000000e-01	1.321820e+05	
11	5.500000e-01	1.819409e+05	
12	6.000000e-01	2.742524e+05	
13	6.500000e-01	4.464654e+05	
14	7.000000e-01	7.160178e+05	
15	7.500000e-01	1.046473e+06	
16	8.000000e-01	1.393623e+06	
17	8.500000e-01	1.736099e+06	
18	9.000000e-01	2.066965e+06	
19	9.500000e-01	2.384619e+06	
20	1.000000e+00	2.689149e+06	
21	1.050000e+00	2.981145e+06	
22	1.100000e+00	3.261312e+06	
23	1.150000e+00	3.530350e+06	
24	1.200000e+00	3.788921e+06	
25	1.250000e+00	4.037637e+06	
26	1.300000e+00	4.277059e+06	
27	1.350000e+00	4.507707e+06	
28	1.400000e+00	4.730060e+06	
29	1.450000e+00	4.944560e+06	
30	1.500000e+00	5.151618e+06	
31	1.550000e+00	5.351615e+06	
32	1.600000e+00	5.544906e+06	
33	1.650000e+00	5.731821e+06	
34	1.700000e+00	5.912669e+06	
35	1.750000e+00	6.087740e+06	
36	1.800000e+00	6.257304e+06	
37	1.850000e+00	6.421614e+06	
38	1.900000e+00	6.580910e+06	
39	1.950000e+00	6.735413e+06	
40	2.000000e+00	6.885334e+06	
41	2.050000e+00	7.030867e+06	
42	2.100000e+00	7.172194e+06	
43	2.150000e+00	7.309480e+06	
44	2.200000e+00	7.442872e+06	
45	2.250000e+00	7.572495e+06	
46	2.300000e+00	7.698447e+06	
47	2.350000e+00	7.820789e+06	
48	2.400000e+00	7.939535e+06	
49	2.450000e+00	8.054641e+06	
50	2.500000e+00	8.165983e+06	
51	2.550000e+00	8.273345e+06	
52	2.600000e+00	8.376387e+06	
53	2.650000e+00	8.474627e+06	
54	2.700000e+00	8.567409e+06	

Index   v-sweep         rds             
--------------------------------------------------------------------------------
55	2.750000e+00	8.653880e+06	
56	2.800000e+00	8.732958e+06	
57	2.850000e+00	8.803309e+06	
58	2.900000e+00	8.863337e+06	
59	2.950000e+00	8.911167e+06	
60	3.000000e+00	8.944664e+06	
61	3.050000e+00	8.961458e+06	
62	3.100000e+00	8.958994e+06	
63	3.150000e+00	8.934624e+06	
64	3.200000e+00	8.885712e+06	
65	3.250000e+00	8.809781e+06	
66	3.300000e+00	8.704684e+06	
Reset re-loads circuit ***************************

Circuit: ***************************

Doing analysis at TEMP = 125.000000 and TNOM = 125.000000


No. of Data Rows : 67
                          ***************************
                          DC transfer characteristic  Mon Jan  9 13:58:14  2023
--------------------------------------------------------------------------------
Index   v-sweep         rds             
--------------------------------------------------------------------------------
0	0.000000e+00	2.019963e+04	
1	5.000000e-02	2.132034e+04	
2	1.000000e-01	2.255314e+04	
3	1.500000e-01	2.391565e+04	
4	2.000000e-01	2.542939e+04	
5	2.500000e-01	2.712090e+04	
6	3.000000e-01	2.902336e+04	
7	3.500000e-01	3.117870e+04	
8	4.000000e-01	3.364078e+04	
9	4.500000e-01	3.647986e+04	
10	5.000000e-01	3.978942e+04	
11	5.500000e-01	4.369655e+04	
12	6.000000e-01	4.837844e+04	
13	6.500000e-01	5.408956e+04	
14	7.000000e-01	6.120842e+04	
15	7.500000e-01	7.032162e+04	
16	8.000000e-01	8.238307e+04	
17	8.500000e-01	9.902733e+04	
18	9.000000e-01	1.231826e+05	
19	9.500000e-01	1.600696e+05	
20	1.000000e+00	2.176203e+05	
21	1.050000e+00	3.027907e+05	
22	1.100000e+00	4.143614e+05	
23	1.150000e+00	5.435682e+05	
24	1.200000e+00	6.815141e+05	
25	1.250000e+00	8.225019e+05	
26	1.300000e+00	9.634589e+05	
27	1.350000e+00	1.102809e+06	
28	1.400000e+00	1.239755e+06	
29	1.450000e+00	1.373899e+06	
30	1.500000e+00	1.505060e+06	
31	1.550000e+00	1.633170e+06	
32	1.600000e+00	1.758229e+06	
33	1.650000e+00	1.880274e+06	
34	1.700000e+00	1.999366e+06	
35	1.750000e+00	2.115575e+06	
36	1.800000e+00	2.228980e+06	
37	1.850000e+00	2.339661e+06	
38	1.900000e+00	2.447703e+06	
39	1.950000e+00	2.553187e+06	
40	2.000000e+00	2.656193e+06	
41	2.050000e+00	2.756801e+06	
42	2.100000e+00	2.855088e+06	
43	2.150000e+00	2.951129e+06	
44	2.200000e+00	3.044994e+06	
45	2.250000e+00	3.136755e+06	
46	2.300000e+00	3.226476e+06	
47	2.350000e+00	3.314223e+06	
48	2.400000e+00	3.400055e+06	
49	2.450000e+00	3.484030e+06	
50	2.500000e+00	3.566200e+06	
51	2.550000e+00	3.646610e+06	
52	2.600000e+00	3.725296e+06	
53	2.650000e+00	3.802283e+06	
54	2.700000e+00	3.877578e+06	

Index   v-sweep         rds             
--------------------------------------------------------------------------------
55	2.750000e+00	3.951162e+06	
56	2.800000e+00	4.022986e+06	
57	2.850000e+00	4.092957e+06	
58	2.900000e+00	4.160925e+06	
59	2.950000e+00	4.226669e+06	
60	3.000000e+00	4.289878e+06	
61	3.050000e+00	4.350135e+06	
62	3.100000e+00	4.406895e+06	
63	3.150000e+00	4.459462e+06	
64	3.200000e+00	4.506980e+06	
65	3.250000e+00	4.548412e+06	
66	3.300000e+00	4.582537e+06	
Reset re-loads circuit ***************************

Circuit: ***************************

Doing analysis at TEMP = 125.000000 and TNOM = 125.000000


No. of Data Rows : 67
                          ***************************
                          DC transfer characteristic  Mon Jan  9 13:58:14  2023
--------------------------------------------------------------------------------
Index   v-sweep         rds             
--------------------------------------------------------------------------------
0	0.000000e+00	1.535801e+04	
1	5.000000e-02	1.598842e+04	
2	1.000000e-01	1.666296e+04	
3	1.500000e-01	1.738638e+04	
4	2.000000e-01	1.816418e+04	
5	2.500000e-01	1.900268e+04	
6	3.000000e-01	1.990923e+04	
7	3.500000e-01	2.089242e+04	
8	4.000000e-01	2.196235e+04	
9	4.500000e-01	2.313098e+04	
10	5.000000e-01	2.441257e+04	
11	5.500000e-01	2.582427e+04	
12	6.000000e-01	2.738687e+04	
13	6.500000e-01	2.912588e+04	
14	7.000000e-01	3.107288e+04	
15	7.500000e-01	3.326749e+04	
16	8.000000e-01	3.576007e+04	
17	8.500000e-01	3.861569e+04	
18	9.000000e-01	4.191991e+04	
19	9.500000e-01	4.578756e+04	
20	1.000000e+00	5.037661e+04	
21	1.050000e+00	5.591057e+04	
22	1.100000e+00	6.271670e+04	
23	1.150000e+00	7.129363e+04	
24	1.200000e+00	8.243519e+04	
25	1.250000e+00	9.745302e+04	
26	1.300000e+00	1.185098e+05	
27	1.350000e+00	1.487840e+05	
28	1.400000e+00	1.915320e+05	
29	1.450000e+00	2.477774e+05	
30	1.500000e+00	3.153074e+05	
31	1.550000e+00	3.904433e+05	
32	1.600000e+00	4.699567e+05	
33	1.650000e+00	5.516293e+05	
34	1.700000e+00	6.340755e+05	
35	1.750000e+00	7.164546e+05	
36	1.800000e+00	7.982568e+05	
37	1.850000e+00	8.791715e+05	
38	1.900000e+00	9.590093e+05	
39	1.950000e+00	1.037656e+06	
40	2.000000e+00	1.115045e+06	
41	2.050000e+00	1.191140e+06	
42	2.100000e+00	1.265927e+06	
43	2.150000e+00	1.339405e+06	
44	2.200000e+00	1.411580e+06	
45	2.250000e+00	1.482469e+06	
46	2.300000e+00	1.552088e+06	
47	2.350000e+00	1.620460e+06	
48	2.400000e+00	1.687608e+06	
49	2.450000e+00	1.753557e+06	
50	2.500000e+00	1.818333e+06	
51	2.550000e+00	1.881960e+06	
52	2.600000e+00	1.944464e+06	
53	2.650000e+00	2.005871e+06	
54	2.700000e+00	2.066207e+06	

Index   v-sweep         rds             
--------------------------------------------------------------------------------
55	2.750000e+00	2.125494e+06	
56	2.800000e+00	2.183757e+06	
57	2.850000e+00	2.241015e+06	
58	2.900000e+00	2.297285e+06	
59	2.950000e+00	2.352581e+06	
60	3.000000e+00	2.406906e+06	
61	3.050000e+00	2.460254e+06	
62	3.100000e+00	2.512601e+06	
63	3.150000e+00	2.563904e+06	
64	3.200000e+00	2.614085e+06	
65	3.250000e+00	2.663032e+06	
66	3.300000e+00	2.710576e+06	
Reset re-loads circuit ***************************

Circuit: ***************************

Doing analysis at TEMP = 125.000000 and TNOM = 125.000000


No. of Data Rows : 67
                          ***************************
                          DC transfer characteristic  Mon Jan  9 13:58:14  2023
--------------------------------------------------------------------------------
Index   v-sweep         rds             
--------------------------------------------------------------------------------
0	0.000000e+00	1.276840e+04	
1	5.000000e-02	1.318747e+04	
2	1.000000e-01	1.362901e+04	
3	1.500000e-01	1.409487e+04	
4	2.000000e-01	1.458709e+04	
5	2.500000e-01	1.510795e+04	
6	3.000000e-01	1.566000e+04	
7	3.500000e-01	1.624611e+04	
8	4.000000e-01	1.686949e+04	
9	4.500000e-01	1.753381e+04	
10	5.000000e-01	1.824321e+04	
11	5.500000e-01	1.900239e+04	
12	6.000000e-01	1.981677e+04	
13	6.500000e-01	2.069256e+04	
14	7.000000e-01	2.163694e+04	
15	7.500000e-01	2.265827e+04	
16	8.000000e-01	2.376631e+04	
17	8.500000e-01	2.497258e+04	
18	9.000000e-01	2.629070e+04	
19	9.500000e-01	2.773697e+04	
20	1.000000e+00	2.933103e+04	
21	1.050000e+00	3.109674e+04	
22	1.100000e+00	3.306350e+04	
23	1.150000e+00	3.526785e+04	
24	1.200000e+00	3.775591e+04	
25	1.250000e+00	4.058686e+04	
26	1.300000e+00	4.383799e+04	
27	1.350000e+00	4.761273e+04	
28	1.400000e+00	5.205332e+04	
29	1.450000e+00	5.736238e+04	
30	1.500000e+00	6.384082e+04	
31	1.550000e+00	7.195647e+04	
32	1.600000e+00	8.246395e+04	
33	1.650000e+00	9.657443e+04	
34	1.700000e+00	1.160370e+05	
35	1.750000e+00	1.427340e+05	
36	1.800000e+00	1.776358e+05	
37	1.850000e+00	2.200952e+05	
38	1.900000e+00	2.683596e+05	
39	1.950000e+00	3.205363e+05	
40	2.000000e+00	3.751119e+05	
41	2.050000e+00	4.310241e+05	
42	2.100000e+00	4.875645e+05	
43	2.150000e+00	5.442680e+05	
44	2.200000e+00	6.008283e+05	
45	2.250000e+00	6.570422e+05	
46	2.300000e+00	7.127742e+05	
47	2.350000e+00	7.679335e+05	
48	2.400000e+00	8.224596e+05	
49	2.450000e+00	8.763126e+05	
50	2.500000e+00	9.294672e+05	
51	2.550000e+00	9.819082e+05	
52	2.600000e+00	1.033628e+06	
53	2.650000e+00	1.084624e+06	
54	2.700000e+00	1.134899e+06	

Index   v-sweep         rds             
--------------------------------------------------------------------------------
55	2.750000e+00	1.184455e+06	
56	2.800000e+00	1.233301e+06	
57	2.850000e+00	1.281443e+06	
58	2.900000e+00	1.328891e+06	
59	2.950000e+00	1.375655e+06	
60	3.000000e+00	1.421745e+06	
61	3.050000e+00	1.467172e+06	
62	3.100000e+00	1.511946e+06	
63	3.150000e+00	1.556078e+06	
64	3.200000e+00	1.599576e+06	
65	3.250000e+00	1.642447e+06	
66	3.300000e+00	1.684694e+06	
Reset re-loads circuit ***************************

Circuit: ***************************

Doing analysis at TEMP = 125.000000 and TNOM = 125.000000


No. of Data Rows : 67
                          ***************************
                          DC transfer characteristic  Mon Jan  9 13:58:14  2023
--------------------------------------------------------------------------------
Index   v-sweep         rds             
--------------------------------------------------------------------------------
0	0.000000e+00	1.117840e+04	
1	5.000000e-02	1.148468e+04	
2	1.000000e-01	1.180420e+04	
3	1.500000e-01	1.213782e+04	
4	2.000000e-01	1.248650e+04	
5	2.500000e-01	1.285127e+04	
6	3.000000e-01	1.323323e+04	
7	3.500000e-01	1.363364e+04	
8	4.000000e-01	1.405383e+04	
9	4.500000e-01	1.449531e+04	
10	5.000000e-01	1.495971e+04	
11	5.500000e-01	1.544885e+04	
12	6.000000e-01	1.596475e+04	
13	6.500000e-01	1.650963e+04	
14	7.000000e-01	1.708601e+04	
15	7.500000e-01	1.769666e+04	
16	8.000000e-01	1.834473e+04	
17	8.500000e-01	1.903373e+04	
18	9.000000e-01	1.976765e+04	
19	9.500000e-01	2.055102e+04	
20	1.000000e+00	2.138898e+04	
21	1.050000e+00	2.228743e+04	
22	1.100000e+00	2.325315e+04	
23	1.150000e+00	2.429396e+04	
24	1.200000e+00	2.541899e+04	
25	1.250000e+00	2.663889e+04	
26	1.300000e+00	2.796622e+04	
27	1.350000e+00	2.941588e+04	
28	1.400000e+00	3.100574e+04	
29	1.450000e+00	3.275738e+04	
30	1.500000e+00	3.469721e+04	
31	1.550000e+00	3.685799e+04	
32	1.600000e+00	3.928095e+04	
33	1.650000e+00	4.201913e+04	
34	1.700000e+00	4.514239e+04	
35	1.750000e+00	4.874569e+04	
36	1.800000e+00	5.296319e+04	
37	1.850000e+00	5.799330e+04	
38	1.900000e+00	6.414331e+04	
39	1.950000e+00	7.190461e+04	
40	2.000000e+00	8.205331e+04	
41	2.050000e+00	9.569796e+04	
42	2.100000e+00	1.140751e+05	
43	2.150000e+00	1.379954e+05	
44	2.200000e+00	1.673624e+05	
45	2.250000e+00	2.012846e+05	
46	2.300000e+00	2.385827e+05	
47	2.350000e+00	2.781839e+05	
48	2.400000e+00	3.192606e+05	
49	2.450000e+00	3.612204e+05	
50	2.500000e+00	4.036516e+05	
51	2.550000e+00	4.462699e+05	
52	2.600000e+00	4.888786e+05	
53	2.650000e+00	5.313404e+05	
54	2.700000e+00	5.735587e+05	

Index   v-sweep         rds             
--------------------------------------------------------------------------------
55	2.750000e+00	6.154653e+05	
56	2.800000e+00	6.570117e+05	
57	2.850000e+00	6.981637e+05	
58	2.900000e+00	7.388972e+05	
59	2.950000e+00	7.791956e+05	
60	3.000000e+00	8.190479e+05	
61	3.050000e+00	8.584473e+05	
62	3.100000e+00	8.973899e+05	
63	3.150000e+00	9.358744e+05	
64	3.200000e+00	9.739012e+05	
65	3.250000e+00	1.011472e+06	
66	3.300000e+00	1.048590e+06	
Reset re-loads circuit ***************************

Circuit: ***************************

Note: No ".plot", ".print", or ".fourier" lines; no simulations run
