
Note: Compatibility modes selected: hs

Warning: m=xx on .subckt line will override multiplier m hierarchy!


Circuit: ***************************

Doing analysis at TEMP = 25.000000 and TNOM = 25.000000


No. of Data Rows : 67
                          ***************************
                          DC transfer characteristic  Mon Jan  9 13:58:13  2023
--------------------------------------------------------------------------------
Index   v-sweep         rds             
--------------------------------------------------------------------------------
0	0.000000e+00	4.096169e+04	
1	5.000000e-02	6.374143e+04	
2	1.000000e-01	1.387411e+05	
3	1.500000e-01	8.280657e+05	
4	2.000000e-01	5.855231e+06	
5	2.500000e-01	1.446349e+07	
6	3.000000e-01	2.163439e+07	
7	3.500000e-01	2.674801e+07	
8	4.000000e-01	3.045165e+07	
9	4.500000e-01	3.324998e+07	
10	5.000000e-01	3.544642e+07	
11	5.500000e-01	3.722329e+07	
12	6.000000e-01	3.869502e+07	
13	6.500000e-01	3.993696e+07	
14	7.000000e-01	4.100089e+07	
15	7.500000e-01	4.192370e+07	
16	8.000000e-01	4.273249e+07	
17	8.500000e-01	4.344766e+07	
18	9.000000e-01	4.408491e+07	
19	9.500000e-01	4.465653e+07	
20	1.000000e+00	4.517234e+07	
21	1.050000e+00	4.564022e+07	
22	1.100000e+00	4.606664e+07	
23	1.150000e+00	4.645692e+07	
24	1.200000e+00	4.681552e+07	
25	1.250000e+00	4.714616e+07	
26	1.300000e+00	4.745202e+07	
27	1.350000e+00	4.773578e+07	
28	1.400000e+00	4.799978e+07	
29	1.450000e+00	4.824600e+07	
30	1.500000e+00	4.847619e+07	
31	1.550000e+00	4.869186e+07	
32	1.600000e+00	4.889434e+07	
33	1.650000e+00	4.908477e+07	
34	1.700000e+00	4.926417e+07	
35	1.750000e+00	4.943342e+07	
36	1.800000e+00	4.959327e+07	
37	1.850000e+00	4.974437e+07	
38	1.900000e+00	4.988722e+07	
39	1.950000e+00	5.002221e+07	
40	2.000000e+00	5.014962e+07	
41	2.050000e+00	5.026957e+07	
42	2.100000e+00	5.038200e+07	
43	2.150000e+00	5.048672e+07	
44	2.200000e+00	5.058332e+07	
45	2.250000e+00	5.067116e+07	
46	2.300000e+00	5.074940e+07	
47	2.350000e+00	5.081691e+07	
48	2.400000e+00	5.087231e+07	
49	2.450000e+00	5.091388e+07	
50	2.500000e+00	5.093964e+07	
51	2.550000e+00	5.094726e+07	
52	2.600000e+00	5.093409e+07	
53	2.650000e+00	5.089719e+07	
54	2.700000e+00	5.083329e+07	

Index   v-sweep         rds             
--------------------------------------------------------------------------------
55	2.750000e+00	5.073886e+07	
56	2.800000e+00	5.061016e+07	
57	2.850000e+00	5.044325e+07	
58	2.900000e+00	5.023409e+07	
59	2.950000e+00	4.997861e+07	
60	3.000000e+00	4.967283e+07	
61	3.050000e+00	4.931293e+07	
62	3.100000e+00	4.889540e+07	
63	3.150000e+00	4.841718e+07	
64	3.200000e+00	4.787571e+07	
65	3.250000e+00	4.726915e+07	
66	3.300000e+00	4.659643e+07	
Reset re-loads circuit ***************************

Circuit: ***************************

Doing analysis at TEMP = 25.000000 and TNOM = 25.000000


No. of Data Rows : 67
                          ***************************
                          DC transfer characteristic  Mon Jan  9 13:58:13  2023
--------------------------------------------------------------------------------
Index   v-sweep         rds             
--------------------------------------------------------------------------------
0	0.000000e+00	9.860225e+03	
1	5.000000e-02	1.097145e+04	
2	1.000000e-01	1.235711e+04	
3	1.500000e-01	1.413307e+04	
4	2.000000e-01	1.649089e+04	
5	2.500000e-01	1.977141e+04	
6	3.000000e-01	2.464340e+04	
7	3.500000e-01	3.261112e+04	
8	4.000000e-01	4.779586e+04	
9	4.500000e-01	8.501535e+04	
10	5.000000e-01	2.081910e+05	
11	5.500000e-01	5.772799e+05	
12	6.000000e-01	1.215335e+06	
13	6.500000e-01	1.938947e+06	
14	7.000000e-01	2.628094e+06	
15	7.500000e-01	3.249991e+06	
16	8.000000e-01	3.804536e+06	
17	8.500000e-01	4.299607e+06	
18	9.000000e-01	4.743765e+06	
19	9.500000e-01	5.144512e+06	
20	1.000000e+00	5.508076e+06	
21	1.050000e+00	5.839564e+06	
22	1.100000e+00	6.143179e+06	
23	1.150000e+00	6.422399e+06	
24	1.200000e+00	6.680131e+06	
25	1.250000e+00	6.918823e+06	
26	1.300000e+00	7.140556e+06	
27	1.350000e+00	7.347109e+06	
28	1.400000e+00	7.540015e+06	
29	1.450000e+00	7.720602e+06	
30	1.500000e+00	7.890030e+06	
31	1.550000e+00	8.049313e+06	
32	1.600000e+00	8.199344e+06	
33	1.650000e+00	8.340914e+06	
34	1.700000e+00	8.474724e+06	
35	1.750000e+00	8.601400e+06	
36	1.800000e+00	8.721499e+06	
37	1.850000e+00	8.835522e+06	
38	1.900000e+00	8.943919e+06	
39	1.950000e+00	9.047092e+06	
40	2.000000e+00	9.145403e+06	
41	2.050000e+00	9.239174e+06	
42	2.100000e+00	9.328688e+06	
43	2.150000e+00	9.414189e+06	
44	2.200000e+00	9.495882e+06	
45	2.250000e+00	9.573925e+06	
46	2.300000e+00	9.648425e+06	
47	2.350000e+00	9.719434e+06	
48	2.400000e+00	9.786933e+06	
49	2.450000e+00	9.850828e+06	
50	2.500000e+00	9.910930e+06	
51	2.550000e+00	9.966950e+06	
52	2.600000e+00	1.001848e+07	
53	2.650000e+00	1.006497e+07	
54	2.700000e+00	1.010575e+07	

Index   v-sweep         rds             
--------------------------------------------------------------------------------
55	2.750000e+00	1.013996e+07	
56	2.800000e+00	1.016660e+07	
57	2.850000e+00	1.018450e+07	
58	2.900000e+00	1.019233e+07	
59	2.950000e+00	1.018860e+07	
60	3.000000e+00	1.017170e+07	
61	3.050000e+00	1.013993e+07	
62	3.100000e+00	1.009154e+07	
63	3.150000e+00	1.002479e+07	
64	3.200000e+00	9.938041e+06	
65	3.250000e+00	9.829808e+06	
66	3.300000e+00	9.698873e+06	
Reset re-loads circuit ***************************

Circuit: ***************************

Doing analysis at TEMP = 25.000000 and TNOM = 25.000000


No. of Data Rows : 67
                          ***************************
                          DC transfer characteristic  Mon Jan  9 13:58:13  2023
--------------------------------------------------------------------------------
Index   v-sweep         rds             
--------------------------------------------------------------------------------
0	0.000000e+00	5.870629e+03	
1	5.000000e-02	6.227496e+03	
2	1.000000e-01	6.628577e+03	
3	1.500000e-01	7.082627e+03	
4	2.000000e-01	7.600875e+03	
5	2.500000e-01	8.197966e+03	
6	3.000000e-01	8.893361e+03	
7	3.500000e-01	9.713496e+03	
8	4.000000e-01	1.069521e+04	
9	4.500000e-01	1.189140e+04	
10	5.000000e-01	1.338084e+04	
11	5.500000e-01	1.528610e+04	
12	6.000000e-01	1.780866e+04	
13	6.500000e-01	2.130352e+04	
14	7.000000e-01	2.645533e+04	
15	7.500000e-01	3.474892e+04	
16	8.000000e-01	4.990127e+04	
17	8.500000e-01	8.236645e+04	
18	9.000000e-01	1.579971e+05	
19	9.500000e-01	3.065589e+05	
20	1.000000e+00	5.193251e+05	
21	1.050000e+00	7.613300e+05	
22	1.100000e+00	1.007178e+06	
23	1.150000e+00	1.245177e+06	
24	1.200000e+00	1.471043e+06	
25	1.250000e+00	1.683705e+06	
26	1.300000e+00	1.883394e+06	
27	1.350000e+00	2.070831e+06	
28	1.400000e+00	2.246894e+06	
29	1.450000e+00	2.412473e+06	
30	1.500000e+00	2.568417e+06	
31	1.550000e+00	2.715508e+06	
32	1.600000e+00	2.854460e+06	
33	1.650000e+00	2.985918e+06	
34	1.700000e+00	3.110468e+06	
35	1.750000e+00	3.228634e+06	
36	1.800000e+00	3.340894e+06	
37	1.850000e+00	3.447678e+06	
38	1.900000e+00	3.549377e+06	
39	1.950000e+00	3.646344e+06	
40	2.000000e+00	3.738902e+06	
41	2.050000e+00	3.827345e+06	
42	2.100000e+00	3.911941e+06	
43	2.150000e+00	3.992936e+06	
44	2.200000e+00	4.070553e+06	
45	2.250000e+00	4.145000e+06	
46	2.300000e+00	4.216463e+06	
47	2.350000e+00	4.285116e+06	
48	2.400000e+00	4.351114e+06	
49	2.450000e+00	4.414596e+06	
50	2.500000e+00	4.475684e+06	
51	2.550000e+00	4.534482e+06	
52	2.600000e+00	4.591067e+06	
53	2.650000e+00	4.645493e+06	
54	2.700000e+00	4.697780e+06	

Index   v-sweep         rds             
--------------------------------------------------------------------------------
55	2.750000e+00	4.747907e+06	
56	2.800000e+00	4.795808e+06	
57	2.850000e+00	4.841356e+06	
58	2.900000e+00	4.884358e+06	
59	2.950000e+00	4.924540e+06	
60	3.000000e+00	4.961538e+06	
61	3.050000e+00	4.994887e+06	
62	3.100000e+00	5.024009e+06	
63	3.150000e+00	5.048208e+06	
64	3.200000e+00	5.066667e+06	
65	3.250000e+00	5.078453e+06	
66	3.300000e+00	5.082521e+06	
Reset re-loads circuit ***************************

Circuit: ***************************

Doing analysis at TEMP = 25.000000 and TNOM = 25.000000


No. of Data Rows : 67
                          ***************************
                          DC transfer characteristic  Mon Jan  9 13:58:13  2023
--------------------------------------------------------------------------------
Index   v-sweep         rds             
--------------------------------------------------------------------------------
0	0.000000e+00	4.426461e+03	
1	5.000000e-02	4.608266e+03	
2	1.000000e-01	4.804762e+03	
3	1.500000e-01	5.017803e+03	
4	2.000000e-01	5.249571e+03	
5	2.500000e-01	5.502645e+03	
6	3.000000e-01	5.780104e+03	
7	3.500000e-01	6.085649e+03	
8	4.000000e-01	6.423768e+03	
9	4.500000e-01	6.799963e+03	
10	5.000000e-01	7.221043e+03	
11	5.500000e-01	7.695550e+03	
12	6.000000e-01	8.234332e+03	
13	6.500000e-01	8.851392e+03	
14	7.000000e-01	9.565113e+03	
15	7.500000e-01	1.040012e+04	
16	8.000000e-01	1.139017e+04	
17	8.500000e-01	1.258280e+04	
18	9.000000e-01	1.404714e+04	
19	9.500000e-01	1.588769e+04	
20	1.000000e+00	1.826997e+04	
21	1.050000e+00	2.147185e+04	
22	1.100000e+00	2.599467e+04	
23	1.150000e+00	3.282561e+04	
24	1.200000e+00	4.409838e+04	
25	1.250000e+00	6.465762e+04	
26	1.300000e+00	1.040786e+05	
27	1.350000e+00	1.730313e+05	
28	1.400000e+00	2.717312e+05	
29	1.450000e+00	3.897852e+05	
30	1.500000e+00	5.164421e+05	
31	1.550000e+00	6.448690e+05	
32	1.600000e+00	7.714366e+05	
33	1.650000e+00	8.943683e+05	
34	1.700000e+00	1.012865e+06	
35	1.750000e+00	1.126634e+06	
36	1.800000e+00	1.235644e+06	
37	1.850000e+00	1.340001e+06	
38	1.900000e+00	1.439879e+06	
39	1.950000e+00	1.535484e+06	
40	2.000000e+00	1.627032e+06	
41	2.050000e+00	1.714740e+06	
42	2.100000e+00	1.798820e+06	
43	2.150000e+00	1.879474e+06	
44	2.200000e+00	1.956895e+06	
45	2.250000e+00	2.031263e+06	
46	2.300000e+00	2.102748e+06	
47	2.350000e+00	2.171507e+06	
48	2.400000e+00	2.237691e+06	
49	2.450000e+00	2.301437e+06	
50	2.500000e+00	2.362874e+06	
51	2.550000e+00	2.422123e+06	
52	2.600000e+00	2.479298e+06	
53	2.650000e+00	2.534502e+06	
54	2.700000e+00	2.587834e+06	

Index   v-sweep         rds             
--------------------------------------------------------------------------------
55	2.750000e+00	2.639383e+06	
56	2.800000e+00	2.689232e+06	
57	2.850000e+00	2.737455e+06	
58	2.900000e+00	2.784116e+06	
59	2.950000e+00	2.829268e+06	
60	3.000000e+00	2.872949e+06	
61	3.050000e+00	2.915179e+06	
62	3.100000e+00	2.955955e+06	
63	3.150000e+00	2.995247e+06	
64	3.200000e+00	3.032985e+06	
65	3.250000e+00	3.069060e+06	
66	3.300000e+00	3.103307e+06	
Reset re-loads circuit ***************************

Circuit: ***************************

Doing analysis at TEMP = 25.000000 and TNOM = 25.000000


No. of Data Rows : 67
                          ***************************
                          DC transfer characteristic  Mon Jan  9 13:58:13  2023
--------------------------------------------------------------------------------
Index   v-sweep         rds             
--------------------------------------------------------------------------------
0	0.000000e+00	3.722025e+03	
1	5.000000e-02	3.835731e+03	
2	1.000000e-01	3.956110e+03	
3	1.500000e-01	4.083767e+03	
4	2.000000e-01	4.219382e+03	
5	2.500000e-01	4.363722e+03	
6	3.000000e-01	4.517656e+03	
7	3.500000e-01	4.682173e+03	
8	4.000000e-01	4.858402e+03	
9	4.500000e-01	5.047639e+03	
10	5.000000e-01	5.251379e+03	
11	5.500000e-01	5.471354e+03	
12	6.000000e-01	5.709583e+03	
13	6.500000e-01	5.968437e+03	
14	7.000000e-01	6.250713e+03	
15	7.500000e-01	6.559739e+03	
16	8.000000e-01	6.899505e+03	
17	8.500000e-01	7.274837e+03	
18	9.000000e-01	7.691623e+03	
19	9.500000e-01	8.157133e+03	
20	1.000000e+00	8.680436e+03	
21	1.050000e+00	9.273005e+03	
22	1.100000e+00	9.949564e+03	
23	1.150000e+00	1.072933e+04	
24	1.200000e+00	1.163785e+04	
25	1.250000e+00	1.270989e+04	
26	1.300000e+00	1.399393e+04	
27	1.350000e+00	1.555970e+04	
28	1.400000e+00	1.751120e+04	
29	1.450000e+00	2.001038e+04	
30	1.500000e+00	2.332326e+04	
31	1.550000e+00	2.791500e+04	
32	1.600000e+00	3.465708e+04	
33	1.650000e+00	4.527343e+04	
34	1.700000e+00	6.309535e+04	
35	1.750000e+00	9.324175e+04	
36	1.800000e+00	1.398310e+05	
37	1.850000e+00	2.020269e+05	
38	1.900000e+00	2.750948e+05	
39	1.950000e+00	3.540952e+05	
40	2.000000e+00	4.355152e+05	
41	2.050000e+00	5.171974e+05	
42	2.100000e+00	5.978918e+05	
43	2.150000e+00	6.768965e+05	
44	2.200000e+00	7.538316e+05	
45	2.250000e+00	8.285078e+05	
46	2.300000e+00	9.008486e+05	
47	2.350000e+00	9.708455e+05	
48	2.400000e+00	1.038531e+06	
49	2.450000e+00	1.103962e+06	
50	2.500000e+00	1.167208e+06	
51	2.550000e+00	1.228348e+06	
52	2.600000e+00	1.287464e+06	
53	2.650000e+00	1.344638e+06	
54	2.700000e+00	1.399951e+06	

Index   v-sweep         rds             
--------------------------------------------------------------------------------
55	2.750000e+00	1.453482e+06	
56	2.800000e+00	1.505310e+06	
57	2.850000e+00	1.555506e+06	
58	2.900000e+00	1.604143e+06	
59	2.950000e+00	1.651288e+06	
60	3.000000e+00	1.697005e+06	
61	3.050000e+00	1.741355e+06	
62	3.100000e+00	1.784395e+06	
63	3.150000e+00	1.826179e+06	
64	3.200000e+00	1.866759e+06	
65	3.250000e+00	1.906179e+06	
66	3.300000e+00	1.944480e+06	
Reset re-loads circuit ***************************

Circuit: ***************************

Doing analysis at TEMP = 25.000000 and TNOM = 25.000000


No. of Data Rows : 67
                          ***************************
                          DC transfer characteristic  Mon Jan  9 13:58:13  2023
--------------------------------------------------------------------------------
Index   v-sweep         rds             
--------------------------------------------------------------------------------
0	0.000000e+00	3.338327e+03	
1	5.000000e-02	3.418363e+03	
2	1.000000e-01	3.502020e+03	
3	1.500000e-01	3.589548e+03	
4	2.000000e-01	3.681222e+03	
5	2.500000e-01	3.777343e+03	
6	3.000000e-01	3.878243e+03	
7	3.500000e-01	3.984287e+03	
8	4.000000e-01	4.095877e+03	
9	4.500000e-01	4.213461e+03	
10	5.000000e-01	4.337533e+03	
11	5.500000e-01	4.468645e+03	
12	6.000000e-01	4.607414e+03	
13	6.500000e-01	4.754530e+03	
14	7.000000e-01	4.910769e+03	
15	7.500000e-01	5.077004e+03	
16	8.000000e-01	5.254228e+03	
17	8.500000e-01	5.443566e+03	
18	9.000000e-01	5.646303e+03	
19	9.500000e-01	5.863914e+03	
20	1.000000e+00	6.098094e+03	
21	1.050000e+00	6.350813e+03	
22	1.100000e+00	6.624361e+03	
23	1.150000e+00	6.921421e+03	
24	1.200000e+00	7.245162e+03	
25	1.250000e+00	7.599346e+03	
26	1.300000e+00	7.988478e+03	
27	1.350000e+00	8.418000e+03	
28	1.400000e+00	8.894543e+03	
29	1.450000e+00	9.426278e+03	
30	1.500000e+00	1.002339e+04	
31	1.550000e+00	1.069872e+04	
32	1.600000e+00	1.146874e+04	
33	1.650000e+00	1.235490e+04	
34	1.700000e+00	1.338563e+04	
35	1.750000e+00	1.459956e+04	
36	1.800000e+00	1.605041e+04	
37	1.850000e+00	1.781531e+04	
38	1.900000e+00	2.000896e+04	
39	1.950000e+00	2.280956e+04	
40	2.000000e+00	2.650834e+04	
41	2.050000e+00	3.160817e+04	
42	2.100000e+00	3.901816e+04	
43	2.150000e+00	5.037764e+04	
44	2.200000e+00	6.828027e+04	
45	2.250000e+00	9.553157e+04	
46	2.300000e+00	1.331964e+05	
47	2.350000e+00	1.797524e+05	
48	2.400000e+00	2.324307e+05	
49	2.450000e+00	2.886734e+05	
50	2.500000e+00	3.466246e+05	
51	2.550000e+00	4.050651e+05	
52	2.600000e+00	4.632258e+05	
53	2.650000e+00	5.206300e+05	
54	2.700000e+00	5.769870e+05	

Index   v-sweep         rds             
--------------------------------------------------------------------------------
55	2.750000e+00	6.321243e+05	
56	2.800000e+00	6.859450e+05	
57	2.850000e+00	7.384013e+05	
58	2.900000e+00	7.894772e+05	
59	2.950000e+00	8.391778e+05	
60	3.000000e+00	8.875221e+05	
61	3.050000e+00	9.345377e+05	
62	3.100000e+00	9.802580e+05	
63	3.150000e+00	1.024720e+06	
64	3.200000e+00	1.067963e+06	
65	3.250000e+00	1.110025e+06	
66	3.300000e+00	1.150948e+06	
Reset re-loads circuit ***************************

Circuit: ***************************

Note: No ".plot", ".print", or ".fourier" lines; no simulations run
