
Note: Compatibility modes selected: hs

Warning: m=xx on .subckt line will override multiplier m hierarchy!


Circuit: ***************************

Doing analysis at TEMP = 125.000000 and TNOM = 125.000000


No. of Data Rows : 67
                          ***************************
                          DC transfer characteristic  Mon Jan  9 13:58:14  2023
--------------------------------------------------------------------------------
Index   v-sweep         rds             
--------------------------------------------------------------------------------
0	0.000000e+00	3.557533e+04	
1	5.000000e-02	4.202636e+04	
2	1.000000e-01	5.064981e+04	
3	1.500000e-01	6.268269e+04	
4	2.000000e-01	8.035679e+04	
5	2.500000e-01	1.076776e+05	
6	3.000000e-01	1.506434e+05	
7	3.500000e-01	2.130045e+05	
8	4.000000e-01	2.877394e+05	
9	4.500000e-01	3.612670e+05	
10	5.000000e-01	4.259636e+05	
11	5.500000e-01	4.807880e+05	
12	6.000000e-01	5.270403e+05	
13	6.500000e-01	5.662915e+05	
14	7.000000e-01	5.998688e+05	
15	7.500000e-01	6.288139e+05	
16	8.000000e-01	6.539363e+05	
17	8.500000e-01	6.758701e+05	
18	9.000000e-01	6.951177e+05	
19	9.500000e-01	7.120826e+05	
20	1.000000e+00	7.270922e+05	
21	1.050000e+00	7.404156e+05	
22	1.100000e+00	7.522754e+05	
23	1.150000e+00	7.628578e+05	
24	1.200000e+00	7.723194e+05	
25	1.250000e+00	7.807931e+05	
26	1.300000e+00	7.883922e+05	
27	1.350000e+00	7.952139e+05	
28	1.400000e+00	8.013422e+05	
29	1.450000e+00	8.068498e+05	
30	1.500000e+00	8.118001e+05	
31	1.550000e+00	8.162484e+05	
32	1.600000e+00	8.202434e+05	
33	1.650000e+00	8.238280e+05	
34	1.700000e+00	8.270402e+05	
35	1.750000e+00	8.299134e+05	
36	1.800000e+00	8.324777e+05	
37	1.850000e+00	8.347595e+05	
38	1.900000e+00	8.367823e+05	
39	1.950000e+00	8.385670e+05	
40	2.000000e+00	8.401318e+05	
41	2.050000e+00	8.414925e+05	
42	2.100000e+00	8.426625e+05	
43	2.150000e+00	8.436525e+05	
44	2.200000e+00	8.444706e+05	
45	2.250000e+00	8.451219e+05	
46	2.300000e+00	8.456082e+05	
47	2.350000e+00	8.459279e+05	
48	2.400000e+00	8.460751e+05	
49	2.450000e+00	8.460397e+05	
50	2.500000e+00	8.458062e+05	
51	2.550000e+00	8.453538e+05	
52	2.600000e+00	8.446559e+05	
53	2.650000e+00	8.436793e+05	
54	2.700000e+00	8.423838e+05	

Index   v-sweep         rds             
--------------------------------------------------------------------------------
55	2.750000e+00	8.407226e+05	
56	2.800000e+00	8.386415e+05	
57	2.850000e+00	8.360793e+05	
58	2.900000e+00	8.329684e+05	
59	2.950000e+00	8.292348e+05	
60	3.000000e+00	8.248000e+05	
61	3.050000e+00	8.195815e+05	
62	3.100000e+00	8.134953e+05	
63	3.150000e+00	8.064577e+05	
64	3.200000e+00	7.983880e+05	
65	3.250000e+00	7.892115e+05	
66	3.300000e+00	7.788626e+05	
Reset re-loads circuit ***************************

Circuit: ***************************

Doing analysis at TEMP = 125.000000 and TNOM = 125.000000


No. of Data Rows : 67
                          ***************************
                          DC transfer characteristic  Mon Jan  9 13:58:14  2023
--------------------------------------------------------------------------------
Index   v-sweep         rds             
--------------------------------------------------------------------------------
0	0.000000e+00	1.807264e+04	
1	5.000000e-02	1.989914e+04	
2	1.000000e-01	2.201191e+04	
3	1.500000e-01	2.448176e+04	
4	2.000000e-01	2.740452e+04	
5	2.500000e-01	3.091272e+04	
6	3.000000e-01	3.519383e+04	
7	3.500000e-01	4.051886e+04	
8	4.000000e-01	4.728568e+04	
9	4.500000e-01	5.607520e+04	
10	5.000000e-01	6.768483e+04	
11	5.500000e-01	8.300478e+04	
12	6.000000e-01	1.025259e+05	
13	6.500000e-01	1.256803e+05	
14	7.000000e-01	1.509044e+05	
15	7.500000e-01	1.765187e+05	
16	8.000000e-01	2.013676e+05	
17	8.500000e-01	2.248582e+05	
18	9.000000e-01	2.467653e+05	
19	9.500000e-01	2.670601e+05	
20	1.000000e+00	2.858069e+05	
21	1.050000e+00	3.031097e+05	
22	1.100000e+00	3.190847e+05	
23	1.150000e+00	3.338478e+05	
24	1.200000e+00	3.475086e+05	
25	1.250000e+00	3.601680e+05	
26	1.300000e+00	3.719175e+05	
27	1.350000e+00	3.828397e+05	
28	1.400000e+00	3.930085e+05	
29	1.450000e+00	4.024903e+05	
30	1.500000e+00	4.113445e+05	
31	1.550000e+00	4.196243e+05	
32	1.600000e+00	4.273774e+05	
33	1.650000e+00	4.346467e+05	
34	1.700000e+00	4.414708e+05	
35	1.750000e+00	4.478844e+05	
36	1.800000e+00	4.539190e+05	
37	1.850000e+00	4.596029e+05	
38	1.900000e+00	4.649619e+05	
39	1.950000e+00	4.700194e+05	
40	2.000000e+00	4.747966e+05	
41	2.050000e+00	4.793127e+05	
42	2.100000e+00	4.835852e+05	
43	2.150000e+00	4.876297e+05	
44	2.200000e+00	4.914605e+05	
45	2.250000e+00	4.950899e+05	
46	2.300000e+00	4.985285e+05	
47	2.350000e+00	5.017852e+05	
48	2.400000e+00	5.048667e+05	
49	2.450000e+00	5.077773e+05	
50	2.500000e+00	5.105185e+05	
51	2.550000e+00	5.130887e+05	
52	2.600000e+00	5.154827e+05	
53	2.650000e+00	5.176907e+05	
54	2.700000e+00	5.196985e+05	

Index   v-sweep         rds             
--------------------------------------------------------------------------------
55	2.750000e+00	5.214862e+05	
56	2.800000e+00	5.230278e+05	
57	2.850000e+00	5.242908e+05	
58	2.900000e+00	5.252355e+05	
59	2.950000e+00	5.258151e+05	
60	3.000000e+00	5.259750e+05	
61	3.050000e+00	5.256535e+05	
62	3.100000e+00	5.247820e+05	
63	3.150000e+00	5.232864e+05	
64	3.200000e+00	5.210882e+05	
65	3.250000e+00	5.181064e+05	
66	3.300000e+00	5.142607e+05	
Reset re-loads circuit ***************************

Circuit: ***************************

Doing analysis at TEMP = 125.000000 and TNOM = 125.000000


No. of Data Rows : 67
                          ***************************
                          DC transfer characteristic  Mon Jan  9 13:58:14  2023
--------------------------------------------------------------------------------
Index   v-sweep         rds             
--------------------------------------------------------------------------------
0	0.000000e+00	1.223653e+04	
1	5.000000e-02	1.311006e+04	
2	1.000000e-01	1.407043e+04	
3	1.500000e-01	1.513071e+04	
4	2.000000e-01	1.630673e+04	
5	2.500000e-01	1.761786e+04	
6	3.000000e-01	1.908807e+04	
7	3.500000e-01	2.074737e+04	
8	4.000000e-01	2.263389e+04	
9	4.500000e-01	2.479682e+04	
10	5.000000e-01	2.730081e+04	
11	5.500000e-01	3.023268e+04	
12	6.000000e-01	3.371165e+04	
13	6.500000e-01	3.790482e+04	
14	7.000000e-01	4.304704e+04	
15	7.500000e-01	4.945415e+04	
16	8.000000e-01	5.748968e+04	
17	8.500000e-01	6.742812e+04	
18	9.000000e-01	7.924985e+04	
19	9.500000e-01	9.256850e+04	
20	1.000000e+00	1.067953e+05	
21	1.050000e+00	1.213667e+05	
22	1.100000e+00	1.358613e+05	
23	1.150000e+00	1.500080e+05	
24	1.200000e+00	1.636510e+05	
25	1.250000e+00	1.767108e+05	
26	1.300000e+00	1.891561e+05	
27	1.350000e+00	2.009841e+05	
28	1.400000e+00	2.122087e+05	
29	1.450000e+00	2.228531e+05	
30	1.500000e+00	2.329453e+05	
31	1.550000e+00	2.425152e+05	
32	1.600000e+00	2.515932e+05	
33	1.650000e+00	2.602088e+05	
34	1.700000e+00	2.683908e+05	
35	1.750000e+00	2.761662e+05	
36	1.800000e+00	2.835605e+05	
37	1.850000e+00	2.905976e+05	
38	1.900000e+00	2.972997e+05	
39	1.950000e+00	3.036875e+05	
40	2.000000e+00	3.097803e+05	
41	2.050000e+00	3.155960e+05	
42	2.100000e+00	3.211512e+05	
43	2.150000e+00	3.264612e+05	
44	2.200000e+00	3.315402e+05	
45	2.250000e+00	3.364016e+05	
46	2.300000e+00	3.410574e+05	
47	2.350000e+00	3.455189e+05	
48	2.400000e+00	3.497961e+05	
49	2.450000e+00	3.538982e+05	
50	2.500000e+00	3.578331e+05	
51	2.550000e+00	3.616074e+05	
52	2.600000e+00	3.652259e+05	
53	2.650000e+00	3.686918e+05	
54	2.700000e+00	3.720058e+05	

Index   v-sweep         rds             
--------------------------------------------------------------------------------
55	2.750000e+00	3.751661e+05	
56	2.800000e+00	3.781673e+05	
57	2.850000e+00	3.810001e+05	
58	2.900000e+00	3.836509e+05	
59	2.950000e+00	3.861005e+05	
60	3.000000e+00	3.883236e+05	
61	3.050000e+00	3.902884e+05	
62	3.100000e+00	3.919558e+05	
63	3.150000e+00	3.932788e+05	
64	3.200000e+00	3.942026e+05	
65	3.250000e+00	3.946647e+05	
66	3.300000e+00	3.945956e+05	
Reset re-loads circuit ***************************

Circuit: ***************************

Doing analysis at TEMP = 125.000000 and TNOM = 125.000000


No. of Data Rows : 67
                          ***************************
                          DC transfer characteristic  Mon Jan  9 13:58:14  2023
--------------------------------------------------------------------------------
Index   v-sweep         rds             
--------------------------------------------------------------------------------
0	0.000000e+00	9.466774e+03	
1	5.000000e-02	9.996853e+03	
2	1.000000e-01	1.056542e+04	
3	1.500000e-01	1.117655e+04	
4	2.000000e-01	1.183497e+04	
5	2.500000e-01	1.254610e+04	
6	3.000000e-01	1.331626e+04	
7	3.500000e-01	1.415283e+04	
8	4.000000e-01	1.506450e+04	
9	4.500000e-01	1.606162e+04	
10	5.000000e-01	1.715657e+04	
11	5.500000e-01	1.836440e+04	
12	6.000000e-01	1.970369e+04	
13	6.500000e-01	2.119770e+04	
14	7.000000e-01	2.287635e+04	
15	7.500000e-01	2.477920e+04	
16	8.000000e-01	2.696035e+04	
17	8.500000e-01	2.949630e+04	
18	9.000000e-01	3.249761e+04	
19	9.500000e-01	3.612221e+04	
20	1.000000e+00	4.057880e+04	
21	1.050000e+00	4.609483e+04	
22	1.100000e+00	5.283121e+04	
23	1.150000e+00	6.078449e+04	
24	1.200000e+00	6.976467e+04	
25	1.250000e+00	7.947093e+04	
26	1.300000e+00	8.959277e+04	
27	1.350000e+00	9.987188e+04	
28	1.400000e+00	1.101187e+05	
29	1.450000e+00	1.202048e+05	
30	1.500000e+00	1.300481e+05	
31	1.550000e+00	1.395993e+05	
32	1.600000e+00	1.488312e+05	
33	1.650000e+00	1.577316e+05	
34	1.700000e+00	1.662980e+05	
35	1.750000e+00	1.745341e+05	
36	1.800000e+00	1.824477e+05	
37	1.850000e+00	1.900489e+05	
38	1.900000e+00	1.973494e+05	
39	1.950000e+00	2.043616e+05	
40	2.000000e+00	2.110979e+05	
41	2.050000e+00	2.175711e+05	
42	2.100000e+00	2.237934e+05	
43	2.150000e+00	2.297767e+05	
44	2.200000e+00	2.355326e+05	
45	2.250000e+00	2.410721e+05	
46	2.300000e+00	2.464057e+05	
47	2.350000e+00	2.515432e+05	
48	2.400000e+00	2.564941e+05	
49	2.450000e+00	2.612673e+05	
50	2.500000e+00	2.658711e+05	
51	2.550000e+00	2.703133e+05	
52	2.600000e+00	2.746010e+05	
53	2.650000e+00	2.787408e+05	
54	2.700000e+00	2.827382e+05	

Index   v-sweep         rds             
--------------------------------------------------------------------------------
55	2.750000e+00	2.865979e+05	
56	2.800000e+00	2.903234e+05	
57	2.850000e+00	2.939166e+05	
58	2.900000e+00	2.973774e+05	
59	2.950000e+00	3.007033e+05	
60	3.000000e+00	3.038890e+05	
61	3.050000e+00	3.069253e+05	
62	3.100000e+00	3.097987e+05	
63	3.150000e+00	3.124905e+05	
64	3.200000e+00	3.149762e+05	
65	3.250000e+00	3.172243e+05	
66	3.300000e+00	3.191960e+05	
Reset re-loads circuit ***************************

Circuit: ***************************

Doing analysis at TEMP = 125.000000 and TNOM = 125.000000


No. of Data Rows : 67
                          ***************************
                          DC transfer characteristic  Mon Jan  9 13:58:14  2023
--------------------------------------------------------------------------------
Index   v-sweep         rds             
--------------------------------------------------------------------------------
0	0.000000e+00	8.038200e+03	
1	5.000000e-02	8.418490e+03	
2	1.000000e-01	8.821077e+03	
3	1.500000e-01	9.247832e+03	
4	2.000000e-01	9.700844e+03	
5	2.500000e-01	1.018246e+04	
6	3.000000e-01	1.069531e+04	
7	3.500000e-01	1.124238e+04	
8	4.000000e-01	1.182704e+04	
9	4.500000e-01	1.245317e+04	
10	5.000000e-01	1.312520e+04	
11	5.500000e-01	1.384823e+04	
12	6.000000e-01	1.462824e+04	
13	6.500000e-01	1.547225e+04	
14	7.000000e-01	1.638863e+04	
15	7.500000e-01	1.738753e+04	
16	8.000000e-01	1.848148e+04	
17	8.500000e-01	1.968638e+04	
18	9.000000e-01	2.102304e+04	
19	9.500000e-01	2.251969e+04	
20	1.000000e+00	2.421608e+04	
21	1.050000e+00	2.616987e+04	
22	1.100000e+00	2.846538e+04	
23	1.150000e+00	3.122237e+04	
24	1.200000e+00	3.459613e+04	
25	1.250000e+00	3.875380e+04	
26	1.300000e+00	4.381999e+04	
27	1.350000e+00	4.981660e+04	
28	1.400000e+00	5.664398e+04	
29	1.450000e+00	6.411804e+04	
30	1.500000e+00	7.202966e+04	
31	1.550000e+00	8.018900e+04	
32	1.600000e+00	8.844436e+04	
33	1.650000e+00	9.668356e+04	
34	1.700000e+00	1.048277e+05	
35	1.750000e+00	1.128235e+05	
36	1.800000e+00	1.206361e+05	
37	1.850000e+00	1.282440e+05	
38	1.900000e+00	1.356350e+05	
39	1.950000e+00	1.428034e+05	
40	2.000000e+00	1.497478e+05	
41	2.050000e+00	1.564701e+05	
42	2.100000e+00	1.629741e+05	
43	2.150000e+00	1.692650e+05	
44	2.200000e+00	1.753491e+05	
45	2.250000e+00	1.812329e+05	
46	2.300000e+00	1.869234e+05	
47	2.350000e+00	1.924278e+05	
48	2.400000e+00	1.977531e+05	
49	2.450000e+00	2.029063e+05	
50	2.500000e+00	2.078942e+05	
51	2.550000e+00	2.127234e+05	
52	2.600000e+00	2.174003e+05	
53	2.650000e+00	2.219311e+05	
54	2.700000e+00	2.263215e+05	

Index   v-sweep         rds             
--------------------------------------------------------------------------------
55	2.750000e+00	2.305770e+05	
56	2.800000e+00	2.347026e+05	
57	2.850000e+00	2.387028e+05	
58	2.900000e+00	2.425816e+05	
59	2.950000e+00	2.463418e+05	
60	3.000000e+00	2.499852e+05	
61	3.050000e+00	2.535123e+05	
62	3.100000e+00	2.569214e+05	
63	3.150000e+00	2.602085e+05	
64	3.200000e+00	2.633665e+05	
65	3.250000e+00	2.663845e+05	
66	3.300000e+00	2.692469e+05	
Reset re-loads circuit ***************************

Circuit: ***************************

Doing analysis at TEMP = 125.000000 and TNOM = 125.000000


No. of Data Rows : 67
                          ***************************
                          DC transfer characteristic  Mon Jan  9 13:58:14  2023
--------------------------------------------------------------------------------
Index   v-sweep         rds             
--------------------------------------------------------------------------------
0	0.000000e+00	7.139431e+03	
1	5.000000e-02	7.435934e+03	
2	1.000000e-01	7.747215e+03	
3	1.500000e-01	8.074306e+03	
4	2.000000e-01	8.418343e+03	
5	2.500000e-01	8.780574e+03	
6	3.000000e-01	9.162378e+03	
7	3.500000e-01	9.565279e+03	
8	4.000000e-01	9.990971e+03	
9	4.500000e-01	1.044134e+04	
10	5.000000e-01	1.091849e+04	
11	5.500000e-01	1.142480e+04	
12	6.000000e-01	1.196293e+04	
13	6.500000e-01	1.253594e+04	
14	7.000000e-01	1.314730e+04	
15	7.500000e-01	1.380103e+04	
16	8.000000e-01	1.450184e+04	
17	8.500000e-01	1.525530e+04	
18	9.000000e-01	1.606814e+04	
19	9.500000e-01	1.694870e+04	
20	1.000000e+00	1.790756e+04	
21	1.050000e+00	1.895864e+04	
22	1.100000e+00	2.012087e+04	
23	1.150000e+00	2.142101e+04	
24	1.200000e+00	2.289780e+04	
25	1.250000e+00	2.460796e+04	
26	1.300000e+00	2.663294e+04	
27	1.350000e+00	2.908256e+04	
28	1.400000e+00	3.208721e+04	
29	1.450000e+00	3.577047e+04	
30	1.500000e+00	4.020650e+04	
31	1.550000e+00	4.538683e+04	
32	1.600000e+00	5.122089e+04	
33	1.650000e+00	5.756762e+04	
34	1.700000e+00	6.427383e+04	
35	1.750000e+00	7.120072e+04	
36	1.800000e+00	7.823512e+04	
37	1.850000e+00	8.529060e+04	
38	1.900000e+00	9.230383e+04	
39	1.950000e+00	9.922977e+04	
40	2.000000e+00	1.060372e+05	
41	2.050000e+00	1.127052e+05	
42	2.100000e+00	1.192203e+05	
43	2.150000e+00	1.255742e+05	
44	2.200000e+00	1.317628e+05	
45	2.250000e+00	1.377845e+05	
46	2.300000e+00	1.436398e+05	
47	2.350000e+00	1.493308e+05	
48	2.400000e+00	1.548604e+05	
49	2.450000e+00	1.602321e+05	
50	2.500000e+00	1.654500e+05	
51	2.550000e+00	1.705186e+05	
52	2.600000e+00	1.754423e+05	
53	2.650000e+00	1.802257e+05	
54	2.700000e+00	1.848736e+05	

Index   v-sweep         rds             
--------------------------------------------------------------------------------
55	2.750000e+00	1.893904e+05	
56	2.800000e+00	1.937805e+05	
57	2.850000e+00	1.980485e+05	
58	2.900000e+00	2.021983e+05	
59	2.950000e+00	2.062338e+05	
60	3.000000e+00	2.101586e+05	
61	3.050000e+00	2.139757e+05	
62	3.100000e+00	2.176873e+05	
63	3.150000e+00	2.212951e+05	
64	3.200000e+00	2.247991e+05	
65	3.250000e+00	2.281979e+05	
66	3.300000e+00	2.314879e+05	
Reset re-loads circuit ***************************

Circuit: ***************************

Note: No ".plot", ".print", or ".fourier" lines; no simulations run
