
Note: Compatibility modes selected: hs

Warning: m=xx on .subckt line will override multiplier m hierarchy!


Circuit: ***************************

Doing analysis at TEMP = -40.000000 and TNOM = -40.000000


No. of Data Rows : 67
                          ***************************
                          DC transfer characteristic  Mon Jan  9 13:58:14  2023
--------------------------------------------------------------------------------
Index   v-sweep         rds             
--------------------------------------------------------------------------------
0	0.000000e+00	1.872395e+05	
1	5.000000e-02	3.159760e+05	
2	1.000000e-01	8.050890e+05	
3	1.500000e-01	3.676636e+06	
4	2.000000e-01	1.030592e+07	
5	2.500000e-01	1.680181e+07	
6	3.000000e-01	2.214942e+07	
7	3.500000e-01	2.661264e+07	
8	4.000000e-01	3.043290e+07	
9	4.500000e-01	3.376333e+07	
10	5.000000e-01	3.670457e+07	
11	5.500000e-01	3.932726e+07	
12	6.000000e-01	4.168372e+07	
13	6.500000e-01	4.381421e+07	
14	7.000000e-01	4.575064e+07	
15	7.500000e-01	4.751881e+07	
16	8.000000e-01	4.913995e+07	
17	8.500000e-01	5.063173e+07	
18	9.000000e-01	5.200903e+07	
19	9.500000e-01	5.328447e+07	
20	1.000000e+00	5.446888e+07	
21	1.050000e+00	5.557158e+07	
22	1.100000e+00	5.660064e+07	
23	1.150000e+00	5.756311e+07	
24	1.200000e+00	5.846516e+07	
25	1.250000e+00	5.931221e+07	
26	1.300000e+00	6.010907e+07	
27	1.350000e+00	6.085998e+07	
28	1.400000e+00	6.156874e+07	
29	1.450000e+00	6.223872e+07	
30	1.500000e+00	6.287296e+07	
31	1.550000e+00	6.347416e+07	
32	1.600000e+00	6.404476e+07	
33	1.650000e+00	6.458695e+07	
34	1.700000e+00	6.510267e+07	
35	1.750000e+00	6.559366e+07	
36	1.800000e+00	6.606142e+07	
37	1.850000e+00	6.650726e+07	
38	1.900000e+00	6.693223e+07	
39	1.950000e+00	6.733715e+07	
40	2.000000e+00	6.772257e+07	
41	2.050000e+00	6.808870e+07	
42	2.100000e+00	6.843545e+07	
43	2.150000e+00	6.876230e+07	
44	2.200000e+00	6.906830e+07	
45	2.250000e+00	6.935202e+07	
46	2.300000e+00	6.961145e+07	
47	2.350000e+00	6.984402e+07	
48	2.400000e+00	7.004646e+07	
49	2.450000e+00	7.021487e+07	
50	2.500000e+00	7.034459e+07	
51	2.550000e+00	7.043028e+07	
52	2.600000e+00	7.046587e+07	
53	2.650000e+00	7.044461e+07	
54	2.700000e+00	7.035919e+07	

Index   v-sweep         rds             
--------------------------------------------------------------------------------
55	2.750000e+00	7.020180e+07	
56	2.800000e+00	6.996429e+07	
57	2.850000e+00	6.963839e+07	
58	2.900000e+00	6.921593e+07	
59	2.950000e+00	6.868912e+07	
60	3.000000e+00	6.805084e+07	
61	3.050000e+00	6.729501e+07	
62	3.100000e+00	6.641689e+07	
63	3.150000e+00	6.541340e+07	
64	3.200000e+00	6.428341e+07	
65	3.250000e+00	6.302794e+07	
66	3.300000e+00	6.165035e+07	
Reset re-loads circuit ***************************

Circuit: ***************************

Doing analysis at TEMP = -40.000000 and TNOM = -40.000000


No. of Data Rows : 67
                          ***************************
                          DC transfer characteristic  Mon Jan  9 13:58:14  2023
--------------------------------------------------------------------------------
Index   v-sweep         rds             
--------------------------------------------------------------------------------
0	0.000000e+00	3.732556e+04	
1	5.000000e-02	4.204455e+04	
2	1.000000e-01	4.789354e+04	
3	1.500000e-01	5.533059e+04	
4	2.000000e-01	6.509877e+04	
5	2.500000e-01	7.848575e+04	
6	3.000000e-01	9.792089e+04	
7	3.500000e-01	1.285104e+05	
8	4.000000e-01	1.823393e+05	
9	4.500000e-01	2.886995e+05	
10	5.000000e-01	4.942572e+05	
11	5.500000e-01	8.059093e+05	
12	6.000000e-01	1.175440e+06	
13	6.500000e-01	1.562369e+06	
14	7.000000e-01	1.948135e+06	
15	7.500000e-01	2.325391e+06	
16	8.000000e-01	2.691338e+06	
17	8.500000e-01	3.045033e+06	
18	9.000000e-01	3.386336e+06	
19	9.500000e-01	3.715469e+06	
20	1.000000e+00	4.032820e+06	
21	1.050000e+00	4.338849e+06	
22	1.100000e+00	4.634046e+06	
23	1.150000e+00	4.918898e+06	
24	1.200000e+00	5.193887e+06	
25	1.250000e+00	5.459474e+06	
26	1.300000e+00	5.716100e+06	
27	1.350000e+00	5.964187e+06	
28	1.400000e+00	6.204131e+06	
29	1.450000e+00	6.436311e+06	
30	1.500000e+00	6.661082e+06	
31	1.550000e+00	6.878781e+06	
32	1.600000e+00	7.089725e+06	
33	1.650000e+00	7.294214e+06	
34	1.700000e+00	7.492531e+06	
35	1.750000e+00	7.684944e+06	
36	1.800000e+00	7.871703e+06	
37	1.850000e+00	8.053047e+06	
38	1.900000e+00	8.229198e+06	
39	1.950000e+00	8.400362e+06	
40	2.000000e+00	8.566731e+06	
41	2.050000e+00	8.728474e+06	
42	2.100000e+00	8.885739e+06	
43	2.150000e+00	9.038644e+06	
44	2.200000e+00	9.187268e+06	
45	2.250000e+00	9.331645e+06	
46	2.300000e+00	9.471743e+06	
47	2.350000e+00	9.607456e+06	
48	2.400000e+00	9.738580e+06	
49	2.450000e+00	9.864790e+06	
50	2.500000e+00	9.985618e+06	
51	2.550000e+00	1.010043e+07	
52	2.600000e+00	1.020838e+07	
53	2.650000e+00	1.030841e+07	
54	2.700000e+00	1.039922e+07	

Index   v-sweep         rds             
--------------------------------------------------------------------------------
55	2.750000e+00	1.047922e+07	
56	2.800000e+00	1.054657e+07	
57	2.850000e+00	1.059914e+07	
58	2.900000e+00	1.063456e+07	
59	2.950000e+00	1.065023e+07	
60	3.000000e+00	1.064343e+07	
61	3.050000e+00	1.061136e+07	
62	3.100000e+00	1.055133e+07	
63	3.150000e+00	1.046083e+07	
64	3.200000e+00	1.033777e+07	
65	3.250000e+00	1.018061e+07	
66	3.300000e+00	9.988526e+06	
Reset re-loads circuit ***************************

Circuit: ***************************

Doing analysis at TEMP = -40.000000 and TNOM = -40.000000


No. of Data Rows : 67
                          ***************************
                          DC transfer characteristic  Mon Jan  9 13:58:14  2023
--------------------------------------------------------------------------------
Index   v-sweep         rds             
--------------------------------------------------------------------------------
0	0.000000e+00	2.207052e+04	
1	5.000000e-02	2.372105e+04	
2	1.000000e-01	2.557496e+04	
3	1.500000e-01	2.767187e+04	
4	2.000000e-01	3.006237e+04	
5	2.500000e-01	3.281222e+04	
6	3.000000e-01	3.600847e+04	
7	3.500000e-01	3.976887e+04	
8	4.000000e-01	4.425691e+04	
9	4.500000e-01	4.970673e+04	
10	5.000000e-01	5.646685e+04	
11	5.500000e-01	6.508224e+04	
12	6.000000e-01	7.646209e+04	
13	6.500000e-01	9.225565e+04	
14	7.000000e-01	1.157367e+05	
15	7.500000e-01	1.535253e+05	
16	8.000000e-01	2.160694e+05	
17	8.500000e-01	3.103745e+05	
18	9.000000e-01	4.319353e+05	
19	9.500000e-01	5.705379e+05	
20	1.000000e+00	7.178930e+05	
21	1.050000e+00	8.689432e+05	
22	1.100000e+00	1.020828e+06	
23	1.150000e+00	1.171934e+06	
24	1.200000e+00	1.321339e+06	
25	1.250000e+00	1.468511e+06	
26	1.300000e+00	1.613142e+06	
27	1.350000e+00	1.755063e+06	
28	1.400000e+00	1.894189e+06	
29	1.450000e+00	2.030488e+06	
30	1.500000e+00	2.163965e+06	
31	1.550000e+00	2.294644e+06	
32	1.600000e+00	2.422568e+06	
33	1.650000e+00	2.547786e+06	
34	1.700000e+00	2.670358e+06	
35	1.750000e+00	2.790343e+06	
36	1.800000e+00	2.907805e+06	
37	1.850000e+00	3.022808e+06	
38	1.900000e+00	3.135417e+06	
39	1.950000e+00	3.245696e+06	
40	2.000000e+00	3.353708e+06	
41	2.050000e+00	3.459514e+06	
42	2.100000e+00	3.563175e+06	
43	2.150000e+00	3.664748e+06	
44	2.200000e+00	3.764291e+06	
45	2.250000e+00	3.861855e+06	
46	2.300000e+00	3.957488e+06	
47	2.350000e+00	4.051230e+06	
48	2.400000e+00	4.143113e+06	
49	2.450000e+00	4.233154e+06	
50	2.500000e+00	4.321353e+06	
51	2.550000e+00	4.407682e+06	
52	2.600000e+00	4.492078e+06	
53	2.650000e+00	4.574432e+06	
54	2.700000e+00	4.654575e+06	

Index   v-sweep         rds             
--------------------------------------------------------------------------------
55	2.750000e+00	4.732261e+06	
56	2.800000e+00	4.807151e+06	
57	2.850000e+00	4.878795e+06	
58	2.900000e+00	4.946608e+06	
59	2.950000e+00	5.009853e+06	
60	3.000000e+00	5.067622e+06	
61	3.050000e+00	5.118826e+06	
62	3.100000e+00	5.162186e+06	
63	3.150000e+00	5.196241e+06	
64	3.200000e+00	5.219363e+06	
65	3.250000e+00	5.229803e+06	
66	3.300000e+00	5.225744e+06	
Reset re-loads circuit ***************************

Circuit: ***************************

Doing analysis at TEMP = -40.000000 and TNOM = -40.000000


No. of Data Rows : 67
                          ***************************
                          DC transfer characteristic  Mon Jan  9 13:58:14  2023
--------------------------------------------------------------------------------
Index   v-sweep         rds             
--------------------------------------------------------------------------------
0	0.000000e+00	1.630988e+04	
1	5.000000e-02	1.719122e+04	
2	1.000000e-01	1.814445e+04	
3	1.500000e-01	1.917856e+04	
4	2.000000e-01	2.030411e+04	
5	2.500000e-01	2.153357e+04	
6	3.000000e-01	2.288179e+04	
7	3.500000e-01	2.436665e+04	
8	4.000000e-01	2.600979e+04	
9	4.500000e-01	2.783775e+04	
10	5.000000e-01	2.988341e+04	
11	5.500000e-01	3.218807e+04	
12	6.000000e-01	3.480446e+04	
13	6.500000e-01	3.780114e+04	
14	7.000000e-01	4.126942e+04	
15	7.500000e-01	4.533472e+04	
16	8.000000e-01	5.017644e+04	
17	8.500000e-01	5.606624e+04	
18	9.000000e-01	6.344844e+04	
19	9.500000e-01	7.312144e+04	
20	1.000000e+00	8.663991e+04	
21	1.050000e+00	1.069894e+05	
22	1.100000e+00	1.387131e+05	
23	1.150000e+00	1.855393e+05	
24	1.200000e+00	2.471687e+05	
25	1.250000e+00	3.200432e+05	
26	1.300000e+00	4.002148e+05	
27	1.350000e+00	4.847052e+05	
28	1.400000e+00	5.715467e+05	
29	1.450000e+00	6.594857e+05	
30	1.500000e+00	7.477228e+05	
31	1.550000e+00	8.357414e+05	
32	1.600000e+00	9.232028e+05	
33	1.650000e+00	1.009882e+06	
34	1.700000e+00	1.095628e+06	
35	1.750000e+00	1.180342e+06	
36	1.800000e+00	1.263957e+06	
37	1.850000e+00	1.346432e+06	
38	1.900000e+00	1.427741e+06	
39	1.950000e+00	1.507872e+06	
40	2.000000e+00	1.586821e+06	
41	2.050000e+00	1.664591e+06	
42	2.100000e+00	1.741189e+06	
43	2.150000e+00	1.816626e+06	
44	2.200000e+00	1.890916e+06	
45	2.250000e+00	1.964074e+06	
46	2.300000e+00	2.036118e+06	
47	2.350000e+00	2.107064e+06	
48	2.400000e+00	2.176932e+06	
49	2.450000e+00	2.245739e+06	
50	2.500000e+00	2.313504e+06	
51	2.550000e+00	2.380243e+06	
52	2.600000e+00	2.445972e+06	
53	2.650000e+00	2.510700e+06	
54	2.700000e+00	2.574434e+06	

Index   v-sweep         rds             
--------------------------------------------------------------------------------
55	2.750000e+00	2.637168e+06	
56	2.800000e+00	2.698888e+06	
57	2.850000e+00	2.759556e+06	
58	2.900000e+00	2.819113e+06	
59	2.950000e+00	2.877463e+06	
60	3.000000e+00	2.934466e+06	
61	3.050000e+00	2.989925e+06	
62	3.100000e+00	3.043571e+06	
63	3.150000e+00	3.095049e+06	
64	3.200000e+00	3.143899e+06	
65	3.250000e+00	3.189544e+06	
66	3.300000e+00	3.231273e+06	
Reset re-loads circuit ***************************

Circuit: ***************************

Doing analysis at TEMP = -40.000000 and TNOM = -40.000000


No. of Data Rows : 67
                          ***************************
                          DC transfer characteristic  Mon Jan  9 13:58:14  2023
--------------------------------------------------------------------------------
Index   v-sweep         rds             
--------------------------------------------------------------------------------
0	0.000000e+00	1.380224e+04	
1	5.000000e-02	1.440069e+04	
2	1.000000e-01	1.503624e+04	
3	1.500000e-01	1.571234e+04	
4	2.000000e-01	1.643288e+04	
5	2.500000e-01	1.720229e+04	
6	3.000000e-01	1.802560e+04	
7	3.500000e-01	1.890856e+04	
8	4.000000e-01	1.985776e+04	
9	4.500000e-01	2.088083e+04	
10	5.000000e-01	2.198661e+04	
11	5.500000e-01	2.318544e+04	
12	6.000000e-01	2.448948e+04	
13	6.500000e-01	2.591313e+04	
14	7.000000e-01	2.747362e+04	
15	7.500000e-01	2.919176e+04	
16	8.000000e-01	3.109302e+04	
17	8.500000e-01	3.320895e+04	
18	9.000000e-01	3.557951e+04	
19	9.500000e-01	3.825638e+04	
20	1.000000e+00	4.130881e+04	
21	1.050000e+00	4.483366e+04	
22	1.100000e+00	4.897509e+04	
23	1.150000e+00	5.396490e+04	
24	1.200000e+00	6.021004e+04	
25	1.250000e+00	6.847715e+04	
26	1.300000e+00	8.021523e+04	
27	1.350000e+00	9.781310e+04	
28	1.400000e+00	1.240096e+05	
29	1.450000e+00	1.601789e+05	
30	1.500000e+00	2.054215e+05	
31	1.550000e+00	2.575604e+05	
32	1.600000e+00	3.144110e+05	
33	1.650000e+00	3.742898e+05	
34	1.700000e+00	4.360223e+05	
35	1.750000e+00	4.988140e+05	
36	1.800000e+00	5.621283e+05	
37	1.850000e+00	6.255991e+05	
38	1.900000e+00	6.889733e+05	
39	1.950000e+00	7.520737e+05	
40	2.000000e+00	8.147747e+05	
41	2.050000e+00	8.769866e+05	
42	2.100000e+00	9.386454e+05	
43	2.150000e+00	9.997053e+05	
44	2.200000e+00	1.060134e+06	
45	2.250000e+00	1.119909e+06	
46	2.300000e+00	1.179015e+06	
47	2.350000e+00	1.237442e+06	
48	2.400000e+00	1.295187e+06	
49	2.450000e+00	1.352246e+06	
50	2.500000e+00	1.408621e+06	
51	2.550000e+00	1.464314e+06	
52	2.600000e+00	1.519330e+06	
53	2.650000e+00	1.573674e+06	
54	2.700000e+00	1.627352e+06	

Index   v-sweep         rds             
--------------------------------------------------------------------------------
55	2.750000e+00	1.680371e+06	
56	2.800000e+00	1.732736e+06	
57	2.850000e+00	1.784454e+06	
58	2.900000e+00	1.835527e+06	
59	2.950000e+00	1.885956e+06	
60	3.000000e+00	1.935734e+06	
61	3.050000e+00	1.984848e+06	
62	3.100000e+00	2.033270e+06	
63	3.150000e+00	2.080955e+06	
64	3.200000e+00	2.127834e+06	
65	3.250000e+00	2.173803e+06	
66	3.300000e+00	2.218718e+06	
Reset re-loads circuit ***************************

Circuit: ***************************

Doing analysis at TEMP = -40.000000 and TNOM = -40.000000


No. of Data Rows : 67
                          ***************************
                          DC transfer characteristic  Mon Jan  9 13:58:14  2023
--------------------------------------------------------------------------------
Index   v-sweep         rds             
--------------------------------------------------------------------------------
0	0.000000e+00	1.243277e+04	
1	5.000000e-02	1.288421e+04	
2	1.000000e-01	1.335820e+04	
3	1.500000e-01	1.385639e+04	
4	2.000000e-01	1.438063e+04	
5	2.500000e-01	1.493295e+04	
6	3.000000e-01	1.551560e+04	
7	3.500000e-01	1.613106e+04	
8	4.000000e-01	1.678213e+04	
9	4.500000e-01	1.747190e+04	
10	5.000000e-01	1.820385e+04	
11	5.500000e-01	1.898190e+04	
12	6.000000e-01	1.981047e+04	
13	6.500000e-01	2.069456e+04	
14	7.000000e-01	2.163988e+04	
15	7.500000e-01	2.265295e+04	
16	8.000000e-01	2.374128e+04	
17	8.500000e-01	2.491356e+04	
18	9.000000e-01	2.617992e+04	
19	9.500000e-01	2.755229e+04	
20	1.000000e+00	2.904480e+04	
21	1.050000e+00	3.067446e+04	
22	1.100000e+00	3.246203e+04	
23	1.150000e+00	3.443336e+04	
24	1.200000e+00	3.662152e+04	
25	1.250000e+00	3.907038e+04	
26	1.300000e+00	4.184095e+04	
27	1.350000e+00	4.502355e+04	
28	1.400000e+00	4.876203e+04	
29	1.450000e+00	5.330356e+04	
30	1.500000e+00	5.909856e+04	
31	1.550000e+00	6.697495e+04	
32	1.600000e+00	7.832839e+04	
33	1.650000e+00	9.501222e+04	
34	1.700000e+00	1.185498e+05	
35	1.750000e+00	1.491999e+05	
36	1.800000e+00	1.859681e+05	
37	1.850000e+00	2.273673e+05	
38	1.900000e+00	2.720207e+05	
39	1.950000e+00	3.188639e+05	
40	2.000000e+00	3.671321e+05	
41	2.050000e+00	4.162881e+05	
42	2.100000e+00	4.659556e+05	
43	2.150000e+00	5.158685e+05	
44	2.200000e+00	5.658367e+05	
45	2.250000e+00	6.157227e+05	
46	2.300000e+00	6.654258e+05	
47	2.350000e+00	7.148717e+05	
48	2.400000e+00	7.640052e+05	
49	2.450000e+00	8.127850e+05	
50	2.500000e+00	8.611804e+05	
51	2.550000e+00	9.091686e+05	
52	2.600000e+00	9.567326e+05	
53	2.650000e+00	1.003860e+06	
54	2.700000e+00	1.050543e+06	

Index   v-sweep         rds             
--------------------------------------------------------------------------------
55	2.750000e+00	1.096775e+06	
56	2.800000e+00	1.142552e+06	
57	2.850000e+00	1.187874e+06	
58	2.900000e+00	1.232739e+06	
59	2.950000e+00	1.277147e+06	
60	3.000000e+00	1.321102e+06	
61	3.050000e+00	1.364603e+06	
62	3.100000e+00	1.407652e+06	
63	3.150000e+00	1.450250e+06	
64	3.200000e+00	1.492393e+06	
65	3.250000e+00	1.534078e+06	
66	3.300000e+00	1.575291e+06	
Reset re-loads circuit ***************************

Circuit: ***************************

Note: No ".plot", ".print", or ".fourier" lines; no simulations run
