
Note: Compatibility modes selected: hs

Warning: m=xx on .subckt line will override multiplier m hierarchy!


Circuit: ***************************

Doing analysis at TEMP = 25.000000 and TNOM = 25.000000


No. of Data Rows : 67
                          ***************************
                          DC transfer characteristic  Mon Jan  9 13:58:13  2023
--------------------------------------------------------------------------------
Index   v-sweep         rds             
--------------------------------------------------------------------------------
0	0.000000e+00	6.144444e+03	
1	5.000000e-02	9.816887e+03	
2	1.000000e-01	2.030741e+04	
3	1.500000e-01	5.940381e+04	
4	2.000000e-01	1.573580e+05	
5	2.500000e-01	2.830263e+05	
6	3.000000e-01	3.968745e+05	
7	3.500000e-01	4.902688e+05	
8	4.000000e-01	5.659780e+05	
9	4.500000e-01	6.280204e+05	
10	5.000000e-01	6.796285e+05	
11	5.500000e-01	7.231717e+05	
12	6.000000e-01	7.603712e+05	
13	6.500000e-01	7.924938e+05	
14	7.000000e-01	8.204895e+05	
15	7.500000e-01	8.450836e+05	
16	8.000000e-01	8.668401e+05	
17	8.500000e-01	8.862038e+05	
18	9.000000e-01	9.035309e+05	
19	9.500000e-01	9.191099e+05	
20	1.000000e+00	9.331771e+05	
21	1.050000e+00	9.459281e+05	
22	1.100000e+00	9.575261e+05	
23	1.150000e+00	9.681083e+05	
24	1.200000e+00	9.777911e+05	
25	1.250000e+00	9.866740e+05	
26	1.300000e+00	9.948421e+05	
27	1.350000e+00	1.002369e+06	
28	1.400000e+00	1.009319e+06	
29	1.450000e+00	1.015747e+06	
30	1.500000e+00	1.021703e+06	
31	1.550000e+00	1.027229e+06	
32	1.600000e+00	1.032362e+06	
33	1.650000e+00	1.037136e+06	
34	1.700000e+00	1.041580e+06	
35	1.750000e+00	1.045719e+06	
36	1.800000e+00	1.049575e+06	
37	1.850000e+00	1.053165e+06	
38	1.900000e+00	1.056505e+06	
39	1.950000e+00	1.059603e+06	
40	2.000000e+00	1.062465e+06	
41	2.050000e+00	1.065093e+06	
42	2.100000e+00	1.067483e+06	
43	2.150000e+00	1.069622e+06	
44	2.200000e+00	1.071493e+06	
45	2.250000e+00	1.073070e+06	
46	2.300000e+00	1.074319e+06	
47	2.350000e+00	1.075196e+06	
48	2.400000e+00	1.075645e+06	
49	2.450000e+00	1.075603e+06	
50	2.500000e+00	1.074992e+06	
51	2.550000e+00	1.073725e+06	
52	2.600000e+00	1.071704e+06	
53	2.650000e+00	1.068820e+06	
54	2.700000e+00	1.064956e+06	

Index   v-sweep         rds             
--------------------------------------------------------------------------------
55	2.750000e+00	1.059988e+06	
56	2.800000e+00	1.053787e+06	
57	2.850000e+00	1.046227e+06	
58	2.900000e+00	1.037180e+06	
59	2.950000e+00	1.026531e+06	
60	3.000000e+00	1.014175e+06	
61	3.050000e+00	1.000028e+06	
62	3.100000e+00	9.840286e+05	
63	3.150000e+00	9.661451e+05	
64	3.200000e+00	9.463787e+05	
65	3.250000e+00	9.247670e+05	
66	3.300000e+00	9.013853e+05	
Reset re-loads circuit ***************************

Circuit: ***************************

Doing analysis at TEMP = 25.000000 and TNOM = 25.000000


No. of Data Rows : 67
                          ***************************
                          DC transfer characteristic  Mon Jan  9 13:58:13  2023
--------------------------------------------------------------------------------
Index   v-sweep         rds             
--------------------------------------------------------------------------------
0	0.000000e+00	1.210989e+03	
1	5.000000e-02	1.364332e+03	
2	1.000000e-01	1.551839e+03	
3	1.500000e-01	1.786210e+03	
4	2.000000e-01	2.087310e+03	
5	2.500000e-01	2.487998e+03	
6	3.000000e-01	3.046479e+03	
7	3.500000e-01	3.874350e+03	
8	4.000000e-01	5.200719e+03	
9	4.500000e-01	7.485699e+03	
10	5.000000e-01	1.142406e+04	
11	5.500000e-01	1.744838e+04	
12	6.000000e-01	2.521974e+04	
13	6.500000e-01	3.399067e+04	
14	7.000000e-01	4.312690e+04	
15	7.500000e-01	5.223403e+04	
16	8.000000e-01	6.109754e+04	
17	8.500000e-01	6.961083e+04	
18	9.000000e-01	7.772784e+04	
19	9.500000e-01	8.543570e+04	
20	1.000000e+00	9.273951e+04	
21	1.050000e+00	9.965382e+04	
22	1.100000e+00	1.061978e+05	
23	1.150000e+00	1.123927e+05	
24	1.200000e+00	1.182601e+05	
25	1.250000e+00	1.238211e+05	
26	1.300000e+00	1.290960e+05	
27	1.350000e+00	1.341037e+05	
28	1.400000e+00	1.388623e+05	
29	1.450000e+00	1.433882e+05	
30	1.500000e+00	1.476969e+05	
31	1.550000e+00	1.518026e+05	
32	1.600000e+00	1.557183e+05	
33	1.650000e+00	1.594563e+05	
34	1.700000e+00	1.630276e+05	
35	1.750000e+00	1.664427e+05	
36	1.800000e+00	1.697109e+05	
37	1.850000e+00	1.728411e+05	
38	1.900000e+00	1.758413e+05	
39	1.950000e+00	1.787189e+05	
40	2.000000e+00	1.814805e+05	
41	2.050000e+00	1.841322e+05	
42	2.100000e+00	1.866791e+05	
43	2.150000e+00	1.891253e+05	
44	2.200000e+00	1.914740e+05	
45	2.250000e+00	1.937270e+05	
46	2.300000e+00	1.958845e+05	
47	2.350000e+00	1.979445e+05	
48	2.400000e+00	1.999028e+05	
49	2.450000e+00	2.017521e+05	
50	2.500000e+00	2.034816e+05	
51	2.550000e+00	2.050765e+05	
52	2.600000e+00	2.065173e+05	
53	2.650000e+00	2.077792e+05	
54	2.700000e+00	2.088321e+05	

Index   v-sweep         rds             
--------------------------------------------------------------------------------
55	2.750000e+00	2.096397e+05	
56	2.800000e+00	2.101601e+05	
57	2.850000e+00	2.103458e+05	
58	2.900000e+00	2.101446e+05	
59	2.950000e+00	2.095010e+05	
60	3.000000e+00	2.083585e+05	
61	3.050000e+00	2.066614e+05	
62	3.100000e+00	2.043591e+05	
63	3.150000e+00	2.014089e+05	
64	3.200000e+00	1.977804e+05	
65	3.250000e+00	1.934588e+05	
66	3.300000e+00	1.884482e+05	
Reset re-loads circuit ***************************

Circuit: ***************************

Doing analysis at TEMP = 25.000000 and TNOM = 25.000000


No. of Data Rows : 67
                          ***************************
                          DC transfer characteristic  Mon Jan  9 13:58:13  2023
--------------------------------------------------------------------------------
Index   v-sweep         rds             
--------------------------------------------------------------------------------
0	0.000000e+00	7.478539e+02	
1	5.000000e-02	8.055847e+02	
2	1.000000e-01	8.701862e+02	
3	1.500000e-01	9.429357e+02	
4	2.000000e-01	1.025452e+03	
5	2.500000e-01	1.119818e+03	
6	3.000000e-01	1.228770e+03	
7	3.500000e-01	1.355972e+03	
8	4.000000e-01	1.506479e+03	
9	4.500000e-01	1.687494e+03	
10	5.000000e-01	1.909726e+03	
11	5.500000e-01	2.189978e+03	
12	6.000000e-01	2.556322e+03	
13	6.500000e-01	3.058634e+03	
14	7.000000e-01	3.787585e+03	
15	7.500000e-01	4.894370e+03	
16	8.000000e-01	6.567224e+03	
17	8.500000e-01	8.925081e+03	
18	9.000000e-01	1.192871e+04	
19	9.500000e-01	1.542377e+04	
20	1.000000e+00	1.923587e+04	
21	1.050000e+00	2.322205e+04	
22	1.100000e+00	2.727981e+04	
23	1.150000e+00	3.133986e+04	
24	1.200000e+00	3.535676e+04	
25	1.250000e+00	3.930129e+04	
26	1.300000e+00	4.315518e+04	
27	1.350000e+00	4.690748e+04	
28	1.400000e+00	5.055217e+04	
29	1.450000e+00	5.408655e+04	
30	1.500000e+00	5.751017e+04	
31	1.550000e+00	6.082411e+04	
32	1.600000e+00	6.403043e+04	
33	1.650000e+00	6.713188e+04	
34	1.700000e+00	7.013160e+04	
35	1.750000e+00	7.303298e+04	
36	1.800000e+00	7.583956e+04	
37	1.850000e+00	7.855490e+04	
38	1.900000e+00	8.118254e+04	
39	1.950000e+00	8.372596e+04	
40	2.000000e+00	8.618858e+04	
41	2.050000e+00	8.857367e+04	
42	2.100000e+00	9.088440e+04	
43	2.150000e+00	9.312379e+04	
44	2.200000e+00	9.529468e+04	
45	2.250000e+00	9.739975e+04	
46	2.300000e+00	9.944139e+04	
47	2.350000e+00	1.014217e+05	
48	2.400000e+00	1.033424e+05	
49	2.450000e+00	1.052045e+05	
50	2.500000e+00	1.070086e+05	
51	2.550000e+00	1.087539e+05	
52	2.600000e+00	1.104386e+05	
53	2.650000e+00	1.120591e+05	
54	2.700000e+00	1.136099e+05	

Index   v-sweep         rds             
--------------------------------------------------------------------------------
55	2.750000e+00	1.150828e+05	
56	2.800000e+00	1.164665e+05	
57	2.850000e+00	1.177461e+05	
58	2.900000e+00	1.189027e+05	
59	2.950000e+00	1.199125e+05	
60	3.000000e+00	1.207470e+05	
61	3.050000e+00	1.213727e+05	
62	3.100000e+00	1.217513e+05	
63	3.150000e+00	1.218408e+05	
64	3.200000e+00	1.215963e+05	
65	3.250000e+00	1.209725e+05	
66	3.300000e+00	1.199257e+05	
Reset re-loads circuit ***************************

Circuit: ***************************

Doing analysis at TEMP = 25.000000 and TNOM = 25.000000


No. of Data Rows : 67
                          ***************************
                          DC transfer characteristic  Mon Jan  9 13:58:13  2023
--------------------------------------------------------------------------------
Index   v-sweep         rds             
--------------------------------------------------------------------------------
0	0.000000e+00	5.831461e+02	
1	5.000000e-02	6.164279e+02	
2	1.000000e-01	6.524439e+02	
3	1.500000e-01	6.915340e+02	
4	2.000000e-01	7.340976e+02	
5	2.500000e-01	7.806077e+02	
6	3.000000e-01	8.316288e+02	
7	3.500000e-01	8.878410e+02	
8	4.000000e-01	9.500724e+02	
9	4.500000e-01	1.019344e+03	
10	5.000000e-01	1.096932e+03	
11	5.500000e-01	1.184463e+03	
12	6.000000e-01	1.284055e+03	
13	6.500000e-01	1.398541e+03	
14	7.000000e-01	1.531856e+03	
15	7.500000e-01	1.689706e+03	
16	8.000000e-01	1.880837e+03	
17	8.500000e-01	2.119465e+03	
18	9.000000e-01	2.429873e+03	
19	9.500000e-01	2.854023e+03	
20	1.000000e+00	3.459606e+03	
21	1.050000e+00	4.335900e+03	
22	1.100000e+00	5.561562e+03	
23	1.150000e+00	7.161264e+03	
24	1.200000e+00	9.096502e+03	
25	1.250000e+00	1.129400e+04	
26	1.300000e+00	1.367666e+04	
27	1.350000e+00	1.617902e+04	
28	1.400000e+00	1.875068e+04	
29	1.450000e+00	2.135453e+04	
30	1.500000e+00	2.396386e+04	
31	1.550000e+00	2.655963e+04	
32	1.600000e+00	2.912839e+04	
33	1.650000e+00	3.166070e+04	
34	1.700000e+00	3.415007e+04	
35	1.750000e+00	3.659210e+04	
36	1.800000e+00	3.898397e+04	
37	1.850000e+00	4.132396e+04	
38	1.900000e+00	4.361122e+04	
39	1.950000e+00	4.584548e+04	
40	2.000000e+00	4.802697e+04	
41	2.050000e+00	5.015620e+04	
42	2.100000e+00	5.223398e+04	
43	2.150000e+00	5.426126e+04	
44	2.200000e+00	5.623912e+04	
45	2.250000e+00	5.816873e+04	
46	2.300000e+00	6.005131e+04	
47	2.350000e+00	6.188811e+04	
48	2.400000e+00	6.368036e+04	
49	2.450000e+00	6.542929e+04	
50	2.500000e+00	6.713606e+04	
51	2.550000e+00	6.880174e+04	
52	2.600000e+00	7.042720e+04	
53	2.650000e+00	7.201312e+04	
54	2.700000e+00	7.355976e+04	

Index   v-sweep         rds             
--------------------------------------------------------------------------------
55	2.750000e+00	7.506690e+04	
56	2.800000e+00	7.653355e+04	
57	2.850000e+00	7.795776e+04	
58	2.900000e+00	7.933626e+04	
59	2.950000e+00	8.066409e+04	
60	3.000000e+00	8.193413e+04	
61	3.050000e+00	8.313668e+04	
62	3.100000e+00	8.425888e+04	
63	3.150000e+00	8.528426e+04	
64	3.200000e+00	8.619227e+04	
65	3.250000e+00	8.695797e+04	
66	3.300000e+00	8.755202e+04	
Reset re-loads circuit ***************************

Circuit: ***************************

Doing analysis at TEMP = 25.000000 and TNOM = 25.000000


No. of Data Rows : 67
                          ***************************
                          DC transfer characteristic  Mon Jan  9 13:58:13  2023
--------------------------------------------------------------------------------
Index   v-sweep         rds             
--------------------------------------------------------------------------------
0	0.000000e+00	5.053472e+02	
1	5.000000e-02	5.284810e+02	
2	1.000000e-01	5.530797e+02	
3	1.500000e-01	5.792809e+02	
4	2.000000e-01	6.072402e+02	
5	2.500000e-01	6.371344e+02	
6	3.000000e-01	6.691652e+02	
7	3.500000e-01	7.035639e+02	
8	4.000000e-01	7.405974e+02	
9	4.500000e-01	7.805752e+02	
10	5.000000e-01	8.238589e+02	
11	5.500000e-01	8.708745e+02	
12	6.000000e-01	9.221286e+02	
13	6.500000e-01	9.782300e+02	
14	7.000000e-01	1.039920e+03	
15	7.500000e-01	1.108118e+03	
16	8.000000e-01	1.183984e+03	
17	8.500000e-01	1.269025e+03	
18	9.000000e-01	1.365259e+03	
19	9.500000e-01	1.475503e+03	
20	1.000000e+00	1.603878e+03	
21	1.050000e+00	1.756738e+03	
22	1.100000e+00	1.944359e+03	
23	1.150000e+00	2.183863e+03	
24	1.200000e+00	2.503486e+03	
25	1.250000e+00	2.946222e+03	
26	1.300000e+00	3.566606e+03	
27	1.350000e+00	4.414261e+03	
28	1.400000e+00	5.511632e+03	
29	1.450000e+00	6.845679e+03	
30	1.500000e+00	8.378801e+03	
31	1.550000e+00	1.006534e+04	
32	1.600000e+00	1.186255e+04	
33	1.650000e+00	1.373491e+04	
34	1.700000e+00	1.565459e+04	
35	1.750000e+00	1.760040e+04	
36	1.800000e+00	1.955641e+04	
37	1.850000e+00	2.151074e+04	
38	1.900000e+00	2.345455e+04	
39	1.950000e+00	2.538129e+04	
40	2.000000e+00	2.728614e+04	
41	2.050000e+00	2.916557e+04	
42	2.100000e+00	3.101702e+04	
43	2.150000e+00	3.283871e+04	
44	2.200000e+00	3.462942e+04	
45	2.250000e+00	3.638837e+04	
46	2.300000e+00	3.811513e+04	
47	2.350000e+00	3.980953e+04	
48	2.400000e+00	4.147161e+04	
49	2.450000e+00	4.310155e+04	
50	2.500000e+00	4.469967e+04	
51	2.550000e+00	4.626639e+04	
52	2.600000e+00	4.780215e+04	
53	2.650000e+00	4.930748e+04	
54	2.700000e+00	5.078291e+04	

Index   v-sweep         rds             
--------------------------------------------------------------------------------
55	2.750000e+00	5.222894e+04	
56	2.800000e+00	5.364603e+04	
57	2.850000e+00	5.503454e+04	
58	2.900000e+00	5.639463e+04	
59	2.950000e+00	5.772616e+04	
60	3.000000e+00	5.902857e+04	
61	3.050000e+00	6.030067e+04	
62	3.100000e+00	6.154041e+04	
63	3.150000e+00	6.274456e+04	
64	3.200000e+00	6.390840e+04	
65	3.250000e+00	6.502527e+04	
66	3.300000e+00	6.608612e+04	
Reset re-loads circuit ***************************

Circuit: ***************************

Doing analysis at TEMP = 25.000000 and TNOM = 25.000000


No. of Data Rows : 67
                          ***************************
                          DC transfer characteristic  Mon Jan  9 13:58:13  2023
--------------------------------------------------------------------------------
Index   v-sweep         rds             
--------------------------------------------------------------------------------
0	0.000000e+00	4.642844e+02	
1	5.000000e-02	4.820966e+02	
2	1.000000e-01	5.008318e+02	
3	1.500000e-01	5.205601e+02	
4	2.000000e-01	5.413588e+02	
5	2.500000e-01	5.633137e+02	
6	3.000000e-01	5.865200e+02	
7	3.500000e-01	6.110841e+02	
8	4.000000e-01	6.371248e+02	
9	4.500000e-01	6.647756e+02	
10	5.000000e-01	6.941869e+02	
11	5.500000e-01	7.255292e+02	
12	6.000000e-01	7.589964e+02	
13	6.500000e-01	7.948105e+02	
14	7.000000e-01	8.332271e+02	
15	7.500000e-01	8.745428e+02	
16	8.000000e-01	9.191049e+02	
17	8.500000e-01	9.673241e+02	
18	9.000000e-01	1.019693e+03	
19	9.500000e-01	1.076810e+03	
20	1.000000e+00	1.139420e+03	
21	1.050000e+00	1.208469e+03	
22	1.100000e+00	1.285198e+03	
23	1.150000e+00	1.371293e+03	
24	1.200000e+00	1.469149e+03	
25	1.250000e+00	1.582316e+03	
26	1.300000e+00	1.716297e+03	
27	1.350000e+00	1.879907e+03	
28	1.400000e+00	2.087394e+03	
29	1.450000e+00	2.361098e+03	
30	1.500000e+00	2.732931e+03	
31	1.550000e+00	3.240968e+03	
32	1.600000e+00	3.918645e+03	
33	1.650000e+00	4.781752e+03	
34	1.700000e+00	5.823522e+03	
35	1.750000e+00	7.020496e+03	
36	1.800000e+00	8.342293e+03	
37	1.850000e+00	9.758940e+03	
38	1.900000e+00	1.124438e+04	
39	1.950000e+00	1.277737e+04	
40	2.000000e+00	1.434118e+04	
41	2.050000e+00	1.592282e+04	
42	2.100000e+00	1.751231e+04	
43	2.150000e+00	1.910198e+04	
44	2.200000e+00	2.068596e+04	
45	2.250000e+00	2.225977e+04	
46	2.300000e+00	2.381998e+04	
47	2.350000e+00	2.536400e+04	
48	2.400000e+00	2.688985e+04	
49	2.450000e+00	2.839608e+04	
50	2.500000e+00	2.988160e+04	
51	2.550000e+00	3.134567e+04	
52	2.600000e+00	3.278776e+04	
53	2.650000e+00	3.420754e+04	
54	2.700000e+00	3.560484e+04	

Index   v-sweep         rds             
--------------------------------------------------------------------------------
55	2.750000e+00	3.697962e+04	
56	2.800000e+00	3.833192e+04	
57	2.850000e+00	3.966185e+04	
58	2.900000e+00	4.096960e+04	
59	2.950000e+00	4.225536e+04	
60	3.000000e+00	4.351932e+04	
61	3.050000e+00	4.476165e+04	
62	3.100000e+00	4.598242e+04	
63	3.150000e+00	4.718153e+04	
64	3.200000e+00	4.835862e+04	
65	3.250000e+00	4.951293e+04	
66	3.300000e+00	5.064314e+04	
Reset re-loads circuit ***************************

Circuit: ***************************

Note: No ".plot", ".print", or ".fourier" lines; no simulations run
