
Note: Compatibility modes selected: hs

Warning: m=xx on .subckt line will override multiplier m hierarchy!


Circuit: ***************************

Doing analysis at TEMP = 125.000000 and TNOM = 125.000000


No. of Data Rows : 67
                          ***************************
                          DC transfer characteristic  Mon Jan  9 13:58:14  2023
--------------------------------------------------------------------------------
Index   v-sweep         rds             
--------------------------------------------------------------------------------
0	0.000000e+00	8.483073e+04	
1	5.000000e-02	1.043157e+05	
2	1.000000e-01	1.337179e+05	
3	1.500000e-01	1.825828e+05	
4	2.000000e-01	2.753995e+05	
5	2.500000e-01	4.774085e+05	
6	3.000000e-01	8.996394e+05	
7	3.500000e-01	1.525331e+06	
8	4.000000e-01	2.178218e+06	
9	4.500000e-01	2.770789e+06	
10	5.000000e-01	3.299900e+06	
11	5.500000e-01	3.778304e+06	
12	6.000000e-01	4.216530e+06	
13	6.500000e-01	4.621766e+06	
14	7.000000e-01	4.998967e+06	
15	7.500000e-01	5.351722e+06	
16	8.000000e-01	5.682776e+06	
17	8.500000e-01	5.994319e+06	
18	9.000000e-01	6.288160e+06	
19	9.500000e-01	6.565835e+06	
20	1.000000e+00	6.828669e+06	
21	1.050000e+00	7.077824e+06	
22	1.100000e+00	7.314328e+06	
23	1.150000e+00	7.539101e+06	
24	1.200000e+00	7.752968e+06	
25	1.250000e+00	7.956675e+06	
26	1.300000e+00	8.150898e+06	
27	1.350000e+00	8.336255e+06	
28	1.400000e+00	8.513308e+06	
29	1.450000e+00	8.682573e+06	
30	1.500000e+00	8.844523e+06	
31	1.550000e+00	8.999594e+06	
32	1.600000e+00	9.148187e+06	
33	1.650000e+00	9.290672e+06	
34	1.700000e+00	9.427391e+06	
35	1.750000e+00	9.558656e+06	
36	1.800000e+00	9.684757e+06	
37	1.850000e+00	9.805954e+06	
38	1.900000e+00	9.922480e+06	
39	1.950000e+00	1.003454e+07	
40	2.000000e+00	1.014230e+07	
41	2.050000e+00	1.024590e+07	
42	2.100000e+00	1.034542e+07	
43	2.150000e+00	1.044089e+07	
44	2.200000e+00	1.053227e+07	
45	2.250000e+00	1.061945e+07	
46	2.300000e+00	1.070223e+07	
47	2.350000e+00	1.078028e+07	
48	2.400000e+00	1.085318e+07	
49	2.450000e+00	1.092035e+07	
50	2.500000e+00	1.098105e+07	
51	2.550000e+00	1.103440e+07	
52	2.600000e+00	1.107932e+07	
53	2.650000e+00	1.111456e+07	
54	2.700000e+00	1.113867e+07	

Index   v-sweep         rds             
--------------------------------------------------------------------------------
55	2.750000e+00	1.115007e+07	
56	2.800000e+00	1.114699e+07	
57	2.850000e+00	1.112756e+07	
58	2.900000e+00	1.108985e+07	
59	2.950000e+00	1.103192e+07	
60	3.000000e+00	1.095188e+07	
61	3.050000e+00	1.084803e+07	
62	3.100000e+00	1.071889e+07	
63	3.150000e+00	1.056337e+07	
64	3.200000e+00	1.038079e+07	
65	3.250000e+00	1.017105e+07	
66	3.300000e+00	9.934597e+06	
Reset re-loads circuit ***************************

Circuit: ***************************

Doing analysis at TEMP = 125.000000 and TNOM = 125.000000


No. of Data Rows : 67
                          ***************************
                          DC transfer characteristic  Mon Jan  9 13:58:14  2023
--------------------------------------------------------------------------------
Index   v-sweep         rds             
--------------------------------------------------------------------------------
0	0.000000e+00	3.079694e+04	
1	5.000000e-02	3.365237e+04	
2	1.000000e-01	3.696600e+04	
3	1.500000e-01	4.085630e+04	
4	2.000000e-01	4.548611e+04	
5	2.500000e-01	5.108533e+04	
6	3.000000e-01	5.798848e+04	
7	3.500000e-01	6.669980e+04	
8	4.000000e-01	7.800948e+04	
9	4.500000e-01	9.320676e+04	
10	5.000000e-01	1.144602e+05	
11	5.500000e-01	1.453772e+05	
12	6.000000e-01	1.911971e+05	
13	6.500000e-01	2.566489e+05	
14	7.000000e-01	3.410655e+05	
15	7.500000e-01	4.378085e+05	
16	8.000000e-01	5.398295e+05	
17	8.500000e-01	6.428355e+05	
18	9.000000e-01	7.447752e+05	
19	9.500000e-01	8.447543e+05	
20	1.000000e+00	9.424037e+05	
21	1.050000e+00	1.037590e+06	
22	1.100000e+00	1.130288e+06	
23	1.150000e+00	1.220525e+06	
24	1.200000e+00	1.308356e+06	
25	1.250000e+00	1.393844e+06	
26	1.300000e+00	1.477063e+06	
27	1.350000e+00	1.558084e+06	
28	1.400000e+00	1.636981e+06	
29	1.450000e+00	1.713827e+06	
30	1.500000e+00	1.788692e+06	
31	1.550000e+00	1.861644e+06	
32	1.600000e+00	1.932749e+06	
33	1.650000e+00	2.002071e+06	
34	1.700000e+00	2.069670e+06	
35	1.750000e+00	2.135606e+06	
36	1.800000e+00	2.199934e+06	
37	1.850000e+00	2.262710e+06	
38	1.900000e+00	2.323983e+06	
39	1.950000e+00	2.383805e+06	
40	2.000000e+00	2.442223e+06	
41	2.050000e+00	2.499281e+06	
42	2.100000e+00	2.555021e+06	
43	2.150000e+00	2.609483e+06	
44	2.200000e+00	2.662700e+06	
45	2.250000e+00	2.714703e+06	
46	2.300000e+00	2.765514e+06	
47	2.350000e+00	2.815143e+06	
48	2.400000e+00	2.863591e+06	
49	2.450000e+00	2.910838e+06	
50	2.500000e+00	2.956842e+06	
51	2.550000e+00	3.001532e+06	
52	2.600000e+00	3.044800e+06	
53	2.650000e+00	3.086493e+06	
54	2.700000e+00	3.126402e+06	

Index   v-sweep         rds             
--------------------------------------------------------------------------------
55	2.750000e+00	3.164257e+06	
56	2.800000e+00	3.199709e+06	
57	2.850000e+00	3.232329e+06	
58	2.900000e+00	3.261597e+06	
59	2.950000e+00	3.286897e+06	
60	3.000000e+00	3.307515e+06	
61	3.050000e+00	3.322648e+06	
62	3.100000e+00	3.331412e+06	
63	3.150000e+00	3.332866e+06	
64	3.200000e+00	3.326041e+06	
65	3.250000e+00	3.309988e+06	
66	3.300000e+00	3.283821e+06	
Reset re-loads circuit ***************************

Circuit: ***************************

Doing analysis at TEMP = 125.000000 and TNOM = 125.000000


No. of Data Rows : 67
                          ***************************
                          DC transfer characteristic  Mon Jan  9 13:58:14  2023
--------------------------------------------------------------------------------
Index   v-sweep         rds             
--------------------------------------------------------------------------------
0	0.000000e+00	1.994569e+04	
1	5.000000e-02	2.118891e+04	
2	1.000000e-01	2.255288e+04	
3	1.500000e-01	2.405574e+04	
4	2.000000e-01	2.571948e+04	
5	2.500000e-01	2.757096e+04	
6	3.000000e-01	2.964340e+04	
7	3.500000e-01	3.197832e+04	
8	4.000000e-01	3.462834e+04	
9	4.500000e-01	3.766111e+04	
10	5.000000e-01	4.116512e+04	
11	5.500000e-01	4.525826e+04	
12	6.000000e-01	5.010112e+04	
13	6.500000e-01	5.591778e+04	
14	7.000000e-01	6.302960e+04	
15	7.500000e-01	7.191013e+04	
16	8.000000e-01	8.327103e+04	
17	8.500000e-01	9.817052e+04	
18	9.000000e-01	1.180442e+05	
19	9.500000e-01	1.443659e+05	
20	1.000000e+00	1.777742e+05	
21	1.050000e+00	2.174441e+05	
22	1.100000e+00	2.615961e+05	
23	1.150000e+00	3.084536e+05	
24	1.200000e+00	3.567069e+05	
25	1.250000e+00	4.055118e+05	
26	1.300000e+00	4.543511e+05	
27	1.350000e+00	5.029115e+05	
28	1.400000e+00	5.510025e+05	
29	1.450000e+00	5.985080e+05	
30	1.500000e+00	6.453577e+05	
31	1.550000e+00	6.915096e+05	
32	1.600000e+00	7.369407e+05	
33	1.650000e+00	7.816395e+05	
34	1.700000e+00	8.256029e+05	
35	1.750000e+00	8.688333e+05	
36	1.800000e+00	9.113367e+05	
37	1.850000e+00	9.531218e+05	
38	1.900000e+00	9.941989e+05	
39	1.950000e+00	1.034580e+06	
40	2.000000e+00	1.074277e+06	
41	2.050000e+00	1.113302e+06	
42	2.100000e+00	1.151670e+06	
43	2.150000e+00	1.189394e+06	
44	2.200000e+00	1.226486e+06	
45	2.250000e+00	1.262960e+06	
46	2.300000e+00	1.298829e+06	
47	2.350000e+00	1.334105e+06	
48	2.400000e+00	1.368800e+06	
49	2.450000e+00	1.402925e+06	
50	2.500000e+00	1.436488e+06	
51	2.550000e+00	1.469496e+06	
52	2.600000e+00	1.501950e+06	
53	2.650000e+00	1.533846e+06	
54	2.700000e+00	1.565173e+06	

Index   v-sweep         rds             
--------------------------------------------------------------------------------
55	2.750000e+00	1.595907e+06	
56	2.800000e+00	1.626010e+06	
57	2.850000e+00	1.655423e+06	
58	2.900000e+00	1.684062e+06	
59	2.950000e+00	1.711813e+06	
60	3.000000e+00	1.738521e+06	
61	3.050000e+00	1.763987e+06	
62	3.100000e+00	1.787956e+06	
63	3.150000e+00	1.810116e+06	
64	3.200000e+00	1.830085e+06	
65	3.250000e+00	1.847414e+06	
66	3.300000e+00	1.861583e+06	
Reset re-loads circuit ***************************

Circuit: ***************************

Doing analysis at TEMP = 125.000000 and TNOM = 125.000000


No. of Data Rows : 67
                          ***************************
                          DC transfer characteristic  Mon Jan  9 13:58:14  2023
--------------------------------------------------------------------------------
Index   v-sweep         rds             
--------------------------------------------------------------------------------
0	0.000000e+00	1.548881e+04	
1	5.000000e-02	1.624558e+04	
2	1.000000e-01	1.705634e+04	
3	1.500000e-01	1.792693e+04	
4	2.000000e-01	1.886406e+04	
5	2.500000e-01	1.987546e+04	
6	3.000000e-01	2.097014e+04	
7	3.500000e-01	2.215862e+04	
8	4.000000e-01	2.345330e+04	
9	4.500000e-01	2.486883e+04	
10	5.000000e-01	2.642274e+04	
11	5.500000e-01	2.813614e+04	
12	6.000000e-01	3.003468e+04	
13	6.500000e-01	3.214992e+04	
14	7.000000e-01	3.452112e+04	
15	7.500000e-01	3.719788e+04	
16	8.000000e-01	4.024393e+04	
17	8.500000e-01	4.374287e+04	
18	9.000000e-01	4.780724e+04	
19	9.500000e-01	5.259322e+04	
20	1.000000e+00	5.832520e+04	
21	1.050000e+00	6.533579e+04	
22	1.100000e+00	7.412183e+04	
23	1.150000e+00	8.538611e+04	
24	1.200000e+00	9.995991e+04	
25	1.250000e+00	1.184867e+05	
26	1.300000e+00	1.410220e+05	
27	1.350000e+00	1.669757e+05	
28	1.400000e+00	1.954518e+05	
29	1.450000e+00	2.255996e+05	
30	1.500000e+00	2.567637e+05	
31	1.550000e+00	2.884851e+05	
32	1.600000e+00	3.204552e+05	
33	1.650000e+00	3.524687e+05	
34	1.700000e+00	3.843886e+05	
35	1.750000e+00	4.161229e+05	
36	1.800000e+00	4.476091e+05	
37	1.850000e+00	4.788048e+05	
38	1.900000e+00	5.096812e+05	
39	1.950000e+00	5.402188e+05	
40	2.000000e+00	5.704049e+05	
41	2.050000e+00	6.002315e+05	
42	2.100000e+00	6.296940e+05	
43	2.150000e+00	6.587903e+05	
44	2.200000e+00	6.875203e+05	
45	2.250000e+00	7.158852e+05	
46	2.300000e+00	7.438873e+05	
47	2.350000e+00	7.715295e+05	
48	2.400000e+00	7.988156e+05	
49	2.450000e+00	8.257496e+05	
50	2.500000e+00	8.523358e+05	
51	2.550000e+00	8.785786e+05	
52	2.600000e+00	9.044826e+05	
53	2.650000e+00	9.300520e+05	
54	2.700000e+00	9.552905e+05	

Index   v-sweep         rds             
--------------------------------------------------------------------------------
55	2.750000e+00	9.802007e+05	
56	2.800000e+00	1.004784e+06	
57	2.850000e+00	1.029038e+06	
58	2.900000e+00	1.052957e+06	
59	2.950000e+00	1.076531e+06	
60	3.000000e+00	1.099739e+06	
61	3.050000e+00	1.122551e+06	
62	3.100000e+00	1.144921e+06	
63	3.150000e+00	1.166786e+06	
64	3.200000e+00	1.188057e+06	
65	3.250000e+00	1.208615e+06	
66	3.300000e+00	1.228306e+06	
Reset re-loads circuit ***************************

Circuit: ***************************

Doing analysis at TEMP = 125.000000 and TNOM = 125.000000


No. of Data Rows : 67
                          ***************************
                          DC transfer characteristic  Mon Jan  9 13:58:14  2023
--------------------------------------------------------------------------------
Index   v-sweep         rds             
--------------------------------------------------------------------------------
0	0.000000e+00	1.292975e+04	
1	5.000000e-02	1.345619e+04	
2	1.000000e-01	1.401247e+04	
3	1.500000e-01	1.460111e+04	
4	2.000000e-01	1.522490e+04	
5	2.500000e-01	1.588699e+04	
6	3.000000e-01	1.659091e+04	
7	3.500000e-01	1.734065e+04	
8	4.000000e-01	1.814072e+04	
9	4.500000e-01	1.899624e+04	
10	5.000000e-01	1.991306e+04	
11	5.500000e-01	2.089789e+04	
12	6.000000e-01	2.195847e+04	
13	6.500000e-01	2.310378e+04	
14	7.000000e-01	2.434428e+04	
15	7.500000e-01	2.569227e+04	
16	8.000000e-01	2.716235e+04	
17	8.500000e-01	2.877194e+04	
18	9.000000e-01	3.054213e+04	
19	9.500000e-01	3.249879e+04	
20	1.000000e+00	3.467411e+04	
21	1.050000e+00	3.710911e+04	
22	1.100000e+00	3.985738e+04	
23	1.150000e+00	4.299134e+04	
24	1.200000e+00	4.661273e+04	
25	1.250000e+00	5.087042e+04	
26	1.300000e+00	5.598865e+04	
27	1.350000e+00	6.230380e+04	
28	1.400000e+00	7.028597e+04	
29	1.450000e+00	8.048352e+04	
30	1.500000e+00	9.333732e+04	
31	1.550000e+00	1.089545e+05	
32	1.600000e+00	1.270526e+05	
33	1.650000e+00	1.471177e+05	
34	1.700000e+00	1.686064e+05	
35	1.750000e+00	1.910602e+05	
36	1.800000e+00	2.141327e+05	
37	1.850000e+00	2.375757e+05	
38	1.900000e+00	2.612147e+05	
39	1.950000e+00	2.849276e+05	
40	2.000000e+00	3.086285e+05	
41	2.050000e+00	3.322565e+05	
42	2.100000e+00	3.557683e+05	
43	2.150000e+00	3.791324e+05	
44	2.200000e+00	4.023263e+05	
45	2.250000e+00	4.253335e+05	
46	2.300000e+00	4.481423e+05	
47	2.350000e+00	4.707441e+05	
48	2.400000e+00	4.931332e+05	
49	2.450000e+00	5.153053e+05	
50	2.500000e+00	5.372580e+05	
51	2.550000e+00	5.589899e+05	
52	2.600000e+00	5.805004e+05	
53	2.650000e+00	6.017896e+05	
54	2.700000e+00	6.228581e+05	

Index   v-sweep         rds             
--------------------------------------------------------------------------------
55	2.750000e+00	6.437070e+05	
56	2.800000e+00	6.643376e+05	
57	2.850000e+00	6.847513e+05	
58	2.900000e+00	7.049492e+05	
59	2.950000e+00	7.249325e+05	
60	3.000000e+00	7.447012e+05	
61	3.050000e+00	7.642541e+05	
62	3.100000e+00	7.835878e+05	
63	3.150000e+00	8.026957e+05	
64	3.200000e+00	8.215661e+05	
65	3.250000e+00	8.401805e+05	
66	3.300000e+00	8.585110e+05	
Reset re-loads circuit ***************************

Circuit: ***************************

Doing analysis at TEMP = 125.000000 and TNOM = 125.000000


No. of Data Rows : 67
                          ***************************
                          DC transfer characteristic  Mon Jan  9 13:58:14  2023
--------------------------------------------------------------------------------
Index   v-sweep         rds             
--------------------------------------------------------------------------------
0	0.000000e+00	1.137315e+04	
1	5.000000e-02	1.177584e+04	
2	1.000000e-01	1.219770e+04	
3	1.500000e-01	1.264005e+04	
4	2.000000e-01	1.310438e+04	
5	2.500000e-01	1.359229e+04	
6	3.000000e-01	1.410555e+04	
7	3.500000e-01	1.464613e+04	
8	4.000000e-01	1.521619e+04	
9	4.500000e-01	1.581813e+04	
10	5.000000e-01	1.645464e+04	
11	5.500000e-01	1.712870e+04	
12	6.000000e-01	1.784365e+04	
13	6.500000e-01	1.860325e+04	
14	7.000000e-01	1.941175e+04	
15	7.500000e-01	2.027394e+04	
16	8.000000e-01	2.119530e+04	
17	8.500000e-01	2.218209e+04	
18	9.000000e-01	2.324151e+04	
19	9.500000e-01	2.438191e+04	
20	1.000000e+00	2.561304e+04	
21	1.050000e+00	2.694640e+04	
22	1.100000e+00	2.839572e+04	
23	1.150000e+00	2.997761e+04	
24	1.200000e+00	3.171257e+04	
25	1.250000e+00	3.362650e+04	
26	1.300000e+00	3.575309e+04	
27	1.350000e+00	3.813778e+04	
28	1.400000e+00	4.084445e+04	
29	1.450000e+00	4.396661e+04	
30	1.500000e+00	4.764514e+04	
31	1.550000e+00	5.209271e+04	
32	1.600000e+00	5.761500e+04	
33	1.650000e+00	6.459929e+04	
34	1.700000e+00	7.342959e+04	
35	1.750000e+00	8.433806e+04	
36	1.800000e+00	9.729665e+04	
37	1.850000e+00	1.120439e+05	
38	1.900000e+00	1.282073e+05	
39	1.950000e+00	1.454167e+05	
40	2.000000e+00	1.633616e+05	
41	2.050000e+00	1.818035e+05	
42	2.100000e+00	2.005661e+05	
43	2.150000e+00	2.195218e+05	
44	2.200000e+00	2.385783e+05	
45	2.250000e+00	2.576687e+05	
46	2.300000e+00	2.767441e+05	
47	2.350000e+00	2.957685e+05	
48	2.400000e+00	3.147153e+05	
49	2.450000e+00	3.335645e+05	
50	2.500000e+00	3.523011e+05	
51	2.550000e+00	3.709138e+05	
52	2.600000e+00	3.893941e+05	
53	2.650000e+00	4.077358e+05	
54	2.700000e+00	4.259341e+05	

Index   v-sweep         rds             
--------------------------------------------------------------------------------
55	2.750000e+00	4.439854e+05	
56	2.800000e+00	4.618874e+05	
57	2.850000e+00	4.796384e+05	
58	2.900000e+00	4.972373e+05	
59	2.950000e+00	5.146836e+05	
60	3.000000e+00	5.319769e+05	
61	3.050000e+00	5.491173e+05	
62	3.100000e+00	5.661048e+05	
63	3.150000e+00	5.829393e+05	
64	3.200000e+00	5.996204e+05	
65	3.250000e+00	6.161467e+05	
66	3.300000e+00	6.325151e+05	
Reset re-loads circuit ***************************

Circuit: ***************************

Note: No ".plot", ".print", or ".fourier" lines; no simulations run
