
Note: Compatibility modes selected: hs

Warning: m=xx on .subckt line will override multiplier m hierarchy!


Circuit: ***************************

Doing analysis at TEMP = -40.000000 and TNOM = -40.000000


No. of Data Rows : 67
                          ***************************
                          DC transfer characteristic  Mon Jan  9 13:58:13  2023
--------------------------------------------------------------------------------
Index   v-sweep         rds             
--------------------------------------------------------------------------------
0	0.000000e+00	4.729579e+03	
1	5.000000e-02	1.256635e+04	
2	1.000000e-01	6.010513e+04	
3	1.500000e-01	1.887266e+05	
4	2.000000e-01	3.284999e+05	
5	2.500000e-01	4.359605e+05	
6	3.000000e-01	5.138234e+05	
7	3.500000e-01	5.712235e+05	
8	4.000000e-01	6.148297e+05	
9	4.500000e-01	6.488979e+05	
10	5.000000e-01	6.761463e+05	
11	5.500000e-01	6.983626e+05	
12	6.000000e-01	7.167630e+05	
13	6.500000e-01	7.322018e+05	
14	7.000000e-01	7.452961e+05	
15	7.500000e-01	7.565027e+05	
16	8.000000e-01	7.661670e+05	
17	8.500000e-01	7.745552e+05	
18	9.000000e-01	7.818755e+05	
19	9.500000e-01	7.882936e+05	
20	1.000000e+00	7.939426e+05	
21	1.050000e+00	7.989308e+05	
22	1.100000e+00	8.033472e+05	
23	1.150000e+00	8.072658e+05	
24	1.200000e+00	8.107484e+05	
25	1.250000e+00	8.138471e+05	
26	1.300000e+00	8.166060e+05	
27	1.350000e+00	8.190630e+05	
28	1.400000e+00	8.212505e+05	
29	1.450000e+00	8.231965e+05	
30	1.500000e+00	8.249253e+05	
31	1.550000e+00	8.264580e+05	
32	1.600000e+00	8.278128e+05	
33	1.650000e+00	8.290056e+05	
34	1.700000e+00	8.300501e+05	
35	1.750000e+00	8.309577e+05	
36	1.800000e+00	8.317379e+05	
37	1.850000e+00	8.323981e+05	
38	1.900000e+00	8.329434e+05	
39	1.950000e+00	8.333766e+05	
40	2.000000e+00	8.336979e+05	
41	2.050000e+00	8.339044e+05	
42	2.100000e+00	8.339900e+05	
43	2.150000e+00	8.339452e+05	
44	2.200000e+00	8.337559e+05	
45	2.250000e+00	8.334040e+05	
46	2.300000e+00	8.328661e+05	
47	2.350000e+00	8.321137e+05	
48	2.400000e+00	8.311126e+05	
49	2.450000e+00	8.298229e+05	
50	2.500000e+00	8.281984e+05	
51	2.550000e+00	8.261872e+05	
52	2.600000e+00	8.237316e+05	
53	2.650000e+00	8.207685e+05	
54	2.700000e+00	8.172303e+05	

Index   v-sweep         rds             
--------------------------------------------------------------------------------
55	2.750000e+00	8.130455e+05	
56	2.800000e+00	8.081405e+05	
57	2.850000e+00	8.024406e+05	
58	2.900000e+00	7.958724e+05	
59	2.950000e+00	7.883657e+05	
60	3.000000e+00	7.798559e+05	
61	3.050000e+00	7.702868e+05	
62	3.100000e+00	7.596130e+05	
63	3.150000e+00	7.478026e+05	
64	3.200000e+00	7.348393e+05	
65	3.250000e+00	7.207245e+05	
66	3.300000e+00	7.054786e+05	
Reset re-loads circuit ***************************

Circuit: ***************************

Doing analysis at TEMP = -40.000000 and TNOM = -40.000000


No. of Data Rows : 67
                          ***************************
                          DC transfer characteristic  Mon Jan  9 13:58:13  2023
--------------------------------------------------------------------------------
Index   v-sweep         rds             
--------------------------------------------------------------------------------
0	0.000000e+00	4.664201e+02	
1	5.000000e-02	5.383740e+02	
2	1.000000e-01	6.296224e+02	
3	1.500000e-01	7.490480e+02	
4	2.000000e-01	9.120389e+02	
5	2.500000e-01	1.147719e+03	
6	3.000000e-01	1.517345e+03	
7	3.500000e-01	2.160573e+03	
8	4.000000e-01	3.368837e+03	
9	4.500000e-01	5.511943e+03	
10	5.000000e-01	8.672228e+03	
11	5.500000e-01	1.255634e+04	
12	6.000000e-01	1.679597e+04	
13	6.500000e-01	2.112366e+04	
14	7.000000e-01	2.538043e+04	
15	7.500000e-01	2.948103e+04	
16	8.000000e-01	3.338444e+04	
17	8.500000e-01	3.707486e+04	
18	9.000000e-01	4.055069e+04	
19	9.500000e-01	4.381798e+04	
20	1.000000e+00	4.688675e+04	
21	1.050000e+00	4.976886e+04	
22	1.100000e+00	5.247677e+04	
23	1.150000e+00	5.502279e+04	
24	1.200000e+00	5.741879e+04	
25	1.250000e+00	5.967592e+04	
26	1.300000e+00	6.180458e+04	
27	1.350000e+00	6.381436e+04	
28	1.400000e+00	6.571409e+04	
29	1.450000e+00	6.751187e+04	
30	1.500000e+00	6.921510e+04	
31	1.550000e+00	7.083057e+04	
32	1.600000e+00	7.236447e+04	
33	1.650000e+00	7.382247e+04	
34	1.700000e+00	7.520974e+04	
35	1.750000e+00	7.653103e+04	
36	1.800000e+00	7.779065e+04	
37	1.850000e+00	7.899256e+04	
38	1.900000e+00	8.014031e+04	
39	1.950000e+00	8.123711e+04	
40	2.000000e+00	8.228576e+04	
41	2.050000e+00	8.328866e+04	
42	2.100000e+00	8.424770e+04	
43	2.150000e+00	8.516425e+04	
44	2.200000e+00	8.603899e+04	
45	2.250000e+00	8.687179e+04	
46	2.300000e+00	8.766155e+04	
47	2.350000e+00	8.840602e+04	
48	2.400000e+00	8.910155e+04	
49	2.450000e+00	8.974291e+04	
50	2.500000e+00	9.032299e+04	
51	2.550000e+00	9.083267e+04	
52	2.600000e+00	9.126051e+04	
53	2.650000e+00	9.159273e+04	
54	2.700000e+00	9.181308e+04	

Index   v-sweep         rds             
--------------------------------------------------------------------------------
55	2.750000e+00	9.190295e+04	
56	2.800000e+00	9.184164e+04	
57	2.850000e+00	9.160675e+04	
58	2.900000e+00	9.117492e+04	
59	2.950000e+00	9.052274e+04	
60	3.000000e+00	8.962796e+04	
61	3.050000e+00	8.847091e+04	
62	3.100000e+00	8.703602e+04	
63	3.150000e+00	8.531338e+04	
64	3.200000e+00	8.330013e+04	
65	3.250000e+00	8.100160e+04	
66	3.300000e+00	7.843186e+04	
Reset re-loads circuit ***************************

Circuit: ***************************

Doing analysis at TEMP = -40.000000 and TNOM = -40.000000


No. of Data Rows : 67
                          ***************************
                          DC transfer characteristic  Mon Jan  9 13:58:13  2023
--------------------------------------------------------------------------------
Index   v-sweep         rds             
--------------------------------------------------------------------------------
0	0.000000e+00	2.826262e+02	
1	5.000000e-02	3.078841e+02	
2	1.000000e-01	3.364949e+02	
3	1.500000e-01	3.691571e+02	
4	2.000000e-01	4.067839e+02	
5	2.500000e-01	4.505968e+02	
6	3.000000e-01	5.022772e+02	
7	3.500000e-01	5.642261e+02	
8	4.000000e-01	6.400401e+02	
9	4.500000e-01	7.354566e+02	
10	5.000000e-01	8.603748e+02	
11	5.500000e-01	1.033357e+03	
12	6.000000e-01	1.290996e+03	
13	6.500000e-01	1.701184e+03	
14	7.000000e-01	2.360013e+03	
15	7.500000e-01	3.341841e+03	
16	8.000000e-01	4.644783e+03	
17	8.500000e-01	6.203397e+03	
18	9.000000e-01	7.935355e+03	
19	9.500000e-01	9.769431e+03	
20	1.000000e+00	1.165228e+04	
21	1.050000e+00	1.354639e+04	
22	1.100000e+00	1.542625e+04	
23	1.150000e+00	1.727486e+04	
24	1.200000e+00	1.908122e+04	
25	1.250000e+00	2.083843e+04	
26	1.300000e+00	2.254249e+04	
27	1.350000e+00	2.419136e+04	
28	1.400000e+00	2.578438e+04	
29	1.450000e+00	2.732182e+04	
30	1.500000e+00	2.880460e+04	
31	1.550000e+00	3.023407e+04	
32	1.600000e+00	3.161184e+04	
33	1.650000e+00	3.293972e+04	
34	1.700000e+00	3.421957e+04	
35	1.750000e+00	3.545331e+04	
36	1.800000e+00	3.664288e+04	
37	1.850000e+00	3.779016e+04	
38	1.900000e+00	3.889699e+04	
39	1.950000e+00	3.996517e+04	
40	2.000000e+00	4.099642e+04	
41	2.050000e+00	4.199236e+04	
42	2.100000e+00	4.295455e+04	
43	2.150000e+00	4.388443e+04	
44	2.200000e+00	4.478330e+04	
45	2.250000e+00	4.565234e+04	
46	2.300000e+00	4.649248e+04	
47	2.350000e+00	4.730441e+04	
48	2.400000e+00	4.808846e+04	
49	2.450000e+00	4.884448e+04	
50	2.500000e+00	4.957174e+04	
51	2.550000e+00	5.026873e+04	
52	2.600000e+00	5.093298e+04	
53	2.650000e+00	5.156084e+04	
54	2.700000e+00	5.214723e+04	

Index   v-sweep         rds             
--------------------------------------------------------------------------------
55	2.750000e+00	5.268544e+04	
56	2.800000e+00	5.316684e+04	
57	2.850000e+00	5.358073e+04	
58	2.900000e+00	5.391419e+04	
59	2.950000e+00	5.415210e+04	
60	3.000000e+00	5.427726e+04	
61	3.050000e+00	5.427077e+04	
62	3.100000e+00	5.411268e+04	
63	3.150000e+00	5.378286e+04	
64	3.200000e+00	5.326227e+04	
65	3.250000e+00	5.253440e+04	
66	3.300000e+00	5.158691e+04	
Reset re-loads circuit ***************************

Circuit: ***************************

Doing analysis at TEMP = -40.000000 and TNOM = -40.000000


No. of Data Rows : 67
                          ***************************
                          DC transfer characteristic  Mon Jan  9 13:58:13  2023
--------------------------------------------------------------------------------
Index   v-sweep         rds             
--------------------------------------------------------------------------------
0	0.000000e+00	2.245046e+02	
1	5.000000e-02	2.390676e+02	
2	1.000000e-01	2.549391e+02	
3	1.500000e-01	2.722962e+02	
4	2.000000e-01	2.913507e+02	
5	2.500000e-01	3.123581e+02	
6	3.000000e-01	3.356304e+02	
7	3.500000e-01	3.615534e+02	
8	4.000000e-01	3.906132e+02	
9	4.500000e-01	4.234340e+02	
10	5.000000e-01	4.608408e+02	
11	5.500000e-01	5.039609e+02	
12	6.000000e-01	5.544077e+02	
13	6.500000e-01	6.146243e+02	
14	7.000000e-01	6.885704e+02	
15	7.500000e-01	7.831267e+02	
16	8.000000e-01	9.108773e+02	
17	8.500000e-01	1.094764e+03	
18	9.000000e-01	1.372332e+03	
19	9.500000e-01	1.790669e+03	
20	1.000000e+00	2.385470e+03	
21	1.050000e+00	3.161300e+03	
22	1.100000e+00	4.094237e+03	
23	1.150000e+00	5.148162e+03	
24	1.200000e+00	6.287508e+03	
25	1.250000e+00	7.482522e+03	
26	1.300000e+00	8.710074e+03	
27	1.350000e+00	9.952798e+03	
28	1.400000e+00	1.119789e+04	
29	1.450000e+00	1.243600e+04	
30	1.500000e+00	1.366038e+04	
31	1.550000e+00	1.486620e+04	
32	1.600000e+00	1.605007e+04	
33	1.650000e+00	1.720965e+04	
34	1.700000e+00	1.834343e+04	
35	1.750000e+00	1.945048e+04	
36	1.800000e+00	2.053031e+04	
37	1.850000e+00	2.158277e+04	
38	1.900000e+00	2.260798e+04	
39	1.950000e+00	2.360622e+04	
40	2.000000e+00	2.457793e+04	
41	2.050000e+00	2.552363e+04	
42	2.100000e+00	2.644391e+04	
43	2.150000e+00	2.733942e+04	
44	2.200000e+00	2.821084e+04	
45	2.250000e+00	2.905885e+04	
46	2.300000e+00	2.988414e+04	
47	2.350000e+00	3.068738e+04	
48	2.400000e+00	3.146920e+04	
49	2.450000e+00	3.223017e+04	
50	2.500000e+00	3.297076e+04	
51	2.550000e+00	3.369130e+04	
52	2.600000e+00	3.439189e+04	
53	2.650000e+00	3.507236e+04	
54	2.700000e+00	3.573209e+04	

Index   v-sweep         rds             
--------------------------------------------------------------------------------
55	2.750000e+00	3.636994e+04	
56	2.800000e+00	3.698402e+04	
57	2.850000e+00	3.757154e+04	
58	2.900000e+00	3.812855e+04	
59	2.950000e+00	3.864974e+04	
60	3.000000e+00	3.912816e+04	
61	3.050000e+00	3.955502e+04	
62	3.100000e+00	3.991952e+04	
63	3.150000e+00	4.020874e+04	
64	3.200000e+00	4.040774e+04	
65	3.250000e+00	4.049979e+04	
66	3.300000e+00	4.046690e+04	
Reset re-loads circuit ***************************

Circuit: ***************************

Doing analysis at TEMP = -40.000000 and TNOM = -40.000000


No. of Data Rows : 67
                          ***************************
                          DC transfer characteristic  Mon Jan  9 13:58:13  2023
--------------------------------------------------------------------------------
Index   v-sweep         rds             
--------------------------------------------------------------------------------
0	0.000000e+00	1.987410e+02	
1	5.000000e-02	2.089406e+02	
2	1.000000e-01	2.198391e+02	
3	1.500000e-01	2.315070e+02	
4	2.000000e-01	2.440248e+02	
5	2.500000e-01	2.574852e+02	
6	3.000000e-01	2.719953e+02	
7	3.500000e-01	2.876796e+02	
8	4.000000e-01	3.046844e+02	
9	4.500000e-01	3.231830e+02	
10	5.000000e-01	3.433830e+02	
11	5.500000e-01	3.655364e+02	
12	6.000000e-01	3.899547e+02	
13	6.500000e-01	4.170309e+02	
14	7.000000e-01	4.472749e+02	
15	7.500000e-01	4.813715e+02	
16	8.000000e-01	5.202816e+02	
17	8.500000e-01	5.654251e+02	
18	9.000000e-01	6.190256e+02	
19	9.500000e-01	6.847717e+02	
20	1.000000e+00	7.690531e+02	
21	1.050000e+00	8.830435e+02	
22	1.100000e+00	1.045271e+03	
23	1.150000e+00	1.282176e+03	
24	1.200000e+00	1.622176e+03	
25	1.250000e+00	2.083703e+03	
26	1.300000e+00	2.667340e+03	
27	1.350000e+00	3.358711e+03	
28	1.400000e+00	4.136671e+03	
29	1.450000e+00	4.979749e+03	
30	1.500000e+00	5.869184e+03	
31	1.550000e+00	6.789708e+03	
32	1.600000e+00	7.729323e+03	
33	1.650000e+00	8.678766e+03	
34	1.700000e+00	9.630949e+03	
35	1.750000e+00	1.058048e+04	
36	1.800000e+00	1.152327e+04	
37	1.850000e+00	1.245626e+04	
38	1.900000e+00	1.337713e+04	
39	1.950000e+00	1.428420e+04	
40	2.000000e+00	1.517623e+04	
41	2.050000e+00	1.605237e+04	
42	2.100000e+00	1.691201e+04	
43	2.150000e+00	1.775481e+04	
44	2.200000e+00	1.858056e+04	
45	2.250000e+00	1.938923e+04	
46	2.300000e+00	2.018085e+04	
47	2.350000e+00	2.095556e+04	
48	2.400000e+00	2.171357e+04	
49	2.450000e+00	2.245510e+04	
50	2.500000e+00	2.318043e+04	
51	2.550000e+00	2.388986e+04	
52	2.600000e+00	2.458368e+04	
53	2.650000e+00	2.526215e+04	
54	2.700000e+00	2.592552e+04	

Index   v-sweep         rds             
--------------------------------------------------------------------------------
55	2.750000e+00	2.657392e+04	
56	2.800000e+00	2.720735e+04	
57	2.850000e+00	2.782563e+04	
58	2.900000e+00	2.842826e+04	
59	2.950000e+00	2.901434e+04	
60	3.000000e+00	2.958240e+04	
61	3.050000e+00	3.013026e+04	
62	3.100000e+00	3.065479e+04	
63	3.150000e+00	3.115173e+04	
64	3.200000e+00	3.161541e+04	
65	3.250000e+00	3.203854e+04	
66	3.300000e+00	3.241201e+04	
Reset re-loads circuit ***************************

Circuit: ***************************

Doing analysis at TEMP = -40.000000 and TNOM = -40.000000


No. of Data Rows : 67
                          ***************************
                          DC transfer characteristic  Mon Jan  9 13:58:14  2023
--------------------------------------------------------------------------------
Index   v-sweep         rds             
--------------------------------------------------------------------------------
0	0.000000e+00	1.846502e+02	
1	5.000000e-02	1.924712e+02	
2	1.000000e-01	2.007248e+02	
3	1.500000e-01	2.094457e+02	
4	2.000000e-01	2.186724e+02	
5	2.500000e-01	2.284480e+02	
6	3.000000e-01	2.388208e+02	
7	3.500000e-01	2.498451e+02	
8	4.000000e-01	2.615820e+02	
9	4.500000e-01	2.741013e+02	
10	5.000000e-01	2.874824e+02	
11	5.500000e-01	3.018168e+02	
12	6.000000e-01	3.172104e+02	
13	6.500000e-01	3.337871e+02	
14	7.000000e-01	3.516934e+02	
15	7.500000e-01	3.711051e+02	
16	8.000000e-01	3.922368e+02	
17	8.500000e-01	4.153560e+02	
18	9.000000e-01	4.408052e+02	
19	9.500000e-01	4.690384e+02	
20	1.000000e+00	5.006810e+02	
21	1.050000e+00	5.366360e+02	
22	1.100000e+00	5.782721e+02	
23	1.150000e+00	6.277674e+02	
24	1.200000e+00	6.887224e+02	
25	1.250000e+00	7.671902e+02	
26	1.300000e+00	8.731265e+02	
27	1.350000e+00	1.021608e+03	
28	1.400000e+00	1.231920e+03	
29	1.450000e+00	1.522611e+03	
30	1.500000e+00	1.904422e+03	
31	1.550000e+00	2.376738e+03	
32	1.600000e+00	2.929829e+03	
33	1.650000e+00	3.549624e+03	
34	1.700000e+00	4.221533e+03	
35	1.750000e+00	4.932429e+03	
36	1.800000e+00	5.671296e+03	
37	1.850000e+00	6.429218e+03	
38	1.900000e+00	7.199108e+03	
39	1.950000e+00	7.975384e+03	
40	2.000000e+00	8.753677e+03	
41	2.050000e+00	9.530570e+03	
42	2.100000e+00	1.030340e+04	
43	2.150000e+00	1.107010e+04	
44	2.200000e+00	1.182908e+04	
45	2.250000e+00	1.257909e+04	
46	2.300000e+00	1.331922e+04	
47	2.350000e+00	1.404875e+04	
48	2.400000e+00	1.476717e+04	
49	2.450000e+00	1.547413e+04	
50	2.500000e+00	1.616939e+04	
51	2.550000e+00	1.685279e+04	
52	2.600000e+00	1.752427e+04	
53	2.650000e+00	1.818383e+04	
54	2.700000e+00	1.883151e+04	

Index   v-sweep         rds             
--------------------------------------------------------------------------------
55	2.750000e+00	1.946738e+04	
56	2.800000e+00	2.009155e+04	
57	2.850000e+00	2.070412e+04	
58	2.900000e+00	2.130518e+04	
59	2.950000e+00	2.189478e+04	
60	3.000000e+00	2.247288e+04	
61	3.050000e+00	2.303933e+04	
62	3.100000e+00	2.359376e+04	
63	3.150000e+00	2.413551e+04	
64	3.200000e+00	2.466351e+04	
65	3.250000e+00	2.517612e+04	
66	3.300000e+00	2.567101e+04	
Reset re-loads circuit ***************************

Circuit: ***************************

Note: No ".plot", ".print", or ".fourier" lines; no simulations run
