
Note: Compatibility modes selected: hs

Warning: m=xx on .subckt line will override multiplier m hierarchy!


Circuit: ***************************

Doing analysis at TEMP = -40.000000 and TNOM = -40.000000


No. of Data Rows : 67
                          ***************************
                          DC transfer characteristic  Mon Jan  9 13:58:13  2023
--------------------------------------------------------------------------------
Index   v-sweep         rds             
--------------------------------------------------------------------------------
0	0.000000e+00	3.222369e+03	
1	5.000000e-02	6.012230e+03	
2	1.000000e-01	1.439884e+04	
3	1.500000e-01	3.256779e+04	
4	2.000000e-01	5.132254e+04	
5	2.500000e-01	6.356835e+04	
6	3.000000e-01	7.062627e+04	
7	3.500000e-01	7.467420e+04	
8	4.000000e-01	7.701496e+04	
9	4.500000e-01	7.834650e+04	
10	5.000000e-01	7.905111e+04	
11	5.500000e-01	7.934875e+04	
12	6.000000e-01	7.937249e+04	
13	6.500000e-01	7.920663e+04	
14	7.000000e-01	7.890663e+04	
15	7.500000e-01	7.851025e+04	
16	8.000000e-01	7.804395e+04	
17	8.500000e-01	7.752666e+04	
18	9.000000e-01	7.697227e+04	
19	9.500000e-01	7.639110e+04	
20	1.000000e+00	7.579096e+04	
21	1.050000e+00	7.517782e+04	
22	1.100000e+00	7.455629e+04	
23	1.150000e+00	7.392998e+04	
24	1.200000e+00	7.330170e+04	
25	1.250000e+00	7.267370e+04	
26	1.300000e+00	7.204774e+04	
27	1.350000e+00	7.142524e+04	
28	1.400000e+00	7.080730e+04	
29	1.450000e+00	7.019482e+04	
30	1.500000e+00	6.958850e+04	
31	1.550000e+00	6.898889e+04	
32	1.600000e+00	6.839643e+04	
33	1.650000e+00	6.781142e+04	
34	1.700000e+00	6.723410e+04	
35	1.750000e+00	6.666463e+04	
36	1.800000e+00	6.610309e+04	
37	1.850000e+00	6.554948e+04	
38	1.900000e+00	6.500374e+04	
39	1.950000e+00	6.446574e+04	
40	2.000000e+00	6.393528e+04	
41	2.050000e+00	6.341204e+04	
42	2.100000e+00	6.289564e+04	
43	2.150000e+00	6.238556e+04	
44	2.200000e+00	6.188117e+04	
45	2.250000e+00	6.138172e+04	
46	2.300000e+00	6.088628e+04	
47	2.350000e+00	6.039377e+04	
48	2.400000e+00	5.990291e+04	
49	2.450000e+00	5.941226e+04	
50	2.500000e+00	5.892013e+04	
51	2.550000e+00	5.842465e+04	
52	2.600000e+00	5.792373e+04	
53	2.650000e+00	5.741503e+04	
54	2.700000e+00	5.689603e+04	

Index   v-sweep         rds             
--------------------------------------------------------------------------------
55	2.750000e+00	5.636399e+04	
56	2.800000e+00	5.581598e+04	
57	2.850000e+00	5.524893e+04	
58	2.900000e+00	5.465964e+04	
59	2.950000e+00	5.404481e+04	
60	3.000000e+00	5.340114e+04	
61	3.050000e+00	5.272536e+04	
62	3.100000e+00	5.201431e+04	
63	3.150000e+00	5.126505e+04	
64	3.200000e+00	5.047487e+04	
65	3.250000e+00	4.964149e+04	
66	3.300000e+00	4.876306e+04	
Reset re-loads circuit ***************************

Circuit: ***************************

Doing analysis at TEMP = -40.000000 and TNOM = -40.000000


No. of Data Rows : 67
                          ***************************
                          DC transfer characteristic  Mon Jan  9 13:58:13  2023
--------------------------------------------------------------------------------
Index   v-sweep         rds             
--------------------------------------------------------------------------------
0	0.000000e+00	5.594960e+02	
1	5.000000e-02	6.507337e+02	
2	1.000000e-01	7.645794e+02	
3	1.500000e-01	9.106010e+02	
4	2.000000e-01	1.105008e+03	
5	2.500000e-01	1.377484e+03	
6	3.000000e-01	1.785634e+03	
7	3.500000e-01	2.436031e+03	
8	4.000000e-01	3.471800e+03	
9	4.500000e-01	4.955812e+03	
10	5.000000e-01	6.762666e+03	
11	5.500000e-01	8.668453e+03	
12	6.000000e-01	1.049435e+04	
13	6.500000e-01	1.214850e+04	
14	7.000000e-01	1.360306e+04	
15	7.500000e-01	1.486395e+04	
16	8.000000e-01	1.595104e+04	
17	8.500000e-01	1.688788e+04	
18	9.000000e-01	1.769709e+04	
19	9.500000e-01	1.839866e+04	
20	1.000000e+00	1.900958e+04	
21	1.050000e+00	1.954406e+04	
22	1.100000e+00	2.001383e+04	
23	1.150000e+00	2.042860e+04	
24	1.200000e+00	2.079638e+04	
25	1.250000e+00	2.112380e+04	
26	1.300000e+00	2.141640e+04	
27	1.350000e+00	2.167878e+04	
28	1.400000e+00	2.191483e+04	
29	1.450000e+00	2.212782e+04	
30	1.500000e+00	2.232053e+04	
31	1.550000e+00	2.249532e+04	
32	1.600000e+00	2.265423e+04	
33	1.650000e+00	2.279899e+04	
34	1.700000e+00	2.293112e+04	
35	1.750000e+00	2.305192e+04	
36	1.800000e+00	2.316253e+04	
37	1.850000e+00	2.326394e+04	
38	1.900000e+00	2.335702e+04	
39	1.950000e+00	2.344250e+04	
40	2.000000e+00	2.352105e+04	
41	2.050000e+00	2.359320e+04	
42	2.100000e+00	2.365940e+04	
43	2.150000e+00	2.372001e+04	
44	2.200000e+00	2.377526e+04	
45	2.250000e+00	2.382528e+04	
46	2.300000e+00	2.387007e+04	
47	2.350000e+00	2.390948e+04	
48	2.400000e+00	2.394320e+04	
49	2.450000e+00	2.397072e+04	
50	2.500000e+00	2.399134e+04	
51	2.550000e+00	2.400410e+04	
52	2.600000e+00	2.400781e+04	
53	2.650000e+00	2.400099e+04	
54	2.700000e+00	2.398188e+04	

Index   v-sweep         rds             
--------------------------------------------------------------------------------
55	2.750000e+00	2.394842e+04	
56	2.800000e+00	2.389823e+04	
57	2.850000e+00	2.382868e+04	
58	2.900000e+00	2.373685e+04	
59	2.950000e+00	2.361963e+04	
60	3.000000e+00	2.347374e+04	
61	3.050000e+00	2.329584e+04	
62	3.100000e+00	2.308265e+04	
63	3.150000e+00	2.283104e+04	
64	3.200000e+00	2.253819e+04	
65	3.250000e+00	2.220176e+04	
66	3.300000e+00	2.182003e+04	
Reset re-loads circuit ***************************

Circuit: ***************************

Doing analysis at TEMP = -40.000000 and TNOM = -40.000000


No. of Data Rows : 67
                          ***************************
                          DC transfer characteristic  Mon Jan  9 13:58:13  2023
--------------------------------------------------------------------------------
Index   v-sweep         rds             
--------------------------------------------------------------------------------
0	0.000000e+00	3.709426e+02	
1	5.000000e-02	4.083451e+02	
2	1.000000e-01	4.507244e+02	
3	1.500000e-01	4.991125e+02	
4	2.000000e-01	5.548823e+02	
5	2.500000e-01	6.199241e+02	
6	3.000000e-01	6.969607e+02	
7	3.500000e-01	7.901402e+02	
8	4.000000e-01	9.062105e+02	
9	4.500000e-01	1.056863e+03	
10	5.000000e-01	1.263045e+03	
11	5.500000e-01	1.560659e+03	
12	6.000000e-01	2.000631e+03	
13	6.500000e-01	2.629138e+03	
14	7.000000e-01	3.453114e+03	
15	7.500000e-01	4.429311e+03	
16	8.000000e-01	5.489144e+03	
17	8.500000e-01	6.568174e+03	
18	9.000000e-01	7.619749e+03	
19	9.500000e-01	8.615678e+03	
20	1.000000e+00	9.541894e+03	
21	1.050000e+00	1.039365e+04	
22	1.100000e+00	1.117177e+04	
23	1.150000e+00	1.188012e+04	
24	1.200000e+00	1.252399e+04	
25	1.250000e+00	1.310918e+04	
26	1.300000e+00	1.364145e+04	
27	1.350000e+00	1.412625e+04	
28	1.400000e+00	1.456857e+04	
29	1.450000e+00	1.497293e+04	
30	1.500000e+00	1.534336e+04	
31	1.550000e+00	1.568343e+04	
32	1.600000e+00	1.599629e+04	
33	1.650000e+00	1.628474e+04	
34	1.700000e+00	1.655122e+04	
35	1.750000e+00	1.679792e+04	
36	1.800000e+00	1.702675e+04	
37	1.850000e+00	1.723939e+04	
38	1.900000e+00	1.743735e+04	
39	1.950000e+00	1.762196e+04	
40	2.000000e+00	1.779439e+04	
41	2.050000e+00	1.795569e+04	
42	2.100000e+00	1.810679e+04	
43	2.150000e+00	1.824851e+04	
44	2.200000e+00	1.838155e+04	
45	2.250000e+00	1.850654e+04	
46	2.300000e+00	1.862396e+04	
47	2.350000e+00	1.873422e+04	
48	2.400000e+00	1.883759e+04	
49	2.450000e+00	1.893419e+04	
50	2.500000e+00	1.902399e+04	
51	2.550000e+00	1.910678e+04	
52	2.600000e+00	1.918212e+04	
53	2.650000e+00	1.924936e+04	
54	2.700000e+00	1.930753e+04	

Index   v-sweep         rds             
--------------------------------------------------------------------------------
55	2.750000e+00	1.935538e+04	
56	2.800000e+00	1.939130e+04	
57	2.850000e+00	1.941335e+04	
58	2.900000e+00	1.941918e+04	
59	2.950000e+00	1.940606e+04	
60	3.000000e+00	1.937092e+04	
61	3.050000e+00	1.931036e+04	
62	3.100000e+00	1.922071e+04	
63	3.150000e+00	1.909815e+04	
64	3.200000e+00	1.893885e+04	
65	3.250000e+00	1.873911e+04	
66	3.300000e+00	1.849560e+04	
Reset re-loads circuit ***************************

Circuit: ***************************

Doing analysis at TEMP = -40.000000 and TNOM = -40.000000


No. of Data Rows : 67
                          ***************************
                          DC transfer characteristic  Mon Jan  9 13:58:13  2023
--------------------------------------------------------------------------------
Index   v-sweep         rds             
--------------------------------------------------------------------------------
0	0.000000e+00	3.058104e+02	
1	5.000000e-02	3.285678e+02	
2	1.000000e-01	3.534272e+02	
3	1.500000e-01	3.806753e+02	
4	2.000000e-01	4.106596e+02	
5	2.500000e-01	4.438081e+02	
6	3.000000e-01	4.806586e+02	
7	3.500000e-01	5.219048e+02	
8	4.000000e-01	5.684724e+02	
9	4.500000e-01	6.216478e+02	
10	5.000000e-01	6.833101e+02	
11	5.500000e-01	7.563581e+02	
12	6.000000e-01	8.455062e+02	
13	6.500000e-01	9.587138e+02	
14	7.000000e-01	1.109438e+03	
15	7.500000e-01	1.319005e+03	
16	8.000000e-01	1.615924e+03	
17	8.500000e-01	2.027343e+03	
18	9.000000e-01	2.564501e+03	
19	9.500000e-01	3.214792e+03	
20	1.000000e+00	3.947847e+03	
21	1.050000e+00	4.727951e+03	
22	1.100000e+00	5.523286e+03	
23	1.150000e+00	6.309675e+03	
24	1.200000e+00	7.070702e+03	
25	1.250000e+00	7.796332e+03	
26	1.300000e+00	8.481231e+03	
27	1.350000e+00	9.123306e+03	
28	1.400000e+00	9.722581e+03	
29	1.450000e+00	1.028038e+04	
30	1.500000e+00	1.079881e+04	
31	1.550000e+00	1.128032e+04	
32	1.600000e+00	1.172754e+04	
33	1.650000e+00	1.214310e+04	
34	1.700000e+00	1.252953e+04	
35	1.750000e+00	1.288923e+04	
36	1.800000e+00	1.322441e+04	
37	1.850000e+00	1.353714e+04	
38	1.900000e+00	1.382930e+04	
39	1.950000e+00	1.410261e+04	
40	2.000000e+00	1.435861e+04	
41	2.050000e+00	1.459874e+04	
42	2.100000e+00	1.482427e+04	
43	2.150000e+00	1.503636e+04	
44	2.200000e+00	1.523607e+04	
45	2.250000e+00	1.542434e+04	
46	2.300000e+00	1.560202e+04	
47	2.350000e+00	1.576987e+04	
48	2.400000e+00	1.592855e+04	
49	2.450000e+00	1.607864e+04	
50	2.500000e+00	1.622060e+04	
51	2.550000e+00	1.635478e+04	
52	2.600000e+00	1.648141e+04	
53	2.650000e+00	1.660055e+04	
54	2.700000e+00	1.671208e+04	

Index   v-sweep         rds             
--------------------------------------------------------------------------------
55	2.750000e+00	1.681567e+04	
56	2.800000e+00	1.691074e+04	
57	2.850000e+00	1.699642e+04	
58	2.900000e+00	1.707149e+04	
59	2.950000e+00	1.713438e+04	
60	3.000000e+00	1.718309e+04	
61	3.050000e+00	1.721521e+04	
62	3.100000e+00	1.722788e+04	
63	3.150000e+00	1.721779e+04	
64	3.200000e+00	1.718127e+04	
65	3.250000e+00	1.711431e+04	
66	3.300000e+00	1.701272e+04	
Reset re-loads circuit ***************************

Circuit: ***************************

Doing analysis at TEMP = -40.000000 and TNOM = -40.000000


No. of Data Rows : 67
                          ***************************
                          DC transfer characteristic  Mon Jan  9 13:58:13  2023
--------------------------------------------------------------------------------
Index   v-sweep         rds             
--------------------------------------------------------------------------------
0	0.000000e+00	2.732976e+02	
1	5.000000e-02	2.894195e+02	
2	1.000000e-01	3.066830e+02	
3	1.500000e-01	3.252033e+02	
4	2.000000e-01	3.451133e+02	
5	2.500000e-01	3.665678e+02	
6	3.000000e-01	3.897486e+02	
7	3.500000e-01	4.148723e+02	
8	4.000000e-01	4.422013e+02	
9	4.500000e-01	4.720600e+02	
10	5.000000e-01	5.048595e+02	
11	5.500000e-01	5.411376e+02	
12	6.000000e-01	5.816240e+02	
13	6.500000e-01	6.273522e+02	
14	7.000000e-01	6.798532e+02	
15	7.500000e-01	7.414975e+02	
16	8.000000e-01	8.160854e+02	
17	8.500000e-01	9.098077e+02	
18	9.000000e-01	1.032563e+03	
19	9.500000e-01	1.199066e+03	
20	1.000000e+00	1.428053e+03	
21	1.050000e+00	1.737562e+03	
22	1.100000e+00	2.137289e+03	
23	1.150000e+00	2.623539e+03	
24	1.200000e+00	3.180777e+03	
25	1.250000e+00	3.787548e+03	
26	1.300000e+00	4.422184e+03	
27	1.350000e+00	5.066121e+03	
28	1.400000e+00	5.705036e+03	
29	1.450000e+00	6.328704e+03	
30	1.500000e+00	6.930331e+03	
31	1.550000e+00	7.505780e+03	
32	1.600000e+00	8.052864e+03	
33	1.650000e+00	8.570773e+03	
34	1.700000e+00	9.059639e+03	
35	1.750000e+00	9.520213e+03	
36	1.800000e+00	9.953631e+03	
37	1.850000e+00	1.036125e+04	
38	1.900000e+00	1.074455e+04	
39	1.950000e+00	1.110504e+04	
40	2.000000e+00	1.144419e+04	
41	2.050000e+00	1.176347e+04	
42	2.100000e+00	1.206423e+04	
43	2.150000e+00	1.234779e+04	
44	2.200000e+00	1.261535e+04	
45	2.250000e+00	1.286804e+04	
46	2.300000e+00	1.310692e+04	
47	2.350000e+00	1.333295e+04	
48	2.400000e+00	1.354702e+04	
49	2.450000e+00	1.374994e+04	
50	2.500000e+00	1.394245e+04	
51	2.550000e+00	1.412523e+04	
52	2.600000e+00	1.429886e+04	
53	2.650000e+00	1.446384e+04	
54	2.700000e+00	1.462058e+04	

Index   v-sweep         rds             
--------------------------------------------------------------------------------
55	2.750000e+00	1.476937e+04	
56	2.800000e+00	1.491036e+04	
57	2.850000e+00	1.504355e+04	
58	2.900000e+00	1.516874e+04	
59	2.950000e+00	1.528547e+04	
60	3.000000e+00	1.539303e+04	
61	3.050000e+00	1.549037e+04	
62	3.100000e+00	1.557606e+04	
63	3.150000e+00	1.564825e+04	
64	3.200000e+00	1.570462e+04	
65	3.250000e+00	1.574239e+04	
66	3.300000e+00	1.575828e+04	
Reset re-loads circuit ***************************

Circuit: ***************************

Doing analysis at TEMP = -40.000000 and TNOM = -40.000000


No. of Data Rows : 67
                          ***************************
                          DC transfer characteristic  Mon Jan  9 13:58:13  2023
--------------------------------------------------------------------------------
Index   v-sweep         rds             
--------------------------------------------------------------------------------
0	0.000000e+00	2.568301e+02	
1	5.000000e-02	2.694254e+02	
2	1.000000e-01	2.827489e+02	
3	1.500000e-01	2.968595e+02	
4	2.000000e-01	3.118227e+02	
5	2.500000e-01	3.277126e+02	
6	3.000000e-01	3.446131e+02	
7	3.500000e-01	3.626200e+02	
8	4.000000e-01	3.818435e+02	
9	4.500000e-01	4.024122e+02	
10	5.000000e-01	4.244776e+02	
11	5.500000e-01	4.482214e+02	
12	6.000000e-01	4.738664e+02	
13	6.500000e-01	5.016912e+02	
14	7.000000e-01	5.320558e+02	
15	7.500000e-01	5.654397e+02	
16	8.000000e-01	6.025064e+02	
17	8.500000e-01	6.442092e+02	
18	9.000000e-01	6.919695e+02	
19	9.500000e-01	7.479747e+02	
20	1.000000e+00	8.156562e+02	
21	1.050000e+00	9.003929e+02	
22	1.100000e+00	1.010343e+03	
23	1.150000e+00	1.156914e+03	
24	1.200000e+00	1.353839e+03	
25	1.250000e+00	1.613920e+03	
26	1.300000e+00	1.944345e+03	
27	1.350000e+00	2.343594e+03	
28	1.400000e+00	2.802058e+03	
29	1.450000e+00	3.305371e+03	
30	1.500000e+00	3.838044e+03	
31	1.550000e+00	4.385915e+03	
32	1.600000e+00	4.937296e+03	
33	1.650000e+00	5.483196e+03	
34	1.700000e+00	6.017086e+03	
35	1.750000e+00	6.534482e+03	
36	1.800000e+00	7.032507e+03	
37	1.850000e+00	7.509495e+03	
38	1.900000e+00	7.964673e+03	
39	1.950000e+00	8.397907e+03	
40	2.000000e+00	8.809503e+03	
41	2.050000e+00	9.200068e+03	
42	2.100000e+00	9.570403e+03	
43	2.150000e+00	9.921422e+03	
44	2.200000e+00	1.025410e+04	
45	2.250000e+00	1.056943e+04	
46	2.300000e+00	1.086840e+04	
47	2.350000e+00	1.115199e+04	
48	2.400000e+00	1.142111e+04	
49	2.450000e+00	1.167666e+04	
50	2.500000e+00	1.191947e+04	
51	2.550000e+00	1.215034e+04	
52	2.600000e+00	1.237000e+04	
53	2.650000e+00	1.257913e+04	
54	2.700000e+00	1.277836e+04	

Index   v-sweep         rds             
--------------------------------------------------------------------------------
55	2.750000e+00	1.296827e+04	
56	2.800000e+00	1.314934e+04	
57	2.850000e+00	1.332200e+04	
58	2.900000e+00	1.348659e+04	
59	2.950000e+00	1.364332e+04	
60	3.000000e+00	1.379227e+04	
61	3.050000e+00	1.393334e+04	
62	3.100000e+00	1.406625e+04	
63	3.150000e+00	1.419042e+04	
64	3.200000e+00	1.430499e+04	
65	3.250000e+00	1.440873e+04	
66	3.300000e+00	1.450002e+04	
Reset re-loads circuit ***************************

Circuit: ***************************

Note: No ".plot", ".print", or ".fourier" lines; no simulations run
