
Note: Compatibility modes selected: hs

Warning: m=xx on .subckt line will override multiplier m hierarchy!


Circuit: ***************************

Doing analysis at TEMP = 125.000000 and TNOM = 125.000000


No. of Data Rows : 67
                          ***************************
                          DC transfer characteristic  Mon Jan  9 13:58:14  2023
--------------------------------------------------------------------------------
Index   v-sweep         rds             
--------------------------------------------------------------------------------
0	0.000000e+00	9.132572e+03	
1	5.000000e-02	1.155074e+04	
2	1.000000e-01	1.558417e+04	
3	1.500000e-01	2.355011e+04	
4	2.000000e-01	4.453742e+04	
5	2.500000e-01	1.215266e+05	
6	3.000000e-01	3.489303e+05	
7	3.500000e-01	6.924346e+05	
8	4.000000e-01	1.033198e+06	
9	4.500000e-01	1.328315e+06	
10	5.000000e-01	1.577609e+06	
11	5.500000e-01	1.789284e+06	
12	6.000000e-01	1.971078e+06	
13	6.500000e-01	2.129016e+06	
14	7.000000e-01	2.267639e+06	
15	7.500000e-01	2.390392e+06	
16	8.000000e-01	2.499926e+06	
17	8.500000e-01	2.598317e+06	
18	9.000000e-01	2.687217e+06	
19	9.500000e-01	2.767958e+06	
20	1.000000e+00	2.841627e+06	
21	1.050000e+00	2.909125e+06	
22	1.100000e+00	2.971202e+06	
23	1.150000e+00	3.028489e+06	
24	1.200000e+00	3.081522e+06	
25	1.250000e+00	3.130760e+06	
26	1.300000e+00	3.176595e+06	
27	1.350000e+00	3.219369e+06	
28	1.400000e+00	3.259378e+06	
29	1.450000e+00	3.296881e+06	
30	1.500000e+00	3.332105e+06	
31	1.550000e+00	3.365251e+06	
32	1.600000e+00	3.396496e+06	
33	1.650000e+00	3.425997e+06	
34	1.700000e+00	3.453893e+06	
35	1.750000e+00	3.480307e+06	
36	1.800000e+00	3.505346e+06	
37	1.850000e+00	3.529105e+06	
38	1.900000e+00	3.551662e+06	
39	1.950000e+00	3.573080e+06	
40	2.000000e+00	3.593405e+06	
41	2.050000e+00	3.612665e+06	
42	2.100000e+00	3.630864e+06	
43	2.150000e+00	3.647983e+06	
44	2.200000e+00	3.663972e+06	
45	2.250000e+00	3.678746e+06	
46	2.300000e+00	3.692183e+06	
47	2.350000e+00	3.704116e+06	
48	2.400000e+00	3.714329e+06	
49	2.450000e+00	3.722552e+06	
50	2.500000e+00	3.728459e+06	
51	2.550000e+00	3.731662e+06	
52	2.600000e+00	3.731717e+06	
53	2.650000e+00	3.728119e+06	
54	2.700000e+00	3.720314e+06	

Index   v-sweep         rds             
--------------------------------------------------------------------------------
55	2.750000e+00	3.707704e+06	
56	2.800000e+00	3.689663e+06	
57	2.850000e+00	3.665554e+06	
58	2.900000e+00	3.634754e+06	
59	2.950000e+00	3.596683e+06	
60	3.000000e+00	3.550830e+06	
61	3.050000e+00	3.496790e+06	
62	3.100000e+00	3.434296e+06	
63	3.150000e+00	3.363247e+06	
64	3.200000e+00	3.283731e+06	
65	3.250000e+00	3.196043e+06	
66	3.300000e+00	3.100681e+06	
Reset re-loads circuit ***************************

Circuit: ***************************

Doing analysis at TEMP = 125.000000 and TNOM = 125.000000


No. of Data Rows : 67
                          ***************************
                          DC transfer characteristic  Mon Jan  9 13:58:14  2023
--------------------------------------------------------------------------------
Index   v-sweep         rds             
--------------------------------------------------------------------------------
0	0.000000e+00	3.036821e+03	
1	5.000000e-02	3.311998e+03	
2	1.000000e-01	3.635826e+03	
3	1.500000e-01	4.022415e+03	
4	2.000000e-01	4.491910e+03	
5	2.500000e-01	5.074077e+03	
6	3.000000e-01	5.814804e+03	
7	3.500000e-01	6.788599e+03	
8	4.000000e-01	8.124563e+03	
9	4.500000e-01	1.006552e+04	
10	5.000000e-01	1.311652e+04	
11	5.500000e-01	1.844417e+04	
12	6.000000e-01	2.882311e+04	
13	6.500000e-01	4.930309e+04	
14	7.000000e-01	8.327159e+04	
15	7.500000e-01	1.275031e+05	
16	8.000000e-01	1.761968e+05	
17	8.500000e-01	2.254125e+05	
18	9.000000e-01	2.732306e+05	
19	9.500000e-01	3.188589e+05	
20	1.000000e+00	3.620407e+05	
21	1.050000e+00	4.027618e+05	
22	1.100000e+00	4.411150e+05	
23	1.150000e+00	4.772368e+05	
24	1.200000e+00	5.112778e+05	
25	1.250000e+00	5.433885e+05	
26	1.300000e+00	5.737126e+05	
27	1.350000e+00	6.023844e+05	
28	1.400000e+00	6.295277e+05	
29	1.450000e+00	6.552563e+05	
30	1.500000e+00	6.796738e+05	
31	1.550000e+00	7.028749e+05	
32	1.600000e+00	7.249459e+05	
33	1.650000e+00	7.459656e+05	
34	1.700000e+00	7.660059e+05	
35	1.750000e+00	7.851323e+05	
36	1.800000e+00	8.034050e+05	
37	1.850000e+00	8.208790e+05	
38	1.900000e+00	8.376046e+05	
39	1.950000e+00	8.536283e+05	
40	2.000000e+00	8.689923e+05	
41	2.050000e+00	8.837355e+05	
42	2.100000e+00	8.978930e+05	
43	2.150000e+00	9.114965e+05	
44	2.200000e+00	9.245735e+05	
45	2.250000e+00	9.371475e+05	
46	2.300000e+00	9.492366e+05	
47	2.350000e+00	9.608527e+05	
48	2.400000e+00	9.719999e+05	
49	2.450000e+00	9.826728e+05	
50	2.500000e+00	9.928537e+05	
51	2.550000e+00	1.002511e+06	
52	2.600000e+00	1.011594e+06	
53	2.650000e+00	1.020034e+06	
54	2.700000e+00	1.027735e+06	

Index   v-sweep         rds             
--------------------------------------------------------------------------------
55	2.750000e+00	1.034574e+06	
56	2.800000e+00	1.040401e+06	
57	2.850000e+00	1.045028e+06	
58	2.900000e+00	1.048239e+06	
59	2.950000e+00	1.049783e+06	
60	3.000000e+00	1.049380e+06	
61	3.050000e+00	1.046732e+06	
62	3.100000e+00	1.041526e+06	
63	3.150000e+00	1.033451e+06	
64	3.200000e+00	1.022221e+06	
65	3.250000e+00	1.007587e+06	
66	3.300000e+00	9.893669e+05	
Reset re-loads circuit ***************************

Circuit: ***************************

Doing analysis at TEMP = 125.000000 and TNOM = 125.000000


No. of Data Rows : 67
                          ***************************
                          DC transfer characteristic  Mon Jan  9 13:58:14  2023
--------------------------------------------------------------------------------
Index   v-sweep         rds             
--------------------------------------------------------------------------------
0	0.000000e+00	1.912656e+03	
1	5.000000e-02	2.019749e+03	
2	1.000000e-01	2.137582e+03	
3	1.500000e-01	2.267847e+03	
4	2.000000e-01	2.412612e+03	
5	2.500000e-01	2.574430e+03	
6	3.000000e-01	2.756494e+03	
7	3.500000e-01	2.962844e+03	
8	4.000000e-01	3.198675e+03	
9	4.500000e-01	3.470779e+03	
10	5.000000e-01	3.788209e+03	
11	5.500000e-01	4.163313e+03	
12	6.000000e-01	4.613381e+03	
13	6.500000e-01	5.163405e+03	
14	7.000000e-01	5.850918e+03	
15	7.500000e-01	6.734969e+03	
16	8.000000e-01	7.913910e+03	
17	8.500000e-01	9.562857e+03	
18	9.000000e-01	1.201479e+04	
19	9.500000e-01	1.591711e+04	
20	1.000000e+00	2.238078e+04	
21	1.050000e+00	3.263341e+04	
22	1.100000e+00	4.698937e+04	
23	1.150000e+00	6.455077e+04	
24	1.200000e+00	8.403560e+04	
25	1.250000e+00	1.044152e+05	
26	1.300000e+00	1.250204e+05	
27	1.350000e+00	1.454505e+05	
28	1.400000e+00	1.654751e+05	
29	1.450000e+00	1.849663e+05	
30	1.500000e+00	2.038576e+05	
31	1.550000e+00	2.221197e+05	
32	1.600000e+00	2.397454e+05	
33	1.650000e+00	2.567413e+05	
34	1.700000e+00	2.731222e+05	
35	1.750000e+00	2.889074e+05	
36	1.800000e+00	3.041191e+05	
37	1.850000e+00	3.187806e+05	
38	1.900000e+00	3.329156e+05	
39	1.950000e+00	3.465475e+05	
40	2.000000e+00	3.596994e+05	
41	2.050000e+00	3.723934e+05	
42	2.100000e+00	3.846509e+05	
43	2.150000e+00	3.964923e+05	
44	2.200000e+00	4.079368e+05	
45	2.250000e+00	4.190029e+05	
46	2.300000e+00	4.297080e+05	
47	2.350000e+00	4.400685e+05	
48	2.400000e+00	4.500997e+05	
49	2.450000e+00	4.598158e+05	
50	2.500000e+00	4.692298e+05	
51	2.550000e+00	4.783531e+05	
52	2.600000e+00	4.871952e+05	
53	2.650000e+00	4.957629e+05	
54	2.700000e+00	5.040597e+05	

Index   v-sweep         rds             
--------------------------------------------------------------------------------
55	2.750000e+00	5.120849e+05	
56	2.800000e+00	5.198316e+05	
57	2.850000e+00	5.272857e+05	
58	2.900000e+00	5.344232e+05	
59	2.950000e+00	5.412084e+05	
60	3.000000e+00	5.475912e+05	
61	3.050000e+00	5.535040e+05	
62	3.100000e+00	5.588597e+05	
63	3.150000e+00	5.635486e+05	
64	3.200000e+00	5.674372e+05	
65	3.250000e+00	5.703669e+05	
66	3.300000e+00	5.721556e+05	
Reset re-loads circuit ***************************

Circuit: ***************************

Doing analysis at TEMP = 125.000000 and TNOM = 125.000000


No. of Data Rows : 67
                          ***************************
                          DC transfer characteristic  Mon Jan  9 13:58:14  2023
--------------------------------------------------------------------------------
Index   v-sweep         rds             
--------------------------------------------------------------------------------
0	0.000000e+00	1.472382e+03	
1	5.000000e-02	1.533228e+03	
2	1.000000e-01	1.598344e+03	
3	1.500000e-01	1.668193e+03	
4	2.000000e-01	1.743306e+03	
5	2.500000e-01	1.824297e+03	
6	3.000000e-01	1.911881e+03	
7	3.500000e-01	2.006892e+03	
8	4.000000e-01	2.110311e+03	
9	4.500000e-01	2.223301e+03	
10	5.000000e-01	2.347252e+03	
11	5.500000e-01	2.483834e+03	
12	6.000000e-01	2.635077e+03	
13	6.500000e-01	2.803474e+03	
14	7.000000e-01	2.992118e+03	
15	7.500000e-01	3.204898e+03	
16	8.000000e-01	3.446778e+03	
17	8.500000e-01	3.724199e+03	
18	9.000000e-01	4.045686e+03	
19	9.500000e-01	4.422785e+03	
20	1.000000e+00	4.871586e+03	
21	1.050000e+00	5.415297e+03	
22	1.100000e+00	6.088857e+03	
23	1.150000e+00	6.947697e+03	
24	1.200000e+00	8.085175e+03	
25	1.250000e+00	9.667157e+03	
26	1.300000e+00	1.199092e+04	
27	1.350000e+00	1.553408e+04	
28	1.400000e+00	2.084983e+04	
29	1.450000e+00	2.823056e+04	
30	1.500000e+00	3.749351e+04	
31	1.550000e+00	4.815847e+04	
32	1.600000e+00	5.972270e+04	
33	1.650000e+00	7.178887e+04	
34	1.700000e+00	8.407749e+04	
35	1.750000e+00	9.640125e+04	
36	1.800000e+00	1.086372e+05	
37	1.850000e+00	1.207056e+05	
38	1.900000e+00	1.325555e+05	
39	1.950000e+00	1.441551e+05	
40	2.000000e+00	1.554856e+05	
41	2.050000e+00	1.665369e+05	
42	2.100000e+00	1.773051e+05	
43	2.150000e+00	1.877901e+05	
44	2.200000e+00	1.979947e+05	
45	2.250000e+00	2.079239e+05	
46	2.300000e+00	2.175837e+05	
47	2.350000e+00	2.269810e+05	
48	2.400000e+00	2.361231e+05	
49	2.450000e+00	2.450179e+05	
50	2.500000e+00	2.536731e+05	
51	2.550000e+00	2.620966e+05	
52	2.600000e+00	2.702961e+05	
53	2.650000e+00	2.782792e+05	
54	2.700000e+00	2.860534e+05	

Index   v-sweep         rds             
--------------------------------------------------------------------------------
55	2.750000e+00	2.936255e+05	
56	2.800000e+00	3.010023e+05	
57	2.850000e+00	3.081899e+05	
58	2.900000e+00	3.151933e+05	
59	2.950000e+00	3.220169e+05	
60	3.000000e+00	3.286629e+05	
61	3.050000e+00	3.351316e+05	
62	3.100000e+00	3.414199e+05	
63	3.150000e+00	3.475204e+05	
64	3.200000e+00	3.534200e+05	
65	3.250000e+00	3.590981e+05	
66	3.300000e+00	3.645248e+05	
Reset re-loads circuit ***************************

Circuit: ***************************

Doing analysis at TEMP = 125.000000 and TNOM = 125.000000


No. of Data Rows : 67
                          ***************************
                          DC transfer characteristic  Mon Jan  9 13:58:14  2023
--------------------------------------------------------------------------------
Index   v-sweep         rds             
--------------------------------------------------------------------------------
0	0.000000e+00	1.240723e+03	
1	5.000000e-02	1.281566e+03	
2	1.000000e-01	1.324606e+03	
3	1.500000e-01	1.370023e+03	
4	2.000000e-01	1.418017e+03	
5	2.500000e-01	1.468811e+03	
6	3.000000e-01	1.522656e+03	
7	3.500000e-01	1.579833e+03	
8	4.000000e-01	1.640658e+03	
9	4.500000e-01	1.705490e+03	
10	5.000000e-01	1.774734e+03	
11	5.500000e-01	1.848855e+03	
12	6.000000e-01	1.928384e+03	
13	6.500000e-01	2.013932e+03	
14	7.000000e-01	2.106207e+03	
15	7.500000e-01	2.206033e+03	
16	8.000000e-01	2.314373e+03	
17	8.500000e-01	2.432364e+03	
18	9.000000e-01	2.561357e+03	
19	9.500000e-01	2.702969e+03	
20	1.000000e+00	2.859154e+03	
21	1.050000e+00	3.032296e+03	
22	1.100000e+00	3.225345e+03	
23	1.150000e+00	3.441989e+03	
24	1.200000e+00	3.686927e+03	
25	1.250000e+00	3.966247e+03	
26	1.300000e+00	4.288032e+03	
27	1.350000e+00	4.663323e+03	
28	1.400000e+00	5.107751e+03	
29	1.450000e+00	5.644459e+03	
30	1.500000e+00	6.309572e+03	
31	1.550000e+00	7.162702e+03	
32	1.600000e+00	8.306383e+03	
33	1.650000e+00	9.915690e+03	
34	1.700000e+00	1.225873e+04	
35	1.750000e+00	1.564756e+04	
36	1.800000e+00	2.028752e+04	
37	1.850000e+00	2.615445e+04	
38	1.900000e+00	3.303578e+04	
39	1.950000e+00	4.065718e+04	
40	2.000000e+00	4.877030e+04	
41	2.050000e+00	5.718127e+04	
42	2.100000e+00	6.574851e+04	
43	2.150000e+00	7.437151e+04	
44	2.200000e+00	8.297979e+04	
45	2.250000e+00	9.152417e+04	
46	2.300000e+00	9.997053e+04	
47	2.350000e+00	1.082954e+05	
48	2.400000e+00	1.164827e+05	
49	2.450000e+00	1.245221e+05	
50	2.500000e+00	1.324070e+05	
51	2.550000e+00	1.401335e+05	
52	2.600000e+00	1.477001e+05	
53	2.650000e+00	1.551067e+05	
54	2.700000e+00	1.623542e+05	

Index   v-sweep         rds             
--------------------------------------------------------------------------------
55	2.750000e+00	1.694444e+05	
56	2.800000e+00	1.763799e+05	
57	2.850000e+00	1.831634e+05	
58	2.900000e+00	1.897980e+05	
59	2.950000e+00	1.962872e+05	
60	3.000000e+00	2.026343e+05	
61	3.050000e+00	2.088428e+05	
62	3.100000e+00	2.149162e+05	
63	3.150000e+00	2.208577e+05	
64	3.200000e+00	2.266703e+05	
65	3.250000e+00	2.323565e+05	
66	3.300000e+00	2.379181e+05	
Reset re-loads circuit ***************************

Circuit: ***************************

Doing analysis at TEMP = 125.000000 and TNOM = 125.000000


No. of Data Rows : 67
                          ***************************
                          DC transfer characteristic  Mon Jan  9 13:58:14  2023
--------------------------------------------------------------------------------
Index   v-sweep         rds             
--------------------------------------------------------------------------------
0	0.000000e+00	1.108040e+03	
1	5.000000e-02	1.138458e+03	
2	1.000000e-01	1.170202e+03	
3	1.500000e-01	1.203358e+03	
4	2.000000e-01	1.238023e+03	
5	2.500000e-01	1.274300e+03	
6	3.000000e-01	1.312303e+03	
7	3.500000e-01	1.352156e+03	
8	4.000000e-01	1.393997e+03	
9	4.500000e-01	1.437976e+03	
10	5.000000e-01	1.484260e+03	
11	5.500000e-01	1.533034e+03	
12	6.000000e-01	1.584503e+03	
13	6.500000e-01	1.638893e+03	
14	7.000000e-01	1.696459e+03	
15	7.500000e-01	1.757487e+03	
16	8.000000e-01	1.822296e+03	
17	8.500000e-01	1.891248e+03	
18	9.000000e-01	1.964750e+03	
19	9.500000e-01	2.043267e+03	
20	1.000000e+00	2.127330e+03	
21	1.050000e+00	2.217546e+03	
22	1.100000e+00	2.314617e+03	
23	1.150000e+00	2.419358e+03	
24	1.200000e+00	2.532716e+03	
25	1.250000e+00	2.655808e+03	
26	1.300000e+00	2.789956e+03	
27	1.350000e+00	2.936736e+03	
28	1.400000e+00	3.098055e+03	
29	1.450000e+00	3.276236e+03	
30	1.500000e+00	3.474157e+03	
31	1.550000e+00	3.695442e+03	
32	1.600000e+00	3.944742e+03	
33	1.650000e+00	4.228190e+03	
34	1.700000e+00	4.554124e+03	
35	1.750000e+00	4.934340e+03	
36	1.800000e+00	5.386324e+03	
37	1.850000e+00	5.937355e+03	
38	1.900000e+00	6.632052e+03	
39	1.950000e+00	7.545238e+03	
40	2.000000e+00	8.799158e+03	
41	2.050000e+00	1.057176e+04	
42	2.100000e+00	1.306480e+04	
43	2.150000e+00	1.642016e+04	
44	2.200000e+00	2.064813e+04	
45	2.250000e+00	2.563771e+04	
46	2.300000e+00	3.122231e+04	
47	2.350000e+00	3.723634e+04	
48	2.400000e+00	4.354092e+04	
49	2.450000e+00	5.002845e+04	
50	2.500000e+00	5.661864e+04	
51	2.550000e+00	6.325251e+04	
52	2.600000e+00	6.988702e+04	
53	2.650000e+00	7.649083e+04	
54	2.700000e+00	8.304117e+04	

Index   v-sweep         rds             
--------------------------------------------------------------------------------
55	2.750000e+00	8.952152e+04	
56	2.800000e+00	9.592000e+04	
57	2.850000e+00	1.022282e+05	
58	2.900000e+00	1.084401e+05	
59	2.950000e+00	1.145519e+05	
60	3.000000e+00	1.205611e+05	
61	3.050000e+00	1.264662e+05	
62	3.100000e+00	1.322669e+05	
63	3.150000e+00	1.379632e+05	
64	3.200000e+00	1.435557e+05	
65	3.250000e+00	1.490456e+05	
66	3.300000e+00	1.544340e+05	
Reset re-loads circuit ***************************

Circuit: ***************************

Note: No ".plot", ".print", or ".fourier" lines; no simulations run
