
Note: Compatibility modes selected: hs

Warning: m=xx on .subckt line will override multiplier m hierarchy!


Circuit: ***************************

Doing analysis at TEMP = 125.000000 and TNOM = 125.000000


No. of Data Rows : 67
                          ***************************
                          DC transfer characteristic  Mon Jan  9 13:58:14  2023
--------------------------------------------------------------------------------
Index   v-sweep         rds             
--------------------------------------------------------------------------------
0	0.000000e+00	2.472447e+04	
1	5.000000e-02	3.092751e+04	
2	1.000000e-01	4.071802e+04	
3	1.500000e-01	5.813317e+04	
4	2.000000e-01	9.465357e+04	
5	2.500000e-01	1.822722e+05	
6	3.000000e-01	3.649193e+05	
7	3.500000e-01	6.164116e+05	
8	4.000000e-01	8.684610e+05	
9	4.500000e-01	1.094212e+06	
10	5.000000e-01	1.293149e+06	
11	5.500000e-01	1.469852e+06	
12	6.000000e-01	1.628478e+06	
13	6.500000e-01	1.772155e+06	
14	7.000000e-01	1.903211e+06	
15	7.500000e-01	2.023423e+06	
16	8.000000e-01	2.134189e+06	
17	8.500000e-01	2.236637e+06	
18	9.000000e-01	2.331698e+06	
19	9.500000e-01	2.420156e+06	
20	1.000000e+00	2.502675e+06	
21	1.050000e+00	2.579830e+06	
22	1.100000e+00	2.652116e+06	
23	1.150000e+00	2.719971e+06	
24	1.200000e+00	2.783776e+06	
25	1.250000e+00	2.843870e+06	
26	1.300000e+00	2.900556e+06	
27	1.350000e+00	2.954102e+06	
28	1.400000e+00	3.004750e+06	
29	1.450000e+00	3.052716e+06	
30	1.500000e+00	3.098196e+06	
31	1.550000e+00	3.141368e+06	
32	1.600000e+00	3.182391e+06	
33	1.650000e+00	3.221412e+06	
34	1.700000e+00	3.258561e+06	
35	1.750000e+00	3.293960e+06	
36	1.800000e+00	3.327716e+06	
37	1.850000e+00	3.359924e+06	
38	1.900000e+00	3.390670e+06	
39	1.950000e+00	3.420026e+06	
40	2.000000e+00	3.448050e+06	
41	2.050000e+00	3.474785e+06	
42	2.100000e+00	3.500256e+06	
43	2.150000e+00	3.524466e+06	
44	2.200000e+00	3.547394e+06	
45	2.250000e+00	3.568992e+06	
46	2.300000e+00	3.589176e+06	
47	2.350000e+00	3.607825e+06	
48	2.400000e+00	3.624777e+06	
49	2.450000e+00	3.639818e+06	
50	2.500000e+00	3.652687e+06	
51	2.550000e+00	3.663064e+06	
52	2.600000e+00	3.670573e+06	
53	2.650000e+00	3.674781e+06	
54	2.700000e+00	3.675199e+06	

Index   v-sweep         rds             
--------------------------------------------------------------------------------
55	2.750000e+00	3.671289e+06	
56	2.800000e+00	3.662472e+06	
57	2.850000e+00	3.648142e+06	
58	2.900000e+00	3.627683e+06	
59	2.950000e+00	3.600494e+06	
60	3.000000e+00	3.566011e+06	
61	3.050000e+00	3.523741e+06	
62	3.100000e+00	3.473291e+06	
63	3.150000e+00	3.414397e+06	
64	3.200000e+00	3.346957e+06	
65	3.250000e+00	3.271048e+06	
66	3.300000e+00	3.186944e+06	
Reset re-loads circuit ***************************

Circuit: ***************************

Doing analysis at TEMP = 125.000000 and TNOM = 125.000000


No. of Data Rows : 67
                          ***************************
                          DC transfer characteristic  Mon Jan  9 13:58:14  2023
--------------------------------------------------------------------------------
Index   v-sweep         rds             
--------------------------------------------------------------------------------
0	0.000000e+00	8.454382e+03	
1	5.000000e-02	9.250729e+03	
2	1.000000e-01	1.018035e+04	
3	1.500000e-01	1.127937e+04	
4	2.000000e-01	1.259819e+04	
5	2.500000e-01	1.420919e+04	
6	3.000000e-01	1.621990e+04	
7	3.500000e-01	1.879653e+04	
8	4.000000e-01	2.220781e+04	
9	4.500000e-01	2.690924e+04	
10	5.000000e-01	3.370254e+04	
11	5.500000e-01	4.398740e+04	
12	6.000000e-01	5.987726e+04	
13	6.500000e-01	8.331174e+04	
14	7.000000e-01	1.140613e+05	
15	7.500000e-01	1.495666e+05	
16	8.000000e-01	1.870849e+05	
17	8.500000e-01	2.248842e+05	
18	9.000000e-01	2.620962e+05	
19	9.500000e-01	2.983291e+05	
20	1.000000e+00	3.334225e+05	
21	1.050000e+00	3.673254e+05	
22	1.100000e+00	4.000396e+05	
23	1.150000e+00	4.315920e+05	
24	1.200000e+00	4.620219e+05	
25	1.250000e+00	4.913734e+05	
26	1.300000e+00	5.196929e+05	
27	1.350000e+00	5.470264e+05	
28	1.400000e+00	5.734186e+05	
29	1.450000e+00	5.989130e+05	
30	1.500000e+00	6.235508e+05	
31	1.550000e+00	6.473715e+05	
32	1.600000e+00	6.704123e+05	
33	1.650000e+00	6.927086e+05	
34	1.700000e+00	7.142940e+05	
35	1.750000e+00	7.351999e+05	
36	1.800000e+00	7.554564e+05	
37	1.850000e+00	7.750918e+05	
38	1.900000e+00	7.941327e+05	
39	1.950000e+00	8.126043e+05	
40	2.000000e+00	8.305304e+05	
41	2.050000e+00	8.479332e+05	
42	2.100000e+00	8.648334e+05	
43	2.150000e+00	8.812498e+05	
44	2.200000e+00	8.971993e+05	
45	2.250000e+00	9.126959e+05	
46	2.300000e+00	9.277505e+05	
47	2.350000e+00	9.423697e+05	
48	2.400000e+00	9.565543e+05	
49	2.450000e+00	9.702980e+05	
50	2.500000e+00	9.835852e+05	
51	2.550000e+00	9.963889e+05	
52	2.600000e+00	1.008667e+06	
53	2.650000e+00	1.020362e+06	
54	2.700000e+00	1.031394e+06	

Index   v-sweep         rds             
--------------------------------------------------------------------------------
55	2.750000e+00	1.041660e+06	
56	2.800000e+00	1.051030e+06	
57	2.850000e+00	1.059345e+06	
58	2.900000e+00	1.066413e+06	
59	2.950000e+00	1.072013e+06	
60	3.000000e+00	1.075890e+06	
61	3.050000e+00	1.077764e+06	
62	3.100000e+00	1.077332e+06	
63	3.150000e+00	1.074281e+06	
64	3.200000e+00	1.068302e+06	
65	3.250000e+00	1.059102e+06	
66	3.300000e+00	1.046430e+06	
Reset re-loads circuit ***************************

Circuit: ***************************

Doing analysis at TEMP = 125.000000 and TNOM = 125.000000


No. of Data Rows : 67
                          ***************************
                          DC transfer characteristic  Mon Jan  9 13:58:14  2023
--------------------------------------------------------------------------------
Index   v-sweep         rds             
--------------------------------------------------------------------------------
0	0.000000e+00	5.488686e+03	
1	5.000000e-02	5.829809e+03	
2	1.000000e-01	6.205029e+03	
3	1.500000e-01	6.619643e+03	
4	2.000000e-01	7.080108e+03	
5	2.500000e-01	7.594376e+03	
6	3.000000e-01	8.172346e+03	
7	3.500000e-01	8.826508e+03	
8	4.000000e-01	9.572840e+03	
9	4.500000e-01	1.043212e+04	
10	5.000000e-01	1.143187e+04	
11	5.500000e-01	1.260931e+04	
12	6.000000e-01	1.401603e+04	
13	6.500000e-01	1.572551e+04	
14	7.000000e-01	1.784571e+04	
15	7.500000e-01	2.054029e+04	
16	8.000000e-01	2.406342e+04	
17	8.500000e-01	2.880725e+04	
18	9.000000e-01	3.532636e+04	
19	9.500000e-01	4.422366e+04	
20	1.000000e+00	5.581294e+04	
21	1.050000e+00	6.984124e+04	
22	1.100000e+00	8.564684e+04	
23	1.150000e+00	1.025297e+05	
24	1.200000e+00	1.199538e+05	
25	1.250000e+00	1.375649e+05	
26	1.300000e+00	1.551424e+05	
27	1.350000e+00	1.725521e+05	
28	1.400000e+00	1.897135e+05	
29	1.450000e+00	2.065784e+05	
30	1.500000e+00	2.231193e+05	
31	1.550000e+00	2.393214e+05	
32	1.600000e+00	2.551782e+05	
33	1.650000e+00	2.706885e+05	
34	1.700000e+00	2.858544e+05	
35	1.750000e+00	3.006807e+05	
36	1.800000e+00	3.151734e+05	
37	1.850000e+00	3.293396e+05	
38	1.900000e+00	3.431870e+05	
39	1.950000e+00	3.567235e+05	
40	2.000000e+00	3.699574e+05	
41	2.050000e+00	3.828969e+05	
42	2.100000e+00	3.955502e+05	
43	2.150000e+00	4.079254e+05	
44	2.200000e+00	4.200305e+05	
45	2.250000e+00	4.318732e+05	
46	2.300000e+00	4.434609e+05	
47	2.350000e+00	4.548008e+05	
48	2.400000e+00	4.658997e+05	
49	2.450000e+00	4.767635e+05	
50	2.500000e+00	4.873977e+05	
51	2.550000e+00	4.978062e+05	
52	2.600000e+00	5.079913e+05	
53	2.650000e+00	5.179531e+05	
54	2.700000e+00	5.276879e+05	

Index   v-sweep         rds             
--------------------------------------------------------------------------------
55	2.750000e+00	5.371878e+05	
56	2.800000e+00	5.464388e+05	
57	2.850000e+00	5.554192e+05	
58	2.900000e+00	5.640974e+05	
59	2.950000e+00	5.724297e+05	
60	3.000000e+00	5.803577e+05	
61	3.050000e+00	5.878058e+05	
62	3.100000e+00	5.946786e+05	
63	3.150000e+00	6.008587e+05	
64	3.200000e+00	6.062050e+05	
65	3.250000e+00	6.105526e+05	
66	3.300000e+00	6.137132e+05	
Reset re-loads circuit ***************************

Circuit: ***************************

Doing analysis at TEMP = 125.000000 and TNOM = 125.000000


No. of Data Rows : 67
                          ***************************
                          DC transfer characteristic  Mon Jan  9 13:58:14  2023
--------------------------------------------------------------------------------
Index   v-sweep         rds             
--------------------------------------------------------------------------------
0	0.000000e+00	4.242272e+03	
1	5.000000e-02	4.444221e+03	
2	1.000000e-01	4.660692e+03	
3	1.500000e-01	4.893271e+03	
4	2.000000e-01	5.143789e+03	
5	2.500000e-01	5.414362e+03	
6	3.000000e-01	5.707455e+03	
7	3.500000e-01	6.025955e+03	
8	4.000000e-01	6.373269e+03	
9	4.500000e-01	6.753441e+03	
10	5.000000e-01	7.171314e+03	
11	5.500000e-01	7.632738e+03	
12	6.000000e-01	8.144850e+03	
13	6.500000e-01	8.716454e+03	
14	7.000000e-01	9.358545e+03	
15	7.500000e-01	1.008506e+04	
16	8.000000e-01	1.091398e+04	
17	8.500000e-01	1.186894e+04	
18	9.000000e-01	1.298182e+04	
19	9.500000e-01	1.429690e+04	
20	1.000000e+00	1.587765e+04	
21	1.050000e+00	1.781825e+04	
22	1.100000e+00	2.026131e+04	
23	1.150000e+00	2.341879e+04	
24	1.200000e+00	2.757489e+04	
25	1.250000e+00	3.302433e+04	
26	1.300000e+00	3.993238e+04	
27	1.350000e+00	4.822688e+04	
28	1.400000e+00	5.764171e+04	
29	1.450000e+00	6.785099e+04	
30	1.500000e+00	7.856788e+04	
31	1.550000e+00	8.957609e+04	
32	1.600000e+00	1.007240e+05	
33	1.650000e+00	1.119086e+05	
34	1.700000e+00	1.230604e+05	
35	1.750000e+00	1.341328e+05	
36	1.800000e+00	1.450946e+05	
37	1.850000e+00	1.559248e+05	
38	1.900000e+00	1.666093e+05	
39	1.950000e+00	1.771392e+05	
40	2.000000e+00	1.875089e+05	
41	2.050000e+00	1.977151e+05	
42	2.100000e+00	2.077566e+05	
43	2.150000e+00	2.176330e+05	
44	2.200000e+00	2.273452e+05	
45	2.250000e+00	2.368945e+05	
46	2.300000e+00	2.462830e+05	
47	2.350000e+00	2.555128e+05	
48	2.400000e+00	2.645864e+05	
49	2.450000e+00	2.735065e+05	
50	2.500000e+00	2.822760e+05	
51	2.550000e+00	2.908976e+05	
52	2.600000e+00	2.993742e+05	
53	2.650000e+00	3.077085e+05	
54	2.700000e+00	3.159031e+05	

Index   v-sweep         rds             
--------------------------------------------------------------------------------
55	2.750000e+00	3.239601e+05	
56	2.800000e+00	3.318813e+05	
57	2.850000e+00	3.396673e+05	
58	2.900000e+00	3.473176e+05	
59	2.950000e+00	3.548297e+05	
60	3.000000e+00	3.621983e+05	
61	3.050000e+00	3.694145e+05	
62	3.100000e+00	3.764641e+05	
63	3.150000e+00	3.833267e+05	
64	3.200000e+00	3.899734e+05	
65	3.250000e+00	3.963649e+05	
66	3.300000e+00	4.024497e+05	
Reset re-loads circuit ***************************

Circuit: ***************************

Doing analysis at TEMP = 125.000000 and TNOM = 125.000000


No. of Data Rows : 67
                          ***************************
                          DC transfer characteristic  Mon Jan  9 13:58:14  2023
--------------------------------------------------------------------------------
Index   v-sweep         rds             
--------------------------------------------------------------------------------
0	0.000000e+00	3.600459e+03	
1	5.000000e-02	3.741953e+03	
2	1.000000e-01	3.891505e+03	
3	1.500000e-01	4.049802e+03	
4	2.000000e-01	4.217612e+03	
5	2.500000e-01	4.395797e+03	
6	3.000000e-01	4.585325e+03	
7	3.500000e-01	4.787290e+03	
8	4.000000e-01	5.002933e+03	
9	4.500000e-01	5.233666e+03	
10	5.000000e-01	5.481102e+03	
11	5.500000e-01	5.747095e+03	
12	6.000000e-01	6.033788e+03	
13	6.500000e-01	6.343668e+03	
14	7.000000e-01	6.679644e+03	
15	7.500000e-01	7.045138e+03	
16	8.000000e-01	7.444211e+03	
17	8.500000e-01	7.881726e+03	
18	9.000000e-01	8.363563e+03	
19	9.500000e-01	8.896918e+03	
20	1.000000e+00	9.490732e+03	
21	1.050000e+00	1.015630e+04	
22	1.100000e+00	1.090823e+04	
23	1.150000e+00	1.176588e+04	
24	1.200000e+00	1.275577e+04	
25	1.250000e+00	1.391558e+04	
26	1.300000e+00	1.530076e+04	
27	1.350000e+00	1.699466e+04	
28	1.400000e+00	1.912095e+04	
29	1.450000e+00	2.184907e+04	
30	1.500000e+00	2.537133e+04	
31	1.550000e+00	2.983721e+04	
32	1.600000e+00	3.527900e+04	
33	1.650000e+00	4.159664e+04	
34	1.700000e+00	4.861123e+04	
35	1.750000e+00	5.613182e+04	
36	1.800000e+00	6.399433e+04	
37	1.850000e+00	7.207225e+04	
38	1.900000e+00	8.027313e+04	
39	1.950000e+00	8.853092e+04	
40	2.000000e+00	9.679884e+04	
41	2.050000e+00	1.050437e+05	
42	2.100000e+00	1.132420e+05	
43	2.150000e+00	1.213768e+05	
44	2.200000e+00	1.294364e+05	
45	2.250000e+00	1.374120e+05	
46	2.300000e+00	1.452978e+05	
47	2.350000e+00	1.530896e+05	
48	2.400000e+00	1.607848e+05	
49	2.450000e+00	1.683814e+05	
50	2.500000e+00	1.758787e+05	
51	2.550000e+00	1.832762e+05	
52	2.600000e+00	1.905741e+05	
53	2.650000e+00	1.977727e+05	
54	2.700000e+00	2.048729e+05	

Index   v-sweep         rds             
--------------------------------------------------------------------------------
55	2.750000e+00	2.118754e+05	
56	2.800000e+00	2.187813e+05	
57	2.850000e+00	2.255917e+05	
58	2.900000e+00	2.323079e+05	
59	2.950000e+00	2.389308e+05	
60	3.000000e+00	2.454613e+05	
61	3.050000e+00	2.518999e+05	
62	3.100000e+00	2.582467e+05	
63	3.150000e+00	2.645006e+05	
64	3.200000e+00	2.706591e+05	
65	3.250000e+00	2.767177e+05	
66	3.300000e+00	2.826691e+05	
Reset re-loads circuit ***************************

Circuit: ***************************

Doing analysis at TEMP = 125.000000 and TNOM = 125.000000


No. of Data Rows : 67
                          ***************************
                          DC transfer characteristic  Mon Jan  9 13:58:14  2023
--------------------------------------------------------------------------------
Index   v-sweep         rds             
--------------------------------------------------------------------------------
0	0.000000e+00	3.164754e+03	
1	5.000000e-02	3.270720e+03	
2	1.000000e-01	3.381659e+03	
3	1.500000e-01	3.497917e+03	
4	2.000000e-01	3.619872e+03	
5	2.500000e-01	3.747938e+03	
6	3.000000e-01	3.882572e+03	
7	3.500000e-01	4.024278e+03	
8	4.000000e-01	4.173612e+03	
9	4.500000e-01	4.331192e+03	
10	5.000000e-01	4.497704e+03	
11	5.500000e-01	4.673912e+03	
12	6.000000e-01	4.860672e+03	
13	6.500000e-01	5.058944e+03	
14	7.000000e-01	5.269809e+03	
15	7.500000e-01	5.494490e+03	
16	8.000000e-01	5.734376e+03	
17	8.500000e-01	5.991053e+03	
18	9.000000e-01	6.266337e+03	
19	9.500000e-01	6.562327e+03	
20	1.000000e+00	6.881459e+03	
21	1.050000e+00	7.226585e+03	
22	1.100000e+00	7.601072e+03	
23	1.150000e+00	8.008938e+03	
24	1.200000e+00	8.455043e+03	
25	1.250000e+00	8.945353e+03	
26	1.300000e+00	9.487340e+03	
27	1.350000e+00	1.009060e+04	
28	1.400000e+00	1.076779e+04	
29	1.450000e+00	1.153628e+04	
30	1.500000e+00	1.242066e+04	
31	1.550000e+00	1.345708e+04	
32	1.600000e+00	1.469953e+04	
33	1.650000e+00	1.622773e+04	
34	1.700000e+00	1.815192e+04	
35	1.750000e+00	2.060387e+04	
36	1.800000e+00	2.370390e+04	
37	1.850000e+00	2.751378e+04	
38	1.900000e+00	3.201004e+04	
39	1.950000e+00	3.709916e+04	
40	2.000000e+00	4.265653e+04	
41	2.050000e+00	4.855990e+04	
42	2.100000e+00	5.470593e+04	
43	2.150000e+00	6.101386e+04	
44	2.200000e+00	6.742301e+04	
45	2.250000e+00	7.388856e+04	
46	2.300000e+00	8.037766e+04	
47	2.350000e+00	8.686615e+04	
48	2.400000e+00	9.333626e+04	
49	2.450000e+00	9.977483e+04	
50	2.500000e+00	1.061721e+05	
51	2.550000e+00	1.125208e+05	
52	2.600000e+00	1.188156e+05	
53	2.650000e+00	1.250525e+05	
54	2.700000e+00	1.312285e+05	

Index   v-sweep         rds             
--------------------------------------------------------------------------------
55	2.750000e+00	1.373416e+05	
56	2.800000e+00	1.433903e+05	
57	2.850000e+00	1.493736e+05	
58	2.900000e+00	1.552910e+05	
59	2.950000e+00	1.611422e+05	
60	3.000000e+00	1.669271e+05	
61	3.050000e+00	1.726458e+05	
62	3.100000e+00	1.782986e+05	
63	3.150000e+00	1.838859e+05	
64	3.200000e+00	1.894079e+05	
65	3.250000e+00	1.948649e+05	
66	3.300000e+00	2.002569e+05	
Reset re-loads circuit ***************************

Circuit: ***************************

Note: No ".plot", ".print", or ".fourier" lines; no simulations run
