
Note: Compatibility modes selected: hs

Warning: m=xx on .subckt line will override multiplier m hierarchy!


Circuit: ***************************

Doing analysis at TEMP = 25.000000 and TNOM = 25.000000


No. of Data Rows : 67
                          ***************************
                          DC transfer characteristic  Mon Jan  9 13:58:13  2023
--------------------------------------------------------------------------------
Index   v-sweep         rds             
--------------------------------------------------------------------------------
0	0.000000e+00	2.295440e+05	
1	5.000000e-02	3.597114e+05	
2	1.000000e-01	8.002072e+05	
3	1.500000e-01	5.052612e+06	
4	2.000000e-01	3.488705e+07	
5	2.500000e-01	8.353030e+07	
6	3.000000e-01	1.230866e+08	
7	3.500000e-01	1.511755e+08	
8	4.000000e-01	1.716075e+08	
9	4.500000e-01	1.871523e+08	
10	5.000000e-01	1.994419e+08	
11	5.500000e-01	2.094511e+08	
12	6.000000e-01	2.177916e+08	
13	6.500000e-01	2.248675e+08	
14	7.000000e-01	2.309578e+08	
15	7.500000e-01	2.362623e+08	
16	8.000000e-01	2.409286e+08	
17	8.500000e-01	2.450683e+08	
18	9.000000e-01	2.487678e+08	
19	9.500000e-01	2.520952e+08	
20	1.000000e+00	2.551048e+08	
21	1.050000e+00	2.578408e+08	
22	1.100000e+00	2.603392e+08	
23	1.150000e+00	2.626301e+08	
24	1.200000e+00	2.647385e+08	
25	1.250000e+00	2.666855e+08	
26	1.300000e+00	2.684891e+08	
27	1.350000e+00	2.701646e+08	
28	1.400000e+00	2.717253e+08	
29	1.450000e+00	2.731826e+08	
30	1.500000e+00	2.745465e+08	
31	1.550000e+00	2.758256e+08	
32	1.600000e+00	2.770275e+08	
33	1.650000e+00	2.781590e+08	
34	1.700000e+00	2.792258e+08	
35	1.750000e+00	2.802331e+08	
36	1.800000e+00	2.811852e+08	
37	1.850000e+00	2.820858e+08	
38	1.900000e+00	2.829379e+08	
39	1.950000e+00	2.837438e+08	
40	2.000000e+00	2.845051e+08	
41	2.050000e+00	2.852225e+08	
42	2.100000e+00	2.858958e+08	
43	2.150000e+00	2.865239e+08	
44	2.200000e+00	2.871045e+08	
45	2.250000e+00	2.876340e+08	
46	2.300000e+00	2.881075e+08	
47	2.350000e+00	2.885187e+08	
48	2.400000e+00	2.888597e+08	
49	2.450000e+00	2.891207e+08	
50	2.500000e+00	2.892903e+08	
51	2.550000e+00	2.893553e+08	
52	2.600000e+00	2.893005e+08	
53	2.650000e+00	2.891091e+08	
54	2.700000e+00	2.887626e+08	

Index   v-sweep         rds             
--------------------------------------------------------------------------------
55	2.750000e+00	2.882407e+08	
56	2.800000e+00	2.875220e+08	
57	2.850000e+00	2.865841e+08	
58	2.900000e+00	2.854040e+08	
59	2.950000e+00	2.839584e+08	
60	3.000000e+00	2.822247e+08	
61	3.050000e+00	2.801811e+08	
62	3.100000e+00	2.778078e+08	
63	3.150000e+00	2.750873e+08	
64	3.200000e+00	2.720052e+08	
65	3.250000e+00	2.685512e+08	
66	3.300000e+00	2.647192e+08	
Reset re-loads circuit ***************************

Circuit: ***************************

Doing analysis at TEMP = 25.000000 and TNOM = 25.000000


No. of Data Rows : 67
                          ***************************
                          DC transfer characteristic  Mon Jan  9 13:58:13  2023
--------------------------------------------------------------------------------
Index   v-sweep         rds             
--------------------------------------------------------------------------------
0	0.000000e+00	5.464721e+04	
1	5.000000e-02	6.085061e+04	
2	1.000000e-01	6.860274e+04	
3	1.500000e-01	7.856552e+04	
4	2.000000e-01	9.183964e+04	
5	2.500000e-01	1.103980e+05	
6	3.000000e-01	1.381512e+05	
7	3.500000e-01	1.840231e+05	
8	4.000000e-01	2.729886e+05	
9	4.500000e-01	4.973636e+05	
10	5.000000e-01	1.257260e+06	
11	5.500000e-01	3.472068e+06	
12	6.000000e-01	7.110503e+06	
13	6.500000e-01	1.108921e+07	
14	7.000000e-01	1.480953e+07	
15	7.500000e-01	1.814300e+07	
16	8.000000e-01	2.111168e+07	
17	8.500000e-01	2.376624e+07	
18	9.000000e-01	2.615493e+07	
19	9.500000e-01	2.831789e+07	
20	1.000000e+00	3.028762e+07	
21	1.050000e+00	3.209040e+07	
22	1.100000e+00	3.374772e+07	
23	1.150000e+00	3.527731e+07	
24	1.200000e+00	3.669396e+07	
25	1.250000e+00	3.801018e+07	
26	1.300000e+00	3.923659e+07	
27	1.350000e+00	4.038231e+07	
28	1.400000e+00	4.145523e+07	
29	1.450000e+00	4.246221e+07	
30	1.500000e+00	4.340923e+07	
31	1.550000e+00	4.430159e+07	
32	1.600000e+00	4.514394e+07	
33	1.650000e+00	4.594041e+07	
34	1.700000e+00	4.669468e+07	
35	1.750000e+00	4.741006e+07	
36	1.800000e+00	4.808949e+07	
37	1.850000e+00	4.873562e+07	
38	1.900000e+00	4.935085e+07	
39	1.950000e+00	4.993731e+07	
40	2.000000e+00	5.049695e+07	
41	2.050000e+00	5.103149e+07	
42	2.100000e+00	5.154243e+07	
43	2.150000e+00	5.203110e+07	
44	2.200000e+00	5.249857e+07	
45	2.250000e+00	5.294570e+07	
46	2.300000e+00	5.337304e+07	
47	2.350000e+00	5.378085e+07	
48	2.400000e+00	5.416899e+07	
49	2.450000e+00	5.453689e+07	
50	2.500000e+00	5.488351e+07	
51	2.550000e+00	5.520717e+07	
52	2.600000e+00	5.550557e+07	
53	2.650000e+00	5.577568e+07	
54	2.700000e+00	5.601362e+07	

Index   v-sweep         rds             
--------------------------------------------------------------------------------
55	2.750000e+00	5.621468e+07	
56	2.800000e+00	5.637323e+07	
57	2.850000e+00	5.648271e+07	
58	2.900000e+00	5.653564e+07	
59	2.950000e+00	5.652376e+07	
60	3.000000e+00	5.643805e+07	
61	3.050000e+00	5.626902e+07	
62	3.100000e+00	5.600692e+07	
63	3.150000e+00	5.564207e+07	
64	3.200000e+00	5.516532e+07	
65	3.250000e+00	5.456847e+07	
66	3.300000e+00	5.384476e+07	
Reset re-loads circuit ***************************

Circuit: ***************************

Doing analysis at TEMP = 25.000000 and TNOM = 25.000000


No. of Data Rows : 67
                          ***************************
                          DC transfer characteristic  Mon Jan  9 13:58:13  2023
--------------------------------------------------------------------------------
Index   v-sweep         rds             
--------------------------------------------------------------------------------
0	0.000000e+00	3.254777e+04	
1	5.000000e-02	3.455605e+04	
2	1.000000e-01	3.681818e+04	
3	1.500000e-01	3.938551e+04	
4	2.000000e-01	4.232424e+04	
5	2.500000e-01	4.572120e+04	
6	3.000000e-01	4.969257e+04	
7	3.500000e-01	5.439736e+04	
8	4.000000e-01	6.005919e+04	
9	4.500000e-01	6.700271e+04	
10	5.000000e-01	7.571763e+04	
11	5.500000e-01	8.697838e+04	
12	6.000000e-01	1.020839e+05	
13	6.500000e-01	1.233835e+05	
14	7.000000e-01	1.555643e+05	
15	7.500000e-01	2.092452e+05	
16	8.000000e-01	3.123278e+05	
17	8.500000e-01	5.444745e+05	
18	9.000000e-01	1.079951e+06	
19	9.500000e-01	2.043015e+06	
20	1.000000e+00	3.301736e+06	
21	1.050000e+00	4.654824e+06	
22	1.100000e+00	5.989885e+06	
23	1.150000e+00	7.264041e+06	
24	1.200000e+00	8.465347e+06	
25	1.250000e+00	9.593606e+06	
26	1.300000e+00	1.065272e+07	
27	1.350000e+00	1.164779e+07	
28	1.400000e+00	1.258401e+07	
29	1.450000e+00	1.346629e+07	
30	1.500000e+00	1.429910e+07	
31	1.550000e+00	1.508649e+07	
32	1.600000e+00	1.583210e+07	
33	1.650000e+00	1.653919e+07	
34	1.700000e+00	1.721069e+07	
35	1.750000e+00	1.784926e+07	
36	1.800000e+00	1.845726e+07	
37	1.850000e+00	1.903688e+07	
38	1.900000e+00	1.959005e+07	
39	1.950000e+00	2.011857e+07	
40	2.000000e+00	2.062405e+07	
41	2.050000e+00	2.110798e+07	
42	2.100000e+00	2.157170e+07	
43	2.150000e+00	2.201647e+07	
44	2.200000e+00	2.244343e+07	
45	2.250000e+00	2.285361e+07	
46	2.300000e+00	2.324798e+07	
47	2.350000e+00	2.362742e+07	
48	2.400000e+00	2.399271e+07	
49	2.450000e+00	2.434456e+07	
50	2.500000e+00	2.468359e+07	
51	2.550000e+00	2.501030e+07	
52	2.600000e+00	2.532508e+07	
53	2.650000e+00	2.562814e+07	
54	2.700000e+00	2.591953e+07	

Index   v-sweep         rds             
--------------------------------------------------------------------------------
55	2.750000e+00	2.619907e+07	
56	2.800000e+00	2.646632e+07	
57	2.850000e+00	2.672049e+07	
58	2.900000e+00	2.696041e+07	
59	2.950000e+00	2.718449e+07	
60	3.000000e+00	2.739059e+07	
61	3.050000e+00	2.757602e+07	
62	3.100000e+00	2.773749e+07	
63	3.150000e+00	2.787102e+07	
64	3.200000e+00	2.797200e+07	
65	3.250000e+00	2.803514e+07	
66	3.300000e+00	2.805463e+07	
Reset re-loads circuit ***************************

Circuit: ***************************

Doing analysis at TEMP = 25.000000 and TNOM = 25.000000


No. of Data Rows : 67
                          ***************************
                          DC transfer characteristic  Mon Jan  9 13:58:13  2023
--------------------------------------------------------------------------------
Index   v-sweep         rds             
--------------------------------------------------------------------------------
0	0.000000e+00	2.424083e+04	
1	5.000000e-02	2.524804e+04	
2	1.000000e-01	2.633802e+04	
3	1.500000e-01	2.752139e+04	
4	2.000000e-01	2.881071e+04	
5	2.500000e-01	3.022086e+04	
6	3.000000e-01	3.176964e+04	
7	3.500000e-01	3.347854e+04	
8	4.000000e-01	3.537375e+04	
9	4.500000e-01	3.748746e+04	
10	5.000000e-01	3.985977e+04	
11	5.500000e-01	4.254118e+04	
12	6.000000e-01	4.559629e+04	
13	6.500000e-01	4.910901e+04	
14	7.000000e-01	5.319041e+04	
15	7.500000e-01	5.799058e+04	
16	8.000000e-01	6.371749e+04	
17	8.500000e-01	7.066762e+04	
18	9.000000e-01	7.927857e+04	
19	9.500000e-01	9.022350e+04	
20	1.000000e+00	1.045920e+05	
21	1.050000e+00	1.242624e+05	
22	1.100000e+00	1.527341e+05	
23	1.150000e+00	1.971535e+05	
24	1.200000e+00	2.734445e+05	
25	1.250000e+00	4.173011e+05	
26	1.300000e+00	6.902678e+05	
27	1.350000e+00	1.136486e+06	
28	1.400000e+00	1.726007e+06	
29	1.450000e+00	2.391493e+06	
30	1.500000e+00	3.081345e+06	
31	1.550000e+00	3.767454e+06	
32	1.600000e+00	4.436438e+06	
33	1.650000e+00	5.082463e+06	
34	1.700000e+00	5.703382e+06	
35	1.750000e+00	6.298844e+06	
36	1.800000e+00	6.869369e+06	
37	1.850000e+00	7.415890e+06	
38	1.900000e+00	7.939521e+06	
39	1.950000e+00	8.441436e+06	
40	2.000000e+00	8.922804e+06	
41	2.050000e+00	9.384757e+06	
42	2.100000e+00	9.828374e+06	
43	2.150000e+00	1.025468e+07	
44	2.200000e+00	1.066462e+07	
45	2.250000e+00	1.105910e+07	
46	2.300000e+00	1.143896e+07	
47	2.350000e+00	1.180498e+07	
48	2.400000e+00	1.215789e+07	
49	2.450000e+00	1.249838e+07	
50	2.500000e+00	1.282707e+07	
51	2.550000e+00	1.314457e+07	
52	2.600000e+00	1.345144e+07	
53	2.650000e+00	1.374818e+07	
54	2.700000e+00	1.403528e+07	

Index   v-sweep         rds             
--------------------------------------------------------------------------------
55	2.750000e+00	1.431318e+07	
56	2.800000e+00	1.458230e+07	
57	2.850000e+00	1.484297e+07	
58	2.900000e+00	1.509552e+07	
59	2.950000e+00	1.534019e+07	
60	3.000000e+00	1.557713e+07	
61	3.050000e+00	1.580641e+07	
62	3.100000e+00	1.602796e+07	
63	3.150000e+00	1.624155e+07	
64	3.200000e+00	1.644674e+07	
65	3.250000e+00	1.664285e+07	
66	3.300000e+00	1.682891e+07	
Reset re-loads circuit ***************************

Circuit: ***************************

Doing analysis at TEMP = 25.000000 and TNOM = 25.000000


No. of Data Rows : 67
                          ***************************
                          DC transfer characteristic  Mon Jan  9 13:58:13  2023
--------------------------------------------------------------------------------
Index   v-sweep         rds             
--------------------------------------------------------------------------------
0	0.000000e+00	2.016179e+04	
1	5.000000e-02	2.078390e+04	
2	1.000000e-01	2.144309e+04	
3	1.500000e-01	2.214276e+04	
4	2.000000e-01	2.288676e+04	
5	2.500000e-01	2.367944e+04	
6	3.000000e-01	2.452573e+04	
7	3.500000e-01	2.543126e+04	
8	4.000000e-01	2.640247e+04	
9	4.500000e-01	2.744677e+04	
10	5.000000e-01	2.857273e+04	
11	5.500000e-01	2.979031e+04	
12	6.000000e-01	3.111117e+04	
13	6.500000e-01	3.254901e+04	
14	7.000000e-01	3.412008e+04	
15	7.500000e-01	3.584381e+04	
16	8.000000e-01	3.774357e+04	
17	8.500000e-01	3.984775e+04	
18	9.000000e-01	4.219122e+04	
19	9.500000e-01	4.481724e+04	
20	1.000000e+00	4.778016e+04	
21	1.050000e+00	5.114923e+04	
22	1.100000e+00	5.501404e+04	
23	1.150000e+00	5.949265e+04	
24	1.200000e+00	6.474374e+04	
25	1.250000e+00	7.098582e+04	
26	1.300000e+00	7.852810e+04	
27	1.350000e+00	8.782287e+04	
28	1.400000e+00	9.955808e+04	
29	1.450000e+00	1.148308e+05	
30	1.500000e+00	1.354923e+05	
31	1.550000e+00	1.648786e+05	
32	1.600000e+00	2.094068e+05	
33	1.650000e+00	2.818099e+05	
34	1.700000e+00	4.050980e+05	
35	1.750000e+00	6.077132e+05	
36	1.800000e+00	9.007377e+05	
37	1.850000e+00	1.265965e+06	
38	1.900000e+00	1.674041e+06	
39	1.950000e+00	2.101469e+06	
40	2.000000e+00	2.533605e+06	
41	2.050000e+00	2.962151e+06	
42	2.100000e+00	3.382597e+06	
43	2.150000e+00	3.792573e+06	
44	2.200000e+00	4.190921e+06	
45	2.250000e+00	4.577170e+06	
46	2.300000e+00	4.951248e+06	
47	2.350000e+00	5.313313e+06	
48	2.400000e+00	5.663658e+06	
49	2.450000e+00	6.002647e+06	
50	2.500000e+00	6.330685e+06	
51	2.550000e+00	6.648193e+06	
52	2.600000e+00	6.955595e+06	
53	2.650000e+00	7.253308e+06	
54	2.700000e+00	7.541742e+06	

Index   v-sweep         rds             
--------------------------------------------------------------------------------
55	2.750000e+00	7.821288e+06	
56	2.800000e+00	8.092325e+06	
57	2.850000e+00	8.355214e+06	
58	2.900000e+00	8.610301e+06	
59	2.950000e+00	8.857914e+06	
60	3.000000e+00	9.098363e+06	
61	3.050000e+00	9.331946e+06	
62	3.100000e+00	9.558938e+06	
63	3.150000e+00	9.779602e+06	
64	3.200000e+00	9.994178e+06	
65	3.250000e+00	1.020288e+07	
66	3.300000e+00	1.040591e+07	
Reset re-loads circuit ***************************

Circuit: ***************************

Doing analysis at TEMP = 25.000000 and TNOM = 25.000000


No. of Data Rows : 67
                          ***************************
                          DC transfer characteristic  Mon Jan  9 13:58:13  2023
--------------------------------------------------------------------------------
Index   v-sweep         rds             
--------------------------------------------------------------------------------
0	0.000000e+00	1.794855e+04	
1	5.000000e-02	1.838361e+04	
2	1.000000e-01	1.883866e+04	
3	1.500000e-01	1.931513e+04	
4	2.000000e-01	1.981456e+04	
5	2.500000e-01	2.033865e+04	
6	3.000000e-01	2.088927e+04	
7	3.500000e-01	2.146848e+04	
8	4.000000e-01	2.207857e+04	
9	4.500000e-01	2.272207e+04	
10	5.000000e-01	2.340181e+04	
11	5.500000e-01	2.412092e+04	
12	6.000000e-01	2.488292e+04	
13	6.500000e-01	2.569178e+04	
14	7.000000e-01	2.655195e+04	
15	7.500000e-01	2.746846e+04	
16	8.000000e-01	2.844704e+04	
17	8.500000e-01	2.949420e+04	
18	9.000000e-01	3.061742e+04	
19	9.500000e-01	3.182528e+04	
20	1.000000e+00	3.312774e+04	
21	1.050000e+00	3.453634e+04	
22	1.100000e+00	3.606460e+04	
23	1.150000e+00	3.772846e+04	
24	1.200000e+00	3.954677e+04	
25	1.250000e+00	4.154211e+04	
26	1.300000e+00	4.374161e+04	
27	1.350000e+00	4.617833e+04	
28	1.400000e+00	4.889279e+04	
29	1.450000e+00	5.193537e+04	
30	1.500000e+00	5.536938e+04	
31	1.550000e+00	5.927556e+04	
32	1.600000e+00	6.375849e+04	
33	1.650000e+00	6.895614e+04	
34	1.700000e+00	7.505428e+04	
35	1.750000e+00	8.230920e+04	
36	1.800000e+00	9.108458e+04	
37	1.850000e+00	1.019140e+05	
38	1.900000e+00	1.156119e+05	
39	1.950000e+00	1.334806e+05	
40	2.000000e+00	1.577150e+05	
41	2.050000e+00	1.922041e+05	
42	2.100000e+00	2.439970e+05	
43	2.150000e+00	3.250477e+05	
44	2.200000e+00	4.509300e+05	
45	2.250000e+00	6.319454e+05	
46	2.300000e+00	8.642122e+05	
47	2.350000e+00	1.133533e+06	
48	2.400000e+00	1.424910e+06	
49	2.450000e+00	1.727112e+06	
50	2.500000e+00	2.032832e+06	
51	2.550000e+00	2.337570e+06	
52	2.600000e+00	2.638615e+06	
53	2.650000e+00	2.934359e+06	
54	2.700000e+00	3.223871e+06	

Index   v-sweep         rds             
--------------------------------------------------------------------------------
55	2.750000e+00	3.506643e+06	
56	2.800000e+00	3.782429e+06	
57	2.850000e+00	4.051154e+06	
58	2.900000e+00	4.312849e+06	
59	2.950000e+00	4.567615e+06	
60	3.000000e+00	4.815597e+06	
61	3.050000e+00	5.056967e+06	
62	3.100000e+00	5.291913e+06	
63	3.150000e+00	5.520632e+06	
64	3.200000e+00	5.743324e+06	
65	3.250000e+00	5.960189e+06	
66	3.300000e+00	6.171425e+06	
Reset re-loads circuit ***************************

Circuit: ***************************

Note: No ".plot", ".print", or ".fourier" lines; no simulations run
