
Note: Compatibility modes selected: hs

Warning: m=xx on .subckt line will override multiplier m hierarchy!


Circuit: ***************************

Doing analysis at TEMP = 25.000000 and TNOM = 25.000000


No. of Data Rows : 67
                          ***************************
                          DC transfer characteristic  Mon Jan  9 13:58:13  2023
--------------------------------------------------------------------------------
Index   v-sweep         rds             
--------------------------------------------------------------------------------
0	0.000000e+00	3.896729e+04	
1	5.000000e-02	6.072415e+04	
2	1.000000e-01	1.335559e+05	
3	1.500000e-01	8.789901e+05	
4	2.000000e-01	7.287473e+06	
5	2.500000e-01	1.961186e+07	
6	3.000000e-01	3.007116e+07	
7	3.500000e-01	3.713541e+07	
8	4.000000e-01	4.189689e+07	
9	4.500000e-01	4.526497e+07	
10	5.000000e-01	4.776762e+07	
11	5.500000e-01	4.970427e+07	
12	6.000000e-01	5.125172e+07	
13	6.500000e-01	5.251983e+07	
14	7.000000e-01	5.358022e+07	
15	7.500000e-01	5.448155e+07	
16	8.000000e-01	5.525813e+07	
17	8.500000e-01	5.593487e+07	
18	9.000000e-01	5.653032e+07	
19	9.500000e-01	5.705863e+07	
20	1.000000e+00	5.753077e+07	
21	1.050000e+00	5.795541e+07	
22	1.100000e+00	5.833950e+07	
23	1.150000e+00	5.868866e+07	
24	1.200000e+00	5.900752e+07	
25	1.250000e+00	5.929990e+07	
26	1.300000e+00	5.956901e+07	
27	1.350000e+00	5.981753e+07	
28	1.400000e+00	6.004778e+07	
29	1.450000e+00	6.026170e+07	
30	1.500000e+00	6.046097e+07	
31	1.550000e+00	6.064707e+07	
32	1.600000e+00	6.082125e+07	
33	1.650000e+00	6.098461e+07	
34	1.700000e+00	6.113811e+07	
35	1.750000e+00	6.128256e+07	
36	1.800000e+00	6.141870e+07	
37	1.850000e+00	6.154711e+07	
38	1.900000e+00	6.166830e+07	
39	1.950000e+00	6.178264e+07	
40	2.000000e+00	6.189041e+07	
41	2.050000e+00	6.199178e+07	
42	2.100000e+00	6.208675e+07	
43	2.150000e+00	6.217522e+07	
44	2.200000e+00	6.225691e+07	
45	2.250000e+00	6.233138e+07	
46	2.300000e+00	6.239799e+07	
47	2.350000e+00	6.245591e+07	
48	2.400000e+00	6.250409e+07	
49	2.450000e+00	6.254122e+07	
50	2.500000e+00	6.256578e+07	
51	2.550000e+00	6.257598e+07	
52	2.600000e+00	6.256976e+07	
53	2.650000e+00	6.254481e+07	
54	2.700000e+00	6.249856e+07	

Index   v-sweep         rds             
--------------------------------------------------------------------------------
55	2.750000e+00	6.242819e+07	
56	2.800000e+00	6.233068e+07	
57	2.850000e+00	6.220278e+07	
58	2.900000e+00	6.204110e+07	
59	2.950000e+00	6.184213e+07	
60	3.000000e+00	6.160229e+07	
61	3.050000e+00	6.131801e+07	
62	3.100000e+00	6.098579e+07	
63	3.150000e+00	6.060229e+07	
64	3.200000e+00	6.016441e+07	
65	3.250000e+00	5.966938e+07	
66	3.300000e+00	5.911481e+07	
Reset re-loads circuit ***************************

Circuit: ***************************

Doing analysis at TEMP = 25.000000 and TNOM = 25.000000


No. of Data Rows : 67
                          ***************************
                          DC transfer characteristic  Mon Jan  9 13:58:13  2023
--------------------------------------------------------------------------------
Index   v-sweep         rds             
--------------------------------------------------------------------------------
0	0.000000e+00	9.550243e+03	
1	5.000000e-02	1.063385e+04	
2	1.000000e-01	1.199090e+04	
3	1.500000e-01	1.373971e+04	
4	2.000000e-01	1.607821e+04	
5	2.500000e-01	1.936401e+04	
6	3.000000e-01	2.431418e+04	
7	3.500000e-01	3.259504e+04	
8	4.000000e-01	4.902445e+04	
9	4.500000e-01	9.267671e+04	
10	5.000000e-01	2.588644e+05	
11	5.500000e-01	8.245649e+05	
12	6.000000e-01	1.873617e+06	
13	6.500000e-01	3.082105e+06	
14	7.000000e-01	4.203914e+06	
15	7.500000e-01	5.172712e+06	
16	8.000000e-01	5.996554e+06	
17	8.500000e-01	6.699854e+06	
18	9.000000e-01	7.305962e+06	
19	9.500000e-01	7.833732e+06	
20	1.000000e+00	8.297759e+06	
21	1.050000e+00	8.709287e+06	
22	1.100000e+00	9.077045e+06	
23	1.150000e+00	9.407895e+06	
24	1.200000e+00	9.707305e+06	
25	1.250000e+00	9.979685e+06	
26	1.300000e+00	1.022864e+07	
27	1.350000e+00	1.045713e+07	
28	1.400000e+00	1.066765e+07	
29	1.450000e+00	1.086228e+07	
30	1.500000e+00	1.104278e+07	
31	1.550000e+00	1.121066e+07	
32	1.600000e+00	1.136723e+07	
33	1.650000e+00	1.151360e+07	
34	1.700000e+00	1.165076e+07	
35	1.750000e+00	1.177955e+07	
36	1.800000e+00	1.190073e+07	
37	1.850000e+00	1.201495e+07	
38	1.900000e+00	1.212280e+07	
39	1.950000e+00	1.222481e+07	
40	2.000000e+00	1.232142e+07	
41	2.050000e+00	1.241304e+07	
42	2.100000e+00	1.250003e+07	
43	2.150000e+00	1.258270e+07	
44	2.200000e+00	1.266130e+07	
45	2.250000e+00	1.273604e+07	
46	2.300000e+00	1.280708e+07	
47	2.350000e+00	1.287452e+07	
48	2.400000e+00	1.293839e+07	
49	2.450000e+00	1.299866e+07	
50	2.500000e+00	1.305519e+07	
51	2.550000e+00	1.310776e+07	
52	2.600000e+00	1.315607e+07	
53	2.650000e+00	1.319965e+07	
54	2.700000e+00	1.323796e+07	

Index   v-sweep         rds             
--------------------------------------------------------------------------------
55	2.750000e+00	1.327029e+07	
56	2.800000e+00	1.329578e+07	
57	2.850000e+00	1.331344e+07	
58	2.900000e+00	1.332214e+07	
59	2.950000e+00	1.332057e+07	
60	3.000000e+00	1.330731e+07	
61	3.050000e+00	1.328084e+07	
62	3.100000e+00	1.323952e+07	
63	3.150000e+00	1.318169e+07	
64	3.200000e+00	1.310567e+07	
65	3.250000e+00	1.300983e+07	
66	3.300000e+00	1.289267e+07	
Reset re-loads circuit ***************************

Circuit: ***************************

Doing analysis at TEMP = 25.000000 and TNOM = 25.000000


No. of Data Rows : 67
                          ***************************
                          DC transfer characteristic  Mon Jan  9 13:58:13  2023
--------------------------------------------------------------------------------
Index   v-sweep         rds             
--------------------------------------------------------------------------------
0	0.000000e+00	5.693042e+03	
1	5.000000e-02	6.038788e+03	
2	1.000000e-01	6.428264e+03	
3	1.500000e-01	6.870324e+03	
4	2.000000e-01	7.376386e+03	
5	2.500000e-01	7.961428e+03	
6	3.000000e-01	8.645494e+03	
7	3.500000e-01	9.456033e+03	
8	4.000000e-01	1.043166e+04	
9	4.500000e-01	1.162847e+04	
10	5.000000e-01	1.313112e+04	
11	5.500000e-01	1.507366e+04	
12	6.000000e-01	1.768122e+04	
13	6.500000e-01	2.136208e+04	
14	7.000000e-01	2.693490e+04	
15	7.500000e-01	3.627730e+04	
16	8.000000e-01	5.449833e+04	
17	8.500000e-01	9.781773e+04	
18	9.000000e-01	2.125925e+05	
19	9.500000e-01	4.610263e+05	
20	1.000000e+00	8.321110e+05	
21	1.050000e+00	1.253876e+06	
22	1.100000e+00	1.671860e+06	
23	1.150000e+00	2.062845e+06	
24	1.200000e+00	2.420726e+06	
25	1.250000e+00	2.746203e+06	
26	1.300000e+00	3.042171e+06	
27	1.350000e+00	3.311956e+06	
28	1.400000e+00	3.558697e+06	
29	1.450000e+00	3.785171e+06	
30	1.500000e+00	3.993775e+06	
31	1.550000e+00	4.186564e+06	
32	1.600000e+00	4.365295e+06	
33	1.650000e+00	4.531475e+06	
34	1.700000e+00	4.686402e+06	
35	1.750000e+00	4.831200e+06	
36	1.800000e+00	4.966847e+06	
37	1.850000e+00	5.094195e+06	
38	1.900000e+00	5.213994e+06	
39	1.950000e+00	5.326903e+06	
40	2.000000e+00	5.433508e+06	
41	2.050000e+00	5.534327e+06	
42	2.100000e+00	5.629823e+06	
43	2.150000e+00	5.720412e+06	
44	2.200000e+00	5.806463e+06	
45	2.250000e+00	5.888311e+06	
46	2.300000e+00	5.966257e+06	
47	2.350000e+00	6.040572e+06	
48	2.400000e+00	6.111496e+06	
49	2.450000e+00	6.179246e+06	
50	2.500000e+00	6.244012e+06	
51	2.550000e+00	6.305957e+06	
52	2.600000e+00	6.365212e+06	
53	2.650000e+00	6.421880e+06	
54	2.700000e+00	6.476026e+06	

Index   v-sweep         rds             
--------------------------------------------------------------------------------
55	2.750000e+00	6.527672e+06	
56	2.800000e+00	6.576791e+06	
57	2.850000e+00	6.623300e+06	
58	2.900000e+00	6.667049e+06	
59	2.950000e+00	6.707811e+06	
60	3.000000e+00	6.745277e+06	
61	3.050000e+00	6.779040e+06	
62	3.100000e+00	6.808590e+06	
63	3.150000e+00	6.833307e+06	
64	3.200000e+00	6.852455e+06	
65	3.250000e+00	6.865184e+06	
66	3.300000e+00	6.870534e+06	
Reset re-loads circuit ***************************

Circuit: ***************************

Doing analysis at TEMP = 25.000000 and TNOM = 25.000000


No. of Data Rows : 67
                          ***************************
                          DC transfer characteristic  Mon Jan  9 13:58:13  2023
--------------------------------------------------------------------------------
Index   v-sweep         rds             
--------------------------------------------------------------------------------
0	0.000000e+00	4.279168e+03	
1	5.000000e-02	4.452804e+03	
2	1.000000e-01	4.640695e+03	
3	1.500000e-01	4.844671e+03	
4	2.000000e-01	5.066891e+03	
5	2.500000e-01	5.309916e+03	
6	3.000000e-01	5.576810e+03	
7	3.500000e-01	5.871270e+03	
8	4.000000e-01	6.197798e+03	
9	4.500000e-01	6.561934e+03	
10	5.000000e-01	6.970569e+03	
11	5.500000e-01	7.432387e+03	
12	6.000000e-01	7.958489e+03	
13	6.500000e-01	8.563293e+03	
14	7.000000e-01	9.265874e+03	
15	7.500000e-01	1.009200e+04	
16	8.000000e-01	1.107737e+04	
17	8.500000e-01	1.227283e+04	
18	9.000000e-01	1.375339e+04	
19	9.500000e-01	1.563438e+04	
20	1.000000e+00	1.810232e+04	
21	1.050000e+00	2.147879e+04	
22	1.100000e+00	2.636421e+04	
23	1.150000e+00	3.399723e+04	
24	1.200000e+00	4.724111e+04	
25	1.250000e+00	7.330300e+04	
26	1.300000e+00	1.288543e+05	
27	1.350000e+00	2.373137e+05	
28	1.400000e+00	4.044027e+05	
29	1.450000e+00	6.096826e+05	
30	1.500000e+00	8.288440e+05	
31	1.550000e+00	1.046593e+06	
32	1.600000e+00	1.255655e+06	
33	1.650000e+00	1.453242e+06	
34	1.700000e+00	1.638710e+06	
35	1.750000e+00	1.812367e+06	
36	1.800000e+00	1.974909e+06	
37	1.850000e+00	2.127159e+06	
38	1.900000e+00	2.269950e+06	
39	1.950000e+00	2.404074e+06	
40	2.000000e+00	2.530259e+06	
41	2.050000e+00	2.649170e+06	
42	2.100000e+00	2.761407e+06	
43	2.150000e+00	2.867509e+06	
44	2.200000e+00	2.967964e+06	
45	2.250000e+00	3.063208e+06	
46	2.300000e+00	3.153637e+06	
47	2.350000e+00	3.239606e+06	
48	2.400000e+00	3.321437e+06	
49	2.450000e+00	3.399422e+06	
50	2.500000e+00	3.473827e+06	
51	2.550000e+00	3.544894e+06	
52	2.600000e+00	3.612841e+06	
53	2.650000e+00	3.677870e+06	
54	2.700000e+00	3.740163e+06	

Index   v-sweep         rds             
--------------------------------------------------------------------------------
55	2.750000e+00	3.799888e+06	
56	2.800000e+00	3.857196e+06	
57	2.850000e+00	3.912222e+06	
58	2.900000e+00	3.965087e+06	
59	2.950000e+00	4.015894e+06	
60	3.000000e+00	4.064727e+06	
61	3.050000e+00	4.111649e+06	
62	3.100000e+00	4.156696e+06	
63	3.150000e+00	4.199874e+06	
64	3.200000e+00	4.241150e+06	
65	3.250000e+00	4.280451e+06	
66	3.300000e+00	4.317648e+06	
Reset re-loads circuit ***************************

Circuit: ***************************

Doing analysis at TEMP = 25.000000 and TNOM = 25.000000


No. of Data Rows : 67
                          ***************************
                          DC transfer characteristic  Mon Jan  9 13:58:13  2023
--------------------------------------------------------------------------------
Index   v-sweep         rds             
--------------------------------------------------------------------------------
0	0.000000e+00	3.593754e+03	
1	5.000000e-02	3.701231e+03	
2	1.000000e-01	3.815097e+03	
3	1.500000e-01	3.935936e+03	
4	2.000000e-01	4.064411e+03	
5	2.500000e-01	4.201267e+03	
6	3.000000e-01	4.347353e+03	
7	3.500000e-01	4.503635e+03	
8	4.000000e-01	4.671218e+03	
9	4.500000e-01	4.851374e+03	
10	5.000000e-01	5.045572e+03	
11	5.500000e-01	5.255520e+03	
12	6.000000e-01	5.483215e+03	
13	6.500000e-01	5.731006e+03	
14	7.000000e-01	6.001674e+03	
15	7.500000e-01	6.298542e+03	
16	8.000000e-01	6.625605e+03	
17	8.500000e-01	6.987715e+03	
18	9.000000e-01	7.390823e+03	
19	9.500000e-01	7.842305e+03	
20	1.000000e+00	8.351422e+03	
21	1.050000e+00	8.929954e+03	
22	1.100000e+00	9.593127e+03	
23	1.150000e+00	1.036096e+04	
24	1.200000e+00	1.126033e+04	
25	1.250000e+00	1.232812e+04	
26	1.300000e+00	1.361643e+04	
27	1.350000e+00	1.520113e+04	
28	1.400000e+00	1.719717e+04	
29	1.450000e+00	1.978684e+04	
30	1.500000e+00	2.327610e+04	
31	1.550000e+00	2.821455e+04	
32	1.600000e+00	3.567028e+04	
33	1.650000e+00	4.788331e+04	
34	1.700000e+00	6.967807e+04	
35	1.750000e+00	1.101173e+05	
36	1.800000e+00	1.797292e+05	
37	1.850000e+00	2.808076e+05	
38	1.900000e+00	4.046939e+05	
39	1.950000e+00	5.399639e+05	
40	2.000000e+00	6.782289e+05	
41	2.050000e+00	8.146470e+05	
42	2.100000e+00	9.467560e+05	
43	2.150000e+00	1.073443e+06	
44	2.200000e+00	1.194317e+06	
45	2.250000e+00	1.309357e+06	
46	2.300000e+00	1.418736e+06	
47	2.350000e+00	1.522711e+06	
48	2.400000e+00	1.621582e+06	
49	2.450000e+00	1.715655e+06	
50	2.500000e+00	1.805230e+06	
51	2.550000e+00	1.890597e+06	
52	2.600000e+00	1.972026e+06	
53	2.650000e+00	2.049771e+06	
54	2.700000e+00	2.124067e+06	

Index   v-sweep         rds             
--------------------------------------------------------------------------------
55	2.750000e+00	2.195131e+06	
56	2.800000e+00	2.263166e+06	
57	2.850000e+00	2.328356e+06	
58	2.900000e+00	2.390875e+06	
59	2.950000e+00	2.450880e+06	
60	3.000000e+00	2.508518e+06	
61	3.050000e+00	2.563926e+06	
62	3.100000e+00	2.617229e+06	
63	3.150000e+00	2.668542e+06	
64	3.200000e+00	2.717973e+06	
65	3.250000e+00	2.765617e+06	
66	3.300000e+00	2.811564e+06	
Reset re-loads circuit ***************************

Circuit: ***************************

Doing analysis at TEMP = 25.000000 and TNOM = 25.000000


No. of Data Rows : 67
                          ***************************
                          DC transfer characteristic  Mon Jan  9 13:58:13  2023
--------------------------------------------------------------------------------
Index   v-sweep         rds             
--------------------------------------------------------------------------------
0	0.000000e+00	3.218592e+03	
1	5.000000e-02	3.293461e+03	
2	1.000000e-01	3.371746e+03	
3	1.500000e-01	3.453686e+03	
4	2.000000e-01	3.539544e+03	
5	2.500000e-01	3.629606e+03	
6	3.000000e-01	3.724189e+03	
7	3.500000e-01	3.823643e+03	
8	4.000000e-01	3.928353e+03	
9	4.500000e-01	4.038747e+03	
10	5.000000e-01	4.155301e+03	
11	5.500000e-01	4.278545e+03	
12	6.000000e-01	4.409072e+03	
13	6.500000e-01	4.547546e+03	
14	7.000000e-01	4.694717e+03	
15	7.500000e-01	4.851429e+03	
16	8.000000e-01	5.018641e+03	
17	8.500000e-01	5.197445e+03	
18	9.000000e-01	5.389090e+03	
19	9.500000e-01	5.595008e+03	
20	1.000000e+00	5.816858e+03	
21	1.050000e+00	6.056560e+03	
22	1.100000e+00	6.316360e+03	
23	1.150000e+00	6.598896e+03	
24	1.200000e+00	6.907287e+03	
25	1.250000e+00	7.245252e+03	
26	1.300000e+00	7.617258e+03	
27	1.350000e+00	8.028718e+03	
28	1.400000e+00	8.486259e+03	
29	1.450000e+00	8.998078e+03	
30	1.500000e+00	9.574436e+03	
31	1.550000e+00	1.022835e+04	
32	1.600000e+00	1.097660e+04	
33	1.650000e+00	1.184116e+04	
34	1.700000e+00	1.285139e+04	
35	1.750000e+00	1.404741e+04	
36	1.800000e+00	1.548550e+04	
37	1.850000e+00	1.724705e+04	
38	1.900000e+00	1.945412e+04	
39	1.950000e+00	2.229782e+04	
40	2.000000e+00	2.609291e+04	
41	2.050000e+00	3.138878e+04	
42	2.100000e+00	3.920327e+04	
43	2.150000e+00	5.150058e+04	
44	2.200000e+00	7.195665e+04	
45	2.250000e+00	1.061941e+05	
46	2.300000e+00	1.592575e+05	
47	2.350000e+00	2.312649e+05	
48	2.400000e+00	3.173023e+05	
49	2.450000e+00	4.112461e+05	
50	2.500000e+00	5.083225e+05	
51	2.550000e+00	6.054832e+05	
52	2.600000e+00	7.009634e+05	
53	2.650000e+00	7.938054e+05	
54	2.700000e+00	8.835296e+05	

Index   v-sweep         rds             
--------------------------------------------------------------------------------
55	2.750000e+00	9.699340e+05	
56	2.800000e+00	1.052976e+06	
57	2.850000e+00	1.132703e+06	
58	2.900000e+00	1.209214e+06	
59	2.950000e+00	1.282635e+06	
60	3.000000e+00	1.353104e+06	
61	3.050000e+00	1.420764e+06	
62	3.100000e+00	1.485755e+06	
63	3.150000e+00	1.548216e+06	
64	3.200000e+00	1.608279e+06	
65	3.250000e+00	1.666069e+06	
66	3.300000e+00	1.721707e+06	
Reset re-loads circuit ***************************

Circuit: ***************************

Note: No ".plot", ".print", or ".fourier" lines; no simulations run
