
Note: Compatibility modes selected: hs

Warning: m=xx on .subckt line will override multiplier m hierarchy!


Circuit: ***************************

Doing analysis at TEMP = 25.000000 and TNOM = 25.000000


No. of Data Rows : 67
                          ***************************
                          DC transfer characteristic  Mon Jan  9 13:58:13  2023
--------------------------------------------------------------------------------
Index   v-sweep         rds             
--------------------------------------------------------------------------------
0	0.000000e+00	2.471195e+04	
1	5.000000e-02	3.397676e+04	
2	1.000000e-01	5.096018e+04	
3	1.500000e-01	8.593425e+04	
4	2.000000e-01	1.540040e+05	
5	2.500000e-01	2.464600e+05	
6	3.000000e-01	3.309341e+05	
7	3.500000e-01	3.944351e+05	
8	4.000000e-01	4.400211e+05	
9	4.500000e-01	4.729830e+05	
10	5.000000e-01	4.972656e+05	
11	5.500000e-01	5.154718e+05	
12	6.000000e-01	5.293076e+05	
13	6.500000e-01	5.399160e+05	
14	7.000000e-01	5.480851e+05	
15	7.500000e-01	5.543732e+05	
16	8.000000e-01	5.591856e+05	
17	8.500000e-01	5.628234e+05	
18	9.000000e-01	5.655145e+05	
19	9.500000e-01	5.674342e+05	
20	1.000000e+00	5.687196e+05	
21	1.050000e+00	5.694793e+05	
22	1.100000e+00	5.698001e+05	
23	1.150000e+00	5.697525e+05	
24	1.200000e+00	5.693940e+05	
25	1.250000e+00	5.687720e+05	
26	1.300000e+00	5.679259e+05	
27	1.350000e+00	5.668886e+05	
28	1.400000e+00	5.656878e+05	
29	1.450000e+00	5.643471e+05	
30	1.500000e+00	5.628863e+05	
31	1.550000e+00	5.613227e+05	
32	1.600000e+00	5.596707e+05	
33	1.650000e+00	5.579430e+05	
34	1.700000e+00	5.561506e+05	
35	1.750000e+00	5.543026e+05	
36	1.800000e+00	5.524071e+05	
37	1.850000e+00	5.504709e+05	
38	1.900000e+00	5.484996e+05	
39	1.950000e+00	5.464978e+05	
40	2.000000e+00	5.444690e+05	
41	2.050000e+00	5.424154e+05	
42	2.100000e+00	5.403382e+05	
43	2.150000e+00	5.382371e+05	
44	2.200000e+00	5.361106e+05	
45	2.250000e+00	5.339553e+05	
46	2.300000e+00	5.317664e+05	
47	2.350000e+00	5.295369e+05	
48	2.400000e+00	5.272578e+05	
49	2.450000e+00	5.249177e+05	
50	2.500000e+00	5.225028e+05	
51	2.550000e+00	5.199967e+05	
52	2.600000e+00	5.173803e+05	
53	2.650000e+00	5.146315e+05	
54	2.700000e+00	5.117256e+05	

Index   v-sweep         rds             
--------------------------------------------------------------------------------
55	2.750000e+00	5.086351e+05	
56	2.800000e+00	5.053298e+05	
57	2.850000e+00	5.017772e+05	
58	2.900000e+00	4.979428e+05	
59	2.950000e+00	4.937905e+05	
60	3.000000e+00	4.892835e+05	
61	3.050000e+00	4.843847e+05	
62	3.100000e+00	4.790578e+05	
63	3.150000e+00	4.732684e+05	
64	3.200000e+00	4.669848e+05	
65	3.250000e+00	4.601796e+05	
66	3.300000e+00	4.528304e+05	
Reset re-loads circuit ***************************

Circuit: ***************************

Doing analysis at TEMP = 25.000000 and TNOM = 25.000000


No. of Data Rows : 67
                          ***************************
                          DC transfer characteristic  Mon Jan  9 13:58:13  2023
--------------------------------------------------------------------------------
Index   v-sweep         rds             
--------------------------------------------------------------------------------
0	0.000000e+00	7.355725e+03	
1	5.000000e-02	8.280235e+03	
2	1.000000e-01	9.385413e+03	
3	1.500000e-01	1.072821e+04	
4	2.000000e-01	1.239213e+04	
5	2.500000e-01	1.450425e+04	
6	3.000000e-01	1.726584e+04	
7	3.500000e-01	2.100644e+04	
8	4.000000e-01	2.626193e+04	
9	4.500000e-01	3.379812e+04	
10	5.000000e-01	4.430751e+04	
11	5.500000e-01	5.769486e+04	
12	6.000000e-01	7.284466e+04	
13	6.500000e-01	8.835974e+04	
14	7.000000e-01	1.032450e+05	
15	7.500000e-01	1.170058e+05	
16	8.000000e-01	1.294829e+05	
17	8.500000e-01	1.406923e+05	
18	9.000000e-01	1.507270e+05	
19	9.500000e-01	1.597062e+05	
20	1.000000e+00	1.677511e+05	
21	1.050000e+00	1.749745e+05	
22	1.100000e+00	1.814775e+05	
23	1.150000e+00	1.873483e+05	
24	1.200000e+00	1.926636e+05	
25	1.250000e+00	1.974894e+05	
26	1.300000e+00	2.018829e+05	
27	1.350000e+00	2.058929e+05	
28	1.400000e+00	2.095620e+05	
29	1.450000e+00	2.129269e+05	
30	1.500000e+00	2.160195e+05	
31	1.550000e+00	2.188675e+05	
32	1.600000e+00	2.214953e+05	
33	1.650000e+00	2.239243e+05	
34	1.700000e+00	2.261730e+05	
35	1.750000e+00	2.282582e+05	
36	1.800000e+00	2.301944e+05	
37	1.850000e+00	2.319946e+05	
38	1.900000e+00	2.336704e+05	
39	1.950000e+00	2.352321e+05	
40	2.000000e+00	2.366888e+05	
41	2.050000e+00	2.380487e+05	
42	2.100000e+00	2.393187e+05	
43	2.150000e+00	2.405051e+05	
44	2.200000e+00	2.416132e+05	
45	2.250000e+00	2.426470e+05	
46	2.300000e+00	2.436097e+05	
47	2.350000e+00	2.445033e+05	
48	2.400000e+00	2.453283e+05	
49	2.450000e+00	2.460838e+05	
50	2.500000e+00	2.467672e+05	
51	2.550000e+00	2.473738e+05	
52	2.600000e+00	2.478967e+05	
53	2.650000e+00	2.483266e+05	
54	2.700000e+00	2.486514e+05	

Index   v-sweep         rds             
--------------------------------------------------------------------------------
55	2.750000e+00	2.488561e+05	
56	2.800000e+00	2.489226e+05	
57	2.850000e+00	2.488295e+05	
58	2.900000e+00	2.485522e+05	
59	2.950000e+00	2.480630e+05	
60	3.000000e+00	2.473313e+05	
61	3.050000e+00	2.463242e+05	
62	3.100000e+00	2.450070e+05	
63	3.150000e+00	2.433441e+05	
64	3.200000e+00	2.413003e+05	
65	3.250000e+00	2.388420e+05	
66	3.300000e+00	2.359390e+05	
Reset re-loads circuit ***************************

Circuit: ***************************

Doing analysis at TEMP = 25.000000 and TNOM = 25.000000


No. of Data Rows : 67
                          ***************************
                          DC transfer characteristic  Mon Jan  9 13:58:13  2023
--------------------------------------------------------------------------------
Index   v-sweep         rds             
--------------------------------------------------------------------------------
0	0.000000e+00	4.885854e+03	
1	5.000000e-02	5.293586e+03	
2	1.000000e-01	5.748142e+03	
3	1.500000e-01	6.257720e+03	
4	2.000000e-01	6.832599e+03	
5	2.500000e-01	7.485872e+03	
6	3.000000e-01	8.234538e+03	
7	3.500000e-01	9.101191e+03	
8	4.000000e-01	1.011676e+04	
9	4.500000e-01	1.132514e+04	
10	5.000000e-01	1.279141e+04	
11	5.500000e-01	1.461623e+04	
12	6.000000e-01	1.695888e+04	
13	6.500000e-01	2.006167e+04	
14	7.000000e-01	2.423634e+04	
15	7.500000e-01	2.974360e+04	
16	8.000000e-01	3.659732e+04	
17	8.500000e-01	4.450026e+04	
18	9.000000e-01	5.299630e+04	
19	9.500000e-01	6.165979e+04	
20	1.000000e+00	7.018293e+04	
21	1.050000e+00	7.837682e+04	
22	1.100000e+00	8.614146e+04	
23	1.150000e+00	9.343488e+04	
24	1.200000e+00	1.002503e+05	
25	1.250000e+00	1.066008e+05	
26	1.300000e+00	1.125102e+05	
27	1.350000e+00	1.180071e+05	
28	1.400000e+00	1.231219e+05	
29	1.450000e+00	1.278844e+05	
30	1.500000e+00	1.323233e+05	
31	1.550000e+00	1.364652e+05	
32	1.600000e+00	1.403350e+05	
33	1.650000e+00	1.439552e+05	
34	1.700000e+00	1.473463e+05	
35	1.750000e+00	1.505272e+05	
36	1.800000e+00	1.535148e+05	
37	1.850000e+00	1.563244e+05	
38	1.900000e+00	1.589700e+05	
39	1.950000e+00	1.614641e+05	
40	2.000000e+00	1.638182e+05	
41	2.050000e+00	1.660427e+05	
42	2.100000e+00	1.681470e+05	
43	2.150000e+00	1.701395e+05	
44	2.200000e+00	1.720281e+05	
45	2.250000e+00	1.738197e+05	
46	2.300000e+00	1.755204e+05	
47	2.350000e+00	1.771358e+05	
48	2.400000e+00	1.786705e+05	
49	2.450000e+00	1.801283e+05	
50	2.500000e+00	1.815121e+05	
51	2.550000e+00	1.828234e+05	
52	2.600000e+00	1.840628e+05	
53	2.650000e+00	1.852291e+05	
54	2.700000e+00	1.863193e+05	

Index   v-sweep         rds             
--------------------------------------------------------------------------------
55	2.750000e+00	1.873284e+05	
56	2.800000e+00	1.882489e+05	
57	2.850000e+00	1.890705e+05	
58	2.900000e+00	1.897801e+05	
59	2.950000e+00	1.903610e+05	
60	3.000000e+00	1.907930e+05	
61	3.050000e+00	1.910522e+05	
62	3.100000e+00	1.911111e+05	
63	3.150000e+00	1.909387e+05	
64	3.200000e+00	1.905010e+05	
65	3.250000e+00	1.897617e+05	
66	3.300000e+00	1.886830e+05	
Reset re-loads circuit ***************************

Circuit: ***************************

Doing analysis at TEMP = 25.000000 and TNOM = 25.000000


No. of Data Rows : 67
                          ***************************
                          DC transfer characteristic  Mon Jan  9 13:58:13  2023
--------------------------------------------------------------------------------
Index   v-sweep         rds             
--------------------------------------------------------------------------------
0	0.000000e+00	3.795290e+03	
1	5.000000e-02	4.034023e+03	
2	1.000000e-01	4.291961e+03	
3	1.500000e-01	4.571369e+03	
4	2.000000e-01	4.874893e+03	
5	2.500000e-01	5.205655e+03	
6	3.000000e-01	5.567362e+03	
7	3.500000e-01	5.964475e+03	
8	4.000000e-01	6.402428e+03	
9	4.500000e-01	6.887951e+03	
10	5.000000e-01	7.429559e+03	
11	5.500000e-01	8.038322e+03	
12	6.000000e-01	8.729122e+03	
13	6.500000e-01	9.522812e+03	
14	7.000000e-01	1.044997e+04	
15	7.500000e-01	1.155740e+04	
16	8.000000e-01	1.291837e+04	
17	8.500000e-01	1.464544e+04	
18	9.000000e-01	1.689587e+04	
19	9.500000e-01	1.984666e+04	
20	1.000000e+00	2.362397e+04	
21	1.050000e+00	2.822575e+04	
22	1.100000e+00	3.351044e+04	
23	1.150000e+00	3.925935e+04	
24	1.200000e+00	4.525125e+04	
25	1.250000e+00	5.130485e+04	
26	1.300000e+00	5.728917e+04	
27	1.350000e+00	6.311755e+04	
28	1.400000e+00	6.873701e+04	
29	1.450000e+00	7.411838e+04	
30	1.500000e+00	7.924855e+04	
31	1.550000e+00	8.412493e+04	
32	1.600000e+00	8.875161e+04	
33	1.650000e+00	9.313677e+04	
34	1.700000e+00	9.729095e+04	
35	1.750000e+00	1.012259e+05	
36	1.800000e+00	1.049538e+05	
37	1.850000e+00	1.084870e+05	
38	1.900000e+00	1.118373e+05	
39	1.950000e+00	1.150162e+05	
40	2.000000e+00	1.180345e+05	
41	2.050000e+00	1.209025e+05	
42	2.100000e+00	1.236297e+05	
43	2.150000e+00	1.262251e+05	
44	2.200000e+00	1.286970e+05	
45	2.250000e+00	1.310531e+05	
46	2.300000e+00	1.333005e+05	
47	2.350000e+00	1.354460e+05	
48	2.400000e+00	1.374955e+05	
49	2.450000e+00	1.394547e+05	
50	2.500000e+00	1.413286e+05	
51	2.550000e+00	1.431218e+05	
52	2.600000e+00	1.448380e+05	
53	2.650000e+00	1.464806e+05	
54	2.700000e+00	1.480517e+05	

Index   v-sweep         rds             
--------------------------------------------------------------------------------
55	2.750000e+00	1.495529e+05	
56	2.800000e+00	1.509842e+05	
57	2.850000e+00	1.523443e+05	
58	2.900000e+00	1.536300e+05	
59	2.950000e+00	1.548362e+05	
60	3.000000e+00	1.559550e+05	
61	3.050000e+00	1.569760e+05	
62	3.100000e+00	1.578851e+05	
63	3.150000e+00	1.586648e+05	
64	3.200000e+00	1.592939e+05	
65	3.250000e+00	1.597468e+05	
66	3.300000e+00	1.599941e+05	
Reset re-loads circuit ***************************

Circuit: ***************************

Doing analysis at TEMP = 25.000000 and TNOM = 25.000000


No. of Data Rows : 67
                          ***************************
                          DC transfer characteristic  Mon Jan  9 13:58:13  2023
--------------------------------------------------------------------------------
Index   v-sweep         rds             
--------------------------------------------------------------------------------
0	0.000000e+00	3.328749e+03	
1	5.000000e-02	3.502488e+03	
2	1.000000e-01	3.687404e+03	
3	1.500000e-01	3.884523e+03	
4	2.000000e-01	4.095010e+03	
5	2.500000e-01	4.320187e+03	
6	3.000000e-01	4.561567e+03	
7	3.500000e-01	4.820886e+03	
8	4.000000e-01	5.100162e+03	
9	4.500000e-01	5.401751e+03	
10	5.000000e-01	5.728441e+03	
11	5.500000e-01	6.083574e+03	
12	6.000000e-01	6.471227e+03	
13	6.500000e-01	6.896484e+03	
14	7.000000e-01	7.365862e+03	
15	7.500000e-01	7.888000e+03	
16	8.000000e-01	8.474810e+03	
17	8.500000e-01	9.143425e+03	
18	9.000000e-01	9.919469e+03	
19	9.500000e-01	1.084229e+04	
20	1.000000e+00	1.197225e+04	
21	1.050000e+00	1.339789e+04	
22	1.100000e+00	1.523493e+04	
23	1.150000e+00	1.760486e+04	
24	1.200000e+00	2.059033e+04	
25	1.250000e+00	2.419292e+04	
26	1.300000e+00	2.832815e+04	
27	1.350000e+00	3.285896e+04	
28	1.400000e+00	3.763808e+04	
29	1.450000e+00	4.253589e+04	
30	1.500000e+00	4.745097e+04	
31	1.550000e+00	5.230977e+04	
32	1.600000e+00	5.706195e+04	
33	1.650000e+00	6.167491e+04	
34	1.700000e+00	6.612897e+04	
35	1.750000e+00	7.041361e+04	
36	1.800000e+00	7.452466e+04	
37	1.850000e+00	7.846230e+04	
38	1.900000e+00	8.222954e+04	
39	1.950000e+00	8.583129e+04	
40	2.000000e+00	8.927362e+04	
41	2.050000e+00	9.256323e+04	
42	2.100000e+00	9.570715e+04	
43	2.150000e+00	9.871252e+04	
44	2.200000e+00	1.015864e+05	
45	2.250000e+00	1.043355e+05	
46	2.300000e+00	1.069667e+05	
47	2.350000e+00	1.094861e+05	
48	2.400000e+00	1.118997e+05	
49	2.450000e+00	1.142134e+05	
50	2.500000e+00	1.164324e+05	
51	2.550000e+00	1.185618e+05	
52	2.600000e+00	1.206062e+05	
53	2.650000e+00	1.225700e+05	
54	2.700000e+00	1.244570e+05	

Index   v-sweep         rds             
--------------------------------------------------------------------------------
55	2.750000e+00	1.262708e+05	
56	2.800000e+00	1.280142e+05	
57	2.850000e+00	1.296896e+05	
58	2.900000e+00	1.312983e+05	
59	2.950000e+00	1.328408e+05	
60	3.000000e+00	1.343162e+05	
61	3.050000e+00	1.357220e+05	
62	3.100000e+00	1.370540e+05	
63	3.150000e+00	1.383053e+05	
64	3.200000e+00	1.394666e+05	
65	3.250000e+00	1.405253e+05	
66	3.300000e+00	1.414651e+05	
Reset re-loads circuit ***************************

Circuit: ***************************

Doing analysis at TEMP = 25.000000 and TNOM = 25.000000


No. of Data Rows : 67
                          ***************************
                          DC transfer characteristic  Mon Jan  9 13:58:13  2023
--------------------------------------------------------------------------------
Index   v-sweep         rds             
--------------------------------------------------------------------------------
0	0.000000e+00	3.006809e+03	
1	5.000000e-02	3.140561e+03	
2	1.000000e-01	3.281446e+03	
3	1.500000e-01	3.429996e+03	
4	2.000000e-01	3.586802e+03	
5	2.500000e-01	3.752517e+03	
6	3.000000e-01	3.927872e+03	
7	3.500000e-01	4.113681e+03	
8	4.000000e-01	4.310861e+03	
9	4.500000e-01	4.520445e+03	
10	5.000000e-01	4.743610e+03	
11	5.500000e-01	4.981703e+03	
12	6.000000e-01	5.236280e+03	
13	6.500000e-01	5.509163e+03	
14	7.000000e-01	5.802513e+03	
15	7.500000e-01	6.118936e+03	
16	8.000000e-01	6.461653e+03	
17	8.500000e-01	6.834747e+03	
18	9.000000e-01	7.243564e+03	
19	9.500000e-01	7.695360e+03	
20	1.000000e+00	8.200366e+03	
21	1.050000e+00	8.773519e+03	
22	1.100000e+00	9.437223e+03	
23	1.150000e+00	1.022540e+04	
24	1.200000e+00	1.118849e+04	
25	1.250000e+00	1.239712e+04	
26	1.300000e+00	1.393898e+04	
27	1.350000e+00	1.590224e+04	
28	1.400000e+00	1.834659e+04	
29	1.450000e+00	2.127751e+04	
30	1.500000e+00	2.464264e+04	
31	1.550000e+00	2.835083e+04	
32	1.600000e+00	3.229836e+04	
33	1.650000e+00	3.638842e+04	
34	1.700000e+00	4.054053e+04	
35	1.750000e+00	4.469250e+04	
36	1.800000e+00	4.879863e+04	
37	1.850000e+00	5.282671e+04	
38	1.900000e+00	5.675493e+04	
39	1.950000e+00	6.056928e+04	
40	2.000000e+00	6.426147e+04	
41	2.050000e+00	6.782730e+04	
42	2.100000e+00	7.126554e+04	
43	2.150000e+00	7.457703e+04	
44	2.200000e+00	7.776402e+04	
45	2.250000e+00	8.082975e+04	
46	2.300000e+00	8.377809e+04	
47	2.350000e+00	8.661327e+04	
48	2.400000e+00	8.933975e+04	
49	2.450000e+00	9.196206e+04	
50	2.500000e+00	9.448474e+04	
51	2.550000e+00	9.691224e+04	
52	2.600000e+00	9.924889e+04	
53	2.650000e+00	1.014989e+05	
54	2.700000e+00	1.036662e+05	

Index   v-sweep         rds             
--------------------------------------------------------------------------------
55	2.750000e+00	1.057548e+05	
56	2.800000e+00	1.077681e+05	
57	2.850000e+00	1.097095e+05	
58	2.900000e+00	1.115820e+05	
59	2.950000e+00	1.133882e+05	
60	3.000000e+00	1.151304e+05	
61	3.050000e+00	1.168099e+05	
62	3.100000e+00	1.184276e+05	
63	3.150000e+00	1.199830e+05	
64	3.200000e+00	1.214745e+05	
65	3.250000e+00	1.228989e+05	
66	3.300000e+00	1.242506e+05	
Reset re-loads circuit ***************************

Circuit: ***************************

Note: No ".plot", ".print", or ".fourier" lines; no simulations run
